@<TRIPOS>MOLECULE
NONAME
41 42 1 0 0 
SMALL
USER_CHARGES


@<TRIPOS>ATOM
  1 CL       0.2640    -0.7570     2.1500 Cl    1 <1>  -0.1770 
  2 C        1.0310    -1.8420     1.0180 C.ar  1 <1>   0.1770 
  3 C        2.4080    -1.8730     0.9390 C.ar  1 <1>  -0.1500 
  4 C        0.2420    -2.6520     0.2200 C.ar  1 <1>  -0.1500 
  5 C        3.0260    -2.7340     0.0410 C.ar  1 <1>   0.1000 
  6 C        0.8540    -3.5120    -0.6770 C.ar  1 <1>  -0.1500 
  7 N        4.4090    -2.7970    -0.0720 N.pl3 1 <1>  -0.8380 
  8 C        2.2360    -3.5480    -0.7610 C.ar  1 <1>  -0.1500 
  9 C        5.1500    -3.3070     1.1210 C.3   1 <1>   0.2090 
 10 C        5.0740    -1.6070    -0.6800 C.3   1 <1>   0.2090 
 11 C        6.6470    -3.5150     0.8150 C.3   1 <1>   0.1960 
 12 C        6.5660    -1.8790    -0.9470 C.3   1 <1>   0.1960 
 13 N        7.2870    -2.2970     0.2750 N.am  1 <1>  -0.8490 
 14 S        8.9420    -2.5330     0.0080 S.o2  1 <1>   1.3330 
 15 O        9.1070    -2.9830    -1.3560 O.2   1 <1>  -0.6500 
 16 O        9.4550    -3.3330     1.0980 O.2   1 <1>  -0.6500 
 17 C        9.6070    -0.8730     0.1740 C.3   1 <1>  -0.0550 
 18 C       11.1310    -0.7960    -0.0170 C.3   1 <1>  -0.1600 
 19 C       11.6400     0.6420     0.1340 C.3   1 <1>  -0.1600 
 20 C       13.1570     0.7090    -0.0580 C.3   1 <1>  -0.2400 
 21 H        2.9950    -1.2340     1.5690 H     1 <1>   0.1500 
 22 H       -0.8280    -2.6070     0.3030 H     1 <1>   0.1500 
 23 H        0.2580    -4.1500    -1.3070 H     1 <1>   0.1500 
 24 H        2.7220    -4.2120    -1.4530 H     1 <1>   0.1500 
 25 H        4.7180    -4.2420     1.4320 H     1 <1>   0.0800 
 26 H        5.0540    -2.6070     1.9330 H     1 <1>   0.0800 
 27 H        4.9800    -0.7630    -0.0190 H     1 <1>   0.0800 
 28 H        4.5830    -1.3650    -1.6060 H     1 <1>   0.0800 
 29 H        6.7520    -4.3250     0.1120 H     1 <1>   0.0800 
 30 H        7.1360    -3.8070     1.7290 H     1 <1>   0.0800 
 31 H        7.0150    -0.9850    -1.3440 H     1 <1>   0.0800 
 32 H        6.6410    -2.6470    -1.7000 H     1 <1>   0.0800 
 33 H        9.3620    -0.5010     1.1500 H     1 <1>   0.0800 
 34 H        9.1380    -0.2340    -0.5470 H     1 <1>   0.0800 
 35 H       11.3840    -1.1700    -0.9950 H     1 <1>   0.0800 
 36 H       11.6100    -1.4280     0.7130 H     1 <1>   0.0800 
 37 H       11.3920     1.0150     1.1130 H     1 <1>   0.0800 
 38 H       11.1650     1.2760    -0.5960 H     1 <1>   0.0800 
 39 H       13.6570     0.1000     0.6760 H     1 <1>   0.0800 
 40 H       13.4980     1.7230     0.0510 H     1 <1>   0.0800 
 41 H       13.4290     0.3610    -1.0390 H     1 <1>   0.0800 
@<TRIPOS>BOND
  1   1   2  1   
  2   2   3  ar  
  3   2   4  ar  
  4   3   5  ar  
  5   3  21  1   
  6   4   6  ar  
  7   4  22  1   
  8   5   7  1   
  9   5   8  ar  
 10   6   8  ar  
 11   6  23  1   
 12   7   9  1   
 13   7  10  1   
 14   8  24  1   
 15   9  11  1   
 16   9  25  1   
 17   9  26  1   
 18  10  12  1   
 19  10  27  1   
 20  10  28  1   
 21  11  13  1   
 22  11  29  1   
 23  11  30  1   
 24  12  13  1   
 25  12  31  1   
 26  12  32  1   
 27  13  14  am  
 28  14  15  2   
 29  14  16  2   
 30  14  17  1   
 31  17  18  1   
 32  17  33  1   
 33  17  34  1   
 34  18  19  1   
 35  18  35  1   
 36  18  36  1   
 37  19  20  1   
 38  19  37  1   
 39  19  38  1   
 40  20  39  1   
 41  20  40  1   
 42  20  41  1   
@<TRIPOS>SUBSTRUCTURE
  1 ****  10 GROUP 4 **** **** 0

# MOE 2024.06 (io_trps.svl 2023.06)
