@<TRIPOS>MOLECULE
NONAME
46 47 1 0 0 
SMALL
USER_CHARGES


@<TRIPOS>ATOM
  1 O       -0.0700    -2.6500    -1.7350 O.2   1 <1>  -0.5700 
  2 C        0.0420    -2.4840    -0.5480 C.2   1 <1>   0.6590 
  3 O       -0.8330    -1.7900     0.1630 O.3   1 <1>  -0.4300 
  4 C        1.2260    -3.0530     0.2300 C.3   1 <1>  -0.0190 
  5 C       -1.9660    -1.2030    -0.4370 C.3   1 <1>   0.1200 
  6 C        2.4310    -2.0980     0.1590 C.3   1 <1>  -0.1600 
  7 C        1.6290    -4.4540    -0.2740 C.3   1 <1>  -0.1600 
  8 C       -2.7550    -0.4800     0.6500 C.3   1 <1>  -0.2400 
  9 C        3.6610    -2.6720     0.8610 C.3   1 <1>   0.3430 
 10 C        2.8690    -4.9850     0.4410 C.3   1 <1>   0.3430 
 11 N        3.9850    -4.0120     0.2880 N.4   1 <1>  -0.9590 
 12 C        5.2580    -4.5520     0.8420 C.3   1 <1>   0.4860 
 13 C        6.3890    -3.6220     0.4530 C.ar  1 <1>  -0.1440 
 14 C        6.8420    -3.5760    -0.8580 C.ar  1 <1>  -0.1500 
 15 C        6.9770    -2.8020     1.4050 C.ar  1 <1>  -0.1500 
 16 C        7.8610    -2.7100    -1.2120 C.ar  1 <1>  -0.1500 
 17 C        7.9960    -1.9380     1.0470 C.ar  1 <1>  -0.1500 
 18 C        8.4410    -1.8840    -0.2630 C.ar  1 <1>  -0.1440 
 19 C        9.5630    -0.9350    -0.6550 C.3   1 <1>  -0.0170 
 20 C       10.9220    -1.6200    -0.5050 C.3   1 <1>  -0.2400 
 21 H        0.9180    -3.1410     1.2590 H     1 <1>   0.0800 
 22 H       -2.5560    -1.9820    -0.8900 H     1 <1>   0.0800 
 23 H       -1.6340    -0.5150    -1.1970 H     1 <1>   0.0800 
 24 H        2.1710    -1.1610     0.6210 H     1 <1>   0.0800 
 25 H        2.6750    -1.8900    -0.8690 H     1 <1>   0.0800 
 26 H        1.8200    -4.4260    -1.3340 H     1 <1>   0.0800 
 27 H        0.8120    -5.1370    -0.1170 H     1 <1>   0.0800 
 28 H       -3.0720    -1.1760     1.4050 H     1 <1>   0.0800 
 29 H       -3.6270    -0.0230     0.2190 H     1 <1>   0.0800 
 30 H       -2.1520     0.2900     1.0980 H     1 <1>   0.0800 
 31 H        3.4680    -2.7620     1.9180 H     1 <1>   0.0800 
 32 H        4.4930    -1.9980     0.7250 H     1 <1>   0.0800 
 33 H        3.1450    -5.9380     0.0170 H     1 <1>   0.0800 
 34 H        2.6490    -5.1290     1.4870 H     1 <1>   0.0800 
 35 H        4.1520    -3.8640    -0.7150 H     1 <1>   0.4500 
 36 H        5.4540    -5.5320     0.4370 H     1 <1>   0.0800 
 37 H        5.1980    -4.6310     1.9150 H     1 <1>   0.0800 
 38 H        6.4190    -4.2100    -1.6170 H     1 <1>   0.1500 
 39 H        6.6570    -2.8240     2.4330 H     1 <1>   0.1500 
 40 H        8.2090    -2.6810    -2.2300 H     1 <1>   0.1500 
 41 H        8.4500    -1.3070     1.7920 H     1 <1>   0.1500 
 42 H        9.5320    -0.0570    -0.0330 H     1 <1>   0.0800 
 43 H        9.4310    -0.6150    -1.6740 H     1 <1>   0.0800 
 44 H       11.0740    -1.9270     0.5140 H     1 <1>   0.0800 
 45 H       11.7110    -0.9440    -0.7840 H     1 <1>   0.0800 
 46 H       10.9730    -2.4890    -1.1380 H     1 <1>   0.0800 
@<TRIPOS>BOND
  1   1   2  2   
  2   2   3  1   
  3   2   4  1   
  4   3   5  1   
  5   4   6  1   
  6   4   7  1   
  7   4  21  1   
  8   5   8  1   
  9   5  22  1   
 10   5  23  1   
 11   6   9  1   
 12   6  24  1   
 13   6  25  1   
 14   7  10  1   
 15   7  26  1   
 16   7  27  1   
 17   8  28  1   
 18   8  29  1   
 19   8  30  1   
 20   9  11  1   
 21   9  31  1   
 22   9  32  1   
 23  10  11  1   
 24  10  33  1   
 25  10  34  1   
 26  11  12  1   
 27  11  35  1   
 28  12  13  1   
 29  12  36  1   
 30  12  37  1   
 31  13  14  ar  
 32  13  15  ar  
 33  14  16  ar  
 34  14  38  1   
 35  15  17  ar  
 36  15  39  1   
 37  16  18  ar  
 38  16  40  1   
 39  17  18  ar  
 40  17  41  1   
 41  18  19  1   
 42  19  20  1   
 43  19  42  1   
 44  19  43  1   
 45  20  44  1   
 46  20  45  1   
 47  20  46  1   
@<TRIPOS>SUBSTRUCTURE
  1 ****   9 GROUP 4 **** **** 0

# MOE 2024.06 (io_trps.svl 2023.06)
