@<TRIPOS>MOLECULE
NONAME
35 36 1 0 0 
SMALL
USER_CHARGES


@<TRIPOS>ATOM
  1 BR      -0.3370     0.4100     1.8800 Br    1 <1>  -0.1110 
  2 C       -1.8140    -0.5420     1.0980 C.ar  1 <1>   0.1110 
  3 C       -2.5740    -1.3690     1.9010 C.ar  1 <1>  -0.1500 
  4 C       -2.0770    -0.3750    -0.2480 C.ar  1 <1>  -0.1500 
  5 C       -3.6380    -2.0500     1.3350 C.ar  1 <1>  -0.1500 
  6 C       -3.1430    -1.0600    -0.8050 C.ar  1 <1>  -0.1500 
  7 C       -3.9300    -1.8940    -0.0170 C.ar  1 <1>  -0.1430 
  8 C       -5.1050    -2.6320    -0.6330 C.3   1 <1>   0.4870 
  9 N       -6.3700    -1.9960    -0.1730 N.4   1 <1>  -0.9590 
 10 C       -7.5580    -2.8070    -0.5540 C.3   1 <1>   0.3430 
 11 C       -6.4820    -0.5810    -0.6320 C.3   1 <1>   0.3430 
 12 C       -8.8080    -2.2120     0.0900 C.3   1 <1>  -0.1600 
 13 C       -7.7080     0.0650     0.0090 C.3   1 <1>  -0.1600 
 14 C       -9.0020    -0.7250    -0.2680 C.3   1 <1>  -0.0190 
 15 C      -10.1710    -0.1330     0.5160 C.2   1 <1>   0.5690 
 16 O      -10.1290    -0.1300     1.7180 O.2   1 <1>  -0.5700 
 17 N      -11.2360     0.3780    -0.1250 N.am  1 <1>  -0.8000 
 18 H       -2.3310    -1.4750     2.9450 H     1 <1>   0.1500 
 19 H       -1.4550     0.2740    -0.8400 H     1 <1>   0.1500 
 20 H       -4.2240    -2.7020     1.9610 H     1 <1>   0.1500 
 21 H       -3.3440    -0.9350    -1.8560 H     1 <1>   0.1500 
 22 H       -5.0740    -3.6640    -0.3210 H     1 <1>   0.0800 
 23 H       -5.0380    -2.5990    -1.7080 H     1 <1>   0.0800 
 24 H       -6.3240    -1.9620     0.8540 H     1 <1>   0.4500 
 25 H       -7.4370    -3.8250    -0.2200 H     1 <1>   0.0800 
 26 H       -7.6710    -2.8110    -1.6270 H     1 <1>   0.0800 
 27 H       -6.5720    -0.5480    -1.7060 H     1 <1>   0.0800 
 28 H       -5.6020    -0.0260    -0.3470 H     1 <1>   0.0800 
 29 H       -8.7380    -2.3250     1.1590 H     1 <1>   0.0800 
 30 H       -9.6710    -2.7700    -0.2300 H     1 <1>   0.0800 
 31 H       -7.8160     1.0680    -0.3670 H     1 <1>   0.0800 
 32 H       -7.5460     0.1430     1.0710 H     1 <1>   0.0800 
 33 H       -9.2280    -0.6530    -1.3180 H     1 <1>   0.0800 
 34 H      -12.0010     0.7680     0.4300 H     1 <1>   0.3700 
 35 H      -11.3570     0.4210    -1.1370 H     1 <1>   0.3700 
@<TRIPOS>BOND
  1   1   2  1   
  2   2   3  ar  
  3   2   4  ar  
  4   3   5  ar  
  5   3  18  1   
  6   4   6  ar  
  7   4  19  1   
  8   5   7  ar  
  9   5  20  1   
 10   6   7  ar  
 11   6  21  1   
 12   7   8  1   
 13   8   9  1   
 14   8  22  1   
 15   8  23  1   
 16   9  10  1   
 17   9  11  1   
 18   9  24  1   
 19  10  12  1   
 20  10  25  1   
 21  10  26  1   
 22  11  13  1   
 23  11  27  1   
 24  11  28  1   
 25  12  14  1   
 26  12  29  1   
 27  12  30  1   
 28  13  14  1   
 29  13  31  1   
 30  13  32  1   
 31  14  15  1   
 32  14  33  1   
 33  15  16  2   
 34  15  17  am  
 35  17  34  1   
 36  17  35  1   
@<TRIPOS>SUBSTRUCTURE
  1 ****   9 GROUP 4 **** **** 0

# MOE 2024.06 (io_trps.svl 2023.06)
