@<TRIPOS>MOLECULE
NONAME
29 32 1 0 0 
SMALL
USER_CHARGES


@<TRIPOS>ATOM
  1 O       -0.2270     0.6490     2.0840 O.2   1 <1>  -0.5700 
  2 C       -0.7110     1.6630     1.5680 C.2   1 <1>   0.6160 
  3 N       -0.2880     2.9200     1.8520 N.am  1 <1>  -0.4100 
  4 C       -1.8020     1.7630     0.6860 C.2   1 <1>  -0.1240 
  5 N       -1.1520     3.8440     1.1840 N.pl3 1 <1>  -0.5200 
  6 C       -2.0360     3.1110     0.4760 C.2   1 <1>  -0.0380 
  7 C       -2.6050     0.5610     0.0570 C.3   1 <1>  -0.0220 
  8 C       -3.1940     3.6290    -0.4790 C.3   1 <1>   0.0580 
  9 C       -3.8630     1.0120    -0.8310 C.3   1 <1>   0.1000 
 10 C       -3.4650     2.4090    -1.4270 C.3   1 <1>  -0.1600 
 11 C       -4.5640     3.8770     0.3920 C.3   1 <1>   0.0210 
 12 C       -5.1500     1.2950     0.1140 C.2   1 <1>  -0.3320 
 13 C       -5.4180     2.5500     0.6290 C.2   1 <1>  -0.1810 
 14 N       -6.1130     0.4660     0.5710 N.pl3 1 <1>   0.3000 
 15 C       -6.5710     2.3410     1.3700 C.2   1 <1>   0.3510 
 16 N       -7.0060     1.1250     1.3550 N.2   1 <1>  -0.7070 
 17 O       -7.2350     3.2620     2.0650 O.3   1 <1>  -0.5120 
 18 H        0.0140     3.0740     2.8180 H     1 <1>   0.3700 
 19 H       -0.9600     4.8550     1.1080 H     1 <1>   0.4000 
 20 H       -2.9350    -0.0960     0.8420 H     1 <1>   0.0800 
 21 H       -1.9250     0.0090    -0.5660 H     1 <1>   0.0800 
 22 H       -2.8880     4.5060    -1.0220 H     1 <1>   0.0800 
 23 H       -4.0880     0.2950    -1.6030 H     1 <1>   0.0800 
 24 H       -4.3160     2.7050    -2.0160 H     1 <1>   0.0800 
 25 H       -3.6070     2.3320    -0.5430 H     1 <1>   0.0800 
 26 H       -5.1870     4.5750    -0.1370 H     1 <1>   0.0800 
 27 H       -4.3130     4.3160     1.3410 H     1 <1>   0.0800 
 28 H       -6.1950    -0.5400     0.3760 H     1 <1>   0.2700 
 29 H       -7.9820     2.7880     2.4680 H     1 <1>   0.4500 
@<TRIPOS>BOND
  1   1   2  2   
  2   2   3  am  
  3   2   4  1   
  4   3   5  1   
  5   3  18  1   
  6   4   6  2   
  7   4   7  1   
  8   5   6  1   
  9   5  19  1   
 10   6   8  1   
 11   7   9  1   
 12   7  20  1   
 13   7  21  1   
 14   8  10  1   
 15   8  11  1   
 16   8  22  1   
 17   9  10  1   
 18   9  12  1   
 19   9  23  1   
 20  10  24  1   
 21  10  25  1   
 22  11  13  1   
 23  11  26  1   
 24  11  27  1   
 25  12  13  2   
 26  12  14  1   
 27  13  15  1   
 28  14  16  1   
 29  14  28  1   
 30  15  16  2   
 31  15  17  1   
 32  17  29  1   
@<TRIPOS>SUBSTRUCTURE
  1 ****  12 GROUP 4 **** **** 0

# MOE 2024.06 (io_trps.svl 2023.06)
