@<TRIPOS>MOLECULE
NONAME
49 51 1 0 0 
SMALL
USER_CHARGES


@<TRIPOS>ATOM
  1 CL      -0.6760     0.0740     2.2990 Cl    1 <1>  -0.1770 
  2 C        0.7070    -0.7360     1.5960 C.ar  1 <1>   0.1770 
  3 C        0.5110    -1.8200     0.7440 C.ar  1 <1>   0.1170 
  4 C        1.9720    -0.2760     1.9010 C.ar  1 <1>  -0.1500 
  5 N       -0.7940    -2.2600     0.4670 N.am  1 <1>  -0.5470 
  6 C        1.6370    -2.4350     0.2090 C.ar  1 <1>  -0.1500 
  7 C        3.0740    -0.9050     1.3510 C.ar  1 <1>  -0.1500 
  8 C       -1.3350    -2.8960    -0.6120 C.2   1 <1>   0.5690 
  9 C        2.9360    -2.0020     0.4930 C.ar  1 <1>   0.0860 
 10 O       -0.7010    -3.2470    -1.5760 O.2   1 <1>  -0.5700 
 11 C       -2.8440    -3.1460    -0.5690 C.3   1 <1>   0.1710 
 12 C        4.0910    -2.6720    -0.0800 C.2   1 <1>   0.6340 
 13 N       -3.5710    -2.2480     0.3790 N.3   1 <1>  -0.8100 
 14 O        4.0170    -3.6950    -0.7270 O.2   1 <1>  -0.5700 
 15 O        5.2970    -2.1290     0.1250 O.3   1 <1>  -0.4300 
 16 C       -4.9230    -2.7770     0.6730 C.3   1 <1>   0.1100 
 17 C       -3.6990    -0.8740    -0.1740 C.3   1 <1>   0.1100 
 18 C        6.4740    -2.7120    -0.3990 C.3   1 <1>   0.0400 
 19 C       -5.7130    -1.8800     1.6490 C.3   1 <1>   0.2090 
 20 C       -4.4210     0.0820     0.7940 C.3   1 <1>   0.2090 
 21 N       -5.7520    -0.4570     1.1970 N.pl3 1 <1>  -0.8380 
 22 C       -6.8920     0.0860     0.6060 C.ar  1 <1>   0.1000 
 23 C       -7.6850    -0.6330    -0.2840 C.ar  1 <1>  -0.1500 
 24 C       -7.2560     1.3940     0.9030 C.ar  1 <1>  -0.1500 
 25 C       -8.8060    -0.0610    -0.8590 C.ar  1 <1>  -0.1500 
 26 C       -8.3750     1.9720     0.3310 C.ar  1 <1>  -0.1500 
 27 C       -9.1530     1.2440    -0.5530 C.ar  1 <1>  -0.1500 
 28 H        2.0890     0.5660     2.5610 H     1 <1>   0.1500 
 29 H       -1.5270    -1.9460     1.1160 H     1 <1>   0.3700 
 30 H        1.5110    -3.2780    -0.4480 H     1 <1>   0.1500 
 31 H        4.0580    -0.5400     1.5940 H     1 <1>   0.1500 
 32 H       -2.9810    -4.1680    -0.2660 H     1 <1>   0.0800 
 33 H       -3.2440    -3.0380    -1.5610 H     1 <1>   0.0800 
 34 H       -4.8350    -3.7570     1.1080 H     1 <1>   0.0800 
 35 H       -5.4820    -2.8700    -0.2420 H     1 <1>   0.0800 
 36 H       -4.2510    -0.9010    -1.0980 H     1 <1>   0.0800 
 37 H       -2.7230    -0.4710    -0.3850 H     1 <1>   0.0800 
 38 H        7.3130    -2.1050    -0.1100 H     1 <1>   0.0800 
 39 H        6.3950    -2.7510    -1.4710 H     1 <1>   0.0800 
 40 H        6.5780    -3.7060     0.0020 H     1 <1>   0.0800 
 41 H       -5.2450    -1.9200     2.6170 H     1 <1>   0.0800 
 42 H       -6.7160    -2.2530     1.7560 H     1 <1>   0.0800 
 43 H       -4.5450     1.0400     0.3190 H     1 <1>   0.0800 
 44 H       -3.8170     0.2230     1.6730 H     1 <1>   0.0800 
 45 H       -7.4210    -1.6410    -0.5330 H     1 <1>   0.1500 
 46 H       -6.6540     1.9510     1.5960 H     1 <1>   0.1500 
 47 H       -9.4090    -0.6290    -1.5450 H     1 <1>   0.1500 
 48 H       -8.6410     2.9850     0.5740 H     1 <1>   0.1500 
 49 H      -10.0240     1.6900    -0.9990 H     1 <1>   0.1500 
@<TRIPOS>BOND
  1   1   2  1   
  2   2   3  ar  
  3   2   4  ar  
  4   3   5  1   
  5   3   6  ar  
  6   4   7  ar  
  7   4  28  1   
  8   5   8  am  
  9   5  29  1   
 10   6   9  ar  
 11   6  30  1   
 12   7   9  ar  
 13   7  31  1   
 14   8  10  2   
 15   8  11  1   
 16   9  12  1   
 17  11  13  1   
 18  11  32  1   
 19  11  33  1   
 20  12  14  2   
 21  12  15  1   
 22  13  16  1   
 23  13  17  1   
 24  15  18  1   
 25  16  19  1   
 26  16  34  1   
 27  16  35  1   
 28  17  20  1   
 29  17  36  1   
 30  17  37  1   
 31  18  38  1   
 32  18  39  1   
 33  18  40  1   
 34  19  21  1   
 35  19  41  1   
 36  19  42  1   
 37  20  21  1   
 38  20  43  1   
 39  20  44  1   
 40  21  22  1   
 41  22  23  ar  
 42  22  24  ar  
 43  23  25  ar  
 44  23  45  1   
 45  24  26  ar  
 46  24  46  1   
 47  25  27  ar  
 48  25  47  1   
 49  26  27  ar  
 50  26  48  1   
 51  27  49  1   
@<TRIPOS>SUBSTRUCTURE
  1 ****   5 GROUP 4 **** **** 0

# MOE 2024.06 (io_trps.svl 2023.06)
