@<TRIPOS>MOLECULE
NONAME
45 46 1 0 0 
SMALL
USER_CHARGES


@<TRIPOS>ATOM
  1 S       -1.1600     1.3890     1.5120 S.3   1 <1>  -0.0800 
  2 C       -2.4280     1.3510     0.2810 C.2   1 <1>  -0.0450 
  3 C       -0.1780     2.4940     0.5760 C.2   1 <1>  -0.1100 
  4 C       -3.6030     0.5500     0.5110 C.2   1 <1>   0.7150 
  5 C       -2.0500     2.1530    -0.7500 C.2   1 <1>  -0.1500 
  6 C       -0.7890     2.7960    -0.5840 C.2   1 <1>  -0.1500 
  7 O       -3.7020    -0.1930     1.4670 O.2   1 <1>  -0.5700 
  8 N       -4.6480     0.6680    -0.3690 N.am  1 <1>  -0.5470 
  9 C       -5.9040     0.0480    -0.4070 C.ar  1 <1>   0.1170 
 10 C       -7.0060     0.7730    -0.8820 C.ar  1 <1>   0.0860 
 11 C       -6.0810    -1.2750    -0.0120 C.ar  1 <1>  -0.1500 
 12 C       -6.8410     2.1590    -1.2470 C.2   1 <1>   0.5440 
 13 C       -8.2420     0.1370    -0.9820 C.ar  1 <1>  -0.1500 
 14 C       -7.3180    -1.8840    -0.0990 C.ar  1 <1>  -0.1500 
 15 O       -6.5810     2.4370    -2.4030 O.2   1 <1>  -0.5700 
 16 N       -6.8850     3.1660    -0.3050 N.am  1 <1>  -0.6600 
 17 C       -8.4020    -1.1780    -0.5920 C.ar  1 <1>  -0.1500 
 18 C       -7.1900     2.9190     1.1360 C.3   1 <1>   0.1400 
 19 C       -6.5540     4.5740    -0.6700 C.3   1 <1>   0.1400 
 20 C       -8.7020     2.8500     1.3970 C.3   1 <1>  -0.1600 
 21 C       -5.0350     4.7940    -0.7440 C.3   1 <1>  -0.1600 
 22 C       -9.4570     4.1340     1.0260 C.3   1 <1>  -0.2400 
 23 C       -4.3040     4.5820     0.5890 C.3   1 <1>  -0.2400 
 24 H        0.7620     2.8040     0.9970 H     1 <1>   0.1500 
 25 H       -2.6230     2.3230    -1.6450 H     1 <1>   0.1500 
 26 H       -0.3950     3.4530    -1.3400 H     1 <1>   0.1500 
 27 H       -4.5490     1.4520    -1.0170 H     1 <1>   0.3700 
 28 H       -5.2430    -1.8350     0.3630 H     1 <1>   0.1500 
 29 H       -9.0810     0.6910    -1.3680 H     1 <1>   0.1500 
 30 H       -7.4370    -2.9080     0.2110 H     1 <1>   0.1500 
 31 H       -9.3650    -1.6550    -0.6690 H     1 <1>   0.1500 
 32 H       -6.7630     3.7040     1.7350 H     1 <1>   0.0800 
 33 H       -6.7320     1.9970     1.4500 H     1 <1>   0.0800 
 34 H       -6.9870     5.2510     0.0460 H     1 <1>   0.0800 
 35 H       -6.9900     4.7960    -1.6300 H     1 <1>   0.0800 
 36 H       -8.8490     2.6570     2.4450 H     1 <1>   0.0800 
 37 H       -9.1230     2.0190     0.8610 H     1 <1>   0.0800 
 38 H       -4.8620     5.8040    -1.0710 H     1 <1>   0.0800 
 39 H       -4.6230     4.1450    -1.4960 H     1 <1>   0.0800 
 40 H       -9.0410     4.9800     1.5440 H     1 <1>   0.0800 
 41 H      -10.4930     4.0420     1.2990 H     1 <1>   0.0800 
 42 H       -9.4020     4.3110    -0.0340 H     1 <1>   0.0800 
 43 H       -4.7070     5.2310     1.3460 H     1 <1>   0.0800 
 44 H       -3.2570     4.8010     0.4730 H     1 <1>   0.0800 
 45 H       -4.3990     3.5630     0.9190 H     1 <1>   0.0800 
@<TRIPOS>BOND
  1   1   2  1   
  2   1   3  1   
  3   2   4  1   
  4   2   5  2   
  5   3   6  2   
  6   3  24  1   
  7   4   7  2   
  8   4   8  am  
  9   5   6  1   
 10   5  25  1   
 11   6  26  1   
 12   8   9  1   
 13   8  27  1   
 14   9  10  ar  
 15   9  11  ar  
 16  10  12  1   
 17  10  13  ar  
 18  11  14  ar  
 19  11  28  1   
 20  12  15  2   
 21  12  16  am  
 22  13  17  ar  
 23  13  29  1   
 24  14  17  ar  
 25  14  30  1   
 26  16  18  1   
 27  16  19  1   
 28  17  31  1   
 29  18  20  1   
 30  18  32  1   
 31  18  33  1   
 32  19  21  1   
 33  19  34  1   
 34  19  35  1   
 35  20  22  1   
 36  20  36  1   
 37  20  37  1   
 38  21  23  1   
 39  21  38  1   
 40  21  39  1   
 41  22  40  1   
 42  22  41  1   
 43  22  42  1   
 44  23  43  1   
 45  23  44  1   
 46  23  45  1   
@<TRIPOS>SUBSTRUCTURE
  1 ****   8 GROUP 4 **** **** 0

# MOE 2024.06 (io_trps.svl 2023.06)
