@<TRIPOS>MOLECULE
NONAME
40 41 1 0 0 
SMALL
USER_CHARGES


@<TRIPOS>ATOM
  1 CL       0.7360     2.1090     3.7920 Cl    1 <1>  -0.1770 
  2 C        1.5930     1.6490     2.3340 C.ar  1 <1>   0.1770 
  3 C        0.9660     1.8080     1.0980 C.ar  1 <1>   0.1170 
  4 C        2.8710     1.1380     2.4570 C.ar  1 <1>  -0.1500 
  5 N       -0.3400     2.3380     1.0560 N.am  1 <1>  -0.5470 
  6 C        1.6840     1.4220    -0.0320 C.ar  1 <1>  -0.1500 
  7 C        3.5640     0.7660     1.3180 C.ar  1 <1>  -0.1500 
  8 C       -1.1450     2.7370     0.0240 C.2   1 <1>   0.5690 
  9 C        2.9660     0.9090     0.0770 C.ar  1 <1>  -0.1500 
 10 O       -0.8190     2.6850    -1.1360 O.2   1 <1>  -0.5700 
 11 C       -2.5160     3.2960     0.3750 C.3   1 <1>  -0.0190 
 12 C       -3.5940     2.6730    -0.5240 C.3   1 <1>   0.1960 
 13 C       -2.5350     4.8320     0.2680 C.3   1 <1>  -0.1600 
 14 N       -4.9240     3.2040    -0.1790 N.am  1 <1>  -0.8490 
 15 C       -3.9570     5.3610     0.4980 C.3   1 <1>  -0.1600 
 16 S       -6.1560     2.3850    -1.0090 S.o2  1 <1>   1.3330 
 17 C       -4.9670     4.6530    -0.4110 C.3   1 <1>   0.1960 
 18 O       -5.8270     0.9770    -1.0210 O.2   1 <1>  -0.6500 
 19 O       -6.3840     3.0840    -2.2540 O.2   1 <1>  -0.6500 
 20 C       -7.5790     2.6070     0.0700 C.3   1 <1>  -0.0550 
 21 C       -8.8710     1.9390    -0.4340 C.3   1 <1>  -0.2400 
 22 H        3.3170     1.0330     3.4300 H     1 <1>   0.1500 
 23 H       -0.7370     2.4810     1.9860 H     1 <1>   0.3700 
 24 H        1.2490     1.5160    -1.0100 H     1 <1>   0.1500 
 25 H        4.5610     0.3660     1.3950 H     1 <1>   0.1500 
 26 H        3.5000     0.6200    -0.8120 H     1 <1>   0.1500 
 27 H       -2.7490     3.0170     1.3860 H     1 <1>   0.0800 
 28 H       -3.5750     1.6050    -0.3830 H     1 <1>   0.0800 
 29 H       -3.3790     2.8730    -1.5630 H     1 <1>   0.0800 
 30 H       -2.2040     5.1230    -0.7160 H     1 <1>   0.0800 
 31 H       -1.8600     5.2630     0.9870 H     1 <1>   0.0800 
 32 H       -3.9840     6.4190     0.3030 H     1 <1>   0.0800 
 33 H       -4.2450     5.2090     1.5240 H     1 <1>   0.0800 
 34 H       -5.9530     5.0300    -0.2010 H     1 <1>   0.0800 
 35 H       -4.7410     4.8670    -1.4440 H     1 <1>   0.0800 
 36 H       -7.7650     3.6550     0.1940 H     1 <1>   0.0800 
 37 H       -7.3410     2.2040     1.0360 H     1 <1>   0.0800 
 38 H       -9.1450     2.3420    -1.3940 H     1 <1>   0.0800 
 39 H       -9.6750     2.1110     0.2580 H     1 <1>   0.0800 
 40 H       -8.7210     0.8780    -0.5380 H     1 <1>   0.0800 
@<TRIPOS>BOND
  1   1   2  1   
  2   2   3  ar  
  3   2   4  ar  
  4   3   5  1   
  5   3   6  ar  
  6   4   7  ar  
  7   4  22  1   
  8   5   8  am  
  9   5  23  1   
 10   6   9  ar  
 11   6  24  1   
 12   7   9  ar  
 13   7  25  1   
 14   8  10  2   
 15   8  11  1   
 16   9  26  1   
 17  11  12  1   
 18  11  13  1   
 19  11  27  1   
 20  12  14  1   
 21  12  28  1   
 22  12  29  1   
 23  13  15  1   
 24  13  30  1   
 25  13  31  1   
 26  14  16  am  
 27  14  17  1   
 28  15  17  1   
 29  15  32  1   
 30  15  33  1   
 31  16  18  2   
 32  16  19  2   
 33  16  20  1   
 34  17  34  1   
 35  17  35  1   
 36  20  21  1   
 37  20  36  1   
 38  20  37  1   
 39  21  38  1   
 40  21  39  1   
 41  21  40  1   
@<TRIPOS>SUBSTRUCTURE
  1 ****  11 GROUP 4 **** **** 0

# MOE 2024.06 (io_trps.svl 2023.06)
