@<TRIPOS>MOLECULE
NONAME
46 48 1 0 0 
SMALL
USER_CHARGES


@<TRIPOS>ATOM
  1 CL       0.4110     1.3300     0.8510 Cl    1 <1>  -0.1770 
  2 C        2.1160     1.1880     0.5030 C.ar  1 <1>   0.1770 
  3 C        2.5660     1.4010    -0.7870 C.ar  1 <1>  -0.1500 
  4 C        2.9930     0.8650     1.5210 C.ar  1 <1>  -0.1500 
  5 C        3.9180     1.2870    -1.0590 C.ar  1 <1>  -0.1500 
  6 C        4.3440     0.7540     1.2400 C.ar  1 <1>  -0.1500 
  7 C        4.8260     0.9640    -0.0510 C.ar  1 <1>   0.1170 
  8 N        6.2080     0.8490    -0.3260 N.am  1 <1>  -0.2370 
  9 C        6.9630     1.7620    -1.0110 C.2   1 <1>   0.5690 
 10 C        6.9960    -0.2070     0.0400 C.2   1 <1>   0.5690 
 11 O        6.5340     2.7060    -1.6320 O.2   1 <1>  -0.5700 
 12 C        8.4540     1.3900    -0.9780 C.3   1 <1>   0.2510 
 13 O        6.6380    -1.1890     0.6370 O.2   1 <1>  -0.5700 
 14 C        8.4210    -0.0400    -0.4210 C.3   1 <1>  -0.0990 
 15 N        9.3400     2.2290    -0.1130 N.3   1 <1>  -0.8100 
 16 C       10.7780     1.8960    -0.3250 C.3   1 <1>   0.1100 
 17 C        9.0770     3.6780    -0.1940 C.3   1 <1>   0.1100 
 18 C       11.7540     3.0280     0.0750 C.3   1 <1>  -0.0190 
 19 C        9.8260     4.4130     0.9310 C.3   1 <1>  -0.1600 
 20 C       13.1700     2.4940     0.3290 C.2   1 <1>   0.6590 
 21 C       11.1880     3.7890     1.2850 C.3   1 <1>  -0.1600 
 22 O       13.3580     1.3370     0.5960 O.2   1 <1>  -0.5700 
 23 O       14.2120     3.3190     0.2570 O.3   1 <1>  -0.4300 
 24 C       14.2180     4.6220    -0.2790 C.3   1 <1>   0.1200 
 25 C       15.6410     5.1590    -0.1780 C.3   1 <1>  -0.2400 
 26 H        1.8650     1.6520    -1.5620 H     1 <1>   0.1500 
 27 H        2.6200     0.7010     2.5160 H     1 <1>   0.1500 
 28 H        4.2710     1.4560    -2.0610 H     1 <1>   0.1500 
 29 H        5.0290     0.4970     2.0290 H     1 <1>   0.1500 
 30 H        8.8210     1.3970    -1.9900 H     1 <1>   0.0800 
 31 H        8.6260    -0.7580    -1.1930 H     1 <1>   0.0800 
 32 H        9.0860    -0.1900     0.4090 H     1 <1>   0.0800 
 33 H       10.9580     1.6470    -1.3570 H     1 <1>   0.0800 
 34 H       10.9950     1.0200     0.2620 H     1 <1>   0.0800 
 35 H        8.0290     3.8900    -0.0760 H     1 <1>   0.0800 
 36 H        9.3880     4.0470    -1.1570 H     1 <1>   0.0800 
 37 H       11.8040     3.6990    -0.7610 H     1 <1>   0.0800 
 38 H        9.2080     4.4230     1.8120 H     1 <1>   0.0800 
 39 H        9.9610     5.4360     0.6280 H     1 <1>   0.0800 
 40 H       11.8640     4.5520     1.6270 H     1 <1>   0.0800 
 41 H       11.0520     3.0880     2.0920 H     1 <1>   0.0800 
 42 H       13.5430     5.2390     0.2880 H     1 <1>   0.0800 
 43 H       13.9060     4.5730    -1.3080 H     1 <1>   0.0800 
 44 H       15.9530     5.1920     0.8510 H     1 <1>   0.0800 
 45 H       15.6870     6.1550    -0.5810 H     1 <1>   0.0800 
 46 H       16.3140     4.5320    -0.7350 H     1 <1>   0.0800 
@<TRIPOS>BOND
  1   1   2  1   
  2   2   3  ar  
  3   2   4  ar  
  4   3   5  ar  
  5   3  26  1   
  6   4   6  ar  
  7   4  27  1   
  8   5   7  ar  
  9   5  28  1   
 10   6   7  ar  
 11   6  29  1   
 12   7   8  1   
 13   8   9  am  
 14   8  10  am  
 15   9  11  2   
 16   9  12  1   
 17  10  13  2   
 18  10  14  1   
 19  12  14  1   
 20  12  15  1   
 21  12  30  1   
 22  14  31  1   
 23  14  32  1   
 24  15  16  1   
 25  15  17  1   
 26  16  18  1   
 27  16  33  1   
 28  16  34  1   
 29  17  19  1   
 30  17  35  1   
 31  17  36  1   
 32  18  20  1   
 33  18  21  1   
 34  18  37  1   
 35  19  21  1   
 36  19  38  1   
 37  19  39  1   
 38  20  22  2   
 39  20  23  1   
 40  21  40  1   
 41  21  41  1   
 42  23  24  1   
 43  24  25  1   
 44  24  42  1   
 45  24  43  1   
 46  25  44  1   
 47  25  45  1   
 48  25  46  1   
@<TRIPOS>SUBSTRUCTURE
  1 ****  12 GROUP 4 **** **** 0

# MOE 2024.06 (io_trps.svl 2023.06)
