@<TRIPOS>MOLECULE
NONAME
49 50 1 0 0 
SMALL
USER_CHARGES


@<TRIPOS>ATOM
  1 O       -2.3150    -6.3530     1.3610 O.3   1 <1>  -0.3630 
  2 C       -1.0210    -5.9790     1.2080 C.ar  1 <1>   0.0830 
  3 C       -3.0000    -6.9000     0.2480 C.3   1 <1>   0.2640 
  4 C       -0.5980    -5.0390     0.2610 C.ar  1 <1>   0.0830 
  5 C       -0.0890    -6.5590     2.0510 C.ar  1 <1>  -0.1500 
  6 C       -4.3630    -6.2350     0.1160 C.ar  1 <1>  -0.1440 
  7 O       -1.4500    -4.3990    -0.5730 O.3   1 <1>  -0.3630 
  8 C        0.7480    -4.7340     0.1470 C.ar  1 <1>  -0.1500 
  9 C        1.2540    -6.2410     1.9410 C.ar  1 <1>  -0.1500 
 10 C       -4.7430    -5.6540    -1.0850 C.ar  1 <1>  -0.1500 
 11 C       -5.2370    -6.2030     1.1910 C.ar  1 <1>  -0.1500 
 12 C       -2.3400    -3.4760     0.0230 C.3   1 <1>   0.0400 
 13 C        1.6810    -5.3330     0.9820 C.ar  1 <1>  -0.1430 
 14 C       -5.9820    -5.0500    -1.2090 C.ar  1 <1>  -0.1500 
 15 C       -6.4770    -5.5990     1.0690 C.ar  1 <1>  -0.1500 
 16 C        3.1470    -4.9980     0.8430 C.3   1 <1>   0.4860 
 17 C       -6.8510    -5.0220    -0.1320 C.ar  1 <1>  -0.1500 
 18 N        3.6920    -5.9340    -0.1670 N.4   1 <1>  -0.9060 
 19 C        5.1330    -5.8320    -0.4880 C.3   1 <1>   0.5030 
 20 C        5.4750    -6.9090    -1.5600 C.3   1 <1>   0.1200 
 21 C        5.4110    -4.4250    -1.0330 C.3   1 <1>  -0.2400 
 22 C        5.9370    -6.0760     0.7950 C.3   1 <1>  -0.2400 
 23 O        6.8230    -6.8750    -1.9060 O.3   1 <1>  -0.6800 
 24 H       -3.1180    -7.9540     0.4240 H     1 <1>   0.0800 
 25 H       -2.4150    -6.7600    -0.6430 H     1 <1>   0.0800 
 26 H       -0.4260    -7.2620     2.7930 H     1 <1>   0.1500 
 27 H        1.0370    -4.0130    -0.5980 H     1 <1>   0.1500 
 28 H        1.9510    -6.7100     2.6170 H     1 <1>   0.1500 
 29 H       -4.0750    -5.6660    -1.9280 H     1 <1>   0.1500 
 30 H       -4.9510    -6.6460     2.1300 H     1 <1>   0.1500 
 31 H       -2.9800    -3.0790    -0.7450 H     1 <1>   0.0800 
 32 H       -1.7700    -2.6840     0.4750 H     1 <1>   0.0800 
 33 H       -2.9370    -3.9730     0.7660 H     1 <1>   0.0800 
 34 H       -6.2700    -4.6010    -2.1440 H     1 <1>   0.1500 
 35 H       -7.1490    -5.5780     1.9090 H     1 <1>   0.1500 
 36 H        3.6440    -5.1240     1.7910 H     1 <1>   0.0800 
 37 H        3.2610    -3.9760     0.5190 H     1 <1>   0.0800 
 38 H       -7.8140    -4.5530    -0.2280 H     1 <1>   0.1500 
 39 H        3.1440    -5.8020    -1.0220 H     1 <1>   0.4500 
 40 H        3.4850    -6.8810     0.1620 H     1 <1>   0.4500 
 41 H        4.9100    -6.7390    -2.4600 H     1 <1>   0.0800 
 42 H        5.2670    -7.8950    -1.1840 H     1 <1>   0.0800 
 43 H        6.4460    -4.3490    -1.3200 H     1 <1>   0.0800 
 44 H        4.8180    -4.2240    -1.9070 H     1 <1>   0.0800 
 45 H        5.2380    -3.6630    -0.2950 H     1 <1>   0.0800 
 46 H        5.7150    -7.0420     1.2130 H     1 <1>   0.0800 
 47 H        5.7650    -5.3150     1.5330 H     1 <1>   0.0800 
 48 H        6.9890    -6.0570     0.5700 H     1 <1>   0.0800 
 49 H        7.0480    -7.5510    -2.5810 H     1 <1>   0.4000 
@<TRIPOS>BOND
  1   1   2  1   
  2   1   3  1   
  3   2   4  ar  
  4   2   5  ar  
  5   3   6  1   
  6   3  24  1   
  7   3  25  1   
  8   4   7  1   
  9   4   8  ar  
 10   5   9  ar  
 11   5  26  1   
 12   6  10  ar  
 13   6  11  ar  
 14   7  12  1   
 15   8  13  ar  
 16   8  27  1   
 17   9  13  ar  
 18   9  28  1   
 19  10  14  ar  
 20  10  29  1   
 21  11  15  ar  
 22  11  30  1   
 23  12  31  1   
 24  12  32  1   
 25  12  33  1   
 26  13  16  1   
 27  14  17  ar  
 28  14  34  1   
 29  15  17  ar  
 30  15  35  1   
 31  16  18  1   
 32  16  36  1   
 33  16  37  1   
 34  17  38  1   
 35  18  19  1   
 36  18  39  1   
 37  18  40  1   
 38  19  20  1   
 39  19  21  1   
 40  19  22  1   
 41  20  23  1   
 42  20  41  1   
 43  20  42  1   
 44  21  43  1   
 45  21  44  1   
 46  21  45  1   
 47  22  46  1   
 48  22  47  1   
 49  22  48  1   
 50  23  49  1   
@<TRIPOS>SUBSTRUCTURE
  1 ****   4 GROUP 4 **** **** 0

# MOE 2024.06 (io_trps.svl 2023.06)
