@<TRIPOS>MOLECULE
NONAME
37 38 1 0 0 
SMALL
USER_CHARGES


@<TRIPOS>ATOM
  1 F        0.2190    -1.0110     1.7190 F     1 <1>  -0.1900 
  2 C       -0.5410    -1.6980     0.8990 C.ar  1 <1>   0.1900 
  3 C        0.0490    -2.6660     0.0870 C.ar  1 <1>   0.1170 
  4 C       -1.8930    -1.4170     0.8850 C.ar  1 <1>  -0.1500 
  5 N        1.4380    -2.8890     0.1590 N.am  1 <1>  -0.5470 
  6 C       -0.7980    -3.3580    -0.7760 C.ar  1 <1>  -0.1500 
  7 C       -2.7100    -2.1260     0.0200 C.ar  1 <1>  -0.1500 
  8 C        2.2400    -3.9060    -0.2730 C.2   1 <1>   0.6900 
  9 C       -2.1580    -3.0930    -0.8070 C.ar  1 <1>  -0.1500 
 10 O        1.7670    -4.9120    -0.7680 O.2   1 <1>  -0.5700 
 11 N        3.5980    -3.7870    -0.1150 N.am  1 <1>  -0.6600 
 12 C        4.4720    -4.9790    -0.3390 C.3   1 <1>   0.1400 
 13 C        4.2830    -2.4830     0.1470 C.3   1 <1>   0.1400 
 14 C        5.7850    -4.8480     0.4470 C.3   1 <1>  -0.0800 
 15 C        5.6770    -2.4560    -0.4990 C.3   1 <1>  -0.0800 
 16 C        6.5770    -3.5900     0.0330 C.3   1 <1>  -0.1600 
 17 C        6.6480    -6.1070     0.2990 C.3   1 <1>  -0.2400 
 18 C        6.3530    -1.0930    -0.3030 C.3   1 <1>  -0.2400 
 19 H       -2.2960    -0.6620     1.5340 H     1 <1>   0.1500 
 20 H        1.9330    -2.2320     0.7540 H     1 <1>   0.3700 
 21 H       -0.3990    -4.1090    -1.4330 H     1 <1>   0.1500 
 22 H       -3.7680    -1.9290    -0.0110 H     1 <1>   0.1500 
 23 H       -2.7910    -3.6450    -1.4810 H     1 <1>   0.1500 
 24 H        4.6780    -5.0690    -1.3920 H     1 <1>   0.0800 
 25 H        3.9510    -5.8680    -0.0240 H     1 <1>   0.0800 
 26 H        4.3740    -2.3430     1.2100 H     1 <1>   0.0800 
 27 H        3.6970    -1.6770    -0.2590 H     1 <1>   0.0800 
 28 H        5.5190    -4.7560     1.4870 H     1 <1>   0.0800 
 29 H        5.5370    -2.6020    -1.5570 H     1 <1>   0.0800 
 30 H        7.2890    -3.8360    -0.7370 H     1 <1>   0.0800 
 31 H        7.1350    -3.2530     0.8890 H     1 <1>   0.0800 
 32 H        6.9160    -6.2650    -0.7320 H     1 <1>   0.0800 
 33 H        6.1100    -6.9710     0.6490 H     1 <1>   0.0800 
 34 H        7.5490    -6.0110     0.8790 H     1 <1>   0.0800 
 35 H        6.4910    -0.8820     0.7430 H     1 <1>   0.0800 
 36 H        5.7510    -0.3120    -0.7350 H     1 <1>   0.0800 
 37 H        7.3140    -1.0830    -0.7860 H     1 <1>   0.0800 
@<TRIPOS>BOND
  1   1   2  1   
  2   2   3  ar  
  3   2   4  ar  
  4   3   5  1   
  5   3   6  ar  
  6   4   7  ar  
  7   4  19  1   
  8   5   8  am  
  9   5  20  1   
 10   6   9  ar  
 11   6  21  1   
 12   7   9  ar  
 13   7  22  1   
 14   8  10  2   
 15   8  11  am  
 16   9  23  1   
 17  11  12  1   
 18  11  13  1   
 19  12  14  1   
 20  12  24  1   
 21  12  25  1   
 22  13  15  1   
 23  13  26  1   
 24  13  27  1   
 25  14  16  1   
 26  14  17  1   
 27  14  28  1   
 28  15  16  1   
 29  15  18  1   
 30  15  29  1   
 31  16  30  1   
 32  16  31  1   
 33  17  32  1   
 34  17  33  1   
 35  17  34  1   
 36  18  35  1   
 37  18  36  1   
 38  18  37  1   
@<TRIPOS>SUBSTRUCTURE
  1 ****   8 GROUP 4 **** **** 0

# MOE 2024.06 (io_trps.svl 2023.06)
