@<TRIPOS>MOLECULE
NONAME
26 27 1 0 0 
SMALL
USER_CHARGES


@<TRIPOS>ATOM
  1 BR       0.9940    -0.4100    -0.4360 Br    1 <1>  -0.0570 
  2 C       -0.4020    -1.7060    -0.7340 C.2   1 <1>   0.0570 
  3 C       -0.6540    -2.2860    -1.9180 C.2   1 <1>  -0.1100 
  4 C       -1.2380    -2.0940     0.3570 C.2   1 <1>  -0.1500 
  5 S       -2.0070    -3.3920    -1.7290 S.3   1 <1>  -0.0800 
  6 C       -2.1640    -3.0020    -0.0110 C.2   1 <1>  -0.1400 
  7 C       -3.2620    -3.7100     0.7530 C.3   1 <1>   0.5230 
  8 N       -4.5650    -3.3620     0.1290 N.4   1 <1>  -0.9590 
  9 C       -4.8680    -1.8910     0.2510 C.3   1 <1>   0.3430 
 10 C       -5.6940    -4.1920     0.6710 C.3   1 <1>   0.3430 
 11 C       -6.2650    -1.5560    -0.3050 C.3   1 <1>   0.1200 
 12 C       -7.0510    -3.7440     0.0930 C.3   1 <1>   0.1200 
 13 O       -7.2310    -2.3720     0.2940 O.3   1 <1>  -0.5600 
 14 H       -0.1960    -2.1900    -2.8870 H     1 <1>   0.1500 
 15 H       -1.0840    -1.6700     1.3350 H     1 <1>   0.1500 
 16 H       -3.2480    -3.4060     1.7870 H     1 <1>   0.0800 
 17 H       -3.0980    -4.7740     0.7030 H     1 <1>   0.0800 
 18 H       -4.4640    -3.5640    -0.8750 H     1 <1>   0.4500 
 19 H       -4.1270    -1.3150    -0.2800 H     1 <1>   0.0800 
 20 H       -4.8380    -1.5960     1.2860 H     1 <1>   0.0800 
 21 H       -5.7390    -4.0940     1.7430 H     1 <1>   0.0800 
 22 H       -5.5360    -5.2330     0.4380 H     1 <1>   0.0800 
 23 H       -6.3050    -1.6940    -1.3720 H     1 <1>   0.0800 
 24 H       -6.5180    -0.5340    -0.0820 H     1 <1>   0.0800 
 25 H       -7.8550    -4.2550     0.5920 H     1 <1>   0.0800 
 26 H       -7.1160    -3.9520    -0.9620 H     1 <1>   0.0800 
@<TRIPOS>BOND
  1   1   2  1   
  2   2   3  2   
  3   2   4  1   
  4   3   5  1   
  5   3  14  1   
  6   4   6  2   
  7   4  15  1   
  8   5   6  1   
  9   6   7  1   
 10   7   8  1   
 11   7  16  1   
 12   7  17  1   
 13   8   9  1   
 14   8  10  1   
 15   8  18  1   
 16   9  11  1   
 17   9  19  1   
 18   9  20  1   
 19  10  12  1   
 20  10  21  1   
 21  10  22  1   
 22  11  13  1   
 23  11  23  1   
 24  11  24  1   
 25  12  13  1   
 26  12  25  1   
 27  12  26  1   
@<TRIPOS>SUBSTRUCTURE
  1 ****   6 GROUP 4 **** **** 0

# MOE 2024.06 (io_trps.svl 2023.06)
