@<TRIPOS>MOLECULE
NONAME
49 51 1 0 0 
SMALL
USER_CHARGES


@<TRIPOS>ATOM
  1 S       -0.3620     0.9950     1.4760 S.o2  1 <1>   1.4470 
  2 O       -0.7370     1.8700     2.5660 O.2   1 <1>  -0.6500 
  3 O       -0.3890    -0.4370     1.6700 O.2   1 <1>  -0.6500 
  4 N       -1.4220     1.3300     0.1960 N.am  1 <1>  -0.8490 
  5 C        1.2570     1.4760     0.8080 C.ar  1 <1>  -0.0090 
  6 C       -1.5980     2.7800    -0.0220 C.3   1 <1>   0.1960 
  7 C       -2.7370     0.7020     0.4220 C.3   1 <1>   0.1960 
  8 C        1.9910     2.5180     1.3750 C.ar  1 <1>  -0.1500 
  9 C        1.7920     0.8150    -0.2960 C.ar  1 <1>  -0.1500 
 10 C       -2.4960     3.0580    -1.2390 C.3   1 <1>   0.1400 
 11 C       -3.6980     0.9280    -0.7610 C.3   1 <1>   0.1400 
 12 C        3.2200     2.8950     0.8600 C.ar  1 <1>  -0.1500 
 13 C        3.0200     1.1770    -0.8260 C.ar  1 <1>  -0.1500 
 14 N       -3.8190     2.3830    -1.0820 N.am  1 <1>  -0.6600 
 15 C        3.7130     2.2140    -0.2360 C.ar  1 <1>   0.1900 
 16 C       -4.9440     3.1110    -0.8000 C.2   1 <1>   0.6900 
 17 F        4.8700     2.5640    -0.7280 F     1 <1>  -0.1900 
 18 O       -4.8440     4.2540    -0.3990 O.2   1 <1>  -0.5700 
 19 N       -6.1590     2.5240    -1.0040 N.am  1 <1>  -0.5470 
 20 C       -7.4590     2.9340    -0.6740 C.ar  1 <1>   0.1170 
 21 C       -8.5280     2.4050    -1.3880 C.ar  1 <1>  -0.1500 
 22 C       -7.7290     3.8330     0.3520 C.ar  1 <1>  -0.1500 
 23 C       -9.8330     2.7600    -1.0930 C.ar  1 <1>  -0.1430 
 24 C       -9.0290     4.1980     0.6590 C.ar  1 <1>  -0.1430 
 25 C      -10.0770     3.6580    -0.0670 C.ar  1 <1>  -0.1500 
 26 C      -10.9960     2.1810    -1.8770 C.3   1 <1>  -0.0970 
 27 C       -9.3130     5.1830     1.7780 C.3   1 <1>  -0.0970 
 28 H       -0.6400     3.2410    -0.1910 H     1 <1>   0.0800 
 29 H       -2.0400     3.2400     0.8470 H     1 <1>   0.0800 
 30 H       -3.1810     1.0990     1.3210 H     1 <1>   0.0800 
 31 H       -2.6120    -0.3590     0.5580 H     1 <1>   0.0800 
 32 H        1.5950     3.0390     2.2320 H     1 <1>   0.1500 
 33 H        1.2370     0.0070    -0.7430 H     1 <1>   0.1500 
 34 H       -2.0140     2.6910    -2.1280 H     1 <1>   0.0800 
 35 H       -2.6270     4.1200    -1.3520 H     1 <1>   0.0800 
 36 H       -4.6570     0.5130    -0.5080 H     1 <1>   0.0800 
 37 H       -3.3230     0.4060    -1.6240 H     1 <1>   0.0800 
 38 H        3.7880     3.6970     1.2960 H     1 <1>   0.1500 
 39 H        3.4350     0.6660    -1.6770 H     1 <1>   0.1500 
 40 H       -6.1000     1.7200    -1.6160 H     1 <1>   0.3700 
 41 H       -8.3350     1.7100    -2.1830 H     1 <1>   0.1500 
 42 H       -6.9150     4.2480     0.9160 H     1 <1>   0.1500 
 43 H      -11.0890     3.9400     0.1680 H     1 <1>   0.1500 
 44 H      -10.6490     1.6560    -2.7490 H     1 <1>   0.0800 
 45 H      -11.6540     2.9700    -2.1940 H     1 <1>   0.0800 
 46 H      -11.5470     1.4960    -1.2580 H     1 <1>   0.0800 
 47 H       -8.4150     5.4130     2.3230 H     1 <1>   0.0800 
 48 H      -10.0310     4.7670     2.4620 H     1 <1>   0.0800 
 49 H       -9.7080     6.0950     1.3680 H     1 <1>   0.0800 
@<TRIPOS>BOND
  1   1   2  2   
  2   1   3  2   
  3   1   4  am  
  4   1   5  1   
  5   4   6  1   
  6   4   7  1   
  7   5   8  ar  
  8   5   9  ar  
  9   6  10  1   
 10   6  28  1   
 11   6  29  1   
 12   7  11  1   
 13   7  30  1   
 14   7  31  1   
 15   8  12  ar  
 16   8  32  1   
 17   9  13  ar  
 18   9  33  1   
 19  10  14  1   
 20  10  34  1   
 21  10  35  1   
 22  11  14  1   
 23  11  36  1   
 24  11  37  1   
 25  12  15  ar  
 26  12  38  1   
 27  13  15  ar  
 28  13  39  1   
 29  14  16  am  
 30  15  17  1   
 31  16  18  2   
 32  16  19  am  
 33  19  20  1   
 34  19  40  1   
 35  20  21  ar  
 36  20  22  ar  
 37  21  23  ar  
 38  21  41  1   
 39  22  24  ar  
 40  22  42  1   
 41  23  25  ar  
 42  23  26  1   
 43  24  25  ar  
 44  24  27  1   
 45  25  43  1   
 46  26  44  1   
 47  26  45  1   
 48  26  46  1   
 49  27  47  1   
 50  27  48  1   
 51  27  49  1   
@<TRIPOS>SUBSTRUCTURE
  1 ****  14 GROUP 4 **** **** 0

# MOE 2024.06 (io_trps.svl 2023.06)
