@<TRIPOS>MOLECULE
NONAME
50 52 1 0 0 
SMALL
USER_CHARGES


@<TRIPOS>ATOM
  1 O       -2.3610     2.8530    -2.1880 O.2   1 <1>  -0.5700 
  2 C       -1.4490     2.9820    -1.4060 C.2   1 <1>   0.5690 
  3 N       -1.4730     2.4390    -0.1670 N.am  1 <1>  -0.7300 
  4 C       -0.1790     3.7360    -1.8150 C.3   1 <1>   0.1710 
  5 C       -2.3300     1.3250     0.2570 C.3   1 <1>   0.3200 
  6 N        1.0360     3.2590    -1.0930 N.3   1 <1>  -0.8100 
  7 C       -1.4530     0.0920     0.3920 C.2   1 <1>  -0.0400 
  8 C        2.1860     4.1720    -1.2640 C.3   1 <1>   0.1100 
  9 C        1.4280     1.8940    -1.5280 C.3   1 <1>   0.1100 
 10 O       -0.4570     0.1010     1.2600 O.3   1 <1>  -0.2800 
 11 C       -1.4940    -1.0880    -0.2650 C.2   1 <1>  -0.1500 
 12 C        3.4160     3.6900    -0.4680 C.3   1 <1>   0.2090 
 13 C        2.6360     1.3680    -0.7340 C.3   1 <1>   0.2090 
 14 C        0.1550    -1.0630     1.1780 C.2   1 <1>  -0.0100 
 15 C       -0.4360    -1.8470     0.2520 C.2   1 <1>  -0.1500 
 16 N        3.8010     2.2960    -0.8460 N.pl3 1 <1>  -0.8380 
 17 C        4.9870     1.8280    -0.2620 C.ar  1 <1>   0.1000 
 18 C        5.1750     1.6440     1.1190 C.ar  1 <1>   0.0830 
 19 C        6.0390     1.5220    -1.1120 C.ar  1 <1>  -0.1500 
 20 O        4.1720     1.9280     1.9950 O.3   1 <1>  -0.3620 
 21 C        6.3900     1.1830     1.6070 C.ar  1 <1>  -0.1500 
 22 C        7.2470     1.0520    -0.6250 C.ar  1 <1>  -0.1500 
 23 C        3.7150     0.8740     2.8070 C.3   1 <1>   0.1200 
 24 C        7.4240     0.8840     0.7360 C.ar  1 <1>  -0.1500 
 25 C        2.3830     1.2960     3.4190 C.3   1 <1>  -0.2400 
 26 H       -0.5800     2.4950     0.3380 H     1 <1>   0.3700 
 27 H       -0.3390     4.7750    -1.5940 H     1 <1>   0.0800 
 28 H       -0.0390     3.6360    -2.8760 H     1 <1>   0.0800 
 29 H       -3.1050     1.1540    -0.4700 H     1 <1>   0.0800 
 30 H       -2.7830     1.5590     1.2030 H     1 <1>   0.0800 
 31 H        1.9170     5.1540    -0.9190 H     1 <1>   0.0800 
 32 H        2.4510     4.2390    -2.3050 H     1 <1>   0.0800 
 33 H        1.6790     1.8990    -2.5740 H     1 <1>   0.0800 
 34 H        0.6090     1.2110    -1.3850 H     1 <1>   0.0800 
 35 H       -2.1760    -1.4080    -1.0320 H     1 <1>   0.1500 
 36 H        3.1880     3.7340     0.5820 H     1 <1>   0.0800 
 37 H        4.2470     4.3470    -0.6570 H     1 <1>   0.0800 
 38 H        2.9180     0.4000    -1.1080 H     1 <1>   0.0800 
 39 H        2.3510     1.2610     0.2970 H     1 <1>   0.0800 
 40 H        1.0020    -1.2510     1.8140 H     1 <1>   0.1500 
 41 H       -0.1790    -2.8470    -0.0500 H     1 <1>   0.1500 
 42 H        5.8970     1.6580    -2.1680 H     1 <1>   0.1500 
 43 H        6.5340     1.0650     2.6640 H     1 <1>   0.1500 
 44 H        8.0470     0.8220    -1.3070 H     1 <1>   0.1500 
 45 H        4.4470     0.6870     3.5720 H     1 <1>   0.0800 
 46 H        3.5940    -0.0010     2.1910 H     1 <1>   0.0800 
 47 H        8.3640     0.5250     1.1180 H     1 <1>   0.1500 
 48 H        2.5180     2.1740     4.0250 H     1 <1>   0.0800 
 49 H        1.9980     0.5060     4.0380 H     1 <1>   0.0800 
 50 H        1.6680     1.5040     2.6430 H     1 <1>   0.0800 
@<TRIPOS>BOND
  1   1   2  2   
  2   2   3  am  
  3   2   4  1   
  4   3   5  1   
  5   3  26  1   
  6   4   6  1   
  7   4  27  1   
  8   4  28  1   
  9   5   7  1   
 10   5  29  1   
 11   5  30  1   
 12   6   8  1   
 13   6   9  1   
 14   7  10  1   
 15   7  11  2   
 16   8  12  1   
 17   8  31  1   
 18   8  32  1   
 19   9  13  1   
 20   9  33  1   
 21   9  34  1   
 22  10  14  1   
 23  11  15  1   
 24  11  35  1   
 25  12  16  1   
 26  12  36  1   
 27  12  37  1   
 28  13  16  1   
 29  13  38  1   
 30  13  39  1   
 31  14  15  2   
 32  14  40  1   
 33  15  41  1   
 34  16  17  1   
 35  17  18  ar  
 36  17  19  ar  
 37  18  20  1   
 38  18  21  ar  
 39  19  22  ar  
 40  19  42  1   
 41  20  23  1   
 42  21  24  ar  
 43  21  43  1   
 44  22  24  ar  
 45  22  44  1   
 46  23  25  1   
 47  23  45  1   
 48  23  46  1   
 49  24  47  1   
 50  25  48  1   
 51  25  49  1   
 52  25  50  1   
@<TRIPOS>SUBSTRUCTURE
  1 ****  13 GROUP 4 **** **** 0

# MOE 2024.06 (io_trps.svl 2023.06)
