@<TRIPOS>MOLECULE
NONAME
48 49 1 0 0 
SMALL
USER_CHARGES


@<TRIPOS>ATOM
  1 O       -1.7290    -1.2340    -0.5150 O.2   1 <1>  -0.5700 
  2 C       -2.4740    -0.2800    -0.4140 C.2   1 <1>   0.7800 
  3 O       -3.7300    -0.4070     0.0160 O.3   1 <1>  -0.4300 
  4 N       -2.0620     0.9760    -0.7410 N.am  1 <1>  -0.6600 
  5 C       -4.3670    -1.5900     0.4460 C.3   1 <1>   0.2800 
  6 C       -0.6350     1.2860    -1.0410 C.3   1 <1>   0.2810 
  7 C       -2.8540     2.2140    -0.5450 C.3   1 <1>   0.1400 
  8 C       -3.6440    -2.1640     1.6710 C.3   1 <1>  -0.2400 
  9 C       -4.4550    -2.5950    -0.7080 C.3   1 <1>  -0.2400 
 10 C       -5.7780    -1.1600     0.8490 C.3   1 <1>  -0.2400 
 11 C        0.3080     1.0000     0.1430 C.2   1 <1>   0.6590 
 12 C       -0.6610     2.7820    -1.3790 C.3   1 <1>  -0.1600 
 13 C       -1.8240     3.3470    -0.5680 C.3   1 <1>   0.2000 
 14 O       -0.0170     1.2040     1.2890 O.2   1 <1>  -0.5700 
 15 O        1.5370     0.6080    -0.1750 O.3   1 <1>  -0.4300 
 16 O       -1.3740     3.5860     0.7210 O.3   1 <1>  -0.6800 
 17 C        2.5810     0.4540     0.7810 C.3   1 <1>   0.1810 
 18 C        3.6960     1.4600     0.5180 C.2   1 <1>   0.4230 
 19 O        4.8180     1.0300     0.4130 O.2   1 <1>  -0.5700 
 20 C        3.3780     2.8640     0.3690 C.ar  1 <1>   0.0860 
 21 C        2.3310     3.4840     1.0580 C.ar  1 <1>  -0.1500 
 22 C        4.1230     3.6630    -0.5010 C.ar  1 <1>  -0.1500 
 23 C        2.0200     4.8160     0.8580 C.ar  1 <1>  -0.1500 
 24 C        3.8240     4.9980    -0.6990 C.ar  1 <1>  -0.1500 
 25 C        2.7660     5.5770    -0.0230 C.ar  1 <1>  -0.1500 
 26 H       -0.3090     0.7090    -1.8890 H     1 <1>   0.0800 
 27 H       -3.4040     2.1940     0.3810 H     1 <1>   0.0800 
 28 H       -3.5380     2.3200    -1.3690 H     1 <1>   0.0800 
 29 H       -2.6740    -2.5430     1.4070 H     1 <1>   0.0800 
 30 H       -4.2100    -2.9800     2.0810 H     1 <1>   0.0800 
 31 H       -3.5350    -1.4100     2.4280 H     1 <1>   0.0800 
 32 H       -3.4830    -2.9720    -0.9700 H     1 <1>   0.0800 
 33 H       -4.9010    -2.1360    -1.5710 H     1 <1>   0.0800 
 34 H       -5.0590    -3.4350    -0.4170 H     1 <1>   0.0800 
 35 H       -5.7340    -0.4340     1.6420 H     1 <1>   0.0800 
 36 H       -6.3420    -2.0060     1.1960 H     1 <1>   0.0800 
 37 H       -6.2910    -0.7300     0.0080 H     1 <1>   0.0800 
 38 H       -0.8780     2.8900    -2.4260 H     1 <1>   0.0800 
 39 H        0.2700     3.2810    -1.1730 H     1 <1>   0.0800 
 40 H       -2.2190     4.2670    -0.9640 H     1 <1>   0.0800 
 41 H       -1.0710     2.7410     1.1360 H     1 <1>   0.4000 
 42 H        2.9680    -0.5430     0.6730 H     1 <1>   0.0800 
 43 H        2.2040     0.5670     1.7810 H     1 <1>   0.0800 
 44 H        1.7470     2.9290     1.7690 H     1 <1>   0.1500 
 45 H        4.9510     3.2210    -1.0300 H     1 <1>   0.1500 
 46 H        1.1960     5.2610     1.3910 H     1 <1>   0.1500 
 47 H        4.4150     5.5880    -1.3790 H     1 <1>   0.1500 
 48 H        2.5260     6.6150    -0.1780 H     1 <1>   0.1500 
@<TRIPOS>BOND
  1   1   2  2   
  2   2   3  1   
  3   2   4  am  
  4   3   5  1   
  5   4   6  1   
  6   4   7  1   
  7   5   8  1   
  8   5   9  1   
  9   5  10  1   
 10   6  11  1   
 11   6  12  1   
 12   6  26  1   
 13   7  13  1   
 14   7  27  1   
 15   7  28  1   
 16   8  29  1   
 17   8  30  1   
 18   8  31  1   
 19   9  32  1   
 20   9  33  1   
 21   9  34  1   
 22  10  35  1   
 23  10  36  1   
 24  10  37  1   
 25  11  14  2   
 26  11  15  1   
 27  12  13  1   
 28  12  38  1   
 29  12  39  1   
 30  13  16  1   
 31  13  40  1   
 32  15  17  1   
 33  16  41  1   
 34  17  18  1   
 35  17  42  1   
 36  17  43  1   
 37  18  19  2   
 38  18  20  1   
 39  20  21  ar  
 40  20  22  ar  
 41  21  23  ar  
 42  21  44  1   
 43  22  24  ar  
 44  22  45  1   
 45  23  25  ar  
 46  23  46  1   
 47  24  25  ar  
 48  24  47  1   
 49  25  48  1   
@<TRIPOS>SUBSTRUCTURE
  1 ****  11 GROUP 4 **** **** 0

# MOE 2024.06 (io_trps.svl 2023.06)
