@<TRIPOS>MOLECULE
NONAME
37 38 1 0 0 
SMALL
USER_CHARGES


@<TRIPOS>ATOM
  1 O        0.4320     0.1240     0.3360 O.3   1 <1>  -0.5600 
  2 C        1.6520     0.5020    -0.2110 C.3   1 <1>   0.1200 
  3 C       -0.6830     0.6500    -0.3140 C.3   1 <1>   0.0400 
  4 C        2.7750    -0.1880     0.5870 C.3   1 <1>   0.4230 
  5 N        4.1000     0.3280     0.1690 N.4   1 <1>  -0.9060 
  6 C        2.7560    -1.7060     0.3900 C.3   1 <1>  -0.2400 
  7 C        5.2070    -0.0150     1.0870 C.3   1 <1>   0.4860 
  8 C        6.4300     0.6800     0.5400 C.ar  1 <1>  -0.1440 
  9 C        6.8250     1.8990     1.0250 C.ar  1 <1>  -0.1500 
 10 C        7.1660     0.0750    -0.4910 C.ar  1 <1>  -0.1500 
 11 C        7.9480     2.5720     0.5020 C.ar  1 <1>   0.0000 
 12 C        8.2590     0.7070    -1.0150 C.ar  1 <1>  -0.1500 
 13 C        8.6770     1.9660    -0.5420 C.ar  1 <1>   0.0000 
 14 C        8.3680     3.8300     0.9810 C.ar  1 <1>  -0.1500 
 15 C        9.7950     2.6420    -1.0700 C.ar  1 <1>  -0.1500 
 16 C        9.4570     4.4630     0.4500 C.ar  1 <1>  -0.1500 
 17 C       10.1780     3.8620    -0.5880 C.ar  1 <1>  -0.1500 
 18 H        1.7290     1.5720    -0.1320 H     1 <1>   0.0800 
 19 H        1.6710     0.1980    -1.2440 H     1 <1>   0.0800 
 20 H       -1.5650     0.2960     0.1930 H     1 <1>   0.0800 
 21 H       -0.6970     0.3120    -1.3360 H     1 <1>   0.0800 
 22 H       -0.6520     1.7260    -0.2700 H     1 <1>   0.0800 
 23 H        2.6180     0.0410     1.6300 H     1 <1>   0.0800 
 24 H        4.0810     1.3510     0.0980 H     1 <1>   0.4500 
 25 H        4.3400    -0.0190    -0.7650 H     1 <1>   0.4500 
 26 H        2.9190    -1.9670    -0.6410 H     1 <1>   0.0800 
 27 H        1.7900    -2.0880     0.6740 H     1 <1>   0.0800 
 28 H        3.4830    -2.1960     1.0100 H     1 <1>   0.0800 
 29 H        5.3680    -1.0800     1.1200 H     1 <1>   0.0800 
 30 H        4.9960     0.3410     2.0830 H     1 <1>   0.0800 
 31 H        6.2920     2.3860     1.8230 H     1 <1>   0.1500 
 32 H        6.8790    -0.8910    -0.8720 H     1 <1>   0.1500 
 33 H        8.8300     0.2490    -1.8050 H     1 <1>   0.1500 
 34 H        7.8170     4.2920     1.7800 H     1 <1>   0.1500 
 35 H       10.3490     2.1770    -1.8660 H     1 <1>   0.1500 
 36 H        9.7750     5.4230     0.8180 H     1 <1>   0.1500 
 37 H       11.0330     4.3740    -0.9950 H     1 <1>   0.1500 
@<TRIPOS>BOND
  1   1   2  1   
  2   1   3  1   
  3   2   4  1   
  4   2  18  1   
  5   2  19  1   
  6   3  20  1   
  7   3  21  1   
  8   3  22  1   
  9   4   5  1   
 10   4   6  1   
 11   4  23  1   
 12   5   7  1   
 13   5  24  1   
 14   5  25  1   
 15   6  26  1   
 16   6  27  1   
 17   6  28  1   
 18   7   8  1   
 19   7  29  1   
 20   7  30  1   
 21   8   9  ar  
 22   8  10  ar  
 23   9  11  ar  
 24   9  31  1   
 25  10  12  ar  
 26  10  32  1   
 27  11  13  ar  
 28  11  14  ar  
 29  12  13  ar  
 30  12  33  1   
 31  13  15  ar  
 32  14  16  ar  
 33  14  34  1   
 34  15  17  ar  
 35  15  35  1   
 36  16  17  ar  
 37  16  36  1   
 38  17  37  1   
@<TRIPOS>SUBSTRUCTURE
  1 ****   8 GROUP 4 **** **** 0

# MOE 2024.06 (io_trps.svl 2023.06)
