@<TRIPOS>MOLECULE
NONAME
41 42 1 0 0 
SMALL
USER_CHARGES


@<TRIPOS>ATOM
  1 O       -3.5270     6.7600    -0.0190 O.3   1 <1>  -0.3630 
  2 C       -4.7210     7.4010    -0.1160 C.ar  1 <1>   0.0830 
  3 C       -2.2970     7.4440    -0.1250 C.3   1 <1>   0.1200 
  4 C       -5.8890     6.6030     0.0070 C.ar  1 <1>   0.0000 
  5 C       -4.8210     8.7590    -0.3250 C.ar  1 <1>  -0.1500 
  6 C       -1.1740     6.4230     0.0300 C.3   1 <1>   0.1200 
  7 C       -7.1520     7.2300    -0.0880 C.ar  1 <1>   0.0000 
  8 C       -5.8580     5.2070     0.2220 C.ar  1 <1>  -0.1500 
  9 C       -6.0740     9.3700    -0.4170 C.ar  1 <1>  -0.1500 
 10 O        0.0530     7.0830    -0.0760 O.3   1 <1>  -0.5600 
 11 C       -7.2110     8.6210    -0.3010 C.ar  1 <1>  -0.1500 
 12 C       -8.3180     6.4460     0.0330 C.ar  1 <1>  -0.1500 
 13 C       -7.0050     4.4700     0.3360 C.ar  1 <1>  -0.1500 
 14 C        1.1600     6.2540     0.0500 C.3   1 <1>   0.1200 
 15 C       -8.2510     5.0970     0.2400 C.ar  1 <1>  -0.1500 
 16 C        2.4090     7.1360    -0.0760 C.3   1 <1>   0.3430 
 17 N        3.6920     6.3710     0.0970 N.4   1 <1>  -0.9590 
 18 C        4.8400     7.3230     0.2030 C.3   1 <1>   0.2630 
 19 C        3.9290     5.4010    -1.0210 C.3   1 <1>   0.2630 
 20 H       -2.2500     8.1780     0.6590 H     1 <1>   0.0800 
 21 H       -2.2520     7.9090    -1.0940 H     1 <1>   0.0800 
 22 H       -3.9580     9.3880    -0.4220 H     1 <1>   0.1500 
 23 H       -1.2410     5.6830    -0.7490 H     1 <1>   0.0800 
 24 H       -1.2360     5.9560     0.9990 H     1 <1>   0.0800 
 25 H       -4.9030     4.7210     0.2950 H     1 <1>   0.1500 
 26 H       -6.1290    10.4320    -0.5800 H     1 <1>   0.1500 
 27 H       -8.1770     9.0880    -0.3720 H     1 <1>   0.1500 
 28 H       -9.2730     6.9350    -0.0410 H     1 <1>   0.1500 
 29 H       -6.9640     3.4070     0.4990 H     1 <1>   0.1500 
 30 H        1.1210     5.5190    -0.7360 H     1 <1>   0.0800 
 31 H        1.1220     5.7820     1.0160 H     1 <1>   0.0800 
 32 H       -9.1450     4.5040     0.3320 H     1 <1>   0.1500 
 33 H        2.3480     7.9030     0.6790 H     1 <1>   0.0800 
 34 H        2.3990     7.6140    -1.0420 H     1 <1>   0.0800 
 35 H        3.6360     5.8460     0.9840 H     1 <1>   0.4500 
 36 H        4.9350     7.9010    -0.7020 H     1 <1>   0.0800 
 37 H        5.7610     6.7850     0.3660 H     1 <1>   0.0800 
 38 H        4.6910     8.0010     1.0290 H     1 <1>   0.0800 
 39 H        3.9770     5.9210    -1.9640 H     1 <1>   0.0800 
 40 H        3.1340     4.6750    -1.0670 H     1 <1>   0.0800 
 41 H        4.8590     4.8770    -0.8700 H     1 <1>   0.0800 
@<TRIPOS>BOND
  1   1   2  1   
  2   1   3  1   
  3   2   4  ar  
  4   2   5  ar  
  5   3   6  1   
  6   3  20  1   
  7   3  21  1   
  8   4   7  ar  
  9   4   8  ar  
 10   5   9  ar  
 11   5  22  1   
 12   6  10  1   
 13   6  23  1   
 14   6  24  1   
 15   7  11  ar  
 16   7  12  ar  
 17   8  13  ar  
 18   8  25  1   
 19   9  11  ar  
 20   9  26  1   
 21  10  14  1   
 22  11  27  1   
 23  12  15  ar  
 24  12  28  1   
 25  13  15  ar  
 26  13  29  1   
 27  14  16  1   
 28  14  30  1   
 29  14  31  1   
 30  15  32  1   
 31  16  17  1   
 32  16  33  1   
 33  16  34  1   
 34  17  18  1   
 35  17  19  1   
 36  17  35  1   
 37  18  36  1   
 38  18  37  1   
 39  18  38  1   
 40  19  39  1   
 41  19  40  1   
 42  19  41  1   
@<TRIPOS>SUBSTRUCTURE
  1 ****   1 GROUP 4 **** **** 0

# MOE 2024.06 (io_trps.svl 2023.06)
