@<TRIPOS>MOLECULE
NONAME
34 35 1 0 0 
SMALL
USER_CHARGES


@<TRIPOS>ATOM
  1 BR      -3.3170     0.4040     1.4180 Br    1 <1>  -0.1110 
  2 C       -3.1480    -1.2000     0.3530 C.ar  1 <1>   0.1110 
  3 C       -2.9340    -2.4340     0.9590 C.ar  1 <1>  -0.1440 
  4 C       -3.2670    -1.0470    -1.0120 C.ar  1 <1>  -0.1500 
  5 C       -2.8680    -3.5640     0.1410 C.ar  1 <1>  -0.1440 
  6 C       -2.7910    -2.5010     2.4800 C.3   1 <1>  -0.0960 
  7 C       -3.1780    -2.1670    -1.8110 C.ar  1 <1>  -0.1500 
  8 C       -2.9870    -3.4240    -1.2500 C.ar  1 <1>   0.1170 
  9 C       -2.6880    -4.9510     0.7630 C.3   1 <1>  -0.0960 
 10 N       -2.9210    -4.5250    -2.1100 N.am  1 <1>  -0.5470 
 11 C       -3.9290    -5.1650    -2.7650 C.2   1 <1>   0.5690 
 12 O       -3.6770    -6.1340    -3.4350 O.2   1 <1>  -0.5700 
 13 C       -5.3700    -4.6840    -2.6780 C.3   1 <1>   0.1310 
 14 S       -6.0160    -4.8750    -0.9460 S.3   1 <1>  -0.2860 
 15 C       -6.3600    -3.1980    -0.4420 C.2   1 <1>   0.4340 
 16 S       -6.5650    -2.9180     1.2460 S.3   1 <1>  -0.0800 
 17 N       -6.4660    -2.1600    -1.1700 N.2   1 <1>  -0.3380 
 18 C       -6.7830    -1.2520     0.8230 C.2   1 <1>   0.1980 
 19 N       -6.7110    -1.0330    -0.4300 N.2   1 <1>  -0.3380 
 20 C       -7.0250    -0.2650     1.9420 C.3   1 <1>  -0.0600 
 21 H       -3.4350    -0.0740    -1.4360 H     1 <1>   0.1500 
 22 H       -2.1830    -1.6890     2.8360 H     1 <1>   0.0800 
 23 H       -2.3170    -3.4050     2.8090 H     1 <1>   0.0800 
 24 H       -3.7610    -2.4340     2.9390 H     1 <1>   0.0800 
 25 H       -3.2650    -2.0670    -2.8780 H     1 <1>   0.1500 
 26 H       -3.3680    -5.0770     1.5870 H     1 <1>   0.0800 
 27 H       -1.6800    -5.0630     1.1200 H     1 <1>   0.0800 
 28 H       -2.8910    -5.7480     0.0730 H     1 <1>   0.0800 
 29 H       -2.0190    -4.9950    -2.1880 H     1 <1>   0.3700 
 30 H       -6.0010    -5.2780    -3.3120 H     1 <1>   0.0800 
 31 H       -5.4420    -3.6510    -2.9600 H     1 <1>   0.0800 
 32 H       -7.9370    -0.5090     2.4540 H     1 <1>   0.0800 
 33 H       -7.1040     0.7280     1.5390 H     1 <1>   0.0800 
 34 H       -6.2070    -0.2950     2.6380 H     1 <1>   0.0800 
@<TRIPOS>BOND
  1   1   2  1   
  2   2   3  ar  
  3   2   4  ar  
  4   3   5  ar  
  5   3   6  1   
  6   4   7  ar  
  7   4  21  1   
  8   5   8  ar  
  9   5   9  1   
 10   6  22  1   
 11   6  23  1   
 12   6  24  1   
 13   7   8  ar  
 14   7  25  1   
 15   8  10  1   
 16   9  26  1   
 17   9  27  1   
 18   9  28  1   
 19  10  11  am  
 20  10  29  1   
 21  11  12  2   
 22  11  13  1   
 23  13  14  1   
 24  13  30  1   
 25  13  31  1   
 26  14  15  1   
 27  15  16  1   
 28  15  17  2   
 29  16  18  1   
 30  17  19  1   
 31  18  19  2   
 32  18  20  1   
 33  20  32  1   
 34  20  33  1   
 35  20  34  1   
@<TRIPOS>SUBSTRUCTURE
  1 ****   8 GROUP 4 **** **** 0

# MOE 2024.06 (io_trps.svl 2023.06)
