@<TRIPOS>MOLECULE
NONAME
36 37 1 0 0 
SMALL
USER_CHARGES


@<TRIPOS>ATOM
  1 F       -0.5110    -0.4200    -0.6710 F     1 <1>  -0.3400 
  2 C       -1.5690    -1.1600    -0.3600 C.3   1 <1>   1.1640 
  3 F       -1.8010    -1.9320    -1.4160 F     1 <1>  -0.3400 
  4 F       -1.1820    -1.9700     0.6160 F     1 <1>  -0.3400 
  5 C       -2.7850    -0.3120     0.0450 C.ar  1 <1>  -0.1440 
  6 C       -4.0790    -0.7260    -0.2540 C.ar  1 <1>  -0.1500 
  7 C       -2.6170     0.8880     0.7320 C.ar  1 <1>  -0.1500 
  8 C       -5.1800     0.0320     0.1120 C.ar  1 <1>   0.0830 
  9 C       -3.7100     1.6510     1.1020 C.ar  1 <1>  -0.1500 
 10 O       -6.3960    -0.4600    -0.2290 O.3   1 <1>  -0.3630 
 11 C       -4.9910     1.2290     0.7950 C.ar  1 <1>  -0.1500 
 12 C       -7.5840     0.2270     0.0910 C.3   1 <1>   0.1200 
 13 C       -8.7640    -0.5910    -0.4320 C.3   1 <1>  -0.1600 
 14 C      -10.0880     0.1030    -0.1160 C.3   1 <1>   0.1200 
 15 O      -11.1330    -0.6960    -0.6210 O.3   1 <1>  -0.3160 
 16 N      -12.3710    -0.0940    -0.3520 N.am  1 <1>  -0.0840 
 17 C      -13.1140    -0.3600     0.7600 C.2   1 <1>   0.5690 
 18 C      -13.0060     0.7470    -1.2160 C.2   1 <1>   0.5690 
 19 O      -12.7910    -1.0160     1.7200 O.2   1 <1>  -0.5700 
 20 C      -14.4550     0.3360     0.6620 C.3   1 <1>  -0.0990 
 21 O      -12.5740     1.2060    -2.2460 O.2   1 <1>  -0.5700 
 22 C      -14.3810     1.0910    -0.6840 C.3   1 <1>  -0.0990 
 23 H       -4.2560    -1.6490    -0.7800 H     1 <1>   0.1500 
 24 H       -1.6280     1.2360     0.9840 H     1 <1>   0.1500 
 25 H       -3.5630     2.5770     1.6310 H     1 <1>   0.1500 
 26 H       -5.8200     1.8410     1.0930 H     1 <1>   0.1500 
 27 H       -7.5520     1.1940    -0.3800 H     1 <1>   0.0800 
 28 H       -7.6360     0.3310     1.1610 H     1 <1>   0.0800 
 29 H       -8.7540    -1.5610     0.0330 H     1 <1>   0.0800 
 30 H       -8.6700    -0.7030    -1.4980 H     1 <1>   0.0800 
 31 H      -10.1360     1.0680    -0.5930 H     1 <1>   0.0800 
 32 H      -10.2210     0.2040     0.9480 H     1 <1>   0.0800 
 33 H      -14.5780     1.0120     1.4890 H     1 <1>   0.0800 
 34 H      -15.2450    -0.3930     0.6640 H     1 <1>   0.0800 
 35 H      -15.1340     0.7470    -1.3710 H     1 <1>   0.0800 
 36 H      -14.4660     2.1540    -0.5480 H     1 <1>   0.0800 
@<TRIPOS>BOND
  1   1   2  1   
  2   2   3  1   
  3   2   4  1   
  4   2   5  1   
  5   5   6  ar  
  6   5   7  ar  
  7   6   8  ar  
  8   6  23  1   
  9   7   9  ar  
 10   7  24  1   
 11   8  10  1   
 12   8  11  ar  
 13   9  11  ar  
 14   9  25  1   
 15  10  12  1   
 16  11  26  1   
 17  12  13  1   
 18  12  27  1   
 19  12  28  1   
 20  13  14  1   
 21  13  29  1   
 22  13  30  1   
 23  14  15  1   
 24  14  31  1   
 25  14  32  1   
 26  15  16  1   
 27  16  17  am  
 28  16  18  am  
 29  17  19  2   
 30  17  20  1   
 31  18  21  2   
 32  18  22  1   
 33  20  22  1   
 34  20  33  1   
 35  20  34  1   
 36  22  35  1   
 37  22  36  1   
@<TRIPOS>SUBSTRUCTURE
  1 ****  12 GROUP 4 **** **** 0

# MOE 2024.06 (io_trps.svl 2023.06)
