@<TRIPOS>MOLECULE
NONAME
42 44 1 0 0 
SMALL
USER_CHARGES


@<TRIPOS>ATOM
  1 O       -0.4460    -0.6770    -0.2980 O.2   1 <1>  -0.5700 
  2 C       -0.7600    -1.7530     0.1470 C.2   1 <1>   0.5690 
  3 N       -2.0190    -1.9070     0.6260 N.am  1 <1>  -0.7300 
  4 C        0.2500    -2.9080     0.1500 C.3   1 <1>  -0.0190 
  5 C       -2.7090    -3.1220     1.1260 C.3   1 <1>   0.1400 
  6 C        1.7140    -2.4190     0.1850 C.3   1 <1>  -0.1600 
  7 C        0.0330    -3.8390    -1.0600 C.3   1 <1>  -0.1600 
  8 C       -3.8380    -3.5100     0.1720 C.3   1 <1>   0.0210 
  9 C        2.7040    -3.5920     0.1940 C.3   1 <1>  -0.1600 
 10 C        1.0220    -5.0130    -1.0590 C.3   1 <1>  -0.1600 
 11 C       -4.5430    -4.7840     0.6080 C.2   1 <1>  -0.1810 
 12 C        2.4730    -4.5170    -1.0080 C.3   1 <1>  -0.1600 
 13 C       -5.5760    -5.3860    -0.1460 C.ar  1 <1>   0.0000 
 14 C       -4.3480    -5.5470     1.7120 C.2   1 <1>  -0.3020 
 15 C       -5.9700    -6.5190     0.5570 C.ar  1 <1>  -0.1520 
 16 C       -6.2070    -5.0730    -1.3550 C.ar  1 <1>  -0.1500 
 17 N       -5.2100    -6.6060     1.6940 N.pl3 1 <1>   0.0330 
 18 C       -6.9850    -7.3490     0.0750 C.ar  1 <1>  -0.1500 
 19 C       -7.2080    -5.8890    -1.8300 C.ar  1 <1>  -0.1500 
 20 C       -7.5970    -7.0280    -1.1150 C.ar  1 <1>  -0.1500 
 21 H       -2.5890    -1.0590     0.5820 H     1 <1>   0.3700 
 22 H        0.0950    -3.4750     1.0490 H     1 <1>   0.0800 
 23 H       -3.1130    -2.9220     2.1030 H     1 <1>   0.0800 
 24 H       -2.0200    -3.9430     1.2080 H     1 <1>   0.0800 
 25 H        1.8680    -1.8100     1.0590 H     1 <1>   0.0800 
 26 H        1.9050    -1.8030    -0.6780 H     1 <1>   0.0800 
 27 H        0.1570    -3.2700    -1.9660 H     1 <1>   0.0800 
 28 H       -0.9710    -4.2230    -1.0520 H     1 <1>   0.0800 
 29 H       -3.4340    -3.6640    -0.8130 H     1 <1>   0.0800 
 30 H       -4.5610    -2.7150     0.1270 H     1 <1>   0.0800 
 31 H        2.5870    -4.1530     1.1050 H     1 <1>   0.0800 
 32 H        3.7110    -3.2130     0.1670 H     1 <1>   0.0800 
 33 H        0.8760    -5.6070    -1.9440 H     1 <1>   0.0800 
 34 H        0.8300    -5.6410    -0.2060 H     1 <1>   0.0800 
 35 H        3.1400    -5.3600    -0.9490 H     1 <1>   0.0800 
 36 H        2.6970    -3.9820    -1.9150 H     1 <1>   0.0800 
 37 H       -3.6510    -5.4110     2.5200 H     1 <1>   0.1500 
 38 H       -5.9020    -4.1970    -1.8970 H     1 <1>   0.1500 
 39 H       -5.2880    -7.3450     2.3990 H     1 <1>   0.2700 
 40 H       -7.2780    -8.2220     0.6310 H     1 <1>   0.1500 
 41 H       -7.7020    -5.6610    -2.7580 H     1 <1>   0.1500 
 42 H       -8.3810    -7.6510    -1.5080 H     1 <1>   0.1500 
@<TRIPOS>BOND
  1   1   2  2   
  2   2   3  am  
  3   2   4  1   
  4   3   5  1   
  5   3  21  1   
  6   4   6  1   
  7   4   7  1   
  8   4  22  1   
  9   5   8  1   
 10   5  23  1   
 11   5  24  1   
 12   6   9  1   
 13   6  25  1   
 14   6  26  1   
 15   7  10  1   
 16   7  27  1   
 17   7  28  1   
 18   8  11  1   
 19   8  29  1   
 20   8  30  1   
 21   9  12  1   
 22   9  31  1   
 23   9  32  1   
 24  10  12  1   
 25  10  33  1   
 26  10  34  1   
 27  11  13  1   
 28  11  14  2   
 29  12  35  1   
 30  12  36  1   
 31  13  15  ar  
 32  13  16  ar  
 33  14  17  1   
 34  14  37  1   
 35  15  17  1   
 36  15  18  ar  
 37  16  19  ar  
 38  16  38  1   
 39  17  39  1   
 40  18  20  ar  
 41  18  40  1   
 42  19  20  ar  
 43  19  41  1   
 44  20  42  1   
@<TRIPOS>SUBSTRUCTURE
  1 ****   8 GROUP 4 **** **** 0

# MOE 2024.06 (io_trps.svl 2023.06)
