@<TRIPOS>MOLECULE
NONAME
36 37 1 0 0 
SMALL
USER_CHARGES


@<TRIPOS>ATOM
  1 CL       0.1240    -0.9520     0.4870 Cl    1 <1>  -0.1770 
  2 C       -0.9560     0.3800     0.1190 C.ar  1 <1>   0.1770 
  3 C       -0.5940     1.7180     0.3150 C.ar  1 <1>   0.0820 
  4 C       -2.2070     0.0440    -0.3610 C.ar  1 <1>  -0.1500 
  5 O        0.6290     2.1170     0.7640 O.3   1 <1>  -0.3630 
  6 C       -1.5300     2.7150     0.0460 C.ar  1 <1>  -0.1440 
  7 C       -3.1230     1.0410    -0.6430 C.ar  1 <1>  -0.1500 
  8 C        1.7970     1.5760     0.1950 C.3   1 <1>   0.1200 
  9 C       -2.7840     2.3670    -0.4360 C.ar  1 <1>  -0.1500 
 10 C       -1.2010     4.1840     0.2710 C.3   1 <1>  -0.0960 
 11 C        2.8960     2.6370     0.2940 C.3   1 <1>   0.3430 
 12 N        4.2000     2.1670    -0.2760 N.4   1 <1>  -0.9590 
 13 C        4.8070     0.9940     0.4490 C.3   1 <1>   0.3430 
 14 C        5.2050     3.2790    -0.3860 C.3   1 <1>   0.3430 
 15 C        6.1790     0.6050    -0.1480 C.3   1 <1>   0.1200 
 16 C        6.5410     2.7770    -0.9840 C.3   1 <1>   0.1200 
 17 O        6.4910     1.4020    -1.2590 O.3   1 <1>  -0.5600 
 18 H       -2.4650    -0.9900    -0.5080 H     1 <1>   0.1500 
 19 H       -4.1000     0.7870    -1.0180 H     1 <1>   0.1500 
 20 H        1.5940     1.3240    -0.8320 H     1 <1>   0.0800 
 21 H        2.0630     0.7040     0.7620 H     1 <1>   0.0800 
 22 H       -3.5120     3.1310    -0.6520 H     1 <1>   0.1500 
 23 H       -0.8710     4.3340     1.2830 H     1 <1>   0.0800 
 24 H       -2.0630     4.8050     0.1030 H     1 <1>   0.0800 
 25 H       -0.4220     4.4940    -0.4010 H     1 <1>   0.0800 
 26 H        3.0290     2.9030     1.3290 H     1 <1>   0.0800 
 27 H        2.5660     3.5120    -0.2430 H     1 <1>   0.0800 
 28 H        4.0660     1.8420    -1.2470 H     1 <1>   0.4500 
 29 H        4.1500     0.1410     0.3890 H     1 <1>   0.0800 
 30 H        4.9350     1.2300     1.4930 H     1 <1>   0.0800 
 31 H        5.3960     3.7000     0.5870 H     1 <1>   0.0800 
 32 H        4.8180     4.0680    -1.0100 H     1 <1>   0.0800 
 33 H        6.1660    -0.4210    -0.4730 H     1 <1>   0.0800 
 34 H        6.9610     0.7140     0.5850 H     1 <1>   0.0800 
 35 H        7.3570     2.9640    -0.3070 H     1 <1>   0.0800 
 36 H        6.7490     3.2870    -1.9080 H     1 <1>   0.0800 
@<TRIPOS>BOND
  1   1   2  1   
  2   2   3  ar  
  3   2   4  ar  
  4   3   5  1   
  5   3   6  ar  
  6   4   7  ar  
  7   4  18  1   
  8   5   8  1   
  9   6   9  ar  
 10   6  10  1   
 11   7   9  ar  
 12   7  19  1   
 13   8  11  1   
 14   8  20  1   
 15   8  21  1   
 16   9  22  1   
 17  10  23  1   
 18  10  24  1   
 19  10  25  1   
 20  11  12  1   
 21  11  26  1   
 22  11  27  1   
 23  12  13  1   
 24  12  14  1   
 25  12  28  1   
 26  13  15  1   
 27  13  29  1   
 28  13  30  1   
 29  14  16  1   
 30  14  31  1   
 31  14  32  1   
 32  15  17  1   
 33  15  33  1   
 34  15  34  1   
 35  16  17  1   
 36  16  35  1   
 37  16  36  1   
@<TRIPOS>SUBSTRUCTURE
  1 ****   8 GROUP 4 **** **** 0

# MOE 2024.06 (io_trps.svl 2023.06)
