@<TRIPOS>MOLECULE
NONAME
46 49 1 0 0 
SMALL
USER_CHARGES


@<TRIPOS>ATOM
  1 S        0.3840     0.2640     1.0040 S.3   1 <1>  -0.0800 
  2 C        0.7420     1.8530     0.3590 C.2   1 <1>   0.1240 
  3 C       -1.2920     0.4250     0.4860 C.2   1 <1>  -0.1400 
  4 N        1.9550     2.4520     0.3950 N.pl3 1 <1>  -0.5340 
  5 C       -0.3400     2.4460    -0.1950 C.2   1 <1>  -0.0860 
  6 C       -1.5110     1.6110    -0.1070 C.2   1 <1>  -0.1810 
  7 C       -2.2830    -0.6910     0.7280 C.3   1 <1>   0.0200 
  8 C        2.1160     3.7010    -0.1540 C.2   1 <1>   0.4140 
  9 C       -0.1210     3.7470    -0.7450 C.2   1 <1>   0.8670 
 10 C       -2.8860     1.9980    -0.6310 C.3   1 <1>   0.0210 
 11 C       -3.5490    -0.4270    -0.1090 C.3   1 <1>  -0.1600 
 12 N        1.1210     4.3340    -0.6980 N.2   1 <1>  -0.6610 
 13 C        3.4350     4.2930    -0.0970 C.ar  1 <1>   0.0860 
 14 O       -1.0280     4.3760    -1.2740 O.2   1 <1>  -0.5700 
 15 C       -3.9730     1.0560    -0.0710 C.3   1 <1>  -0.1600 
 16 C        3.6140     5.6240     0.2670 C.ar  1 <1>  -0.1500 
 17 C        4.5820     3.5600    -0.3980 C.ar  1 <1>  -0.1500 
 18 C        4.8620     6.2160     0.3550 C.ar  1 <1>   0.0820 
 19 C        5.8410     4.1240    -0.3200 C.ar  1 <1>  -0.1500 
 20 O        4.8200     7.5260     0.7360 O.3   1 <1>  -0.3630 
 21 C        6.0110     5.4550     0.0600 C.ar  1 <1>   0.0820 
 22 C        5.9480     8.3680     0.7720 C.3   1 <1>   0.0400 
 23 O        7.2550     6.0060     0.1470 O.3   1 <1>  -0.3620 
 24 C        8.4300     5.3020    -0.2040 C.3   1 <1>   0.2580 
 25 C        9.6570     6.1910    -0.0430 C.2   1 <1>  -0.2880 
 26 C        9.6930     7.4620     0.3730 C.2   1 <1>  -0.3000 
 27 H        2.7370     1.9950     0.8670 H     1 <1>   0.4000 
 28 H       -2.5290    -0.7160     1.7750 H     1 <1>   0.0800 
 29 H       -1.8520    -1.6370     0.4530 H     1 <1>   0.0800 
 30 H       -2.8730     1.9450    -1.7060 H     1 <1>   0.0800 
 31 H       -3.1160     3.0100    -0.3490 H     1 <1>   0.0800 
 32 H       -4.3510    -1.0490     0.2490 H     1 <1>   0.0800 
 33 H       -3.3510    -0.7020    -1.1310 H     1 <1>   0.0800 
 34 H       -4.8810     1.1910    -0.6310 H     1 <1>   0.0800 
 35 H       -4.1740     1.3310     0.9500 H     1 <1>   0.0800 
 36 H        2.7460     6.2210     0.4890 H     1 <1>   0.1500 
 37 H        4.4850     2.5340    -0.7080 H     1 <1>   0.1500 
 38 H        6.6790     3.5000    -0.5640 H     1 <1>   0.1500 
 39 H        6.6230     8.0080     1.5270 H     1 <1>   0.0800 
 40 H        6.4130     8.3690    -0.1980 H     1 <1>   0.0800 
 41 H        5.6170     9.3590     1.0200 H     1 <1>   0.0800 
 42 H        8.5140     4.4450     0.4410 H     1 <1>   0.0800 
 43 H        8.3390     4.9880    -1.2290 H     1 <1>   0.0800 
 44 H       10.5570     5.6670    -0.3140 H     1 <1>   0.1500 
 45 H       10.5970     8.0380     0.4650 H     1 <1>   0.1500 
 46 H        8.8270     8.0320     0.6550 H     1 <1>   0.1500 
@<TRIPOS>BOND
  1   1   2  1   
  2   1   3  1   
  3   2   4  1   
  4   2   5  2   
  5   3   6  2   
  6   3   7  1   
  7   4   8  1   
  8   4  27  1   
  9   5   6  1   
 10   5   9  1   
 11   6  10  1   
 12   7  11  1   
 13   7  28  1   
 14   7  29  1   
 15   8  12  2   
 16   8  13  1   
 17   9  12  1   
 18   9  14  2   
 19  10  15  1   
 20  10  30  1   
 21  10  31  1   
 22  11  15  1   
 23  11  32  1   
 24  11  33  1   
 25  13  16  ar  
 26  13  17  ar  
 27  15  34  1   
 28  15  35  1   
 29  16  18  ar  
 30  16  36  1   
 31  17  19  ar  
 32  17  37  1   
 33  18  20  1   
 34  18  21  ar  
 35  19  21  ar  
 36  19  38  1   
 37  20  22  1   
 38  21  23  1   
 39  22  39  1   
 40  22  40  1   
 41  22  41  1   
 42  23  24  1   
 43  24  25  1   
 44  24  42  1   
 45  24  43  1   
 46  25  26  2   
 47  25  44  1   
 48  26  45  1   
 49  26  46  1   
@<TRIPOS>SUBSTRUCTURE
  1 ****   8 GROUP 4 **** **** 0

# MOE 2024.06 (io_trps.svl 2023.06)
