@<TRIPOS>MOLECULE
NONAME
36 36 1 0 0 
SMALL
USER_CHARGES


@<TRIPOS>ATOM
  1 S        0.5890     0.2630     1.0400 S.o2  1 <1>   1.4470 
  2 O        0.4950    -1.0310     1.6820 O.2   1 <1>  -0.6500 
  3 O        1.4640     1.2700     1.5990 O.2   1 <1>  -0.6500 
  4 N        1.1020    -0.0190    -0.5560 N.am  1 <1>  -0.8490 
  5 C       -1.0720     0.9710     0.8280 C.ar  1 <1>  -0.0090 
  6 C        0.4150    -1.1500    -1.1880 C.3   1 <1>   0.1160 
  7 C        2.5530    -0.2050    -0.6390 C.3   1 <1>   0.1160 
  8 C       -2.1670     0.4710     1.5220 C.ar  1 <1>  -0.1500 
  9 C       -1.2910     2.0420    -0.0300 C.ar  1 <1>  -0.1500 
 10 C       -3.4290     1.0140     1.3600 C.ar  1 <1>  -0.1500 
 11 C       -2.5530     2.5840    -0.1940 C.ar  1 <1>  -0.1500 
 12 C       -3.6560     2.0790     0.4890 C.ar  1 <1>   0.0860 
 13 C       -4.9750     2.6560     0.3030 C.2   1 <1>   0.5440 
 14 O       -5.1270     3.8590     0.2870 O.2   1 <1>  -0.5700 
 15 N       -6.0980     1.9120     0.1200 N.am  1 <1>  -0.7300 
 16 C       -6.2040     0.5300    -0.3610 C.3   1 <1>   0.2200 
 17 C       -6.8330     0.5610    -1.7490 C.3   1 <1>  -0.2400 
 18 C       -7.0690    -0.2530     0.6200 C.3   1 <1>  -0.2400 
 19 H       -0.6500    -0.9970    -1.1640 H     1 <1>   0.0800 
 20 H        0.6470    -2.0690    -0.6750 H     1 <1>   0.0800 
 21 H        0.7200    -1.2370    -2.2170 H     1 <1>   0.0800 
 22 H        3.0590     0.6710    -0.2690 H     1 <1>   0.0800 
 23 H        2.8530    -0.3580    -1.6620 H     1 <1>   0.0800 
 24 H        2.8580    -1.0550    -0.0490 H     1 <1>   0.0800 
 25 H       -2.0270    -0.3520     2.2040 H     1 <1>   0.1500 
 26 H       -0.4570     2.4560    -0.5730 H     1 <1>   0.1500 
 27 H       -4.2570     0.6140     1.9200 H     1 <1>   0.1500 
 28 H       -2.6950     3.4200    -0.8600 H     1 <1>   0.1500 
 29 H       -6.9540     2.4620     0.0320 H     1 <1>   0.3700 
 30 H       -5.2260     0.0810    -0.4250 H     1 <1>   0.0800 
 31 H       -7.8150     0.9970    -1.7160 H     1 <1>   0.0800 
 32 H       -6.9170    -0.4390    -2.1350 H     1 <1>   0.0800 
 33 H       -6.2150     1.1290    -2.4210 H     1 <1>   0.0800 
 34 H       -8.0540     0.1740     0.6830 H     1 <1>   0.0800 
 35 H       -6.6190    -0.2480     1.5960 H     1 <1>   0.0800 
 36 H       -7.1590    -1.2730     0.2940 H     1 <1>   0.0800 
@<TRIPOS>BOND
  1   1   2  2   
  2   1   3  2   
  3   1   4  am  
  4   1   5  1   
  5   4   6  1   
  6   4   7  1   
  7   5   8  ar  
  8   5   9  ar  
  9   6  19  1   
 10   6  20  1   
 11   6  21  1   
 12   7  22  1   
 13   7  23  1   
 14   7  24  1   
 15   8  10  ar  
 16   8  25  1   
 17   9  11  ar  
 18   9  26  1   
 19  10  12  ar  
 20  10  27  1   
 21  11  12  ar  
 22  11  28  1   
 23  12  13  1   
 24  13  14  2   
 25  13  15  am  
 26  15  16  1   
 27  15  29  1   
 28  16  17  1   
 29  16  18  1   
 30  16  30  1   
 31  17  31  1   
 32  17  32  1   
 33  17  33  1   
 34  18  34  1   
 35  18  35  1   
 36  18  36  1   
@<TRIPOS>SUBSTRUCTURE
  1 ****   8 GROUP 4 **** **** 0

# MOE 2024.06 (io_trps.svl 2023.06)
