@<TRIPOS>MOLECULE
NONAME
32 33 1 0 0 
SMALL
USER_CHARGES


@<TRIPOS>ATOM
  1 O       -0.2550    -0.1640     0.0920 O.2   1 <1>  -0.5700 
  2 C       -0.0350    -1.3610     0.0550 C.2   1 <1>   0.6900 
  3 N       -1.0790    -2.2460     0.0730 N.am  1 <1>  -0.6600 
  4 N        1.2340    -1.8600     0.0060 N.am  1 <1>  -0.5470 
  5 C       -2.4850    -1.7990     0.1530 C.3   1 <1>   0.1400 
  6 C       -0.9910    -3.7080    -0.1270 C.3   1 <1>   0.1400 
  7 C        2.5180    -1.2910    -0.0550 C.ar  1 <1>   0.1170 
  8 C       -3.2960    -3.0870     0.2500 C.3   1 <1>  -0.1600 
  9 C       -2.4230    -4.1440    -0.4210 C.3   1 <1>  -0.1600 
 10 C        3.6210    -2.1500     0.0340 C.ar  1 <1>   0.0820 
 11 C        2.7430     0.0730    -0.2040 C.ar  1 <1>  -0.1500 
 12 O        3.3630    -3.4870     0.1740 O.3   1 <1>  -0.3630 
 13 C        4.9130    -1.6340    -0.0220 C.ar  1 <1>  -0.1500 
 14 C        4.0300     0.5800    -0.2590 C.ar  1 <1>  -0.1500 
 15 C        4.4100    -4.4230     0.3110 C.3   1 <1>   0.0400 
 16 C        5.1140    -0.2730    -0.1680 C.ar  1 <1>  -0.1500 
 17 H        1.2690    -2.8710     0.0880 H     1 <1>   0.3700 
 18 H       -2.7310    -1.2580    -0.7450 H     1 <1>   0.0800 
 19 H       -2.6350    -1.1630     1.0090 H     1 <1>   0.0800 
 20 H       -0.6390    -4.1670     0.7810 H     1 <1>   0.0800 
 21 H       -0.3330    -3.9500    -0.9450 H     1 <1>   0.0800 
 22 H       -4.2580    -2.9880    -0.2200 H     1 <1>   0.0800 
 23 H       -3.4360    -3.3310     1.2880 H     1 <1>   0.0800 
 24 H       -2.6230    -5.1350    -0.0550 H     1 <1>   0.0800 
 25 H       -2.5810    -4.1250    -1.4850 H     1 <1>   0.0800 
 26 H        1.9150     0.7520    -0.2790 H     1 <1>   0.1500 
 27 H        5.7750    -2.2690     0.0440 H     1 <1>   0.1500 
 28 H        4.1820     1.6390    -0.3730 H     1 <1>   0.1500 
 29 H        3.9750    -5.4000     0.4230 H     1 <1>   0.0800 
 30 H        4.9850    -4.1780     1.1860 H     1 <1>   0.0800 
 31 H        5.0210    -4.3960    -0.5740 H     1 <1>   0.0800 
 32 H        6.1140     0.1240    -0.2110 H     1 <1>   0.1500 
@<TRIPOS>BOND
  1   1   2  2   
  2   2   3  am  
  3   2   4  am  
  4   3   5  1   
  5   3   6  1   
  6   4   7  1   
  7   4  17  1   
  8   5   8  1   
  9   5  18  1   
 10   5  19  1   
 11   6   9  1   
 12   6  20  1   
 13   6  21  1   
 14   7  10  ar  
 15   7  11  ar  
 16   8   9  1   
 17   8  22  1   
 18   8  23  1   
 19   9  24  1   
 20   9  25  1   
 21  10  12  1   
 22  10  13  ar  
 23  11  14  ar  
 24  11  26  1   
 25  12  15  1   
 26  13  16  ar  
 27  13  27  1   
 28  14  16  ar  
 29  14  28  1   
 30  15  29  1   
 31  15  30  1   
 32  15  31  1   
 33  16  32  1   
@<TRIPOS>SUBSTRUCTURE
  1 ****   4 GROUP 4 **** **** 0

# MOE 2024.06 (io_trps.svl 2023.06)
