@<TRIPOS>MOLECULE
NONAME
34 35 1 0 0 
SMALL
USER_CHARGES


@<TRIPOS>ATOM
  1 CL       0.5300     0.3200     0.6250 Cl    1 <1>  -0.1770 
  2 C        1.1340    -1.3030     0.3750 C.ar  1 <1>   0.1770 
  3 C        0.2660    -2.3650     0.1860 C.ar  1 <1>   0.1900 
  4 C        2.4980    -1.5180     0.3690 C.ar  1 <1>  -0.1500 
  5 F       -1.0280    -2.1650     0.1900 F     1 <1>  -0.1900 
  6 C        0.7390    -3.6480    -0.0090 C.ar  1 <1>  -0.1500 
  7 C        3.0050    -2.8000     0.1710 C.ar  1 <1>   0.1170 
  8 C        2.1090    -3.8570    -0.0120 C.ar  1 <1>  -0.1500 
  9 N        4.3960    -2.9750     0.1820 N.am  1 <1>  -0.5470 
 10 C        5.2030    -3.9210    -0.3890 C.2   1 <1>   0.6900 
 11 O        4.7280    -4.8440    -1.0240 O.2   1 <1>  -0.5700 
 12 N        6.5630    -3.8120    -0.2280 N.am  1 <1>  -0.6600 
 13 C        7.4050    -5.0260    -0.4500 C.3   1 <1>   0.1400 
 14 C        7.2180    -2.4890     0.0070 C.3   1 <1>   0.1400 
 15 C        8.5510    -5.1550     0.5590 C.3   1 <1>  -0.1600 
 16 C        8.5840    -2.3250    -0.6710 C.3   1 <1>  -0.1600 
 17 C        9.8310    -4.4380     0.1060 C.3   1 <1>  -0.1600 
 18 C        9.7430    -2.9100     0.1500 C.3   1 <1>  -0.1600 
 19 H        3.1610    -0.6860     0.5140 H     1 <1>   0.1500 
 20 H        0.0530    -4.4630    -0.1540 H     1 <1>   0.1500 
 21 H        2.4820    -4.8550    -0.1560 H     1 <1>   0.1500 
 22 H        4.9240    -2.2850     0.7030 H     1 <1>   0.3700 
 23 H        7.7840    -5.0210    -1.4570 H     1 <1>   0.0800 
 24 H        6.7840    -5.9010    -0.3500 H     1 <1>   0.0800 
 25 H        7.3200    -2.3320     1.0670 H     1 <1>   0.0800 
 26 H        6.5770    -1.7170    -0.3810 H     1 <1>   0.0800 
 27 H        8.7860    -6.2010     0.6430 H     1 <1>   0.0800 
 28 H        8.2370    -4.8200     1.5320 H     1 <1>   0.0800 
 29 H        8.7660    -1.2680    -0.7640 H     1 <1>   0.0800 
 30 H        8.5650    -2.7280    -1.6690 H     1 <1>   0.0800 
 31 H       10.0800    -4.7520    -0.8930 H     1 <1>   0.0800 
 32 H       10.6400    -4.7460     0.7460 H     1 <1>   0.0800 
 33 H        9.6610    -2.5850     1.1730 H     1 <1>   0.0800 
 34 H       10.6670    -2.5140    -0.2350 H     1 <1>   0.0800 
@<TRIPOS>BOND
  1   1   2  1   
  2   2   3  ar  
  3   2   4  ar  
  4   3   5  1   
  5   3   6  ar  
  6   4   7  ar  
  7   4  19  1   
  8   6   8  ar  
  9   6  20  1   
 10   7   8  ar  
 11   7   9  1   
 12   8  21  1   
 13   9  10  am  
 14   9  22  1   
 15  10  11  2   
 16  10  12  am  
 17  12  13  1   
 18  12  14  1   
 19  13  15  1   
 20  13  23  1   
 21  13  24  1   
 22  14  16  1   
 23  14  25  1   
 24  14  26  1   
 25  15  17  1   
 26  15  27  1   
 27  15  28  1   
 28  16  18  1   
 29  16  29  1   
 30  16  30  1   
 31  17  18  1   
 32  17  31  1   
 33  17  32  1   
 34  18  33  1   
 35  18  34  1   
@<TRIPOS>SUBSTRUCTURE
  1 ****   9 GROUP 4 **** **** 0

# MOE 2024.06 (io_trps.svl 2023.06)
