@<TRIPOS>MOLECULE
NONAME
56 58 1 0 0 
SMALL
USER_CHARGES


@<TRIPOS>ATOM
  1 S       -0.2060    -0.2600    -1.0360 S.o2  1 <1>   1.3720 
  2 O       -0.9570    -1.3640    -1.5980 O.2   1 <1>  -0.6500 
  3 O        0.1860     0.8330    -1.9020 O.2   1 <1>  -0.6500 
  4 C       -1.1170     0.4180     0.3770 C.ar  1 <1>  -0.0090 
  5 C        1.2710    -0.9000    -0.2470 C.2   1 <1>  -0.0630 
  6 C       -1.4840     1.7590     0.4200 C.ar  1 <1>  -0.1500 
  7 C       -1.4670    -0.3830     1.4580 C.ar  1 <1>  -0.1500 
  8 C        1.7280    -2.1700    -0.1830 C.2   1 <1>  -0.0890 
  9 C        2.2210    -0.1850     0.4820 C.2   1 <1>   0.1080 
 10 C       -2.1640     2.2850     1.5050 C.ar  1 <1>  -0.1500 
 11 C       -2.1460     0.1340     2.5480 C.ar  1 <1>  -0.1500 
 12 O        1.1790    -3.2870    -0.7300 O.3   1 <1>  -0.2130 
 13 N        2.8710    -2.1990     0.5430 N.pl3 1 <1>   0.5930 
 14 N        3.1640    -0.9370     0.9560 N.2   1 <1>  -0.7070 
 15 C        2.2050     1.3080     0.7350 C.3   1 <1>  -0.0590 
 16 C       -2.4940     1.4710     2.5720 C.ar  1 <1>  -0.1500 
 17 C        0.2520    -4.0020    -0.0980 C.2   1 <1>   0.6590 
 18 C        3.6150    -3.3570     0.8980 C.ar  1 <1>  -0.0230 
 19 O       -0.1730    -3.6890     0.9860 O.2   1 <1>  -0.5700 
 20 C       -0.2300    -5.2440    -0.8200 C.3   1 <1>  -0.0990 
 21 C        4.4000    -4.0430    -0.0320 C.ar  1 <1>  -0.1430 
 22 C        3.5370    -3.8380     2.2000 C.ar  1 <1>  -0.1500 
 23 C        0.8930    -6.2680    -1.0780 C.3   1 <1>  -0.0800 
 24 C        5.0650    -5.1970     0.3520 C.ar  1 <1>  -0.1500 
 25 C        4.5440    -3.5490    -1.4660 C.3   1 <1>  -0.0970 
 26 C        4.2070    -4.9870     2.5730 C.ar  1 <1>  -0.1500 
 27 C        0.3490    -7.4590    -1.8750 C.3   1 <1>  -0.2400 
 28 C        1.5170    -6.7650     0.2330 C.3   1 <1>  -0.2400 
 29 C        4.9710    -5.6760     1.6480 C.ar  1 <1>  -0.1430 
 30 C        5.7060    -6.9420     2.0510 C.3   1 <1>  -0.0970 
 31 H       -1.2370     2.4060    -0.4070 H     1 <1>   0.1500 
 32 H       -1.2090    -1.4290     1.4560 H     1 <1>   0.1500 
 33 H       -2.4380     3.3270     1.5180 H     1 <1>   0.1500 
 34 H       -2.4030    -0.5060     3.3740 H     1 <1>   0.1500 
 35 H        1.4440     1.5520     1.4540 H     1 <1>   0.0800 
 36 H        2.0210     1.8440    -0.1790 H     1 <1>   0.0800 
 37 H        3.1570     1.6200     1.1260 H     1 <1>   0.0800 
 38 H       -3.0230     1.8760     3.4180 H     1 <1>   0.1500 
 39 H       -0.6600    -4.9330    -1.7540 H     1 <1>   0.0800 
 40 H       -1.0080    -5.6980    -0.2340 H     1 <1>   0.0800 
 41 H        2.9420    -3.3080     2.9250 H     1 <1>   0.1500 
 42 H        1.6660    -5.7970    -1.6640 H     1 <1>   0.0800 
 43 H        5.6680    -5.7300    -0.3620 H     1 <1>   0.1500 
 44 H        4.7730    -2.4970    -1.4760 H     1 <1>   0.0800 
 45 H        3.6310    -3.7140    -2.0090 H     1 <1>   0.0800 
 46 H        5.3390    -4.0660    -1.9720 H     1 <1>   0.0800 
 47 H        4.1310    -5.3420     3.5860 H     1 <1>   0.1500 
 48 H       -0.4230    -7.9660    -1.3230 H     1 <1>   0.0800 
 49 H        1.1380    -8.1610    -2.0830 H     1 <1>   0.0800 
 50 H       -0.0610    -7.1280    -2.8130 H     1 <1>   0.0800 
 51 H        0.7750    -7.2320     0.8560 H     1 <1>   0.0800 
 52 H        2.2940    -7.4810     0.0290 H     1 <1>   0.0800 
 53 H        1.9590    -5.9520     0.7810 H     1 <1>   0.0800 
 54 H        6.7070    -6.6970     2.3590 H     1 <1>   0.0800 
 55 H        5.7540    -7.6270     1.2240 H     1 <1>   0.0800 
 56 H        5.2010    -7.4280     2.8650 H     1 <1>   0.0800 
@<TRIPOS>BOND
  1   1   2  2   
  2   1   3  2   
  3   1   4  1   
  4   1   5  1   
  5   4   6  ar  
  6   4   7  ar  
  7   5   8  2   
  8   5   9  1   
  9   6  10  ar  
 10   6  31  1   
 11   7  11  ar  
 12   7  32  1   
 13   8  12  1   
 14   8  13  1   
 15   9  14  2   
 16   9  15  1   
 17  10  16  ar  
 18  10  33  1   
 19  11  16  ar  
 20  11  34  1   
 21  12  17  1   
 22  13  14  1   
 23  13  18  1   
 24  15  35  1   
 25  15  36  1   
 26  15  37  1   
 27  16  38  1   
 28  17  19  2   
 29  17  20  1   
 30  18  21  ar  
 31  18  22  ar  
 32  20  23  1   
 33  20  39  1   
 34  20  40  1   
 35  21  24  ar  
 36  21  25  1   
 37  22  26  ar  
 38  22  41  1   
 39  23  27  1   
 40  23  28  1   
 41  23  42  1   
 42  24  29  ar  
 43  24  43  1   
 44  25  44  1   
 45  25  45  1   
 46  25  46  1   
 47  26  29  ar  
 48  26  47  1   
 49  27  48  1   
 50  27  49  1   
 51  27  50  1   
 52  28  51  1   
 53  28  52  1   
 54  28  53  1   
 55  29  30  1   
 56  30  54  1   
 57  30  55  1   
 58  30  56  1   
@<TRIPOS>SUBSTRUCTURE
  1 ****   8 GROUP 4 **** **** 0

# MOE 2024.06 (io_trps.svl 2023.06)
