@<TRIPOS>MOLECULE
NONAME
33 33 1 0 0 
SMALL
USER_CHARGES


@<TRIPOS>ATOM
  1 O       -8.0390    -6.5410    -0.1210 O.2   1 <1>  -0.5700 
  2 C       -7.1980    -5.6890    -0.2560 C.2   1 <1>   0.5690 
  3 N       -7.5140    -4.5050    -0.8200 N.am  1 <1>  -0.8000 
  4 C       -5.7740    -5.9630     0.2120 C.3   1 <1>   0.1810 
  5 O       -4.9510    -4.8190     0.0290 O.3   1 <1>  -0.3630 
  6 C       -3.6110    -4.8420     0.2650 C.ar  1 <1>   0.0830 
  7 C       -2.8760    -3.7010    -0.0610 C.ar  1 <1>   0.0830 
  8 C       -2.9630    -5.9440     0.8120 C.ar  1 <1>  -0.1500 
  9 O       -3.5440    -2.6360    -0.5870 O.3   1 <1>  -0.3630 
 10 C       -1.5010    -3.6840     0.1460 C.ar  1 <1>  -0.1500 
 11 C       -1.5950    -5.9180     1.0160 C.ar  1 <1>  -0.1500 
 12 C       -3.0220    -1.3270    -0.5150 C.3   1 <1>   0.0400 
 13 C       -0.8570    -4.7940     0.6760 C.ar  1 <1>  -0.1430 
 14 C        0.6420    -4.7860     0.8630 C.3   1 <1>   0.4860 
 15 N        1.2160    -5.2990    -0.3990 N.4   1 <1>  -0.9060 
 16 C        2.7050    -5.3840    -0.3920 C.3   1 <1>   0.2630 
 17 H       -8.4630    -4.3120    -1.1350 H     1 <1>   0.3700 
 18 H       -6.8120    -3.7690    -0.9350 H     1 <1>   0.3700 
 19 H       -5.3670    -6.7750    -0.3620 H     1 <1>   0.0800 
 20 H       -5.7840    -6.2130     1.2570 H     1 <1>   0.0800 
 21 H       -3.5060    -6.8290     1.0880 H     1 <1>   0.1500 
 22 H       -0.9350    -2.8090    -0.1120 H     1 <1>   0.1500 
 23 H       -1.1220    -6.7860     1.4450 H     1 <1>   0.1500 
 24 H       -3.7960    -0.6440    -0.8190 H     1 <1>   0.0800 
 25 H       -2.1850    -1.2440    -1.1840 H     1 <1>   0.0800 
 26 H       -2.7330    -1.1190     0.5000 H     1 <1>   0.0800 
 27 H        0.9160    -5.4190     1.6910 H     1 <1>   0.0800 
 28 H        0.9870    -3.7830     1.0590 H     1 <1>   0.0800 
 29 H        0.8850    -4.6940    -1.1630 H     1 <1>   0.4500 
 30 H        0.7940    -6.2190    -0.5810 H     1 <1>   0.4500 
 31 H        3.1380    -4.4090    -0.2310 H     1 <1>   0.0800 
 32 H        3.0620    -5.7650    -1.3360 H     1 <1>   0.0800 
 33 H        3.0410    -6.0450     0.3920 H     1 <1>   0.0800 
@<TRIPOS>BOND
  1   1   2  2   
  2   2   3  am  
  3   2   4  1   
  4   3  17  1   
  5   3  18  1   
  6   4   5  1   
  7   4  19  1   
  8   4  20  1   
  9   5   6  1   
 10   6   7  ar  
 11   6   8  ar  
 12   7   9  1   
 13   7  10  ar  
 14   8  11  ar  
 15   8  21  1   
 16   9  12  1   
 17  10  13  ar  
 18  10  22  1   
 19  11  13  ar  
 20  11  23  1   
 21  12  24  1   
 22  12  25  1   
 23  12  26  1   
 24  13  14  1   
 25  14  15  1   
 26  14  27  1   
 27  14  28  1   
 28  15  16  1   
 29  15  29  1   
 30  15  30  1   
 31  16  31  1   
 32  16  32  1   
 33  16  33  1   
@<TRIPOS>SUBSTRUCTURE
  1 ****   6 GROUP 4 **** **** 0

# MOE 2024.06 (io_trps.svl 2023.06)
