@<TRIPOS>MOLECULE
NONAME
52 54 1 0 0 
SMALL
USER_CHARGES


@<TRIPOS>ATOM
  1 F        1.6120     0.1100     1.2810 F     1 <1>  -0.1900 
  2 C        2.5510     0.1600     0.3770 C.ar  1 <1>   0.1900 
  3 C        3.3580     1.2800     0.3240 C.ar  1 <1>  -0.1500 
  4 C        2.7060    -0.9060    -0.4870 C.ar  1 <1>  -0.1500 
  5 C        4.3680     1.3350    -0.6280 C.ar  1 <1>  -0.1440 
  6 C        3.7070    -0.8420    -1.4410 C.ar  1 <1>  -0.1500 
  7 C        4.5300     0.2720    -1.5110 C.ar  1 <1>  -0.1500 
  8 C        5.2880     2.5390    -0.7020 C.3   1 <1>   0.4870 
  9 N        6.2320     2.4880     0.4460 N.4   1 <1>  -0.9590 
 10 C        7.0530     3.7520     0.5120 C.3   1 <1>   0.3430 
 11 C        7.1040     1.2570     0.3710 C.3   1 <1>   0.3430 
 12 C        8.1370     3.6940     1.6110 C.3   1 <1>   0.1400 
 13 C        8.1640     1.2190     1.4910 C.3   1 <1>   0.1400 
 14 N        8.9730     2.4670     1.4640 N.am  1 <1>  -0.6600 
 15 C        9.9670     2.5070     0.5340 C.2   1 <1>   0.6900 
 16 O        9.7000     2.9140    -0.5800 O.2   1 <1>  -0.5700 
 17 N       11.1860     2.0230     0.8890 N.am  1 <1>  -0.5470 
 18 C       12.3610     1.8060     0.1520 C.ar  1 <1>   0.1170 
 19 C       13.3040     0.9230     0.6630 C.ar  1 <1>  -0.1500 
 20 C       12.6310     2.4350    -1.0610 C.ar  1 <1>  -0.1500 
 21 C       14.4820     0.6610    -0.0130 C.ar  1 <1>   0.0830 
 22 C       13.8130     2.1920    -1.7390 C.ar  1 <1>  -0.1500 
 23 O       15.3290    -0.2420     0.5430 O.3   1 <1>  -0.3630 
 24 C       14.7510     1.3200    -1.2170 C.ar  1 <1>   0.0830 
 25 C       15.5750    -1.4170    -0.2000 C.3   1 <1>   0.0400 
 26 O       15.9080     1.1510    -1.9060 O.3   1 <1>  -0.3630 
 27 C       17.0620     1.6870    -1.2970 C.3   1 <1>   0.0400 
 28 H        3.1770     2.0800     1.0200 H     1 <1>   0.1500 
 29 H        2.0550    -1.7600    -0.4140 H     1 <1>   0.1500 
 30 H        3.8400    -1.6600    -2.1300 H     1 <1>   0.1500 
 31 H        5.2970     0.2960    -2.2680 H     1 <1>   0.1500 
 32 H        4.6980     3.4410    -0.6610 H     1 <1>   0.0800 
 33 H        5.8330     2.5300    -1.6330 H     1 <1>   0.0800 
 34 H        5.6670     2.4130     1.3000 H     1 <1>   0.4500 
 35 H        6.4140     4.6000     0.6900 H     1 <1>   0.0800 
 36 H        7.5490     3.9070    -0.4330 H     1 <1>   0.0800 
 37 H        7.6190     1.2390    -0.5760 H     1 <1>   0.0800 
 38 H        6.4940     0.3700     0.4330 H     1 <1>   0.0800 
 39 H        7.6810     3.7080     2.5860 H     1 <1>   0.0800 
 40 H        8.7670     4.5650     1.5310 H     1 <1>   0.0800 
 41 H        8.8080     0.3680     1.3410 H     1 <1>   0.0800 
 42 H        7.6910     1.1100     2.4520 H     1 <1>   0.0800 
 43 H       11.2370     1.7580     1.8690 H     1 <1>   0.3700 
 44 H       13.1270     0.4200     1.5950 H     1 <1>   0.1500 
 45 H       11.9270     3.1260    -1.4850 H     1 <1>   0.1500 
 46 H       14.0150     2.6840    -2.6740 H     1 <1>   0.1500 
 47 H       16.1230    -2.0990     0.4230 H     1 <1>   0.0800 
 48 H       16.1530    -1.1740    -1.0720 H     1 <1>   0.0800 
 49 H       14.6330    -1.8520    -0.4860 H     1 <1>   0.0800 
 50 H       17.8910     1.5470    -1.9650 H     1 <1>   0.0800 
 51 H       17.2450     1.1730    -0.3700 H     1 <1>   0.0800 
 52 H       16.9040     2.7350    -1.1170 H     1 <1>   0.0800 
@<TRIPOS>BOND
  1   1   2  1   
  2   2   3  ar  
  3   2   4  ar  
  4   3   5  ar  
  5   3  28  1   
  6   4   6  ar  
  7   4  29  1   
  8   5   7  ar  
  9   5   8  1   
 10   6   7  ar  
 11   6  30  1   
 12   7  31  1   
 13   8   9  1   
 14   8  32  1   
 15   8  33  1   
 16   9  10  1   
 17   9  11  1   
 18   9  34  1   
 19  10  12  1   
 20  10  35  1   
 21  10  36  1   
 22  11  13  1   
 23  11  37  1   
 24  11  38  1   
 25  12  14  1   
 26  12  39  1   
 27  12  40  1   
 28  13  14  1   
 29  13  41  1   
 30  13  42  1   
 31  14  15  am  
 32  15  16  2   
 33  15  17  am  
 34  17  18  1   
 35  17  43  1   
 36  18  19  ar  
 37  18  20  ar  
 38  19  21  ar  
 39  19  44  1   
 40  20  22  ar  
 41  20  45  1   
 42  21  23  1   
 43  21  24  ar  
 44  22  24  ar  
 45  22  46  1   
 46  23  25  1   
 47  24  26  1   
 48  25  47  1   
 49  25  48  1   
 50  25  49  1   
 51  26  27  1   
 52  27  50  1   
 53  27  51  1   
 54  27  52  1   
@<TRIPOS>SUBSTRUCTURE
  1 ****  15 GROUP 4 **** **** 0

# MOE 2024.06 (io_trps.svl 2023.06)
