@<TRIPOS>MOLECULE
NONAME
40 41 1 0 0 
SMALL
USER_CHARGES


@<TRIPOS>ATOM
  1 CL      -0.1510     1.9870    -1.6650 Cl    1 <1>  -0.1770 
  2 C        1.3460     1.9950    -0.7620 C.ar  1 <1>   0.1770 
  3 C        1.4770     2.6980     0.4330 C.ar  1 <1>  -0.1440 
  4 C        2.3930     1.2630    -1.2910 C.ar  1 <1>  -0.1500 
  5 C        2.7060     2.6540     1.0820 C.ar  1 <1>  -0.1500 
  6 C        0.3480     3.5150     1.0610 C.3   1 <1>   0.5020 
  7 C        3.6050     1.2160    -0.6290 C.ar  1 <1>   0.0830 
  8 C        3.7700     1.9390     0.5580 C.ar  1 <1>   0.0830 
  9 N       -0.6720     2.5750     1.5590 N.am  1 <1>  -0.7300 
 10 C       -0.2250     4.5980     0.1360 C.2   1 <1>  -0.1240 
 11 O        4.5850     0.4550    -1.1710 O.3   1 <1>  -0.3630 
 12 O        4.9400     1.9840     1.2400 O.3   1 <1>  -0.3630 
 13 C       -1.9640     2.6140     1.1990 C.2   1 <1>   0.6900 
 14 C       -1.5600     4.5900    -0.1420 C.2   1 <1>  -0.0290 
 15 C        0.7680     5.5160    -0.3350 C.2   1 <1>   0.7060 
 16 C        4.9610    -0.6940    -0.4420 C.3   1 <1>   0.0400 
 17 C        6.0370     2.5770     0.5780 C.3   1 <1>   0.0400 
 18 O       -2.7400     1.7720     1.5870 O.2   1 <1>  -0.5700 
 19 N       -2.3820     3.6170     0.3890 N.am  1 <1>  -0.5390 
 20 C       -2.3020     5.5870    -1.0200 C.3   1 <1>  -0.1020 
 21 O        0.6710     6.1640    -1.3580 O.2   1 <1>  -0.5700 
 22 O        1.8770     5.6760     0.4020 O.3   1 <1>  -0.4300 
 23 C        2.9270     6.5310    -0.0070 C.3   1 <1>   0.0400 
 24 H        2.2640     0.7270    -2.2130 H     1 <1>   0.1500 
 25 H        2.8610     3.1850     2.0050 H     1 <1>   0.1500 
 26 H        0.7390     4.0200     1.9270 H     1 <1>   0.0800 
 27 H       -0.3500     1.7430     2.0470 H     1 <1>   0.3700 
 28 H        5.6940    -1.2320    -1.0160 H     1 <1>   0.0800 
 29 H        4.0910    -1.3070    -0.2870 H     1 <1>   0.0800 
 30 H        5.3810    -0.3960     0.5020 H     1 <1>   0.0800 
 31 H        6.8430     2.6740     1.2830 H     1 <1>   0.0800 
 32 H        5.7430     3.5470     0.2180 H     1 <1>   0.0800 
 33 H        6.3430     1.9520    -0.2410 H     1 <1>   0.0800 
 34 H       -3.3710     3.5620     0.1500 H     1 <1>   0.3700 
 35 H       -2.5360     5.1310    -1.9650 H     1 <1>   0.0800 
 36 H       -1.7300     6.4760    -1.2020 H     1 <1>   0.0800 
 37 H       -3.2180     5.8880    -0.5440 H     1 <1>   0.0800 
 38 H        3.7070     6.4930     0.7320 H     1 <1>   0.0800 
 39 H        2.5460     7.5340    -0.0940 H     1 <1>   0.0800 
 40 H        3.3010     6.1920    -0.9580 H     1 <1>   0.0800 
@<TRIPOS>BOND
  1   1   2  1   
  2   2   3  ar  
  3   2   4  ar  
  4   3   5  ar  
  5   3   6  1   
  6   4   7  ar  
  7   4  24  1   
  8   5   8  ar  
  9   5  25  1   
 10   6   9  1   
 11   6  10  1   
 12   6  26  1   
 13   7   8  ar  
 14   7  11  1   
 15   8  12  1   
 16   9  13  am  
 17   9  27  1   
 18  10  14  2   
 19  10  15  1   
 20  11  16  1   
 21  12  17  1   
 22  13  18  2   
 23  13  19  am  
 24  14  19  1   
 25  14  20  1   
 26  15  21  2   
 27  15  22  1   
 28  16  28  1   
 29  16  29  1   
 30  16  30  1   
 31  17  31  1   
 32  17  32  1   
 33  17  33  1   
 34  19  34  1   
 35  20  35  1   
 36  20  36  1   
 37  20  37  1   
 38  22  23  1   
 39  23  38  1   
 40  23  39  1   
 41  23  40  1   
@<TRIPOS>SUBSTRUCTURE
  1 ****   3 GROUP 4 **** **** 0

# MOE 2024.06 (io_trps.svl 2023.06)
