@<TRIPOS>MOLECULE
NONAME
40 40 1 0 0 
SMALL
USER_CHARGES


@<TRIPOS>ATOM
  1 S       -1.5370     1.4310    -1.8160 S.2   1 <1>  -0.6770 
  2 P       -0.3640     2.2940    -0.5470 P.3   1 <1>   0.9530 
  3 N        1.2180     1.7880    -0.9290 N.pl3 1 <1>  -0.7760 
  4 C       -0.4150     4.1010    -0.6800 C.3   1 <1>   0.0000 
  5 C       -0.6640     1.7280     1.1300 C.3   1 <1>  -0.0800 
  6 C        2.4090     2.2280    -0.4370 C.ar  1 <1>   0.4100 
  7 C        0.3410     4.8400     0.4450 C.3   1 <1>  -0.2400 
  8 C        0.1910     4.5910    -2.0150 C.3   1 <1>  -0.2400 
  9 C       -1.8570     4.6590    -0.6810 C.3   1 <1>  -0.2400 
 10 C       -0.4330     0.2100     1.2930 C.3   1 <1>  -0.2400 
 11 C       -2.0700     2.0170     1.6900 C.3   1 <1>  -0.2400 
 12 N        3.1920     2.7570    -1.3580 N.ar  1 <1>  -0.6200 
 13 C        2.7720     2.1080     0.9030 C.ar  1 <1>  -0.1500 
 14 C        4.3580     3.2160    -0.9330 C.ar  1 <1>   0.1600 
 15 C        3.9860     2.5920     1.3310 C.ar  1 <1>  -0.1500 
 16 C        4.8030     3.1690     0.3790 C.ar  1 <1>  -0.1440 
 17 C        6.1580     3.7260     0.7800 C.3   1 <1>  -0.0970 
 18 H        1.3090     1.6950    -1.9400 H     1 <1>   0.4000 
 19 H        0.0200     2.2140     1.7980 H     1 <1>   0.0800 
 20 H       -0.0700     4.5990     1.4090 H     1 <1>   0.0800 
 21 H        0.2730     5.9060     0.3140 H     1 <1>   0.0800 
 22 H        1.3840     4.5800     0.4430 H     1 <1>   0.0800 
 23 H        1.2340     4.3470    -2.0810 H     1 <1>   0.0800 
 24 H        0.1010     5.6580    -2.1190 H     1 <1>   0.0800 
 25 H       -0.3120     4.1280    -2.8470 H     1 <1>   0.0800 
 26 H       -2.4340     4.2060    -1.4680 H     1 <1>   0.0800 
 27 H       -1.8600     5.7230    -0.8400 H     1 <1>   0.0800 
 28 H       -2.3580     4.4730     0.2470 H     1 <1>   0.0800 
 29 H       -1.1480    -0.3400     0.7060 H     1 <1>   0.0800 
 30 H       -0.5320    -0.0870     2.3220 H     1 <1>   0.0800 
 31 H        0.5510    -0.0680     0.9590 H     1 <1>   0.0800 
 32 H       -2.8270     1.6710     1.0070 H     1 <1>   0.0800 
 33 H       -2.2050     3.0670     1.8620 H     1 <1>   0.0800 
 34 H       -2.2150     1.5220     2.6350 H     1 <1>   0.0800 
 35 H        2.1190     1.6260     1.5980 H     1 <1>   0.1500 
 36 H        4.9970     3.6550    -1.6800 H     1 <1>   0.1500 
 37 H        4.2890     2.5180     2.3610 H     1 <1>   0.1500 
 38 H        6.6500     4.1840    -0.0590 H     1 <1>   0.0800 
 39 H        6.7830     2.9340     1.1530 H     1 <1>   0.0800 
 40 H        6.0380     4.4660     1.5520 H     1 <1>   0.0800 
@<TRIPOS>BOND
  1   1   2  2   
  2   2   3  1   
  3   2   4  1   
  4   2   5  1   
  5   3   6  1   
  6   3  18  1   
  7   4   7  1   
  8   4   8  1   
  9   4   9  1   
 10   5  10  1   
 11   5  11  1   
 12   5  19  1   
 13   6  12  ar  
 14   6  13  ar  
 15   7  20  1   
 16   7  21  1   
 17   7  22  1   
 18   8  23  1   
 19   8  24  1   
 20   8  25  1   
 21   9  26  1   
 22   9  27  1   
 23   9  28  1   
 24  10  29  1   
 25  10  30  1   
 26  10  31  1   
 27  11  32  1   
 28  11  33  1   
 29  11  34  1   
 30  12  14  ar  
 31  13  15  ar  
 32  13  35  1   
 33  14  16  ar  
 34  14  36  1   
 35  15  16  ar  
 36  15  37  1   
 37  16  17  1   
 38  17  38  1   
 39  17  39  1   
 40  17  40  1   
@<TRIPOS>SUBSTRUCTURE
  1 ****   6 GROUP 4 **** **** 0

# MOE 2024.06 (io_trps.svl 2023.06)
