@<TRIPOS>MOLECULE
NONAME
51 53 1 0 0 
SMALL
USER_CHARGES


@<TRIPOS>ATOM
  1 S       -0.0800     0.3340     0.2810 S.o2  1 <1>   1.4470 
  2 O       -0.2470    -0.0350     1.6710 O.2   1 <1>  -0.6500 
  3 O        0.1850    -0.7000    -0.6950 O.2   1 <1>  -0.6500 
  4 N       -1.5190     1.1060    -0.1810 N.am  1 <1>  -0.8490 
  5 C        1.1680     1.6420     0.1250 C.ar  1 <1>  -0.0090 
  6 C       -1.9600     2.0860     0.8170 C.3   1 <1>   0.1960 
  7 C       -2.5690     0.1320    -0.4870 C.3   1 <1>   0.1960 
  8 C        1.2280     2.4420    -1.0110 C.ar  1 <1>  -0.1500 
  9 C        2.0990     1.8760     1.1320 C.ar  1 <1>  -0.1500 
 10 C       -3.1700     2.8630     0.2960 C.3   1 <1>  -0.1600 
 11 C       -3.8100     0.8400    -1.0380 C.3   1 <1>  -0.1600 
 12 C        2.1750     3.4440    -1.1330 C.ar  1 <1>  -0.1500 
 13 C        3.0510     2.8750     1.0190 C.ar  1 <1>  -0.1500 
 14 C       -4.3260     1.9140    -0.0660 C.3   1 <1>  -0.0190 
 15 C        3.0920     3.6690    -0.1220 C.ar  1 <1>   0.0820 
 16 C       -5.5230     2.6660    -0.6480 C.2   1 <1>   0.5690 
 17 O        3.9860     4.6690    -0.3170 O.3   1 <1>  -0.3630 
 18 O       -5.3490     3.3910    -1.5960 O.2   1 <1>  -0.5700 
 19 N       -6.7440     2.4620    -0.0610 N.am  1 <1>  -0.5470 
 20 C        4.9790     4.9650     0.6360 C.3   1 <1>   0.1200 
 21 C       -8.0100     3.0020    -0.3380 C.ar  1 <1>   0.1170 
 22 C        5.8160     6.1240     0.1010 C.3   1 <1>  -0.2400 
 23 C       -9.1320     2.3440     0.1550 C.ar  1 <1>  -0.1500 
 24 C       -8.2020     4.1710    -1.0690 C.ar  1 <1>  -0.1500 
 25 C      -10.4050     2.8330    -0.0750 C.ar  1 <1>  -0.1500 
 26 C       -9.4740     4.6630    -1.3030 C.ar  1 <1>  -0.1500 
 27 C      -10.5780     3.9950    -0.8060 C.ar  1 <1>  -0.1500 
 28 H       -1.1630     2.7810     1.0210 H     1 <1>   0.0800 
 29 H       -2.2150     1.5860     1.7380 H     1 <1>   0.0800 
 30 H       -2.8190    -0.4270     0.4010 H     1 <1>   0.0800 
 31 H       -2.2150    -0.5640    -1.2310 H     1 <1>   0.0800 
 32 H        0.5210     2.2780    -1.8080 H     1 <1>   0.1500 
 33 H        2.0760     1.2650     2.0200 H     1 <1>   0.1500 
 34 H       -2.8720     3.4270    -0.5720 H     1 <1>   0.0800 
 35 H       -3.4960     3.5630     1.0440 H     1 <1>   0.0800 
 36 H       -4.5810     0.1150    -1.2250 H     1 <1>   0.0800 
 37 H       -3.5560     1.2950    -1.9810 H     1 <1>   0.0800 
 38 H        2.2090     4.0570    -2.0170 H     1 <1>   0.1500 
 39 H        3.7470     3.0170     1.8240 H     1 <1>   0.1500 
 40 H       -4.6390     1.4210     0.8370 H     1 <1>   0.0800 
 41 H       -6.7480     1.7730     0.6870 H     1 <1>   0.3700 
 42 H        5.5890     4.0890     0.7760 H     1 <1>   0.0800 
 43 H        4.4970     5.2390     1.5580 H     1 <1>   0.0800 
 44 H        6.2810     5.8460    -0.8280 H     1 <1>   0.0800 
 45 H        6.5860     6.3740     0.8080 H     1 <1>   0.0800 
 46 H        5.1960     6.9890    -0.0520 H     1 <1>   0.0800 
 47 H       -9.0150     1.4390     0.7220 H     1 <1>   0.1500 
 48 H       -7.3590     4.7100    -1.4600 H     1 <1>   0.1500 
 49 H      -11.2640     2.3120     0.3120 H     1 <1>   0.1500 
 50 H       -9.6020     5.5680    -1.8720 H     1 <1>   0.1500 
 51 H      -11.5670     4.3780    -0.9880 H     1 <1>   0.1500 
@<TRIPOS>BOND
  1   1   2  2   
  2   1   3  2   
  3   1   4  am  
  4   1   5  1   
  5   4   6  1   
  6   4   7  1   
  7   5   8  ar  
  8   5   9  ar  
  9   6  10  1   
 10   6  28  1   
 11   6  29  1   
 12   7  11  1   
 13   7  30  1   
 14   7  31  1   
 15   8  12  ar  
 16   8  32  1   
 17   9  13  ar  
 18   9  33  1   
 19  10  14  1   
 20  10  34  1   
 21  10  35  1   
 22  11  14  1   
 23  11  36  1   
 24  11  37  1   
 25  12  15  ar  
 26  12  38  1   
 27  13  15  ar  
 28  13  39  1   
 29  14  16  1   
 30  14  40  1   
 31  15  17  1   
 32  16  18  2   
 33  16  19  am  
 34  17  20  1   
 35  19  21  1   
 36  19  41  1   
 37  20  22  1   
 38  20  42  1   
 39  20  43  1   
 40  21  23  ar  
 41  21  24  ar  
 42  22  44  1   
 43  22  45  1   
 44  22  46  1   
 45  23  25  ar  
 46  23  47  1   
 47  24  26  ar  
 48  24  48  1   
 49  25  27  ar  
 50  25  49  1   
 51  26  27  ar  
 52  26  50  1   
 53  27  51  1   
@<TRIPOS>SUBSTRUCTURE
  1 ****  10 GROUP 4 **** **** 0

# MOE 2024.06 (io_trps.svl 2023.06)
