@<TRIPOS>MOLECULE
NONAME
29 29 1 0 0 
SMALL
USER_CHARGES


@<TRIPOS>ATOM
  1 O       -0.1770    -0.1780    -0.5740 O.2   1 <1>  -0.5700 
  2 C       -0.3460     0.9300    -0.1120 C.2   1 <1>   0.7800 
  3 O        0.6790     1.7030     0.2450 O.3   1 <1>  -0.4300 
  4 N       -1.5660     1.5010     0.0840 N.am  1 <1>  -0.5470 
  5 C        2.0540     1.3930     0.1570 C.3   1 <1>   0.2800 
  6 C       -2.8750     1.0510    -0.1400 C.ar  1 <1>   0.1170 
  7 C        2.7770     2.6260     0.6990 C.3   1 <1>  -0.2400 
  8 C        2.4570     1.1730    -1.3060 C.3   1 <1>  -0.2400 
  9 C        2.3830     0.1850     1.0430 C.3   1 <1>  -0.2400 
 10 C       -3.9100     1.9790    -0.0920 C.ar  1 <1>  -0.1500 
 11 C       -3.1960    -0.2790    -0.3980 C.ar  1 <1>  -0.1500 
 12 C       -5.2240     1.5960    -0.2990 C.ar  1 <1>  -0.1500 
 13 C       -4.5070    -0.6670    -0.6060 C.ar  1 <1>  -0.1500 
 14 C       -5.5240     0.2700    -0.5570 C.ar  1 <1>  -0.1500 
 15 H       -1.4810     2.4490     0.4370 H     1 <1>   0.3700 
 16 H        2.4880     2.8110     1.7180 H     1 <1>   0.0800 
 17 H        2.5390     3.4900     0.1050 H     1 <1>   0.0800 
 18 H        3.8410     2.4780     0.6700 H     1 <1>   0.0800 
 19 H        2.1480     2.0080    -1.9090 H     1 <1>   0.0800 
 20 H        2.0210     0.2730    -1.6980 H     1 <1>   0.0800 
 21 H        3.5240     1.0750    -1.3810 H     1 <1>   0.0800 
 22 H        2.0240     0.3440     2.0430 H     1 <1>   0.0800 
 23 H        3.4470     0.0390     1.0820 H     1 <1>   0.0800 
 24 H        1.9480    -0.7150     0.6500 H     1 <1>   0.0800 
 25 H       -3.6910     3.0120     0.1060 H     1 <1>   0.1500 
 26 H       -2.4240    -1.0250    -0.4370 H     1 <1>   0.1500 
 27 H       -6.0120     2.3270    -0.2600 H     1 <1>   0.1500 
 28 H       -4.7350    -1.6990    -0.8060 H     1 <1>   0.1500 
 29 H       -6.5450    -0.0320    -0.7190 H     1 <1>   0.1500 
@<TRIPOS>BOND
  1   1   2  2   
  2   2   3  1   
  3   2   4  am  
  4   3   5  1   
  5   4   6  1   
  6   4  15  1   
  7   5   7  1   
  8   5   8  1   
  9   5   9  1   
 10   6  10  ar  
 11   6  11  ar  
 12   7  16  1   
 13   7  17  1   
 14   7  18  1   
 15   8  19  1   
 16   8  20  1   
 17   8  21  1   
 18   9  22  1   
 19   9  23  1   
 20   9  24  1   
 21  10  12  ar  
 22  10  25  1   
 23  11  13  ar  
 24  11  26  1   
 25  12  14  ar  
 26  12  27  1   
 27  13  14  ar  
 28  13  28  1   
 29  14  29  1   
@<TRIPOS>SUBSTRUCTURE
  1 ****   4 GROUP 4 **** **** 0

# MOE 2024.06 (io_trps.svl 2023.06)
