@<TRIPOS>MOLECULE
NONAME
44 45 1 0 0 
SMALL
USER_CHARGES


@<TRIPOS>ATOM
  1 S        0.8710     2.4340    -1.2640 S.o2  1 <1>   1.4470 
  2 O        1.0410     3.8490    -1.0360 O.2   1 <1>  -0.6500 
  3 O        1.0330     1.9020    -2.5950 O.2   1 <1>  -0.6500 
  4 N        2.1060     1.7060    -0.3190 N.am  1 <1>  -0.7570 
  5 C       -0.6690     1.8420    -0.5150 C.ar  1 <1>  -0.0090 
  6 C        2.1410     0.3490    -0.0170 C.ar  1 <1>   0.1990 
  7 C       -1.0710     0.5230    -0.6830 C.ar  1 <1>  -0.1500 
  8 C       -1.4660     2.6710     0.2630 C.ar  1 <1>  -0.1500 
  9 C        2.7190    -0.5670    -0.9020 C.ar  1 <1>  -0.1440 
 10 C        1.5930    -0.1160     1.1840 C.ar  1 <1>  -0.1430 
 11 C       -2.2220     0.0170    -0.0860 C.ar  1 <1>   0.0830 
 12 C       -2.6250     2.1960     0.8490 C.ar  1 <1>  -0.1500 
 13 C        2.7000    -1.9180    -0.6020 C.ar  1 <1>  -0.1500 
 14 C        3.3770    -0.1430    -2.2110 C.3   1 <1>  -0.0970 
 15 C        1.5880    -1.4720     1.4600 C.ar  1 <1>  -0.1500 
 16 C        0.9900     0.8140     2.2330 C.3   1 <1>  -0.0970 
 17 O       -2.5540    -1.2990    -0.2230 O.3   1 <1>  -0.3630 
 18 C       -3.0220     0.8800     0.6820 C.ar  1 <1>   0.0830 
 19 C        2.1320    -2.3800     0.5710 C.ar  1 <1>  -0.1430 
 20 C       -1.5990    -2.2640    -0.6130 C.3   1 <1>   0.0400 
 21 O       -4.1860     0.5550     1.3130 O.3   1 <1>  -0.3630 
 22 C        2.1160    -3.8650     0.8860 C.3   1 <1>  -0.0970 
 23 C       -4.9960    -0.5170     0.8860 C.3   1 <1>   0.0400 
 24 H        2.9880     2.0950    -0.6270 H     1 <1>   0.4200 
 25 H       -0.4490    -0.1050    -1.2940 H     1 <1>   0.1500 
 26 H       -1.1780     3.6990     0.4130 H     1 <1>   0.1500 
 27 H       -3.2350     2.8510     1.4450 H     1 <1>   0.1500 
 28 H        3.1360    -2.6240    -1.2890 H     1 <1>   0.1500 
 29 H        2.6410    -0.1060    -2.9940 H     1 <1>   0.0800 
 30 H        4.1380    -0.8460    -2.4960 H     1 <1>   0.0800 
 31 H        3.8400     0.8220    -2.1250 H     1 <1>   0.0800 
 32 H        1.1570    -1.8260     2.3800 H     1 <1>   0.1500 
 33 H        1.2440     0.4690     3.2190 H     1 <1>   0.0800 
 34 H        1.3560     1.8190     2.1350 H     1 <1>   0.0800 
 35 H       -0.0810     0.8230     2.1440 H     1 <1>   0.0800 
 36 H       -2.0320    -3.2380    -0.4740 H     1 <1>   0.0800 
 37 H       -0.7240    -2.1620     0.0050 H     1 <1>   0.0800 
 38 H       -1.3550    -2.1190    -1.6500 H     1 <1>   0.0800 
 39 H        3.0040    -4.1280     1.4330 H     1 <1>   0.0800 
 40 H        2.0830    -4.4430    -0.0200 H     1 <1>   0.0800 
 41 H        1.2560    -4.1150     1.4810 H     1 <1>   0.0800 
 42 H       -5.9680    -0.4000     1.3290 H     1 <1>   0.0800 
 43 H       -4.5540    -1.4400     1.2180 H     1 <1>   0.0800 
 44 H       -5.0740    -0.4940    -0.1860 H     1 <1>   0.0800 
@<TRIPOS>BOND
  1   1   2  2   
  2   1   3  2   
  3   1   4  am  
  4   1   5  1   
  5   4   6  1   
  6   4  24  1   
  7   5   7  ar  
  8   5   8  ar  
  9   6   9  ar  
 10   6  10  ar  
 11   7  11  ar  
 12   7  25  1   
 13   8  12  ar  
 14   8  26  1   
 15   9  13  ar  
 16   9  14  1   
 17  10  15  ar  
 18  10  16  1   
 19  11  17  1   
 20  11  18  ar  
 21  12  18  ar  
 22  12  27  1   
 23  13  19  ar  
 24  13  28  1   
 25  14  29  1   
 26  14  30  1   
 27  14  31  1   
 28  15  19  ar  
 29  15  32  1   
 30  16  33  1   
 31  16  34  1   
 32  16  35  1   
 33  17  20  1   
 34  18  21  1   
 35  19  22  1   
 36  20  36  1   
 37  20  37  1   
 38  20  38  1   
 39  21  23  1   
 40  22  39  1   
 41  22  40  1   
 42  22  41  1   
 43  23  42  1   
 44  23  43  1   
 45  23  44  1   
@<TRIPOS>SUBSTRUCTURE
  1 ****   7 GROUP 4 **** **** 0

# MOE 2024.06 (io_trps.svl 2023.06)
