@<TRIPOS>MOLECULE
NONAME
35 37 1 0 0 
SMALL
USER_CHARGES


@<TRIPOS>ATOM
  1 O       -1.4940     0.5040     1.6680 O.2   1 <1>  -0.5700 
  2 C       -2.0290    -0.3350     0.9830 C.2   1 <1>   0.6900 
  3 N       -3.3640    -0.4420     0.9710 N.am  1 <1>  -0.7300 
  4 N       -1.2820    -1.1610     0.2470 N.am  1 <1>  -0.8000 
  5 C       -4.1630    -0.7100    -0.2340 C.3   1 <1>   0.2840 
  6 C       -5.3170     0.2730    -0.2680 C.ar  1 <1>  -0.1440 
  7 C       -6.6160    -0.1560    -0.0970 C.ar  1 <1>  -0.1500 
  8 C       -5.0520     1.6360    -0.4740 C.ar  1 <1>  -0.1500 
  9 C       -7.6640     0.7680    -0.1350 C.ar  1 <1>   0.0000 
 10 C       -6.0730     2.5570    -0.5120 C.ar  1 <1>  -0.1500 
 11 C       -7.3870     2.1160    -0.3420 C.ar  1 <1>  -0.1520 
 12 C       -9.0660     0.6730    -0.0030 C.2   1 <1>  -0.1810 
 13 N       -8.5720     2.8090    -0.3340 N.pl3 1 <1>   0.0330 
 14 C       -9.5820     1.9150    -0.1210 C.2   1 <1>  -0.3320 
 15 C       -9.8970    -0.5720     0.2360 C.3   1 <1>   0.0210 
 16 C      -11.0570     2.2560    -0.0370 C.3   1 <1>   0.0200 
 17 C      -11.3820    -0.2820    -0.0530 C.3   1 <1>  -0.1600 
 18 C      -11.8360     1.0640     0.5490 C.3   1 <1>  -0.1600 
 19 H       -3.8240     0.2240     1.5940 H     1 <1>   0.3700 
 20 H       -0.2750    -1.1130     0.3890 H     1 <1>   0.3700 
 21 H       -1.6550    -2.0600    -0.0410 H     1 <1>   0.3700 
 22 H       -4.5310    -1.7210    -0.1990 H     1 <1>   0.0800 
 23 H       -3.5590    -0.5900    -1.1170 H     1 <1>   0.0800 
 24 H       -6.8530    -1.1900     0.0680 H     1 <1>   0.1500 
 25 H       -4.0330     1.9600    -0.6000 H     1 <1>   0.1500 
 26 H       -5.8720     3.6010    -0.6690 H     1 <1>   0.1500 
 27 H       -8.6670     3.8200    -0.4620 H     1 <1>   0.2700 
 28 H       -9.7750    -0.8730     1.2610 H     1 <1>   0.0800 
 29 H       -9.5510    -1.3690    -0.3970 H     1 <1>   0.0800 
 30 H      -11.4200     2.4760    -1.0260 H     1 <1>   0.0800 
 31 H      -11.2050     3.1230     0.5830 H     1 <1>   0.0800 
 32 H      -11.9850    -1.0820     0.3380 H     1 <1>   0.0800 
 33 H      -11.5260    -0.2500    -1.1200 H     1 <1>   0.0800 
 34 H      -12.8890     1.2060     0.3780 H     1 <1>   0.0800 
 35 H      -11.6750     1.0360     1.6130 H     1 <1>   0.0800 
@<TRIPOS>BOND
  1   1   2  2   
  2   2   3  am  
  3   2   4  am  
  4   3   5  1   
  5   3  19  1   
  6   4  20  1   
  7   4  21  1   
  8   5   6  1   
  9   5  22  1   
 10   5  23  1   
 11   6   7  ar  
 12   6   8  ar  
 13   7   9  ar  
 14   7  24  1   
 15   8  10  ar  
 16   8  25  1   
 17   9  11  ar  
 18   9  12  1   
 19  10  11  ar  
 20  10  26  1   
 21  11  13  1   
 22  12  14  2   
 23  12  15  1   
 24  13  14  1   
 25  13  27  1   
 26  14  16  1   
 27  15  17  1   
 28  15  28  1   
 29  15  29  1   
 30  16  18  1   
 31  16  30  1   
 32  16  31  1   
 33  17  18  1   
 34  17  32  1   
 35  17  33  1   
 36  18  34  1   
 37  18  35  1   
@<TRIPOS>SUBSTRUCTURE
  1 ****   7 GROUP 4 **** **** 0

# MOE 2024.06 (io_trps.svl 2023.06)
