@<TRIPOS>MOLECULE
NONAME
34 35 1 0 0 
SMALL
USER_CHARGES


@<TRIPOS>ATOM
  1 CL       0.0910     1.7810     3.3780 Cl    1 <1>  -0.1230 
  2 C       -0.2320     2.4680     1.7970 C.2   1 <1>   0.1230 
  3 C        0.4590     2.1810     0.6350 C.2   1 <1>   0.1390 
  4 C       -1.1810     3.3610     1.4720 C.2   1 <1>  -0.3020 
  5 N       -0.0230     2.8480    -0.3700 N.2   1 <1>  -0.7070 
  6 N       -1.0640     3.6080     0.1360 N.pl3 1 <1>   0.5840 
  7 S       -2.1190     4.7380    -0.7790 S.o2  1 <1>   1.2950 
  8 O       -1.8210     4.7180    -2.2010 O.2   1 <1>  -0.6500 
  9 O       -2.0000     6.0190    -0.1050 O.2   1 <1>  -0.6500 
 10 C       -3.7700     3.9700    -0.5120 C.ar  1 <1>  -0.0090 
 11 C       -4.8660     4.7130    -0.0340 C.ar  1 <1>  -0.1440 
 12 C       -3.9630     2.5970    -0.7610 C.ar  1 <1>  -0.1440 
 13 C       -6.0510     4.0760     0.3290 C.ar  1 <1>  -0.1430 
 14 C       -4.8040     6.2400     0.0830 C.3   1 <1>  -0.0960 
 15 C       -5.1510     1.9710    -0.3950 C.ar  1 <1>  -0.1430 
 16 C       -2.9070     1.7240    -1.4530 C.3   1 <1>  -0.0970 
 17 C       -6.1730     2.7150     0.1540 C.ar  1 <1>  -0.1500 
 18 C       -7.2510     4.8070     0.9240 C.3   1 <1>  -0.0970 
 19 C       -5.3960     0.4750    -0.5710 C.3   1 <1>  -0.0970 
 20 H        1.2880     1.4950     0.5700 H     1 <1>   0.1500 
 21 H       -1.9200     3.8330     2.0930 H     1 <1>   0.1500 
 22 H       -4.2950     6.6630    -0.7650 H     1 <1>   0.0800 
 23 H       -4.2930     6.5250     0.9850 H     1 <1>   0.0800 
 24 H       -5.7730     6.6970     0.0890 H     1 <1>   0.0800 
 25 H       -2.2280     2.2830    -2.0660 H     1 <1>   0.0800 
 26 H       -3.3730     1.0250    -2.1230 H     1 <1>   0.0800 
 27 H       -2.3460     1.1660    -0.7250 H     1 <1>   0.0800 
 28 H       -7.0880     2.2250     0.4390 H     1 <1>   0.1500 
 29 H       -7.7320     5.4000     0.1670 H     1 <1>   0.0800 
 30 H       -6.9390     5.4440     1.7310 H     1 <1>   0.0800 
 31 H       -7.9740     4.1150     1.3160 H     1 <1>   0.0800 
 32 H       -4.5590    -0.0910    -0.2040 H     1 <1>   0.0800 
 33 H       -5.5510     0.2470    -1.6100 H     1 <1>   0.0800 
 34 H       -6.2670     0.1580    -0.0260 H     1 <1>   0.0800 
@<TRIPOS>BOND
  1   1   2  1   
  2   2   3  1   
  3   2   4  2   
  4   3   5  2   
  5   3  20  1   
  6   4   6  1   
  7   4  21  1   
  8   5   6  1   
  9   6   7  1   
 10   7   8  2   
 11   7   9  2   
 12   7  10  1   
 13  10  11  ar  
 14  10  12  ar  
 15  11  13  ar  
 16  11  14  1   
 17  12  15  ar  
 18  12  16  1   
 19  13  17  ar  
 20  13  18  1   
 21  14  22  1   
 22  14  23  1   
 23  14  24  1   
 24  15  17  ar  
 25  15  19  1   
 26  16  25  1   
 27  16  26  1   
 28  16  27  1   
 29  17  28  1   
 30  18  29  1   
 31  18  30  1   
 32  18  31  1   
 33  19  32  1   
 34  19  33  1   
 35  19  34  1   
@<TRIPOS>SUBSTRUCTURE
  1 ****  10 GROUP 4 **** **** 0

# MOE 2024.06 (io_trps.svl 2023.06)
