@<TRIPOS>MOLECULE
NONAME
34 34 1 0 0 
SMALL
USER_CHARGES


@<TRIPOS>ATOM
  1 O       -2.7760    -4.4390    -0.7070 O.3   1 <1>  -0.3630 
  2 C       -1.6720    -3.6520    -0.6920 C.ar  1 <1>   0.0830 
  3 C       -3.8810    -4.1770     0.1290 C.3   1 <1>   0.0400 
  4 C       -1.5040    -2.5660     0.1600 C.ar  1 <1>  -0.1500 
  5 C       -0.6700    -3.9720    -1.5920 C.ar  1 <1>  -0.1500 
  6 C       -0.3400    -1.8180     0.1090 C.ar  1 <1>  -0.1500 
  7 C        0.4930    -3.2250    -1.6450 C.ar  1 <1>  -0.1500 
  8 C        0.6650    -2.1450    -0.7900 C.ar  1 <1>  -0.1430 
  9 C        1.9440    -1.3430    -0.8320 C.3   1 <1>   0.4860 
 10 N        2.8830    -2.0150     0.0920 N.4   1 <1>  -0.9060 
 11 C        4.2190    -1.4430     0.2370 C.3   1 <1>   0.5030 
 12 C        4.9570    -2.3280     1.2360 C.3   1 <1>  -0.2400 
 13 C        4.9390    -1.4660    -1.1100 C.3   1 <1>  -0.2400 
 14 C        4.1130    -0.0190     0.7810 C.3   1 <1>  -0.2400 
 15 H       -4.6340    -4.9180    -0.0720 H     1 <1>   0.0800 
 16 H       -4.2650    -3.1980    -0.0940 H     1 <1>   0.0800 
 17 H       -3.5690    -4.2460     1.1560 H     1 <1>   0.0800 
 18 H       -2.2680    -2.2920     0.8640 H     1 <1>   0.1500 
 19 H       -0.8140    -4.8100    -2.2510 H     1 <1>   0.1500 
 20 H       -0.2380    -0.9790     0.7770 H     1 <1>   0.1500 
 21 H        1.2480    -3.4980    -2.3630 H     1 <1>   0.1500 
 22 H        1.7540    -0.3300    -0.5140 H     1 <1>   0.0800 
 23 H        2.3370    -1.3300    -1.8350 H     1 <1>   0.0800 
 24 H        2.9710    -2.9890    -0.2120 H     1 <1>   0.4500 
 25 H        2.4370    -2.0560     1.0120 H     1 <1>   0.4500 
 26 H        4.4640    -2.3310     2.1920 H     1 <1>   0.0800 
 27 H        5.9560    -1.9550     1.3870 H     1 <1>   0.0800 
 28 H        5.0390    -3.3380     0.8760 H     1 <1>   0.0800 
 29 H        4.9720    -2.4610    -1.5160 H     1 <1>   0.0800 
 30 H        5.9540    -1.1320    -0.9820 H     1 <1>   0.0800 
 31 H        4.4760    -0.8050    -1.8210 H     1 <1>   0.0800 
 32 H        5.0990     0.3670     0.9760 H     1 <1>   0.0800 
 33 H        3.6480     0.6440     0.0750 H     1 <1>   0.0800 
 34 H        3.5660     0.0030     1.7070 H     1 <1>   0.0800 
@<TRIPOS>BOND
  1   1   2  1   
  2   1   3  1   
  3   2   4  ar  
  4   2   5  ar  
  5   3  15  1   
  6   3  16  1   
  7   3  17  1   
  8   4   6  ar  
  9   4  18  1   
 10   5   7  ar  
 11   5  19  1   
 12   6   8  ar  
 13   6  20  1   
 14   7   8  ar  
 15   7  21  1   
 16   8   9  1   
 17   9  10  1   
 18   9  22  1   
 19   9  23  1   
 20  10  11  1   
 21  10  24  1   
 22  10  25  1   
 23  11  12  1   
 24  11  13  1   
 25  11  14  1   
 26  12  26  1   
 27  12  27  1   
 28  12  28  1   
 29  13  29  1   
 30  13  30  1   
 31  13  31  1   
 32  14  32  1   
 33  14  33  1   
 34  14  34  1   
@<TRIPOS>SUBSTRUCTURE
  1 ****   8 GROUP 4 **** **** 0

# MOE 2024.06 (io_trps.svl 2023.06)
