@<TRIPOS>MOLECULE
NONAME
39 41 1 0 0 
SMALL
USER_CHARGES


@<TRIPOS>ATOM
  1 O        1.8260    -0.2280    -1.5630 O.2   1 <1>  -0.5700 
  2 C        2.3750    -0.0810    -0.4860 C.2   1 <1>   0.6900 
  3 N        3.0250     1.1110    -0.1940 N.am  1 <1>  -0.4690 
  4 N        2.3650    -1.1020     0.4440 N.am  1 <1>  -0.4200 
  5 C        3.7970     1.2530     0.9730 C.2   1 <1>   0.1230 
  6 C        2.7890     2.2880    -1.0860 C.3   1 <1>   0.0600 
  7 C        3.0640    -0.9700     1.6260 C.2   1 <1>   0.6160 
  8 C        1.6200    -2.3640     0.1580 C.3   1 <1>   0.0600 
  9 C        4.5870     2.4480     1.2230 C.2   1 <1>   0.6160 
 10 C        3.7840     0.2260     1.8600 C.2   1 <1>  -0.1360 
 11 O        3.0770    -1.8740     2.4420 O.2   1 <1>  -0.5700 
 12 O        4.3280     3.1300     2.1960 O.2   1 <1>  -0.5700 
 13 N        5.6270     2.8250     0.3990 N.am  1 <1>  -0.6600 
 14 C        6.2270     1.9220    -0.6260 C.3   1 <1>   0.2840 
 15 C        6.4090     4.0670     0.6340 C.3   1 <1>   0.1400 
 16 C        7.7420     1.8050    -0.4750 C.ar  1 <1>  -0.1430 
 17 C        7.7710     3.6940     1.2170 C.3   1 <1>  -0.0170 
 18 C        8.4690     2.6340     0.3750 C.ar  1 <1>  -0.1430 
 19 C        8.4090     0.8430    -1.2200 C.ar  1 <1>  -0.1500 
 20 C        9.8450     2.4920     0.4660 C.ar  1 <1>  -0.1500 
 21 C        9.7820     0.7050    -1.1250 C.ar  1 <1>  -0.1500 
 22 C       10.5010     1.5310    -0.2810 C.ar  1 <1>  -0.1500 
 23 H        1.8080     2.2320    -1.5260 H     1 <1>   0.0800 
 24 H        3.5190     2.2970    -1.8750 H     1 <1>   0.0800 
 25 H        2.8490     3.2070    -0.5310 H     1 <1>   0.0800 
 26 H        0.7760    -2.1670    -0.4800 H     1 <1>   0.0800 
 27 H        1.2570    -2.8010     1.0720 H     1 <1>   0.0800 
 28 H        2.2750    -3.0630    -0.3300 H     1 <1>   0.0800 
 29 H        4.3290     0.2760     2.7830 H     1 <1>   0.1500 
 30 H        6.0070     2.3160    -1.6030 H     1 <1>   0.0800 
 31 H        5.8000     0.9380    -0.5600 H     1 <1>   0.0800 
 32 H        5.8900     4.7290     1.3070 H     1 <1>   0.0800 
 33 H        6.5440     4.5810    -0.3020 H     1 <1>   0.0800 
 34 H        7.6330     3.3180     2.2160 H     1 <1>   0.0800 
 35 H        8.3800     4.5780     1.2760 H     1 <1>   0.0800 
 36 H        7.8630     0.1940    -1.8820 H     1 <1>   0.1500 
 37 H       10.4130     3.1270     1.1230 H     1 <1>   0.1500 
 38 H       10.2900    -0.0440    -1.7070 H     1 <1>   0.1500 
 39 H       11.5690     1.4260    -0.2050 H     1 <1>   0.1500 
@<TRIPOS>BOND
  1   1   2  2   
  2   2   3  am  
  3   2   4  am  
  4   3   5  1   
  5   3   6  1   
  6   4   7  am  
  7   4   8  1   
  8   5   9  1   
  9   5  10  2   
 10   6  23  1   
 11   6  24  1   
 12   6  25  1   
 13   7  10  1   
 14   7  11  2   
 15   8  26  1   
 16   8  27  1   
 17   8  28  1   
 18   9  12  2   
 19   9  13  am  
 20  10  29  1   
 21  13  14  1   
 22  13  15  1   
 23  14  16  1   
 24  14  30  1   
 25  14  31  1   
 26  15  17  1   
 27  15  32  1   
 28  15  33  1   
 29  16  18  ar  
 30  16  19  ar  
 31  17  18  1   
 32  17  34  1   
 33  17  35  1   
 34  18  20  ar  
 35  19  21  ar  
 36  19  36  1   
 37  20  22  ar  
 38  20  37  1   
 39  21  22  ar  
 40  21  38  1   
 41  22  39  1   
@<TRIPOS>SUBSTRUCTURE
  1 ****  14 GROUP 4 **** **** 0

# MOE 2024.06 (io_trps.svl 2023.06)
