@<TRIPOS>MOLECULE
NONAME
43 45 1 0 0 
SMALL
USER_CHARGES


@<TRIPOS>ATOM
  1 S       -2.2390    -0.7590     0.9470 S.3   1 <1>  -0.0800 
  2 C       -1.9040     0.5260    -0.2050 C.2   1 <1>  -0.1400 
  3 C       -0.6160    -0.6550     1.6030 C.2   1 <1>  -0.1100 
  4 C       -0.6370     0.9640    -0.0680 C.2   1 <1>  -0.1500 
  5 C       -3.0220     0.9210    -1.1460 C.3   1 <1>   0.5230 
  6 C        0.0930     0.2930     0.9640 C.2   1 <1>  -0.1500 
  7 N       -3.7900     2.0470    -0.5510 N.4   1 <1>  -0.9590 
  8 C       -4.5330     1.6350     0.7000 C.3   1 <1>   0.3430 
  9 C       -4.7300     2.6680    -1.5530 C.3   1 <1>   0.3430 
 10 C       -5.3430     2.7880     1.3280 C.3   1 <1>   0.2090 
 11 C       -5.5190     3.8600    -0.9720 C.3   1 <1>   0.2090 
 12 N       -6.1750     3.5030     0.3170 N.pl3 1 <1>  -0.8380 
 13 C       -7.5430     3.2320     0.2820 C.ar  1 <1>   0.1000 
 14 C       -8.4720     4.2090     0.6370 C.ar  1 <1>  -0.1430 
 15 C       -8.0010     1.9790    -0.1160 C.ar  1 <1>  -0.1500 
 16 C       -9.8250     3.9210     0.5850 C.ar  1 <1>  -0.1500 
 17 C       -8.0190     5.5920     1.0850 C.3   1 <1>  -0.0970 
 18 C       -9.3530     1.6910    -0.1650 C.ar  1 <1>  -0.1430 
 19 C      -10.2650     2.6710     0.1870 C.ar  1 <1>  -0.1500 
 20 C       -9.8520     0.3250    -0.5990 C.3   1 <1>  -0.0970 
 21 H       -0.3580    -1.3250     2.4060 H     1 <1>   0.1500 
 22 H       -0.1580     1.7340    -0.6480 H     1 <1>   0.1500 
 23 H       -3.6640     0.0750    -1.3330 H     1 <1>   0.0800 
 24 H       -2.5890     1.2340    -2.0820 H     1 <1>   0.0800 
 25 H        1.1180     0.5510     1.1770 H     1 <1>   0.1500 
 26 H       -3.1060     2.7580    -0.2650 H     1 <1>   0.4500 
 27 H       -3.8390     1.2680     1.4370 H     1 <1>   0.0800 
 28 H       -5.2150     0.8350     0.4670 H     1 <1>   0.0800 
 29 H       -5.4440     1.9310    -1.8830 H     1 <1>   0.0800 
 30 H       -4.1810     3.0050    -2.4160 H     1 <1>   0.0800 
 31 H       -4.6740     3.4930     1.7900 H     1 <1>   0.0800 
 32 H       -5.9810     2.3960     2.1030 H     1 <1>   0.0800 
 33 H       -6.2700     4.1700    -1.6800 H     1 <1>   0.0800 
 34 H       -4.8590     4.6940    -0.8110 H     1 <1>   0.0800 
 35 H       -7.2940     1.2240    -0.3900 H     1 <1>   0.1500 
 36 H      -10.5510     4.6680     0.8560 H     1 <1>   0.1500 
 37 H       -7.3550     5.5020     1.9250 H     1 <1>   0.0800 
 38 H       -8.8550     6.2010     1.3740 H     1 <1>   0.0800 
 39 H       -7.4980     6.0820     0.2830 H     1 <1>   0.0800 
 40 H      -11.3210     2.4650     0.1530 H     1 <1>   0.1500 
 41 H       -9.0370    -0.3630    -0.7320 H     1 <1>   0.0800 
 42 H      -10.3870     0.4100    -1.5280 H     1 <1>   0.0800 
 43 H      -10.5160    -0.0750     0.1470 H     1 <1>   0.0800 
@<TRIPOS>BOND
  1   1   2  1   
  2   1   3  1   
  3   2   4  2   
  4   2   5  1   
  5   3   6  2   
  6   3  21  1   
  7   4   6  1   
  8   4  22  1   
  9   5   7  1   
 10   5  23  1   
 11   5  24  1   
 12   6  25  1   
 13   7   8  1   
 14   7   9  1   
 15   7  26  1   
 16   8  10  1   
 17   8  27  1   
 18   8  28  1   
 19   9  11  1   
 20   9  29  1   
 21   9  30  1   
 22  10  12  1   
 23  10  31  1   
 24  10  32  1   
 25  11  12  1   
 26  11  33  1   
 27  11  34  1   
 28  12  13  1   
 29  13  14  ar  
 30  13  15  ar  
 31  14  16  ar  
 32  14  17  1   
 33  15  18  ar  
 34  15  35  1   
 35  16  19  ar  
 36  16  36  1   
 37  17  37  1   
 38  17  38  1   
 39  17  39  1   
 40  18  19  ar  
 41  18  20  1   
 42  19  40  1   
 43  20  41  1   
 44  20  42  1   
 45  20  43  1   
@<TRIPOS>SUBSTRUCTURE
  1 ****   8 GROUP 4 **** **** 0

# MOE 2024.06 (io_trps.svl 2023.06)
