@<TRIPOS>MOLECULE
NONAME
42 44 1 0 0 
SMALL
USER_CHARGES


@<TRIPOS>ATOM
  1 S        1.1160     0.1450    -0.2320 S.o2  1 <1>   1.3330 
  2 O        2.1700    -0.6560    -0.8090 O.2   1 <1>  -0.6500 
  3 O       -0.2540    -0.0600    -0.6400 O.2   1 <1>  -0.6500 
  4 N        1.5070     1.7640    -0.5600 N.am  1 <1>  -0.8490 
  5 C        1.2540     0.0390     1.5600 C.3   1 <1>  -0.0550 
  6 C        1.8880     1.9690    -1.9680 C.3   1 <1>   0.1960 
  7 C        0.4440     2.7150    -0.1650 C.3   1 <1>   0.1960 
  8 C        0.9950    -1.3650     2.1330 C.3   1 <1>  -0.2400 
  9 C        2.6560     3.2990    -2.0930 C.3   1 <1>  -0.0190 
 10 C        0.5800     4.0930    -0.8460 C.3   1 <1>  -0.1600 
 11 C        4.1180     3.0920    -1.7180 C.2   1 <1>   0.5690 
 12 C        2.0290     4.4240    -1.2310 C.3   1 <1>  -0.1600 
 13 O        4.9750     3.5440    -2.4340 O.2   1 <1>  -0.5700 
 14 N        4.3680     2.4110    -0.5650 N.am  1 <1>  -0.4940 
 15 C        5.5190     2.0990     0.1200 C.2   1 <1>   0.4420 
 16 S        7.0890     2.5500    -0.4690 S.3   1 <1>  -0.0800 
 17 N        5.5780     1.4700     1.2360 N.2   1 <1>  -0.3380 
 18 C        7.7470     1.8000     0.9420 C.2   1 <1>   0.2930 
 19 N        6.8530     1.3040     1.7010 N.2   1 <1>  -0.3380 
 20 C        9.2570     1.8250     1.1080 C.3   1 <1>  -0.0150 
 21 C       10.1150     0.8400     0.3730 C.3   1 <1>  -0.2000 
 22 C        9.9710     0.7440     1.8620 C.3   1 <1>  -0.2000 
 23 H        0.5590     0.7210     2.0080 H     1 <1>   0.0800 
 24 H        2.2420     0.3440     1.8480 H     1 <1>   0.0800 
 25 H        1.0030     1.9810    -2.5840 H     1 <1>   0.0800 
 26 H        2.5170     1.1690    -2.3240 H     1 <1>   0.0800 
 27 H        0.4860     2.8470     0.9030 H     1 <1>   0.0800 
 28 H       -0.5300     2.3210    -0.4070 H     1 <1>   0.0800 
 29 H        0.0010    -1.6930     1.8790 H     1 <1>   0.0800 
 30 H        1.0950    -1.3550     3.2040 H     1 <1>   0.0800 
 31 H        1.7030    -2.0670     1.7260 H     1 <1>   0.0800 
 32 H        2.6250     3.5910    -3.1280 H     1 <1>   0.0800 
 33 H        0.1870     4.8530    -0.1930 H     1 <1>   0.0800 
 34 H       -0.0290     4.0980    -1.7340 H     1 <1>   0.0800 
 35 H        2.0710     5.3580    -1.7640 H     1 <1>   0.0800 
 36 H        2.5930     4.5470    -0.3220 H     1 <1>   0.0800 
 37 H        3.5170     2.0440    -0.1290 H     1 <1>   0.3700 
 38 H        9.6310     2.8270     1.2150 H     1 <1>   0.1000 
 39 H       11.0480     1.1790    -0.0410 H     1 <1>   0.1000 
 40 H        9.6380     0.0930    -0.2380 H     1 <1>   0.1000 
 41 H        9.3900    -0.0610     2.2780 H     1 <1>   0.1000 
 42 H       10.8040     1.0180     2.4860 H     1 <1>   0.1000 
@<TRIPOS>BOND
  1   1   2  2   
  2   1   3  2   
  3   1   4  am  
  4   1   5  1   
  5   4   6  1   
  6   4   7  1   
  7   5   8  1   
  8   5  23  1   
  9   5  24  1   
 10   6   9  1   
 11   6  25  1   
 12   6  26  1   
 13   7  10  1   
 14   7  27  1   
 15   7  28  1   
 16   8  29  1   
 17   8  30  1   
 18   8  31  1   
 19   9  11  1   
 20   9  12  1   
 21   9  32  1   
 22  10  12  1   
 23  10  33  1   
 24  10  34  1   
 25  11  13  2   
 26  11  14  am  
 27  12  35  1   
 28  12  36  1   
 29  14  15  1   
 30  14  37  1   
 31  15  16  1   
 32  15  17  2   
 33  16  18  1   
 34  17  19  1   
 35  18  19  2   
 36  18  20  1   
 37  20  21  1   
 38  20  22  1   
 39  20  38  1   
 40  21  22  1   
 41  21  39  1   
 42  21  40  1   
 43  22  41  1   
 44  22  42  1   
@<TRIPOS>SUBSTRUCTURE
  1 ****  14 GROUP 4 **** **** 0

# MOE 2024.06 (io_trps.svl 2023.06)
