@<TRIPOS>MOLECULE
NONAME
50 52 1 0 0 
SMALL
USER_CHARGES


@<TRIPOS>ATOM
  1 S        0.3180    -0.5260    -1.5310 S.o2  1 <1>   1.4470 
  2 O        0.6940    -1.8920    -1.8210 O.2   1 <1>  -0.6500 
  3 O       -0.0290     0.3590    -2.6240 O.2   1 <1>  -0.6500 
  4 N        1.6200     0.1980    -0.7210 N.am  1 <1>  -0.8490 
  5 C       -1.0010    -0.5270    -0.2820 C.ar  1 <1>  -0.0090 
  6 C        1.4110     1.6350    -0.5190 C.3   1 <1>   0.1960 
  7 C        2.8880    -0.0710    -1.4050 C.3   1 <1>   0.1960 
  8 C       -0.7520    -0.9750     1.0140 C.ar  1 <1>  -0.1500 
  9 C       -2.2870    -0.0900    -0.5950 C.ar  1 <1>  -0.1500 
 10 C        2.5290     2.2140     0.3500 C.3   1 <1>  -0.1600 
 11 C        4.0630     0.4620    -0.5790 C.3   1 <1>  -0.1600 
 12 C       -1.7470    -0.9840     1.9770 C.ar  1 <1>  -0.1500 
 13 C       -3.2970    -0.0900     0.3540 C.ar  1 <1>  -0.1500 
 14 C        3.9090     1.9620    -0.2810 C.3   1 <1>  -0.0190 
 15 C       -3.0060    -0.5380     1.6270 C.ar  1 <1>   0.1900 
 16 C        5.0520     2.4660     0.5980 C.2   1 <1>   0.5690 
 17 F       -3.9510    -0.5410     2.5270 F     1 <1>  -0.1900 
 18 O        5.0460     2.1950     1.7740 O.2   1 <1>  -0.5700 
 19 N        6.0430     3.1770    -0.0040 N.am  1 <1>  -0.7300 
 20 C        7.3350     3.6600     0.5350 C.3   1 <1>   0.3640 
 21 C        8.4140     2.6270     0.2350 C.ar  1 <1>  -0.1430 
 22 C        7.2920     4.0340     2.0160 C.3   1 <1>  -0.2400 
 23 C        8.3160     1.3310     0.7260 C.ar  1 <1>  -0.1500 
 24 C        9.5140     2.9700    -0.5400 C.ar  1 <1>  -0.1500 
 25 C        9.2980     0.3960     0.4470 C.ar  1 <1>  -0.1500 
 26 C       10.4970     2.0360    -0.8190 C.ar  1 <1>  -0.1500 
 27 C       10.3890     0.7480    -0.3260 C.ar  1 <1>  -0.1500 
 28 H        0.4670     1.8010    -0.0270 H     1 <1>   0.0800 
 29 H        1.3880     2.1430    -1.4710 H     1 <1>   0.0800 
 30 H        2.8800     0.3840    -2.3820 H     1 <1>   0.0800 
 31 H        3.0170    -1.1340    -1.5320 H     1 <1>   0.0800 
 32 H        0.2380    -1.3210     1.2680 H     1 <1>   0.1500 
 33 H       -2.5000     0.2550    -1.5940 H     1 <1>   0.1500 
 34 H        2.4800     1.7580     1.3250 H     1 <1>   0.0800 
 35 H        2.3760     3.2710     0.4760 H     1 <1>   0.0800 
 36 H        4.9810     0.2890    -1.1110 H     1 <1>   0.0800 
 37 H        4.1130    -0.0880     0.3450 H     1 <1>   0.0800 
 38 H       -1.5550    -1.3280     2.9780 H     1 <1>   0.1500 
 39 H       -4.2900     0.2480     0.1150 H     1 <1>   0.1500 
 40 H        3.9440     2.4940    -1.2140 H     1 <1>   0.0800 
 41 H        6.0210     3.2330    -1.0200 H     1 <1>   0.3700 
 42 H        7.5750     4.5620    -0.0020 H     1 <1>   0.0800 
 43 H        7.1910     3.1610     2.6330 H     1 <1>   0.0800 
 44 H        6.4750     4.7050     2.2080 H     1 <1>   0.0800 
 45 H        8.2100     4.5210     2.2870 H     1 <1>   0.0800 
 46 H        7.4710     1.0490     1.3310 H     1 <1>   0.1500 
 47 H        9.6160     3.9680    -0.9300 H     1 <1>   0.1500 
 48 H        9.2100    -0.6040     0.8350 H     1 <1>   0.1500 
 49 H       11.3470     2.3110    -1.4190 H     1 <1>   0.1500 
 50 H       11.1530     0.0220    -0.5420 H     1 <1>   0.1500 
@<TRIPOS>BOND
  1   1   2  2   
  2   1   3  2   
  3   1   4  am  
  4   1   5  1   
  5   4   6  1   
  6   4   7  1   
  7   5   8  ar  
  8   5   9  ar  
  9   6  10  1   
 10   6  28  1   
 11   6  29  1   
 12   7  11  1   
 13   7  30  1   
 14   7  31  1   
 15   8  12  ar  
 16   8  32  1   
 17   9  13  ar  
 18   9  33  1   
 19  10  14  1   
 20  10  34  1   
 21  10  35  1   
 22  11  14  1   
 23  11  36  1   
 24  11  37  1   
 25  12  15  ar  
 26  12  38  1   
 27  13  15  ar  
 28  13  39  1   
 29  14  16  1   
 30  14  40  1   
 31  15  17  1   
 32  16  18  2   
 33  16  19  am  
 34  19  20  1   
 35  19  41  1   
 36  20  21  1   
 37  20  22  1   
 38  20  42  1   
 39  21  23  ar  
 40  21  24  ar  
 41  22  43  1   
 42  22  44  1   
 43  22  45  1   
 44  23  25  ar  
 45  23  46  1   
 46  24  26  ar  
 47  24  47  1   
 48  25  27  ar  
 49  25  48  1   
 50  26  27  ar  
 51  26  49  1   
 52  27  50  1   
@<TRIPOS>SUBSTRUCTURE
  1 ****  11 GROUP 4 **** **** 0

# MOE 2024.06 (io_trps.svl 2023.06)
