@<TRIPOS>MOLECULE
NONAME
40 41 1 0 0 
SMALL
USER_CHARGES


@<TRIPOS>ATOM
  1 O        0.2930    -0.7150    -0.4390 O.2   1 <1>  -0.5700 
  2 C       -0.1910    -1.6350     0.1870 C.2   1 <1>   0.6340 
  3 O        0.4340    -2.0690     1.2860 O.3   1 <1>  -0.4300 
  4 C       -1.4280    -2.2900    -0.1990 C.ar  1 <1>   0.0860 
  5 C        1.6430    -1.4880     1.7340 C.3   1 <1>   0.0400 
  6 C       -1.9890    -3.3260     0.5520 C.ar  1 <1>  -0.1500 
  7 C       -2.1150    -1.9050    -1.3520 C.ar  1 <1>  -0.1500 
  8 C       -3.1730    -3.9370     0.1790 C.ar  1 <1>  -0.1500 
  9 C       -3.2990    -2.5100    -1.7330 C.ar  1 <1>  -0.1500 
 10 C       -3.8420    -3.5270    -0.9640 C.ar  1 <1>  -0.1440 
 11 C       -5.1530    -4.1790    -1.3650 C.3   1 <1>   0.4860 
 12 N       -6.2220    -3.7040    -0.4460 N.4   1 <1>  -0.9590 
 13 C       -7.4380    -4.5540    -0.5710 C.3   1 <1>   0.3430 
 14 C       -6.4700    -2.2440    -0.6290 C.3   1 <1>   0.3430 
 15 C       -8.1850    -4.5860     0.7620 C.3   1 <1>  -0.1600 
 16 C       -7.3790    -1.6670     0.4570 C.3   1 <1>  -0.1600 
 17 C       -9.1830    -3.4370     0.9810 C.3   1 <1>  -0.1600 
 18 C       -8.8460    -2.0970     0.3130 C.3   1 <1>  -0.1600 
 19 H        1.9570    -1.9970     2.6280 H     1 <1>   0.0800 
 20 H        1.4730    -0.4450     1.9400 H     1 <1>   0.0800 
 21 H        2.3880    -1.5970     0.9640 H     1 <1>   0.0800 
 22 H       -1.4850    -3.6600     1.4440 H     1 <1>   0.1500 
 23 H       -1.7040    -1.1140    -1.9590 H     1 <1>   0.1500 
 24 H       -3.5570    -4.7360     0.7920 H     1 <1>   0.1500 
 25 H       -3.7830    -2.1750    -2.6350 H     1 <1>   0.1500 
 26 H       -5.0480    -5.2490    -1.2910 H     1 <1>   0.0800 
 27 H       -5.3960    -3.9290    -2.3850 H     1 <1>   0.0800 
 28 H       -5.8550    -3.8180     0.5060 H     1 <1>   0.4500 
 29 H       -7.1430    -5.5630    -0.8100 H     1 <1>   0.0800 
 30 H       -8.0820    -4.1960    -1.3580 H     1 <1>   0.0800 
 31 H       -6.9080    -2.0620    -1.5980 H     1 <1>   0.0800 
 32 H       -5.5300    -1.7170    -0.5890 H     1 <1>   0.0800 
 33 H       -7.4790    -4.6160     1.5740 H     1 <1>   0.0800 
 34 H       -8.7410    -5.5060     0.8100 H     1 <1>   0.0800 
 35 H       -7.3470    -0.5960     0.3510 H     1 <1>   0.0800 
 36 H       -7.0010    -1.8920     1.4390 H     1 <1>   0.0800 
 37 H       -9.2880    -3.2800     2.0420 H     1 <1>   0.0800 
 38 H      -10.1520    -3.7450     0.6220 H     1 <1>   0.0800 
 39 H       -9.1160    -2.1280    -0.7300 H     1 <1>   0.0800 
 40 H       -9.4690    -1.3440     0.7670 H     1 <1>   0.0800 
@<TRIPOS>BOND
  1   1   2  2   
  2   2   3  1   
  3   2   4  1   
  4   3   5  1   
  5   4   6  ar  
  6   4   7  ar  
  7   5  19  1   
  8   5  20  1   
  9   5  21  1   
 10   6   8  ar  
 11   6  22  1   
 12   7   9  ar  
 13   7  23  1   
 14   8  10  ar  
 15   8  24  1   
 16   9  10  ar  
 17   9  25  1   
 18  10  11  1   
 19  11  12  1   
 20  11  26  1   
 21  11  27  1   
 22  12  13  1   
 23  12  14  1   
 24  12  28  1   
 25  13  15  1   
 26  13  29  1   
 27  13  30  1   
 28  14  16  1   
 29  14  31  1   
 30  14  32  1   
 31  15  17  1   
 32  15  33  1   
 33  15  34  1   
 34  16  18  1   
 35  16  35  1   
 36  16  36  1   
 37  17  18  1   
 38  17  37  1   
 39  17  38  1   
 40  18  39  1   
 41  18  40  1   
@<TRIPOS>SUBSTRUCTURE
  1 ****  10 GROUP 4 **** **** 0

# MOE 2024.06 (io_trps.svl 2023.06)
