@<TRIPOS>MOLECULE
NONAME
37 39 1 0 0 
SMALL
USER_CHARGES


@<TRIPOS>ATOM
  1 CL       0.6130     0.8110     2.4370 Cl    1 <1>  -0.1770 
  2 C        1.7670     1.2050     1.1890 C.ar  1 <1>   0.1770 
  3 C        2.9670     0.5250     1.1390 C.ar  1 <1>  -0.1500 
  4 C        1.4590     2.1920     0.2710 C.ar  1 <1>  -0.1500 
  5 C        3.8910     0.8300     0.1500 C.ar  1 <1>   0.1000 
  6 C        2.3780     2.5020    -0.7180 C.ar  1 <1>  -0.1500 
  7 N        5.0970     0.1420     0.1050 N.pl3 1 <1>  -0.8380 
  8 C        3.5840     1.8250    -0.7750 C.ar  1 <1>  -0.1500 
  9 C        6.3140     0.9070     0.5050 C.3   1 <1>   0.2090 
 10 C        5.2980    -0.7800    -1.0480 C.3   1 <1>   0.2090 
 11 C        7.5020    -0.0470     0.7530 C.3   1 <1>   0.3430 
 12 C        6.4860    -1.7290    -0.7820 C.3   1 <1>   0.3430 
 13 N        7.7480    -0.9930    -0.4030 N.4   1 <1>  -0.9590 
 14 C        8.8610    -1.9380    -0.1170 C.3   1 <1>   0.5230 
 15 C       10.1640    -1.1690    -0.0700 C.2   1 <1>  -0.1400 
 16 S       10.6930    -0.5720     1.4980 S.3   1 <1>  -0.0800 
 17 C       11.0580    -0.8430    -1.0230 C.2   1 <1>  -0.1500 
 18 C       12.1390     0.1270     0.7940 C.2   1 <1>  -0.1100 
 19 C       12.1790    -0.1020    -0.5310 C.2   1 <1>  -0.1500 
 20 H        3.1830    -0.2370     1.8620 H     1 <1>   0.1500 
 21 H        0.5160     2.7060     0.3330 H     1 <1>   0.1500 
 22 H        2.1510     3.2690    -1.4390 H     1 <1>   0.1500 
 23 H        4.2920     2.0710    -1.5430 H     1 <1>   0.1500 
 24 H        6.1050     1.4580     1.4060 H     1 <1>   0.0800 
 25 H        6.5670     1.6160    -0.2650 H     1 <1>   0.0800 
 26 H        5.4740    -0.2100    -1.9440 H     1 <1>   0.0800 
 27 H        4.4020    -1.3600    -1.1960 H     1 <1>   0.0800 
 28 H        7.2920    -0.6140     1.6440 H     1 <1>   0.0800 
 29 H        8.3820     0.5450     0.9380 H     1 <1>   0.0800 
 30 H        6.6570    -2.3280    -1.6610 H     1 <1>   0.0800 
 31 H        6.2020    -2.3920     0.0190 H     1 <1>   0.0800 
 32 H        8.0470    -0.4190    -1.2010 H     1 <1>   0.4500 
 33 H        8.9240    -2.6720    -0.9040 H     1 <1>   0.0800 
 34 H        8.6990    -2.4520     0.8170 H     1 <1>   0.0800 
 35 H       10.9980    -1.0890    -2.0710 H     1 <1>   0.1500 
 36 H       12.8170     0.6410     1.4540 H     1 <1>   0.1500 
 37 H       12.9660     0.2210    -1.1930 H     1 <1>   0.1500 
@<TRIPOS>BOND
  1   1   2  1   
  2   2   3  ar  
  3   2   4  ar  
  4   3   5  ar  
  5   3  20  1   
  6   4   6  ar  
  7   4  21  1   
  8   5   7  1   
  9   5   8  ar  
 10   6   8  ar  
 11   6  22  1   
 12   7   9  1   
 13   7  10  1   
 14   8  23  1   
 15   9  11  1   
 16   9  24  1   
 17   9  25  1   
 18  10  12  1   
 19  10  26  1   
 20  10  27  1   
 21  11  13  1   
 22  11  28  1   
 23  11  29  1   
 24  12  13  1   
 25  12  30  1   
 26  12  31  1   
 27  13  14  1   
 28  13  32  1   
 29  14  15  1   
 30  14  33  1   
 31  14  34  1   
 32  15  16  1   
 33  15  17  2   
 34  16  18  1   
 35  17  19  1   
 36  17  35  1   
 37  18  19  2   
 38  18  36  1   
 39  19  37  1   
@<TRIPOS>SUBSTRUCTURE
  1 ****   9 GROUP 4 **** **** 0

# MOE 2024.06 (io_trps.svl 2023.06)
