@<TRIPOS>MOLECULE
NONAME
47 48 1 0 0 
SMALL
USER_CHARGES


@<TRIPOS>ATOM
  1 BR      -0.9390     0.5090    -0.1240 Br    1 <1>  -0.1110 
  2 C       -0.4810     2.3820    -0.1500 C.ar  1 <1>   0.1110 
  3 C       -1.3520     3.2940    -0.7280 C.ar  1 <1>  -0.1440 
  4 C        0.7170     2.7600     0.4250 C.ar  1 <1>  -0.1500 
  5 C       -0.9880     4.6330    -0.7270 C.ar  1 <1>  -0.1500 
  6 C       -2.6620     2.8450    -1.3440 C.3   1 <1>   0.4870 
  7 C        1.0600     4.1000     0.4220 C.ar  1 <1>  -0.1500 
  8 C        0.2100     5.0310    -0.1540 C.ar  1 <1>  -0.1500 
  9 N       -3.5960     2.4330    -0.2610 N.4   1 <1>  -0.9590 
 10 C       -4.8190     1.7880    -0.8340 C.3   1 <1>   0.3430 
 11 C       -3.9320     3.5680     0.6480 C.3   1 <1>   0.3430 
 12 C       -5.7480     1.2640     0.2680 C.3   1 <1>  -0.0190 
 13 C       -4.8170     3.0660     1.7910 C.3   1 <1>  -0.1600 
 14 C       -7.0040     0.7110    -0.3950 C.2   1 <1>   0.5690 
 15 C       -6.0910     2.3850     1.2690 C.3   1 <1>  -0.1600 
 16 O       -7.3370     1.2360    -1.4320 O.2   1 <1>  -0.5700 
 17 N       -7.7150    -0.3280     0.1530 N.am  1 <1>  -0.6600 
 18 C       -7.3960    -1.0110     1.4370 C.3   1 <1>   0.1400 
 19 C       -8.9420    -0.8320    -0.5260 C.3   1 <1>   0.1400 
 20 C       -6.5330    -2.2400     1.1610 C.3   1 <1>  -0.2400 
 21 C      -10.1650    -0.0960     0.0140 C.3   1 <1>  -0.2400 
 22 H        1.3700     2.0250     0.8640 H     1 <1>   0.1500 
 23 H       -1.6230     5.3820    -1.1720 H     1 <1>   0.1500 
 24 H       -2.4750     2.0150    -2.0060 H     1 <1>   0.0800 
 25 H       -3.0930     3.6480    -1.9200 H     1 <1>   0.0800 
 26 H        1.9900     4.4190     0.8630 H     1 <1>   0.1500 
 27 H        0.4890     6.0720    -0.1560 H     1 <1>   0.1500 
 28 H       -3.0900     1.7330     0.2980 H     1 <1>   0.4500 
 29 H       -4.5420     0.9680    -1.4780 H     1 <1>   0.0800 
 30 H       -5.3610     2.5060    -1.4300 H     1 <1>   0.0800 
 31 H       -4.4570     4.3340     0.0990 H     1 <1>   0.0800 
 32 H       -3.0310     3.9990     1.0560 H     1 <1>   0.0800 
 33 H       -5.2360     0.4670     0.7720 H     1 <1>   0.0800 
 34 H       -5.0920     3.9020     2.4120 H     1 <1>   0.0800 
 35 H       -4.2560     2.3830     2.4050 H     1 <1>   0.0800 
 36 H       -6.6560     1.9860     2.0940 H     1 <1>   0.0800 
 37 H       -6.7120     3.1180     0.7790 H     1 <1>   0.0800 
 38 H       -8.3090    -1.3130     1.9230 H     1 <1>   0.0800 
 39 H       -6.8850    -0.3430     2.1060 H     1 <1>   0.0800 
 40 H       -9.0450    -1.8920    -0.3630 H     1 <1>   0.0800 
 41 H       -8.8670    -0.6720    -1.5890 H     1 <1>   0.0800 
 42 H       -7.0630    -2.9400     0.5400 H     1 <1>   0.0800 
 43 H       -6.2950    -2.7290     2.0890 H     1 <1>   0.0800 
 44 H       -5.6150    -1.9640     0.6760 H     1 <1>   0.0800 
 45 H      -10.2820    -0.2680     1.0680 H     1 <1>   0.0800 
 46 H      -11.0480    -0.4500    -0.4880 H     1 <1>   0.0800 
 47 H      -10.0710     0.9590    -0.1710 H     1 <1>   0.0800 
@<TRIPOS>BOND
  1   1   2  1   
  2   2   3  ar  
  3   2   4  ar  
  4   3   5  ar  
  5   3   6  1   
  6   4   7  ar  
  7   4  22  1   
  8   5   8  ar  
  9   5  23  1   
 10   6   9  1   
 11   6  24  1   
 12   6  25  1   
 13   7   8  ar  
 14   7  26  1   
 15   8  27  1   
 16   9  10  1   
 17   9  11  1   
 18   9  28  1   
 19  10  12  1   
 20  10  29  1   
 21  10  30  1   
 22  11  13  1   
 23  11  31  1   
 24  11  32  1   
 25  12  14  1   
 26  12  15  1   
 27  12  33  1   
 28  13  15  1   
 29  13  34  1   
 30  13  35  1   
 31  14  16  2   
 32  14  17  am  
 33  15  36  1   
 34  15  37  1   
 35  17  18  1   
 36  17  19  1   
 37  18  20  1   
 38  18  38  1   
 39  18  39  1   
 40  19  21  1   
 41  19  40  1   
 42  19  41  1   
 43  20  42  1   
 44  20  43  1   
 45  20  44  1   
 46  21  45  1   
 47  21  46  1   
 48  21  47  1   
@<TRIPOS>SUBSTRUCTURE
  1 ****   9 GROUP 4 **** **** 0

# MOE 2024.06 (io_trps.svl 2023.06)
