@<TRIPOS>MOLECULE
NONAME
34 36 1 0 0 
SMALL
USER_CHARGES


@<TRIPOS>ATOM
  1 N        0.4360     0.2150    -0.2180 N.ar  1 <1>  -0.6200 
  2 C        1.3290     1.0080     0.3050 C.ar  1 <1>   0.4100 
  3 C       -0.7540     0.8030    -0.4800 C.ar  1 <1>   0.3100 
  4 N        2.5800     0.4570     0.5420 N.pl3 1 <1>  -0.8380 
  5 C        1.0510     2.3840     0.6140 C.ar  1 <1>   0.1670 
  6 C       -1.0120     2.1670    -0.1990 C.ar  1 <1>   0.3100 
  7 C       -1.7760     0.0350    -1.0600 C.ar  1 <1>  -0.1500 
  8 C        3.7000     0.8100    -0.3680 C.3   1 <1>   0.2090 
  9 C        2.6860    -0.8710     1.2070 C.3   1 <1>   0.2090 
 10 N       -0.0770     2.9710     0.3690 N.ar  1 <1>  -0.6200 
 11 C        2.1150     3.2350     1.2870 C.3   1 <1>  -0.0960 
 12 C       -2.2710     2.6970    -0.5130 C.ar  1 <1>  -0.1500 
 13 C       -3.0010     0.5770    -1.3560 C.ar  1 <1>  -0.1500 
 14 C        3.9200    -0.3000    -1.4000 C.3   1 <1>  -0.1600 
 15 C        2.9350    -1.9810     0.1790 C.3   1 <1>  -0.1600 
 16 C       -3.2510     1.9230    -1.0800 C.ar  1 <1>  -0.1500 
 17 C        4.1270    -1.6650    -0.7320 C.3   1 <1>  -0.1600 
 18 H       -1.5630    -0.9980    -1.2650 H     1 <1>   0.1500 
 19 H        4.5930     0.9520     0.2150 H     1 <1>   0.0800 
 20 H        3.4790     1.7310    -0.8810 H     1 <1>   0.0800 
 21 H        1.7780    -1.0780     1.7500 H     1 <1>   0.0800 
 22 H        3.4970    -0.8410     1.9130 H     1 <1>   0.0800 
 23 H        2.6040     2.6740     2.0610 H     1 <1>   0.0800 
 24 H        1.6700     4.1080     1.7290 H     1 <1>   0.0800 
 25 H        2.8410     3.5490     0.5620 H     1 <1>   0.0800 
 26 H       -2.4430     3.7350    -0.2910 H     1 <1>   0.1500 
 27 H       -3.7760    -0.0250    -1.8000 H     1 <1>   0.1500 
 28 H        4.7750    -0.0580    -2.0050 H     1 <1>   0.0800 
 29 H        3.0600    -0.3410    -2.0460 H     1 <1>   0.0800 
 30 H        2.0460    -2.0970    -0.4170 H     1 <1>   0.0800 
 31 H        3.1050    -2.9090     0.6940 H     1 <1>   0.0800 
 32 H       -4.2150     2.3400    -1.3160 H     1 <1>   0.1500 
 33 H        5.0320    -1.6490    -0.1500 H     1 <1>   0.0800 
 34 H        4.2220    -2.4280    -1.4840 H     1 <1>   0.0800 
@<TRIPOS>BOND
  1   1   2  ar  
  2   1   3  ar  
  3   2   4  1   
  4   2   5  ar  
  5   3   6  ar  
  6   3   7  ar  
  7   4   8  1   
  8   4   9  1   
  9   5  10  ar  
 10   5  11  1   
 11   6  10  ar  
 12   6  12  ar  
 13   7  13  ar  
 14   7  18  1   
 15   8  14  1   
 16   8  19  1   
 17   8  20  1   
 18   9  15  1   
 19   9  21  1   
 20   9  22  1   
 21  11  23  1   
 22  11  24  1   
 23  11  25  1   
 24  12  16  ar  
 25  12  26  1   
 26  13  16  ar  
 27  13  27  1   
 28  14  17  1   
 29  14  28  1   
 30  14  29  1   
 31  15  17  1   
 32  15  30  1   
 33  15  31  1   
 34  16  32  1   
 35  17  33  1   
 36  17  34  1   
@<TRIPOS>SUBSTRUCTURE
  1 ****   1 GROUP 4 **** **** 0

# MOE 2024.06 (io_trps.svl 2023.06)
