@<TRIPOS>MOLECULE
NONAME
35 36 1 0 0 
SMALL
USER_CHARGES


@<TRIPOS>ATOM
  1 S       -0.1680     1.8860     1.7850 S.3   1 <1>  -0.3710 
  2 C       -0.2010     2.5350     0.1520 C.2   1 <1>   0.6510 
  3 C        0.3300     0.2200     1.2350 C.3   1 <1>   0.0700 
  4 N        0.0970     1.7070    -0.7500 N.2   1 <1>  -0.6960 
  5 N       -0.5480     3.8570     0.0970 N.am  1 <1>  -0.4900 
  6 C        0.4230     0.3440    -0.2960 C.3   1 <1>   0.0860 
  7 C       -0.6750     4.6970    -0.9680 C.2   1 <1>   0.5690 
  8 O       -0.5030     4.3710    -2.1140 O.2   1 <1>  -0.5700 
  9 C       -1.0640     6.1490    -0.6870 C.3   1 <1>   0.2010 
 10 N       -1.1870     6.4690     0.7770 N.am  1 <1>  -0.7300 
 11 C       -2.3110     6.8350     1.4530 C.2   1 <1>   0.5440 
 12 O       -2.1160     7.3710     2.5210 O.2   1 <1>  -0.5700 
 13 C       -3.6580     6.6380     0.9500 C.ar  1 <1>   0.0860 
 14 C       -4.0730     5.4390     0.3670 C.ar  1 <1>  -0.1500 
 15 C       -4.6000     7.6640     1.0420 C.ar  1 <1>  -0.1500 
 16 C       -5.3570     5.2840    -0.1210 C.ar  1 <1>  -0.1500 
 17 C       -5.8870     7.5170     0.5590 C.ar  1 <1>  -0.1500 
 18 C       -6.2740     6.3180    -0.0330 C.ar  1 <1>   0.0820 
 19 O       -7.5080     6.0900    -0.5350 O.3   1 <1>  -0.3620 
 20 C       -8.5260     7.0650    -0.4810 C.3   1 <1>   0.0400 
 21 H       -0.4270    -0.4780     1.5430 H     1 <1>   0.0800 
 22 H        1.2790    -0.0140     1.6840 H     1 <1>   0.0800 
 23 H       -0.7260     4.2740     1.0080 H     1 <1>   0.3700 
 24 H       -0.2580    -0.3490    -0.7580 H     1 <1>   0.0800 
 25 H        1.4200     0.0990    -0.6200 H     1 <1>   0.0800 
 26 H       -1.9920     6.3530    -1.1890 H     1 <1>   0.0800 
 27 H       -0.3160     6.7870    -1.1220 H     1 <1>   0.0800 
 28 H       -0.3220     6.7710     1.2370 H     1 <1>   0.3700 
 29 H       -3.3880     4.6130     0.3000 H     1 <1>   0.1500 
 30 H       -4.3070     8.5910     1.5050 H     1 <1>   0.1500 
 31 H       -5.6630     4.3560    -0.5710 H     1 <1>   0.1500 
 32 H       -6.5720     8.3380     0.6520 H     1 <1>   0.1500 
 33 H       -9.4080     6.6510    -0.9350 H     1 <1>   0.0800 
 34 H       -8.2060     7.9340    -1.0280 H     1 <1>   0.0800 
 35 H       -8.7230     7.3070     0.5480 H     1 <1>   0.0800 
@<TRIPOS>BOND
  1   1   2  1   
  2   1   3  1   
  3   2   4  2   
  4   2   5  1   
  5   3   6  1   
  6   3  21  1   
  7   3  22  1   
  8   4   6  1   
  9   5   7  am  
 10   5  23  1   
 11   6  24  1   
 12   6  25  1   
 13   7   8  2   
 14   7   9  1   
 15   9  10  1   
 16   9  26  1   
 17   9  27  1   
 18  10  11  am  
 19  10  28  1   
 20  11  12  2   
 21  11  13  1   
 22  13  14  ar  
 23  13  15  ar  
 24  14  16  ar  
 25  14  29  1   
 26  15  17  ar  
 27  15  30  1   
 28  16  18  ar  
 29  16  31  1   
 30  17  18  ar  
 31  17  32  1   
 32  18  19  1   
 33  19  20  1   
 34  20  33  1   
 35  20  34  1   
 36  20  35  1   
@<TRIPOS>SUBSTRUCTURE
  1 ****  14 GROUP 4 **** **** 0

# MOE 2024.06 (io_trps.svl 2023.06)
