@<TRIPOS>MOLECULE
NONAME
38 39 1 0 0 
SMALL
USER_CHARGES


@<TRIPOS>ATOM
  1 CL      -0.4530     1.0030    -0.8000 Cl    1 <1>  -0.1770 
  2 C        1.2570     1.1790    -0.4940 C.ar  1 <1>   0.1770 
  3 C        1.8160     0.5570     0.6060 C.ar  1 <1>  -0.1500 
  4 C        2.0240     1.9380    -1.3570 C.ar  1 <1>  -0.1500 
  5 C        3.1740     0.6920     0.8550 C.ar  1 <1>  -0.1440 
  6 C        3.3800     2.0770    -1.1130 C.ar  1 <1>  -0.1500 
  7 C        3.9610     1.4560    -0.0070 C.ar  1 <1>   0.0830 
  8 C        3.7860     0.0050     2.0680 C.3   1 <1>  -0.0960 
  9 O        5.2850     1.5580     0.2830 O.3   1 <1>  -0.3630 
 10 C        6.1660     2.3020    -0.5200 C.3   1 <1>   0.1200 
 11 C        7.5520     2.1920     0.1140 C.3   1 <1>  -0.1600 
 12 C        8.5810     2.9850    -0.6890 C.3   1 <1>   0.3430 
 13 N        9.9370     2.8070    -0.1020 N.4   1 <1>  -0.9590 
 14 C       10.1150     3.4350     1.2320 C.3   1 <1>   0.3430 
 15 C       11.0130     3.3660    -0.9560 C.3   1 <1>   0.3430 
 16 C       11.6230     3.5610     1.3950 C.3   1 <1>  -0.1600 
 17 C       12.2050     3.5010    -0.0200 C.3   1 <1>  -0.1600 
 18 H        1.1870    -0.0250     1.2530 H     1 <1>   0.1500 
 19 H        1.5620     2.4100    -2.2040 H     1 <1>   0.1500 
 20 H        3.9570     2.6700    -1.7950 H     1 <1>   0.1500 
 21 H        3.0450    -0.5440     2.6190 H     1 <1>   0.0800 
 22 H        4.2240     0.7390     2.7200 H     1 <1>   0.0800 
 23 H        4.5530    -0.6780     1.7510 H     1 <1>   0.0800 
 24 H        5.8230     3.3230    -0.5370 H     1 <1>   0.0800 
 25 H        6.1540     1.8820    -1.5120 H     1 <1>   0.0800 
 26 H        7.8330     1.1540     0.1370 H     1 <1>   0.0800 
 27 H        7.4920     2.5710     1.1180 H     1 <1>   0.0800 
 28 H        8.3160     4.0310    -0.6940 H     1 <1>   0.0800 
 29 H        8.5800     2.6310    -1.7070 H     1 <1>   0.0800 
 30 H       10.1250     1.8010     0.0060 H     1 <1>   0.4500 
 31 H        9.6770     2.8390     2.0180 H     1 <1>   0.0800 
 32 H        9.6690     4.4170     1.2370 H     1 <1>   0.0800 
 33 H       10.7260     4.3420    -1.3140 H     1 <1>   0.0800 
 34 H       11.2340     2.7260    -1.7960 H     1 <1>   0.0800 
 35 H       11.9960     2.7450     1.9900 H     1 <1>   0.0800 
 36 H       11.8710     4.4840     1.8910 H     1 <1>   0.0800 
 37 H       12.7720     4.3860    -0.2580 H     1 <1>   0.0800 
 38 H       12.8500     2.6460    -0.1250 H     1 <1>   0.0800 
@<TRIPOS>BOND
  1   1   2  1   
  2   2   3  ar  
  3   2   4  ar  
  4   3   5  ar  
  5   3  18  1   
  6   4   6  ar  
  7   4  19  1   
  8   5   7  ar  
  9   5   8  1   
 10   6   7  ar  
 11   6  20  1   
 12   7   9  1   
 13   8  21  1   
 14   8  22  1   
 15   8  23  1   
 16   9  10  1   
 17  10  11  1   
 18  10  24  1   
 19  10  25  1   
 20  11  12  1   
 21  11  26  1   
 22  11  27  1   
 23  12  13  1   
 24  12  28  1   
 25  12  29  1   
 26  13  14  1   
 27  13  15  1   
 28  13  30  1   
 29  14  16  1   
 30  14  31  1   
 31  14  32  1   
 32  15  17  1   
 33  15  33  1   
 34  15  34  1   
 35  16  17  1   
 36  16  35  1   
 37  16  36  1   
 38  17  37  1   
 39  17  38  1   
@<TRIPOS>SUBSTRUCTURE
  1 ****  10 GROUP 4 **** **** 0

# MOE 2024.06 (io_trps.svl 2023.06)
