@<TRIPOS>MOLECULE
NONAME
42 42 1 0 0 
SMALL
USER_CHARGES


@<TRIPOS>ATOM
  1 O        2.4430    -1.7580    -1.0050 O.co2 1 <1>  -0.9000 
  2 C        2.5010    -0.6220    -1.4910 C.2   1 <1>   0.9060 
  3 O        2.0070    -0.3460    -2.5890 O.co2 1 <1>  -0.9000 
  4 C        3.2310     0.4800    -0.7190 C.3   1 <1>  -0.1860 
  5 C        4.6790     0.0140    -0.4340 C.3   1 <1>  -0.1600 
  6 C        2.4410     0.8660     0.5560 C.3   1 <1>  -0.1600 
  7 C        5.5860     1.0500     0.2580 C.3   1 <1>  -0.0990 
  8 C        2.4950     2.3680     0.8780 C.3   1 <1>  -0.1600 
  9 C        7.0420     0.6310     0.3770 C.2   1 <1>   0.5690 
 10 C        1.7070     2.6850     2.1510 C.3   1 <1>  -0.2400 
 11 O        7.8610     1.4870     0.6120 O.2   1 <1>  -0.5700 
 12 N        7.3640    -0.6820     0.2280 N.am  1 <1>  -0.7300 
 13 C        8.6910    -1.3260     0.2830 C.3   1 <1>   0.2200 
 14 C        9.3280    -1.1550     1.6680 C.3   1 <1>  -0.1600 
 15 C        9.6030    -0.7930    -0.8290 C.3   1 <1>  -0.1600 
 16 C       10.7100    -1.8240     1.7240 C.3   1 <1>  -0.1600 
 17 C       10.9850    -1.4620    -0.7750 C.3   1 <1>  -0.1600 
 18 C       11.6260    -1.2950     0.6110 C.3   1 <1>  -0.1600 
 19 H        3.2640     1.3250    -1.3810 H     1 <1>   0.0800 
 20 H        5.1200    -0.2580    -1.3780 H     1 <1>   0.0800 
 21 H        4.6290    -0.8770     0.1690 H     1 <1>   0.0800 
 22 H        2.7890     0.2810     1.3890 H     1 <1>   0.0800 
 23 H        1.4070     0.6030     0.4020 H     1 <1>   0.0800 
 24 H        5.2270     1.2350     1.2520 H     1 <1>   0.0800 
 25 H        5.5500     1.9720    -0.2920 H     1 <1>   0.0800 
 26 H        2.0720     2.9180     0.0540 H     1 <1>   0.0800 
 27 H        3.5100     2.6960     1.0030 H     1 <1>   0.0800 
 28 H        0.6780     2.3920     2.0350 H     1 <1>   0.0800 
 29 H        1.7440     3.7400     2.3550 H     1 <1>   0.0800 
 30 H        2.1250     2.1560     2.9900 H     1 <1>   0.0800 
 31 H        6.5960    -1.3180     0.0030 H     1 <1>   0.3700 
 32 H        8.5480    -2.3800     0.1150 H     1 <1>   0.0800 
 33 H        8.6860    -1.5880     2.4140 H     1 <1>   0.0800 
 34 H        9.4430    -0.1070     1.8850 H     1 <1>   0.0800 
 35 H        9.7280     0.2690    -0.7140 H     1 <1>   0.0800 
 36 H        9.1490    -0.9800    -1.7860 H     1 <1>   0.0800 
 37 H       10.5960    -2.8890     1.6170 H     1 <1>   0.0800 
 38 H       11.1610    -1.6340     2.6820 H     1 <1>   0.0800 
 39 H       11.6250    -1.0240    -1.5220 H     1 <1>   0.0800 
 40 H       10.8850    -2.5100    -0.9980 H     1 <1>   0.0800 
 41 H       12.5670    -1.8160     0.6390 H     1 <1>   0.0800 
 42 H       11.8240    -0.2500     0.7840 H     1 <1>   0.0800 
@<TRIPOS>BOND
  1   1   2  ar  
  2   2   3  ar  
  3   2   4  1   
  4   4   5  1   
  5   4   6  1   
  6   4  19  1   
  7   5   7  1   
  8   5  20  1   
  9   5  21  1   
 10   6   8  1   
 11   6  22  1   
 12   6  23  1   
 13   7   9  1   
 14   7  24  1   
 15   7  25  1   
 16   8  10  1   
 17   8  26  1   
 18   8  27  1   
 19   9  11  2   
 20   9  12  am  
 21  10  28  1   
 22  10  29  1   
 23  10  30  1   
 24  12  13  1   
 25  12  31  1   
 26  13  14  1   
 27  13  15  1   
 28  13  32  1   
 29  14  16  1   
 30  14  33  1   
 31  14  34  1   
 32  15  17  1   
 33  15  35  1   
 34  15  36  1   
 35  16  18  1   
 36  16  37  1   
 37  16  38  1   
 38  17  18  1   
 39  17  39  1   
 40  17  40  1   
 41  18  41  1   
 42  18  42  1   
@<TRIPOS>SUBSTRUCTURE
  1 ****   9 GROUP 4 **** **** 0

# MOE 2024.06 (io_trps.svl 2023.06)
