@<TRIPOS>MOLECULE
NONAME
34 35 1 0 0 
SMALL
USER_CHARGES


@<TRIPOS>ATOM
  1 O        0.4120    -1.9290    -2.7880 O.2   1 <1>  -0.5700 
  2 C        0.7560    -2.3270    -1.6990 C.2   1 <1>   0.5690 
  3 N        2.0830    -2.4470    -1.4470 N.am  1 <1>  -0.7300 
  4 C       -0.3220    -2.6370    -0.6310 C.3   1 <1>   0.2610 
  5 C        2.7340    -2.8500    -0.1870 C.3   1 <1>   0.2840 
  6 O       -0.0240    -3.7580     0.1690 O.3   1 <1>  -0.5600 
  7 C       -1.7120    -2.9300    -1.1890 C.3   1 <1>  -0.1600 
  8 C        4.2180    -2.5400    -0.2900 C.ar  1 <1>  -0.1430 
  9 C       -1.1780    -4.4230     0.5850 C.3   1 <1>   0.1200 
 10 C       -2.3590    -3.7160    -0.0680 C.3   1 <1>  -0.1600 
 11 C        4.7820    -1.4540     0.3750 C.ar  1 <1>   0.0820 
 12 C        5.0230    -3.3610    -1.0660 C.ar  1 <1>  -0.1500 
 13 O        3.9600    -0.6720     1.1250 O.3   1 <1>  -0.3630 
 14 C        6.1480    -1.2060     0.2510 C.ar  1 <1>  -0.1500 
 15 C        6.3780    -3.1100    -1.1850 C.ar  1 <1>  -0.1500 
 16 C        4.4270     0.4910     1.7720 C.3   1 <1>   0.0400 
 17 C        6.9400    -2.0320    -0.5260 C.ar  1 <1>  -0.1500 
 18 H        2.7250    -2.1650    -2.1880 H     1 <1>   0.3700 
 19 H       -0.3830    -1.7930     0.0330 H     1 <1>   0.0800 
 20 H        2.5950    -3.9070    -0.0390 H     1 <1>   0.0800 
 21 H        2.2790    -2.3350     0.6410 H     1 <1>   0.0800 
 22 H       -1.6220    -3.5400    -2.0720 H     1 <1>   0.0800 
 23 H       -2.2440    -2.0280    -1.4360 H     1 <1>   0.0800 
 24 H       -1.2310    -4.3930     1.6590 H     1 <1>   0.0800 
 25 H       -1.1030    -5.4440     0.2500 H     1 <1>   0.0800 
 26 H       -3.0990    -4.4110    -0.4240 H     1 <1>   0.0800 
 27 H       -2.8140    -3.0500     0.6450 H     1 <1>   0.0800 
 28 H        4.5920    -4.2020    -1.5840 H     1 <1>   0.1500 
 29 H        6.6130    -0.3790     0.7510 H     1 <1>   0.1500 
 30 H        6.9940    -3.7530    -1.7900 H     1 <1>   0.1500 
 31 H        3.5940     0.9520     2.2710 H     1 <1>   0.0800 
 32 H        4.8290     1.1630     1.0340 H     1 <1>   0.0800 
 33 H        5.1760     0.2130     2.4920 H     1 <1>   0.0800 
 34 H        7.9940    -1.8370    -0.6180 H     1 <1>   0.1500 
@<TRIPOS>BOND
  1   1   2  2   
  2   2   3  am  
  3   2   4  1   
  4   3   5  1   
  5   3  18  1   
  6   4   6  1   
  7   4   7  1   
  8   4  19  1   
  9   5   8  1   
 10   5  20  1   
 11   5  21  1   
 12   6   9  1   
 13   7  10  1   
 14   7  22  1   
 15   7  23  1   
 16   8  11  ar  
 17   8  12  ar  
 18   9  10  1   
 19   9  24  1   
 20   9  25  1   
 21  10  26  1   
 22  10  27  1   
 23  11  13  1   
 24  11  14  ar  
 25  12  15  ar  
 26  12  28  1   
 27  13  16  1   
 28  14  17  ar  
 29  14  29  1   
 30  15  17  ar  
 31  15  30  1   
 32  16  31  1   
 33  16  32  1   
 34  16  33  1   
 35  17  34  1   
@<TRIPOS>SUBSTRUCTURE
  1 ****   5 GROUP 4 **** **** 0

# MOE 2024.06 (io_trps.svl 2023.06)
