@<TRIPOS>MOLECULE
NONAME
43 45 1 0 0 
SMALL
USER_CHARGES


@<TRIPOS>ATOM
  1 BR      -0.5600    -0.1060     1.1480 Br    1 <1>  -0.1110 
  2 C       -0.2810    -1.8150     0.2840 C.ar  1 <1>   0.1110 
  3 C       -1.3790    -2.4750    -0.2140 C.ar  1 <1>   0.0830 
  4 C        1.0360    -2.3190     0.2040 C.ar  1 <1>   0.0000 
  5 O       -2.6080    -1.9070    -0.0830 O.3   1 <1>  -0.3630 
  6 C       -1.1840    -3.7170    -0.8440 C.ar  1 <1>  -0.1500 
  7 C        1.2060    -3.5720    -0.4290 C.ar  1 <1>   0.0000 
  8 C        2.1830    -1.6650     0.7080 C.ar  1 <1>  -0.1500 
  9 C       -3.7930    -2.6400    -0.2920 C.3   1 <1>   0.1200 
 10 C        0.0760    -4.2420    -0.9420 C.ar  1 <1>  -0.1500 
 11 C        2.5030    -4.1150    -0.5300 C.ar  1 <1>  -0.1500 
 12 C        3.4290    -2.2170     0.5950 C.ar  1 <1>  -0.1500 
 13 C       -4.9690    -1.7380     0.0900 C.3   1 <1>   0.1100 
 14 C        3.5920    -3.4560    -0.0310 C.ar  1 <1>  -0.1500 
 15 N       -6.2710    -2.4240    -0.0710 N.3   1 <1>  -0.8100 
 16 C       -6.5260    -3.4040     1.0180 C.3   1 <1>   0.1100 
 17 C       -7.3730    -1.4320    -0.1290 C.3   1 <1>   0.1100 
 18 C       -7.9250    -4.0640     0.9150 C.3   1 <1>   0.3430 
 19 C       -8.7640    -2.0920    -0.3000 C.3   1 <1>   0.3430 
 20 N       -8.6610    -3.5890    -0.3030 N.4   1 <1>  -0.9590 
 21 C       -9.9690    -4.2730    -0.5140 C.3   1 <1>   0.2630 
 22 H       -2.0140    -4.2590    -1.2550 H     1 <1>   0.1500 
 23 H        2.0740    -0.7110     1.1910 H     1 <1>   0.1500 
 24 H       -3.7540    -3.5160     0.3290 H     1 <1>   0.0800 
 25 H       -3.8500    -2.9070    -1.3320 H     1 <1>   0.0800 
 26 H        0.2270    -5.1920    -1.4240 H     1 <1>   0.1500 
 27 H        2.6240    -5.0680    -1.0120 H     1 <1>   0.1500 
 28 H        4.2950    -1.7090     0.9830 H     1 <1>   0.1500 
 29 H       -4.9360    -0.8780    -0.5580 H     1 <1>   0.0800 
 30 H       -4.8500    -1.4010     1.1070 H     1 <1>   0.0800 
 31 H        4.5790    -3.8770    -0.1120 H     1 <1>   0.1500 
 32 H       -6.4410    -2.9180     1.9760 H     1 <1>   0.0800 
 33 H       -5.7820    -4.1800     0.9860 H     1 <1>   0.0800 
 34 H       -7.2070    -0.7630    -0.9570 H     1 <1>   0.0800 
 35 H       -7.3750    -0.8360     0.7680 H     1 <1>   0.0800 
 36 H       -8.4910    -3.8310     1.8010 H     1 <1>   0.0800 
 37 H       -7.8030    -5.1340     0.8760 H     1 <1>   0.0800 
 38 H       -9.1960    -1.7540    -1.2280 H     1 <1>   0.0800 
 39 H       -9.4090    -1.7660     0.4990 H     1 <1>   0.0800 
 40 H       -8.0100    -3.7880    -1.0810 H     1 <1>   0.4500 
 41 H      -10.6410    -4.0570     0.3010 H     1 <1>   0.0800 
 42 H       -9.8270    -5.3400    -0.5720 H     1 <1>   0.0800 
 43 H      -10.4210    -3.9370    -1.4330 H     1 <1>   0.0800 
@<TRIPOS>BOND
  1   1   2  1   
  2   2   3  ar  
  3   2   4  ar  
  4   3   5  1   
  5   3   6  ar  
  6   4   7  ar  
  7   4   8  ar  
  8   5   9  1   
  9   6  10  ar  
 10   6  22  1   
 11   7  10  ar  
 12   7  11  ar  
 13   8  12  ar  
 14   8  23  1   
 15   9  13  1   
 16   9  24  1   
 17   9  25  1   
 18  10  26  1   
 19  11  14  ar  
 20  11  27  1   
 21  12  14  ar  
 22  12  28  1   
 23  13  15  1   
 24  13  29  1   
 25  13  30  1   
 26  14  31  1   
 27  15  16  1   
 28  15  17  1   
 29  16  18  1   
 30  16  32  1   
 31  16  33  1   
 32  17  19  1   
 33  17  34  1   
 34  17  35  1   
 35  18  20  1   
 36  18  36  1   
 37  18  37  1   
 38  19  20  1   
 39  19  38  1   
 40  19  39  1   
 41  20  21  1   
 42  20  40  1   
 43  21  41  1   
 44  21  42  1   
 45  21  43  1   
@<TRIPOS>SUBSTRUCTURE
  1 ****   5 GROUP 4 **** **** 0

# MOE 2024.06 (io_trps.svl 2023.06)
