@<TRIPOS>MOLECULE
NONAME
35 36 1 0 0 
SMALL
USER_CHARGES


@<TRIPOS>ATOM
  1 CL      -1.0700     0.6930    -0.2210 Cl    1 <1>  -0.1770 
  2 C        0.2400     1.8480    -0.3460 C.ar  1 <1>   0.1770 
  3 C       -0.0410     3.2120    -0.2900 C.ar  1 <1>   0.1170 
  4 C        1.5270     1.3650    -0.5020 C.ar  1 <1>  -0.1500 
  5 N       -1.3640     3.6600    -0.1030 N.am  1 <1>  -0.5470 
  6 C        1.0430     4.0810    -0.4320 C.ar  1 <1>   0.1770 
  7 C        2.5840     2.2530    -0.6170 C.ar  1 <1>  -0.1500 
  8 C       -1.8430     4.3900     0.9480 C.2   1 <1>   0.5690 
  9 CL       0.7960     5.8150    -0.4650 Cl    1 <1>  -0.1770 
 10 C        2.3370     3.6160    -0.5860 C.ar  1 <1>  -0.1500 
 11 O       -1.1400     4.7440     1.8620 O.2   1 <1>  -0.5700 
 12 C       -3.3170     4.7530     0.9750 C.3   1 <1>   0.1310 
 13 S       -4.3400     3.4220     0.1730 S.3   1 <1>  -0.2860 
 14 C       -5.9940     4.1180     0.2220 C.2   1 <1>   0.2430 
 15 N       -6.2560     5.2940     0.6670 N.2   1 <1>  -0.3380 
 16 N       -7.0670     3.4560    -0.2090 N.pl3 1 <1>   0.0480 
 17 N       -7.5770     5.4430     0.5290 N.2   1 <1>  -0.3380 
 18 C       -8.0430     4.3520     0.0100 C.2   1 <1>   0.0060 
 19 C       -7.1300     2.0950    -0.7790 C.3   1 <1>   0.0160 
 20 C       -9.5090     4.0900    -0.3210 C.3   1 <1>   0.0200 
 21 C      -10.4110     5.3080    -0.0880 C.3   1 <1>  -0.2400 
 22 H        1.6980     0.3030    -0.5310 H     1 <1>   0.1500 
 23 H       -2.0810     3.2100    -0.6770 H     1 <1>   0.3700 
 24 H        3.5910     1.8870    -0.7350 H     1 <1>   0.1500 
 25 H        3.1450     4.3200    -0.6830 H     1 <1>   0.1500 
 26 H       -3.4900     5.6650     0.4340 H     1 <1>   0.0800 
 27 H       -3.6640     4.8570     1.9860 H     1 <1>   0.0800 
 28 H       -6.8370     2.1300    -1.8120 H     1 <1>   0.0800 
 29 H       -8.1300     1.7090    -0.7010 H     1 <1>   0.0800 
 30 H       -6.4610     1.4490    -0.2390 H     1 <1>   0.0800 
 31 H       -9.8620     3.2760     0.2870 H     1 <1>   0.0800 
 32 H       -9.5860     3.7970    -1.3530 H     1 <1>   0.0800 
 33 H      -10.3720     5.6060     0.9450 H     1 <1>   0.0800 
 34 H      -11.4290     5.0740    -0.3430 H     1 <1>   0.0800 
 35 H      -10.0820     6.1340    -0.6940 H     1 <1>   0.0800 
@<TRIPOS>BOND
  1   1   2  1   
  2   2   3  ar  
  3   2   4  ar  
  4   3   5  1   
  5   3   6  ar  
  6   4   7  ar  
  7   4  22  1   
  8   5   8  am  
  9   5  23  1   
 10   6   9  1   
 11   6  10  ar  
 12   7  10  ar  
 13   7  24  1   
 14   8  11  2   
 15   8  12  1   
 16  10  25  1   
 17  12  13  1   
 18  12  26  1   
 19  12  27  1   
 20  13  14  1   
 21  14  15  2   
 22  14  16  1   
 23  15  17  1   
 24  16  18  1   
 25  16  19  1   
 26  17  18  2   
 27  18  20  1   
 28  19  28  1   
 29  19  29  1   
 30  19  30  1   
 31  20  21  1   
 32  20  31  1   
 33  20  32  1   
 34  21  33  1   
 35  21  34  1   
 36  21  35  1   
@<TRIPOS>SUBSTRUCTURE
  1 ****  13 GROUP 4 **** **** 0

# MOE 2024.06 (io_trps.svl 2023.06)
