@<TRIPOS>MOLECULE
NONAME
49 51 1 0 0 
SMALL
USER_CHARGES


@<TRIPOS>ATOM
  1 O        0.2010    -0.9790    -3.2320 O.2   1 <1>  -0.5700 
  2 C       -0.3220    -1.2600    -2.1790 C.2   1 <1>   0.5690 
  3 N        0.3730    -1.4150    -1.0120 N.am  1 <1>  -0.5470 
  4 C       -1.8370    -1.5040    -2.1360 C.3   1 <1>   0.1710 
  5 C        1.7080    -1.1730    -0.6440 C.ar  1 <1>   0.1170 
  6 N       -2.6790    -0.4300    -1.5280 N.3   1 <1>  -0.8100 
  7 C        1.9950    -1.0430     0.7180 C.ar  1 <1>   0.0830 
  8 C        2.7440    -1.0650    -1.5650 C.ar  1 <1>  -0.1500 
  9 C       -2.3140    -0.1010    -0.1240 C.3   1 <1>   0.1100 
 10 C       -4.1150    -0.7960    -1.6220 C.3   1 <1>   0.1100 
 11 O        0.9450    -1.1560     1.5900 O.3   1 <1>  -0.3630 
 12 C        3.3000    -0.8060     1.1340 C.ar  1 <1>  -0.1500 
 13 C        4.0420    -0.8280    -1.1480 C.ar  1 <1>  -0.1500 
 14 C       -3.2330     0.9700     0.4920 C.3   1 <1>   0.2090 
 15 C       -5.0470     0.2670    -1.0120 C.3   1 <1>   0.2090 
 16 C        1.1280    -0.9680     2.9760 C.3   1 <1>   0.0400 
 17 C        4.3240    -0.6970     0.2080 C.ar  1 <1>   0.0830 
 18 N       -4.6580     0.5390     0.4040 N.pl3 1 <1>  -0.8380 
 19 O        5.5690    -0.4640     0.7030 O.3   1 <1>  -0.3630 
 20 C       -5.3420    -0.0020     1.4720 C.ar  1 <1>   0.7200 
 21 C        6.6780    -0.3270    -0.1580 C.3   1 <1>   0.0400 
 22 N       -4.6740    -0.1500     2.6170 N.ar  1 <1>  -0.6200 
 23 N       -6.6160    -0.3390     1.2670 N.ar  1 <1>  -0.6200 
 24 C       -5.3450    -0.6540     3.6240 C.ar  1 <1>   0.1600 
 25 C       -7.2610    -0.8400     2.2910 C.ar  1 <1>   0.1600 
 26 C       -6.6630    -1.0210     3.5130 C.ar  1 <1>  -0.1500 
 27 H       -0.2040    -1.5970    -0.1910 H     1 <1>   0.3700 
 28 H       -2.0100    -2.4270    -1.6120 H     1 <1>   0.0800 
 29 H       -2.1580    -1.6480    -3.1530 H     1 <1>   0.0800 
 30 H        2.5410    -1.1670    -2.6150 H     1 <1>   0.1500 
 31 H       -1.3110     0.2840    -0.0930 H     1 <1>   0.0800 
 32 H       -2.3640    -0.9850     0.4880 H     1 <1>   0.0800 
 33 H       -4.2880    -1.7280    -1.1100 H     1 <1>   0.0800 
 34 H       -4.3790    -0.9290    -2.6560 H     1 <1>   0.0800 
 35 H        3.5560    -0.7010     2.1690 H     1 <1>   0.1500 
 36 H        4.8110    -0.7500    -1.8920 H     1 <1>   0.1500 
 37 H       -3.1100     1.8910    -0.0510 H     1 <1>   0.0800 
 38 H       -2.9420     1.1570     1.5100 H     1 <1>   0.0800 
 39 H       -6.0660    -0.0690    -1.0820 H     1 <1>   0.0800 
 40 H       -4.9670     1.1770    -1.5800 H     1 <1>   0.0800 
 41 H        0.1720    -1.0730     3.4580 H     1 <1>   0.0800 
 42 H        1.5150     0.0220     3.1470 H     1 <1>   0.0800 
 43 H        1.8070    -1.7160     3.3450 H     1 <1>   0.0800 
 44 H        7.5480    -0.1440     0.4460 H     1 <1>   0.0800 
 45 H        6.5080     0.5070    -0.8160 H     1 <1>   0.0800 
 46 H        6.8030    -1.2390    -0.7130 H     1 <1>   0.0800 
 47 H       -4.8310    -0.7770     4.5620 H     1 <1>   0.1500 
 48 H       -8.2930    -1.1130     2.1520 H     1 <1>   0.1500 
 49 H       -7.2020    -1.4320     4.3450 H     1 <1>   0.1500 
@<TRIPOS>BOND
  1   1   2  2   
  2   2   3  am  
  3   2   4  1   
  4   3   5  1   
  5   3  27  1   
  6   4   6  1   
  7   4  28  1   
  8   4  29  1   
  9   5   7  ar  
 10   5   8  ar  
 11   6   9  1   
 12   6  10  1   
 13   7  11  1   
 14   7  12  ar  
 15   8  13  ar  
 16   8  30  1   
 17   9  14  1   
 18   9  31  1   
 19   9  32  1   
 20  10  15  1   
 21  10  33  1   
 22  10  34  1   
 23  11  16  1   
 24  12  17  ar  
 25  12  35  1   
 26  13  17  ar  
 27  13  36  1   
 28  14  18  1   
 29  14  37  1   
 30  14  38  1   
 31  15  18  1   
 32  15  39  1   
 33  15  40  1   
 34  16  41  1   
 35  16  42  1   
 36  16  43  1   
 37  17  19  1   
 38  18  20  1   
 39  19  21  1   
 40  20  22  ar  
 41  20  23  ar  
 42  21  44  1   
 43  21  45  1   
 44  21  46  1   
 45  22  24  ar  
 46  23  25  ar  
 47  24  26  ar  
 48  24  47  1   
 49  25  26  ar  
 50  25  48  1   
 51  26  49  1   
@<TRIPOS>SUBSTRUCTURE
  1 ****   9 GROUP 4 **** **** 0

# MOE 2024.06 (io_trps.svl 2023.06)
