@<TRIPOS>MOLECULE
NONAME
47 49 1 0 0 
SMALL
USER_CHARGES


@<TRIPOS>ATOM
  1 O       -0.1560     0.2660     0.6580 O.2   1 <1>  -0.5700 
  2 C       -0.1720     1.3950     0.2130 C.2   1 <1>   0.5440 
  3 N       -1.2990     1.8730    -0.4190 N.am  1 <1>  -0.5470 
  4 C        1.0010     2.2430     0.3090 C.ar  1 <1>   0.0860 
  5 C       -2.5710     1.3030    -0.5800 C.ar  1 <1>   0.1170 
  6 C        2.2820     1.7090     0.1930 C.ar  1 <1>  -0.1500 
  7 C        0.8960     3.6210     0.5190 C.ar  1 <1>  -0.1500 
  8 C       -3.0940     0.3640     0.3030 C.ar  1 <1>  -0.1500 
  9 C       -3.3540     1.6940    -1.6590 C.ar  1 <1>  -0.1500 
 10 C        3.4140     2.5020     0.2620 C.ar  1 <1>   0.0830 
 11 C        2.0180     4.4260     0.5900 C.ar  1 <1>  -0.1500 
 12 C       -4.3520    -0.1760     0.1100 C.ar  1 <1>  -0.1500 
 13 C       -4.6150     1.1610    -1.8570 C.ar  1 <1>  -0.1500 
 14 O        4.6080     1.8750     0.1270 O.3   1 <1>  -0.3630 
 15 C        3.2790     3.8730     0.4600 C.ar  1 <1>  -0.1500 
 16 C       -5.1250     0.2230    -0.9710 C.ar  1 <1>  -0.1430 
 17 C        5.8260     2.5800     0.2240 C.3   1 <1>   0.0400 
 18 C       -6.5080    -0.3640    -1.1780 C.3   1 <1>   0.4870 
 19 N       -7.4170     0.2010    -0.1460 N.4   1 <1>  -0.9590 
 20 C       -8.7520    -0.4900    -0.1340 C.3   1 <1>   0.3430 
 21 C       -7.5830     1.6890    -0.3030 C.3   1 <1>   0.3430 
 22 C       -9.7220     0.1770     0.8600 C.3   1 <1>   0.1200 
 23 C       -8.6130     2.2510     0.6960 C.3   1 <1>   0.1200 
 24 O       -9.8170     1.5470     0.5960 O.3   1 <1>  -0.5600 
 25 H       -1.1400     2.7290    -0.9460 H     1 <1>   0.3700 
 26 H        2.3990     0.6500     0.0450 H     1 <1>   0.1500 
 27 H       -0.0750     4.0690     0.6380 H     1 <1>   0.1500 
 28 H       -2.5110     0.0480     1.1500 H     1 <1>   0.1500 
 29 H       -2.9670     2.4150    -2.3570 H     1 <1>   0.1500 
 30 H        1.9130     5.4850     0.7510 H     1 <1>   0.1500 
 31 H       -4.7050    -0.9120     0.8110 H     1 <1>   0.1500 
 32 H       -5.1860     1.4830    -2.7120 H     1 <1>   0.1500 
 33 H        4.1360     4.5170     0.5180 H     1 <1>   0.1500 
 34 H        6.6290     1.8760     0.1030 H     1 <1>   0.0800 
 35 H        5.8870     3.0400     1.1940 H     1 <1>   0.0800 
 36 H        5.8660     3.3180    -0.5580 H     1 <1>   0.0800 
 37 H       -6.4540    -1.4370    -1.0810 H     1 <1>   0.0800 
 38 H       -6.8670    -0.1270    -2.1660 H     1 <1>   0.0800 
 39 H       -6.9610     0.0490     0.7620 H     1 <1>   0.4500 
 40 H       -8.6310    -1.5280     0.1300 H     1 <1>   0.0800 
 41 H       -9.1950    -0.4460    -1.1160 H     1 <1>   0.0800 
 42 H       -7.9220     1.9160    -1.3000 H     1 <1>   0.0800 
 43 H       -6.6360     2.1840    -0.1540 H     1 <1>   0.0800 
 44 H       -9.3970     0.0400     1.8770 H     1 <1>   0.0800 
 45 H      -10.7080    -0.2440     0.7560 H     1 <1>   0.0800 
 46 H       -8.8190     3.2840     0.4740 H     1 <1>   0.0800 
 47 H       -8.2520     2.1840     1.7080 H     1 <1>   0.0800 
@<TRIPOS>BOND
  1   1   2  2   
  2   2   3  am  
  3   2   4  1   
  4   3   5  1   
  5   3  25  1   
  6   4   6  ar  
  7   4   7  ar  
  8   5   8  ar  
  9   5   9  ar  
 10   6  10  ar  
 11   6  26  1   
 12   7  11  ar  
 13   7  27  1   
 14   8  12  ar  
 15   8  28  1   
 16   9  13  ar  
 17   9  29  1   
 18  10  14  1   
 19  10  15  ar  
 20  11  15  ar  
 21  11  30  1   
 22  12  16  ar  
 23  12  31  1   
 24  13  16  ar  
 25  13  32  1   
 26  14  17  1   
 27  15  33  1   
 28  16  18  1   
 29  17  34  1   
 30  17  35  1   
 31  17  36  1   
 32  18  19  1   
 33  18  37  1   
 34  18  38  1   
 35  19  20  1   
 36  19  21  1   
 37  19  39  1   
 38  20  22  1   
 39  20  40  1   
 40  20  41  1   
 41  21  23  1   
 42  21  42  1   
 43  21  43  1   
 44  22  24  1   
 45  22  44  1   
 46  22  45  1   
 47  23  24  1   
 48  23  46  1   
 49  23  47  1   
@<TRIPOS>SUBSTRUCTURE
  1 ****   5 GROUP 4 **** **** 0

# MOE 2024.06 (io_trps.svl 2023.06)
