@<TRIPOS>MOLECULE
NONAME
43 43 1 0 0 
SMALL
USER_CHARGES


@<TRIPOS>ATOM
  1 BR      -0.5620    -0.1990     1.0840 Br    1 <1>  -0.1110 
  2 C        0.5610    -1.6660     0.5230 C.ar  1 <1>   0.1110 
  3 C       -0.0170    -2.8830     0.1860 C.ar  1 <1>   0.0820 
  4 C        1.9250    -1.4510     0.4750 C.ar  1 <1>  -0.1500 
  5 O       -1.3690    -3.0010     0.2620 O.3   1 <1>  -0.3630 
  6 C        0.8290    -3.9150    -0.2130 C.ar  1 <1>  -0.1500 
  7 C        2.7550    -2.4860     0.0750 C.ar  1 <1>  -0.1430 
  8 C       -2.0250    -4.2000    -0.0650 C.3   1 <1>   0.1200 
  9 C        2.2000    -3.7120    -0.2650 C.ar  1 <1>  -0.1500 
 10 C        4.2590    -2.2860     0.0130 C.3   1 <1>  -0.0960 
 11 C       -3.5240    -3.9640     0.1350 C.3   1 <1>  -0.1600 
 12 C       -4.3540    -5.2120    -0.1940 C.3   1 <1>  -0.1600 
 13 C       -5.8410    -4.9310     0.0180 C.3   1 <1>   0.3430 
 14 N       -6.6180    -6.1510    -0.3100 N.4   1 <1>  -0.9060 
 15 C       -8.0700    -6.0060    -0.1060 C.3   1 <1>   0.4230 
 16 C       -8.6780    -7.4150    -0.0800 C.3   1 <1>  -0.1600 
 17 C       -8.6410    -5.1480    -1.2360 C.3   1 <1>  -0.2400 
 18 C      -10.1660    -7.4290     0.3030 C.3   1 <1>  -0.2400 
 19 H        2.3220    -0.4900     0.7480 H     1 <1>   0.1500 
 20 H        0.4460    -4.8800    -0.4860 H     1 <1>   0.1500 
 21 H       -1.6630    -4.9740     0.5900 H     1 <1>   0.0800 
 22 H       -1.8030    -4.4380    -1.0910 H     1 <1>   0.0800 
 23 H        2.8410    -4.5200    -0.5740 H     1 <1>   0.1500 
 24 H        4.4990    -1.2420    -0.0840 H     1 <1>   0.0800 
 25 H        4.6700    -2.8070    -0.8320 H     1 <1>   0.0800 
 26 H        4.7140    -2.6640     0.9110 H     1 <1>   0.0800 
 27 H       -3.8260    -3.1470    -0.4990 H     1 <1>   0.0800 
 28 H       -3.6880    -3.6770     1.1610 H     1 <1>   0.0800 
 29 H       -4.0400    -6.0190     0.4460 H     1 <1>   0.0800 
 30 H       -4.1780    -5.4880    -1.2200 H     1 <1>   0.0800 
 31 H       -6.1450    -4.1130    -0.6160 H     1 <1>   0.0800 
 32 H       -6.0120    -4.6480     1.0450 H     1 <1>   0.0800 
 33 H       -6.2870    -6.9270     0.2730 H     1 <1>   0.4500 
 34 H       -6.4540    -6.4190    -1.2860 H     1 <1>   0.4500 
 35 H       -8.2580    -5.5280     0.8440 H     1 <1>   0.0800 
 36 H       -8.1560    -8.0120     0.6490 H     1 <1>   0.0800 
 37 H       -8.5660    -7.8860    -1.0420 H     1 <1>   0.0800 
 38 H       -8.4990    -5.6200    -2.1930 H     1 <1>   0.0800 
 39 H       -8.1960    -4.1700    -1.2500 H     1 <1>   0.0800 
 40 H       -9.6960    -5.0070    -1.0910 H     1 <1>   0.0800 
 41 H      -10.3260    -6.9340     1.2460 H     1 <1>   0.0800 
 42 H      -10.5080    -8.4450     0.3980 H     1 <1>   0.0800 
 43 H      -10.7700    -6.9500    -0.4470 H     1 <1>   0.0800 
@<TRIPOS>BOND
  1   1   2  1   
  2   2   3  ar  
  3   2   4  ar  
  4   3   5  1   
  5   3   6  ar  
  6   4   7  ar  
  7   4  19  1   
  8   5   8  1   
  9   6   9  ar  
 10   6  20  1   
 11   7   9  ar  
 12   7  10  1   
 13   8  11  1   
 14   8  21  1   
 15   8  22  1   
 16   9  23  1   
 17  10  24  1   
 18  10  25  1   
 19  10  26  1   
 20  11  12  1   
 21  11  27  1   
 22  11  28  1   
 23  12  13  1   
 24  12  29  1   
 25  12  30  1   
 26  13  14  1   
 27  13  31  1   
 28  13  32  1   
 29  14  15  1   
 30  14  33  1   
 31  14  34  1   
 32  15  16  1   
 33  15  17  1   
 34  15  35  1   
 35  16  18  1   
 36  16  36  1   
 37  16  37  1   
 38  17  38  1   
 39  17  39  1   
 40  17  40  1   
 41  18  41  1   
 42  18  42  1   
 43  18  43  1   
@<TRIPOS>SUBSTRUCTURE
  1 ****   8 GROUP 4 **** **** 0

# MOE 2024.06 (io_trps.svl 2023.06)
