@<TRIPOS>MOLECULE
NONAME
48 50 1 0 0 
SMALL
USER_CHARGES


@<TRIPOS>ATOM
  1 F       -0.6080    -2.7970    -2.4530 F     1 <1>  -0.1900 
  2 C       -1.4560    -2.2650    -1.6030 C.ar  1 <1>   0.1900 
  3 C       -1.2080    -2.3650    -0.2280 C.ar  1 <1>   0.1000 
  4 C       -2.5640    -1.6250    -2.1210 C.ar  1 <1>  -0.1500 
  5 N       -0.0950    -3.0060     0.3360 N.pl3 1 <1>  -0.8380 
  6 C       -2.1400    -1.7820     0.6210 C.ar  1 <1>  -0.1500 
  7 C       -3.4740    -1.0540    -1.2460 C.ar  1 <1>  -0.1500 
  8 C        1.2150    -2.3300     0.0880 C.3   1 <1>   0.2090 
  9 C       -0.0530    -4.4870     0.1440 C.3   1 <1>   0.2090 
 10 C       -3.2590    -1.1350     0.1210 C.ar  1 <1>  -0.1500 
 11 C        2.3410    -2.9780     0.9200 C.3   1 <1>   0.3430 
 12 C        1.0770    -5.1230     0.9800 C.3   1 <1>   0.3430 
 13 N        2.4150    -4.4750     0.7270 N.4   1 <1>  -0.9590 
 14 C        3.4940    -5.0840     1.5480 C.3   1 <1>   0.4860 
 15 C        4.8210    -4.5030     1.1010 C.ar  1 <1>  -0.1430 
 16 C        5.3190    -4.7950    -0.1580 C.ar  1 <1>  -0.1500 
 17 C        5.5460    -3.6680     1.9350 C.ar  1 <1>  -0.1500 
 18 C        6.5120    -4.2560    -0.6080 C.ar  1 <1>   0.0830 
 19 C        6.7430    -3.1220     1.5050 C.ar  1 <1>  -0.1500 
 20 O        6.8430    -4.6420    -1.8730 O.3   1 <1>  -0.3630 
 21 C        7.2430    -3.3980     0.2330 C.ar  1 <1>   0.0830 
 22 C        8.1460    -4.5120    -2.4000 C.3   1 <1>   0.0400 
 23 O        8.4100    -2.8390    -0.2000 O.3   1 <1>  -0.3630 
 24 C        9.2380    -2.0590     0.6360 C.3   1 <1>   0.0400 
 25 H       -2.7130    -1.5730    -3.1840 H     1 <1>   0.1500 
 26 H       -1.9840    -1.8390     1.6830 H     1 <1>   0.1500 
 27 H       -4.3460    -0.5500    -1.6270 H     1 <1>   0.1500 
 28 H        1.1310    -1.2890     0.3520 H     1 <1>   0.0800 
 29 H        1.4630    -2.3840    -0.9590 H     1 <1>   0.0800 
 30 H        0.0930    -4.7170    -0.8970 H     1 <1>   0.0800 
 31 H       -0.9980    -4.9070     0.4450 H     1 <1>   0.0800 
 32 H       -3.9680    -0.6910     0.7990 H     1 <1>   0.1500 
 33 H        2.1570    -2.7570     1.9580 H     1 <1>   0.0800 
 34 H        3.2800    -2.5250     0.6470 H     1 <1>   0.0800 
 35 H        1.1290    -6.1750     0.7540 H     1 <1>   0.0800 
 36 H        0.8180    -5.0190     2.0200 H     1 <1>   0.0800 
 37 H        2.6680    -4.6260    -0.2580 H     1 <1>   0.4500 
 38 H        3.5110    -6.1530     1.4080 H     1 <1>   0.0800 
 39 H        3.3320    -4.8760     2.5930 H     1 <1>   0.0800 
 40 H        4.7920    -5.4550    -0.8250 H     1 <1>   0.1500 
 41 H        5.1950    -3.4310     2.9260 H     1 <1>   0.1500 
 42 H        7.2730    -2.4780     2.1810 H     1 <1>   0.1500 
 43 H        8.1940    -5.0670    -3.3190 H     1 <1>   0.0800 
 44 H        8.8520    -4.9110    -1.6930 H     1 <1>   0.0800 
 45 H        8.3420    -3.4730    -2.5930 H     1 <1>   0.0800 
 46 H       10.1120    -1.7820     0.0730 H     1 <1>   0.0800 
 47 H        9.5270    -2.6450     1.4900 H     1 <1>   0.0800 
 48 H        8.7040    -1.1740     0.9330 H     1 <1>   0.0800 
@<TRIPOS>BOND
  1   1   2  1   
  2   2   3  ar  
  3   2   4  ar  
  4   3   5  1   
  5   3   6  ar  
  6   4   7  ar  
  7   4  25  1   
  8   5   8  1   
  9   5   9  1   
 10   6  10  ar  
 11   6  26  1   
 12   7  10  ar  
 13   7  27  1   
 14   8  11  1   
 15   8  28  1   
 16   8  29  1   
 17   9  12  1   
 18   9  30  1   
 19   9  31  1   
 20  10  32  1   
 21  11  13  1   
 22  11  33  1   
 23  11  34  1   
 24  12  13  1   
 25  12  35  1   
 26  12  36  1   
 27  13  14  1   
 28  13  37  1   
 29  14  15  1   
 30  14  38  1   
 31  14  39  1   
 32  15  16  ar  
 33  15  17  ar  
 34  16  18  ar  
 35  16  40  1   
 36  17  19  ar  
 37  17  41  1   
 38  18  20  1   
 39  18  21  ar  
 40  19  21  ar  
 41  19  42  1   
 42  20  22  1   
 43  21  23  1   
 44  22  43  1   
 45  22  44  1   
 46  22  45  1   
 47  23  24  1   
 48  24  46  1   
 49  24  47  1   
 50  24  48  1   
@<TRIPOS>SUBSTRUCTURE
  1 ****  11 GROUP 4 **** **** 0

# MOE 2024.06 (io_trps.svl 2023.06)
