@<TRIPOS>MOLECULE
NONAME
31 31 1 0 0 
SMALL
USER_CHARGES


@<TRIPOS>ATOM
  1 I        0.9270     0.6290    -2.0700 I     1 <1>  -0.0810 
  2 C        0.7390     2.0160    -0.4590 C.ar  1 <1>   0.0810 
  3 C        1.8670     2.4470     0.2440 C.ar  1 <1>   0.0860 
  4 C       -0.5450     2.4350    -0.1610 C.ar  1 <1>  -0.1500 
  5 C        3.2160     2.0340    -0.0700 C.2   1 <1>   0.5440 
  6 C        1.6340     3.3270     1.3020 C.ar  1 <1>  -0.1500 
  7 C       -0.7330     3.3170     0.8870 C.ar  1 <1>  -0.1500 
  8 O        3.8400     1.3120     0.6810 O.2   1 <1>  -0.5700 
  9 N        3.8470     2.4880    -1.1940 N.am  1 <1>  -0.7300 
 10 C        0.3570     3.7590     1.6180 C.ar  1 <1>  -0.1500 
 11 C        5.0200     1.8430    -1.8610 C.3   1 <1>   0.1400 
 12 C        6.3680     2.2670    -1.2420 C.3   1 <1>   0.3430 
 13 N        6.4900     1.8170     0.1770 N.4   1 <1>  -0.9590 
 14 C        7.3390     2.7240     0.9990 C.3   1 <1>   0.2630 
 15 C        6.9180     0.3920     0.2970 C.3   1 <1>   0.2630 
 16 H       -1.3870     2.0800    -0.7300 H     1 <1>   0.1500 
 17 H        2.4680     3.6760     1.8860 H     1 <1>   0.1500 
 18 H       -1.7250     3.6570     1.1380 H     1 <1>   0.1500 
 19 H        3.2950     3.1000    -1.8070 H     1 <1>   0.3700 
 20 H        0.2070     4.4410     2.4390 H     1 <1>   0.1500 
 21 H        5.0140     2.1180    -2.9020 H     1 <1>   0.0800 
 22 H        4.9150     0.7730    -1.8090 H     1 <1>   0.0800 
 23 H        6.4340     3.3420    -1.2910 H     1 <1>   0.0800 
 24 H        7.1790     1.8590    -1.8230 H     1 <1>   0.0800 
 25 H        5.5120     1.8430     0.5520 H     1 <1>   0.4500 
 26 H        8.3550     2.7180     0.6380 H     1 <1>   0.0800 
 27 H        7.3340     2.4050     2.0280 H     1 <1>   0.0800 
 28 H        6.9600     3.7320     0.9520 H     1 <1>   0.0800 
 29 H        7.9070     0.2580    -0.1100 H     1 <1>   0.0800 
 30 H        6.2300    -0.2480    -0.2310 H     1 <1>   0.0800 
 31 H        6.9250     0.0940     1.3330 H     1 <1>   0.0800 
@<TRIPOS>BOND
  1   1   2  1   
  2   2   3  ar  
  3   2   4  ar  
  4   3   5  1   
  5   3   6  ar  
  6   4   7  ar  
  7   4  16  1   
  8   5   8  2   
  9   5   9  am  
 10   6  10  ar  
 11   6  17  1   
 12   7  10  ar  
 13   7  18  1   
 14   9  11  1   
 15   9  19  1   
 16  10  20  1   
 17  11  12  1   
 18  11  21  1   
 19  11  22  1   
 20  12  13  1   
 21  12  23  1   
 22  12  24  1   
 23  13  14  1   
 24  13  15  1   
 25  13  25  1   
 26  14  26  1   
 27  14  27  1   
 28  14  28  1   
 29  15  29  1   
 30  15  30  1   
 31  15  31  1   
@<TRIPOS>SUBSTRUCTURE
  1 ****   5 GROUP 4 **** **** 0

# MOE 2024.06 (io_trps.svl 2023.06)
