@<TRIPOS>MOLECULE
NONAME
56 58 1 0 0 
SMALL
USER_CHARGES


@<TRIPOS>ATOM
  1 N        0.0220     0.3290     0.2910 N.4   1 <1>  -0.9590 
  2 C        0.8170     1.5870     0.2850 C.3   1 <1>   0.3430 
  3 C        0.5470    -0.7180    -0.6340 C.3   1 <1>   0.3430 
  4 C       -1.4240     0.6060     0.0140 C.3   1 <1>   0.4860 
  5 C        2.2730     1.2800     0.6430 C.3   1 <1>  -0.1600 
  6 C        2.0020    -1.0410    -0.2880 C.3   1 <1>  -0.1600 
  7 C       -2.2010    -0.6640     0.2910 C.ar  1 <1>  -0.1430 
  8 C        2.8670     0.2240    -0.2930 C.3   1 <1>   0.4230 
  9 C       -2.6940    -1.4250    -0.7610 C.ar  1 <1>  -0.1500 
 10 C       -2.4160    -1.0830     1.5970 C.ar  1 <1>  -0.1500 
 11 N        4.2490    -0.0860     0.1540 N.4   1 <1>  -0.9060 
 12 C       -3.3760    -2.6020    -0.5090 C.ar  1 <1>  -0.1500 
 13 C       -3.0980    -2.2610     1.8450 C.ar  1 <1>  -0.1500 
 14 C        5.0700    -0.9040    -0.7660 C.3   1 <1>   0.4230 
 15 C       -3.5750    -3.0220     0.7930 C.ar  1 <1>  -0.1500 
 16 C        6.2890    -1.3890     0.0220 C.3   1 <1>  -0.1600 
 17 C        5.4580    -0.0470    -1.9710 C.3   1 <1>  -0.2400 
 18 C        7.1650    -2.3880    -0.7500 C.3   1 <1>  -0.0170 
 19 C        8.2400    -2.9260     0.1750 C.ar  1 <1>  -0.1430 
 20 C        8.0360    -4.1060     0.8760 C.ar  1 <1>  -0.1500 
 21 C        9.4320    -2.2370     0.3360 C.ar  1 <1>  -0.1500 
 22 C        9.0120    -4.5880     1.7310 C.ar  1 <1>  -0.1500 
 23 C       10.4080    -2.7180     1.1920 C.ar  1 <1>  -0.1500 
 24 C       10.1980    -3.8930     1.8900 C.ar  1 <1>  -0.1500 
 25 H        0.0140    -0.0730     1.2400 H     1 <1>   0.4500 
 26 H        0.4090     2.2850     1.0010 H     1 <1>   0.0800 
 27 H        0.7680     2.0440    -0.6920 H     1 <1>   0.0800 
 28 H        0.4800    -0.3710    -1.6540 H     1 <1>   0.0800 
 29 H       -0.0460    -1.6170    -0.5500 H     1 <1>   0.0800 
 30 H       -1.5650     0.9110    -1.0100 H     1 <1>   0.0800 
 31 H       -1.7880     1.3900     0.6590 H     1 <1>   0.0800 
 32 H        2.3150     0.9490     1.6660 H     1 <1>   0.0800 
 33 H        2.8360     2.1930     0.5620 H     1 <1>   0.0800 
 34 H        2.3640    -1.7410    -1.0190 H     1 <1>   0.0800 
 35 H        2.0290    -1.5180     0.6760 H     1 <1>   0.0800 
 36 H        2.8950     0.6290    -1.2930 H     1 <1>   0.0800 
 37 H       -2.5610    -1.1170    -1.7850 H     1 <1>   0.1500 
 38 H       -2.0690    -0.5060     2.4370 H     1 <1>   0.1500 
 39 H        4.2290    -0.5650     1.0620 H     1 <1>   0.4500 
 40 H        4.7700     0.7850     0.3110 H     1 <1>   0.4500 
 41 H       -3.7590    -3.1940    -1.3240 H     1 <1>   0.1500 
 42 H       -3.2660    -2.5890     2.8580 H     1 <1>   0.1500 
 43 H        4.5090    -1.7650    -1.0970 H     1 <1>   0.0800 
 44 H       -4.1070    -3.9380     0.9890 H     1 <1>   0.1500 
 45 H        5.9560    -1.8860     0.9170 H     1 <1>   0.0800 
 46 H        6.9030    -0.5540     0.3140 H     1 <1>   0.0800 
 47 H        6.0550     0.7970    -1.6730 H     1 <1>   0.0800 
 48 H        6.0390    -0.6290    -2.6640 H     1 <1>   0.0800 
 49 H        4.5940     0.2970    -2.5080 H     1 <1>   0.0800 
 50 H        7.6380    -1.9160    -1.5940 H     1 <1>   0.0800 
 51 H        6.5720    -3.2070    -1.1200 H     1 <1>   0.0800 
 52 H        7.1220    -4.6610     0.7620 H     1 <1>   0.1500 
 53 H        9.6130    -1.3230    -0.2020 H     1 <1>   0.1500 
 54 H        8.8510    -5.5040     2.2720 H     1 <1>   0.1500 
 55 H       11.3320    -2.1800     1.3130 H     1 <1>   0.1500 
 56 H       10.9570    -4.2680     2.5550 H     1 <1>   0.1500 
@<TRIPOS>BOND
  1   1   2  1   
  2   1   3  1   
  3   1   4  1   
  4   1  25  1   
  5   2   5  1   
  6   2  26  1   
  7   2  27  1   
  8   3   6  1   
  9   3  28  1   
 10   3  29  1   
 11   4   7  1   
 12   4  30  1   
 13   4  31  1   
 14   5   8  1   
 15   5  32  1   
 16   5  33  1   
 17   6   8  1   
 18   6  34  1   
 19   6  35  1   
 20   7   9  ar  
 21   7  10  ar  
 22   8  11  1   
 23   8  36  1   
 24   9  12  ar  
 25   9  37  1   
 26  10  13  ar  
 27  10  38  1   
 28  11  14  1   
 29  11  39  1   
 30  11  40  1   
 31  12  15  ar  
 32  12  41  1   
 33  13  15  ar  
 34  13  42  1   
 35  14  16  1   
 36  14  17  1   
 37  14  43  1   
 38  15  44  1   
 39  16  18  1   
 40  16  45  1   
 41  16  46  1   
 42  17  47  1   
 43  17  48  1   
 44  17  49  1   
 45  18  19  1   
 46  18  50  1   
 47  18  51  1   
 48  19  20  ar  
 49  19  21  ar  
 50  20  22  ar  
 51  20  52  1   
 52  21  23  ar  
 53  21  53  1   
 54  22  24  ar  
 55  22  54  1   
 56  23  24  ar  
 57  23  55  1   
 58  24  56  1   
@<TRIPOS>SUBSTRUCTURE
  1 ****   6 GROUP 4 **** **** 0

# MOE 2024.06 (io_trps.svl 2023.06)
