@<TRIPOS>MOLECULE
NONAME
35 36 1 0 0 
SMALL
USER_CHARGES


@<TRIPOS>ATOM
  1 BR      -1.2330     0.3940     2.7130 Br    1 <1>  -0.1110 
  2 C       -2.0790     1.2200     1.1970 C.ar  1 <1>   0.1110 
  3 C       -3.2360     0.6550     0.6970 C.ar  1 <1>  -0.1500 
  4 C       -1.5110     2.3540     0.6510 C.ar  1 <1>  -0.1500 
  5 C       -3.8560     1.2530    -0.3920 C.ar  1 <1>  -0.1440 
  6 C       -2.1280     2.9400    -0.4400 C.ar  1 <1>  -0.1500 
  7 C       -3.2920     2.3910    -0.9590 C.ar  1 <1>  -0.1500 
  8 C       -5.1390     0.6710    -0.9540 C.3   1 <1>   0.4870 
  9 N       -6.2510     0.9840    -0.0150 N.4   1 <1>  -0.9590 
 10 C       -7.4860     0.2220    -0.3850 C.3   1 <1>   0.3430 
 11 C       -6.5010     2.4540     0.0650 C.3   1 <1>   0.3430 
 12 C       -8.6270     0.4700     0.6110 C.3   1 <1>  -0.0190 
 13 C       -7.5960     2.7360     1.0960 C.3   1 <1>  -0.1600 
 14 C       -9.8630    -0.2640     0.1190 C.2   1 <1>   0.5690 
 15 C       -8.8940     1.9790     0.7750 C.3   1 <1>  -0.1600 
 16 O       -9.9070    -0.6430    -1.0220 O.2   1 <1>  -0.5700 
 17 N      -10.8930    -0.4940     0.9500 N.am  1 <1>  -0.8000 
 18 H       -3.6220    -0.2350     1.1620 H     1 <1>   0.1500 
 19 H       -0.6080     2.7640     1.0680 H     1 <1>   0.1500 
 20 H       -1.6970     3.8220    -0.8870 H     1 <1>   0.1500 
 21 H       -3.7460     2.8660    -1.8130 H     1 <1>   0.1500 
 22 H       -5.0280    -0.3960    -1.0570 H     1 <1>   0.0800 
 23 H       -5.3420     1.0890    -1.9270 H     1 <1>   0.0800 
 24 H       -5.9390     0.6820     0.9160 H     1 <1>   0.4500 
 25 H       -7.2770    -0.8360    -0.4210 H     1 <1>   0.0800 
 26 H       -7.8160     0.5230    -1.3670 H     1 <1>   0.0800 
 27 H       -6.8110     2.8260    -0.8980 H     1 <1>   0.0800 
 28 H       -5.5980     2.9700     0.3540 H     1 <1>   0.0800 
 29 H       -8.3500     0.0480     1.5600 H     1 <1>   0.0800 
 30 H       -7.7970     3.7940     1.1090 H     1 <1>   0.0800 
 31 H       -7.2420     2.4670     2.0770 H     1 <1>   0.0800 
 32 H       -9.6140     2.1430     1.5590 H     1 <1>   0.0800 
 33 H       -9.3150     2.3680    -0.1390 H     1 <1>   0.0800 
 34 H      -11.7180    -0.9830     0.5940 H     1 <1>   0.3700 
 35 H      -10.9490    -0.1910     1.9230 H     1 <1>   0.3700 
@<TRIPOS>BOND
  1   1   2  1   
  2   2   3  ar  
  3   2   4  ar  
  4   3   5  ar  
  5   3  18  1   
  6   4   6  ar  
  7   4  19  1   
  8   5   7  ar  
  9   5   8  1   
 10   6   7  ar  
 11   6  20  1   
 12   7  21  1   
 13   8   9  1   
 14   8  22  1   
 15   8  23  1   
 16   9  10  1   
 17   9  11  1   
 18   9  24  1   
 19  10  12  1   
 20  10  25  1   
 21  10  26  1   
 22  11  13  1   
 23  11  27  1   
 24  11  28  1   
 25  12  14  1   
 26  12  15  1   
 27  12  29  1   
 28  13  15  1   
 29  13  30  1   
 30  13  31  1   
 31  14  16  2   
 32  14  17  am  
 33  15  32  1   
 34  15  33  1   
 35  17  34  1   
 36  17  35  1   
@<TRIPOS>SUBSTRUCTURE
  1 ****   9 GROUP 4 **** **** 0

# MOE 2024.06 (io_trps.svl 2023.06)
