@<TRIPOS>MOLECULE
Structure360
25 26 1 0 0 
SMALL
USER_CHARGES


@<TRIPOS>ATOM
  1 CL       0.0190    -0.5040    -1.1170 Cl    1 <1>  -0.1770 
  2 C        0.9530    -1.7530    -0.3500 C.ar  1 <1>   0.7970 
  3 N        2.2570    -1.6490    -0.4970 N.ar  1 <1>  -0.6200 
  4 N        0.2460    -2.6680     0.2940 N.ar  1 <1>  -0.6200 
  5 C        2.9590    -2.6000     0.0830 C.ar  1 <1>   0.4100 
  6 C        0.9730    -3.6020     0.8730 C.ar  1 <1>   0.1600 
  7 N        4.3290    -2.5600    -0.0410 N.pl3 1 <1>  -0.8380 
  8 C        2.3380    -3.6100     0.7950 C.ar  1 <1>  -0.1500 
  9 C        5.0320    -1.2580    -0.2060 C.3   1 <1>   0.2090 
 10 C        5.0680    -3.7250    -0.5920 C.3   1 <1>   0.2090 
 11 C        6.4080    -1.3320     0.4640 C.3   1 <1>  -0.1600 
 12 C        6.4370    -3.8260     0.0870 C.3   1 <1>  -0.1600 
 13 C        7.2340    -2.5200    -0.0530 C.3   1 <1>  -0.1600 
 14 H        0.4560    -4.3730     1.4200 H     1 <1>   0.1500 
 15 H        2.9260    -4.3660     1.2760 H     1 <1>   0.1500 
 16 H        4.4540    -0.4670     0.2440 H     1 <1>   0.0800 
 17 H        5.1380    -1.0440    -1.2560 H     1 <1>   0.0800 
 18 H        5.1960    -3.5870    -1.6520 H     1 <1>   0.0800 
 19 H        4.5130    -4.6330    -0.4360 H     1 <1>   0.0800 
 20 H        6.2650    -1.4260     1.5260 H     1 <1>   0.0800 
 21 H        6.9390    -0.4150     0.2840 H     1 <1>   0.0800 
 22 H        6.9920    -4.6360    -0.3510 H     1 <1>   0.0800 
 23 H        6.2900    -4.0510     1.1290 H     1 <1>   0.0800 
 24 H        8.1540    -2.5920     0.4990 H     1 <1>   0.0800 
 25 H        7.4770    -2.3600    -1.0900 H     1 <1>   0.0800 
@<TRIPOS>BOND
  1   1   2  1   
  2   2   3  ar  
  3   2   4  ar  
  4   3   5  ar  
  5   4   6  ar  
  6   5   7  1   
  7   5   8  ar  
  8   6   8  ar  
  9   6  14  1   
 10   7   9  1   
 11   7  10  1   
 12   8  15  1   
 13   9  11  1   
 14   9  16  1   
 15   9  17  1   
 16  10  12  1   
 17  10  18  1   
 18  10  19  1   
 19  11  13  1   
 20  11  20  1   
 21  11  21  1   
 22  12  13  1   
 23  12  22  1   
 24  12  23  1   
 25  13  24  1   
 26  13  25  1   
@<TRIPOS>SUBSTRUCTURE
  1 ****   5 GROUP 4 **** **** 0

# MOE 2024.06 (io_trps.svl 2023.06)
