@<TRIPOS>MOLECULE
NONAME
44 44 1 0 0 
SMALL
USER_CHARGES


@<TRIPOS>ATOM
  1 O       -0.3280     1.2830     3.3310 O.2   1 <1>  -0.5700 
  2 C       -0.4680     1.9920     2.3710 C.2   1 <1>   0.6590 
  3 O        0.5290     2.1490     1.5050 O.3   1 <1>  -0.4300 
  4 C       -1.8010     2.7320     2.1580 C.3   1 <1>   0.1710 
  5 C        0.4100     2.7730     0.2480 C.3   1 <1>   0.1200 
  6 N       -2.6290     2.2290     1.0220 N.3   1 <1>  -0.9000 
  7 C        1.7770     2.7330    -0.4250 C.3   1 <1>  -0.2400 
  8 C       -3.9900     2.7350     1.0130 C.3   1 <1>   0.1900 
  9 C       -4.7900     1.8550     0.0570 C.3   1 <1>  -0.1600 
 10 C       -3.9910     4.1720     0.4930 C.3   1 <1>  -0.1600 
 11 C       -6.2300     2.3460    -0.1440 C.3   1 <1>   0.5030 
 12 C       -5.4060     4.7340     0.2990 C.3   1 <1>   0.5030 
 13 N       -6.2620     3.7880    -0.4340 N.4   1 <1>  -0.9060 
 14 C       -6.8350     1.6690    -1.3720 C.3   1 <1>  -0.2400 
 15 C       -7.1200     2.0270     1.0610 C.3   1 <1>  -0.2400 
 16 C       -6.0590     5.1150     1.6300 C.3   1 <1>  -0.2400 
 17 C       -5.3430     5.9860    -0.5740 C.3   1 <1>  -0.2400 
 18 H       -1.5860     3.7760     2.0200 H     1 <1>   0.0800 
 19 H       -2.3600     2.6330     3.0720 H     1 <1>   0.0800 
 20 H        0.0880     3.7890     0.3920 H     1 <1>   0.0800 
 21 H       -0.3160     2.2320    -0.3360 H     1 <1>   0.0800 
 22 H       -2.6660     1.2020     1.1260 H     1 <1>   0.3600 
 23 H        2.4990     3.2620     0.1710 H     1 <1>   0.0800 
 24 H        1.7220     3.1990    -1.3920 H     1 <1>   0.0800 
 25 H        2.0960     1.7140    -0.5530 H     1 <1>   0.0800 
 26 H       -4.4070     2.6780     2.0060 H     1 <1>   0.0800 
 27 H       -4.8120     0.8470     0.4310 H     1 <1>   0.0800 
 28 H       -4.2870     1.8330    -0.8950 H     1 <1>   0.0800 
 29 H       -3.4650     4.1970    -0.4450 H     1 <1>   0.0800 
 30 H       -3.4590     4.8090     1.1760 H     1 <1>   0.0800 
 31 H       -7.2290     4.1070    -0.3600 H     1 <1>   0.4500 
 32 H       -6.0040     3.8800    -1.4180 H     1 <1>   0.4500 
 33 H       -6.2630     1.8800    -2.2590 H     1 <1>   0.0800 
 34 H       -7.8530     1.9790    -1.5280 H     1 <1>   0.0800 
 35 H       -6.8380     0.6010    -1.2380 H     1 <1>   0.0800 
 36 H       -6.6820     2.3350     1.9880 H     1 <1>   0.0800 
 37 H       -7.2610     0.9620     1.1320 H     1 <1>   0.0800 
 38 H       -8.0920     2.4760     0.9590 H     1 <1>   0.0800 
 39 H       -5.9960     4.3310     2.3570 H     1 <1>   0.0800 
 40 H       -7.0880     5.3950     1.4950 H     1 <1>   0.0800 
 41 H       -5.5460     5.9610     2.0540 H     1 <1>   0.0800 
 42 H       -4.9140     5.7720    -1.5370 H     1 <1>   0.0800 
 43 H       -4.7230     6.7310    -0.1040 H     1 <1>   0.0800 
 44 H       -6.3200     6.4160    -0.7110 H     1 <1>   0.0800 
@<TRIPOS>BOND
  1   1   2  2   
  2   2   3  1   
  3   2   4  1   
  4   3   5  1   
  5   4   6  1   
  6   4  18  1   
  7   4  19  1   
  8   5   7  1   
  9   5  20  1   
 10   5  21  1   
 11   6   8  1   
 12   6  22  1   
 13   7  23  1   
 14   7  24  1   
 15   7  25  1   
 16   8   9  1   
 17   8  10  1   
 18   8  26  1   
 19   9  11  1   
 20   9  27  1   
 21   9  28  1   
 22  10  12  1   
 23  10  29  1   
 24  10  30  1   
 25  11  13  1   
 26  11  14  1   
 27  11  15  1   
 28  12  13  1   
 29  12  16  1   
 30  12  17  1   
 31  13  31  1   
 32  13  32  1   
 33  14  33  1   
 34  14  34  1   
 35  14  35  1   
 36  15  36  1   
 37  15  37  1   
 38  15  38  1   
 39  16  39  1   
 40  16  40  1   
 41  16  41  1   
 42  17  42  1   
 43  17  43  1   
 44  17  44  1   
@<TRIPOS>SUBSTRUCTURE
  1 ****   8 GROUP 4 **** **** 0

# MOE 2024.06 (io_trps.svl 2023.06)
