@<TRIPOS>MOLECULE
NONAME
38 39 1 0 0 
SMALL
USER_CHARGES


@<TRIPOS>ATOM
  1 CL      -0.1140     0.3020    -0.0270 Cl    1 <1>  -0.1770 
  2 C        1.5220     0.9110     0.0920 C.ar  1 <1>   0.1770 
  3 C        2.6010     0.0860    -0.2000 C.ar  1 <1>  -0.1440 
  4 C        1.7030     2.2250     0.4820 C.ar  1 <1>  -0.1500 
  5 C        3.8830     0.6050    -0.0940 C.ar  1 <1>  -0.1500 
  6 C        2.3850    -1.3590    -0.6280 C.3   1 <1>  -0.0960 
  7 C        2.9860     2.7320     0.5850 C.ar  1 <1>  -0.1500 
  8 C        4.0800     1.9290     0.2980 C.ar  1 <1>   0.0830 
  9 O        5.3010     2.5070     0.4230 O.3   1 <1>  -0.3630 
 10 C        6.4830     1.7970     0.1530 C.3   1 <1>   0.1200 
 11 C        7.6470     2.7580     0.3890 C.3   1 <1>  -0.1600 
 12 C        8.9840     2.0780     0.1020 C.3   1 <1>   0.3430 
 13 N       10.1070     3.0040     0.4120 N.4   1 <1>  -0.9590 
 14 C       10.2090     4.1720    -0.5010 C.3   1 <1>   0.3430 
 15 C       11.4330     2.3400     0.3630 C.3   1 <1>   0.3430 
 16 C       11.6370     4.6690    -0.3260 C.3   1 <1>  -0.1600 
 17 C       12.4260     3.4880     0.2480 C.3   1 <1>  -0.1600 
 18 H        0.8480     2.8390     0.7020 H     1 <1>   0.1500 
 19 H        4.7150    -0.0330    -0.3190 H     1 <1>   0.1500 
 20 H        1.7970    -1.3900    -1.5280 H     1 <1>   0.0800 
 21 H        1.8630    -1.8960     0.1440 H     1 <1>   0.0800 
 22 H        3.3210    -1.8540    -0.8150 H     1 <1>   0.0800 
 23 H        3.1440     3.7510     0.8870 H     1 <1>   0.1500 
 24 H        6.4490     1.4660    -0.8720 H     1 <1>   0.0800 
 25 H        6.5290     0.9530     0.8210 H     1 <1>   0.0800 
 26 H        7.6180     3.0800     1.4150 H     1 <1>   0.0800 
 27 H        7.5160     3.6070    -0.2580 H     1 <1>   0.0800 
 28 H        9.0280     1.7780    -0.9330 H     1 <1>   0.0800 
 29 H        9.0670     1.1940     0.7140 H     1 <1>   0.0800 
 30 H        9.9850     3.3710     1.3650 H     1 <1>   0.4500 
 31 H        9.4880     4.9360    -0.2560 H     1 <1>   0.0800 
 32 H       10.0610     3.8540    -1.5200 H     1 <1>   0.0800 
 33 H       11.5000     1.7200    -0.5160 H     1 <1>   0.0800 
 34 H       11.6150     1.7410     1.2410 H     1 <1>   0.0800 
 35 H       11.6550     5.5010     0.3560 H     1 <1>   0.0800 
 36 H       12.0380     4.9950    -1.2710 H     1 <1>   0.0800 
 37 H       13.2510     3.2110    -0.3850 H     1 <1>   0.0800 
 38 H       12.8130     3.7340     1.2230 H     1 <1>   0.0800 
@<TRIPOS>BOND
  1   1   2  1   
  2   2   3  ar  
  3   2   4  ar  
  4   3   5  ar  
  5   3   6  1   
  6   4   7  ar  
  7   4  18  1   
  8   5   8  ar  
  9   5  19  1   
 10   6  20  1   
 11   6  21  1   
 12   6  22  1   
 13   7   8  ar  
 14   7  23  1   
 15   8   9  1   
 16   9  10  1   
 17  10  11  1   
 18  10  24  1   
 19  10  25  1   
 20  11  12  1   
 21  11  26  1   
 22  11  27  1   
 23  12  13  1   
 24  12  28  1   
 25  12  29  1   
 26  13  14  1   
 27  13  15  1   
 28  13  30  1   
 29  14  16  1   
 30  14  31  1   
 31  14  32  1   
 32  15  17  1   
 33  15  33  1   
 34  15  34  1   
 35  16  17  1   
 36  16  35  1   
 37  16  36  1   
 38  17  37  1   
 39  17  38  1   
@<TRIPOS>SUBSTRUCTURE
  1 ****  10 GROUP 4 **** **** 0

# MOE 2024.06 (io_trps.svl 2023.06)
