@<TRIPOS>MOLECULE
NONAME
22 22 1 0 0 
SMALL
USER_CHARGES


@<TRIPOS>ATOM
  1 S        0.1150     0.0920    -0.6580 S.3   1 <1>  -0.0800 
  2 C       -0.5990    -1.4980    -0.4760 C.2   1 <1>  -0.1920 
  3 C       -1.2930     0.8100     0.0750 C.2   1 <1>   0.1980 
  4 C       -1.8070    -1.3190     0.1150 C.2   1 <1>   0.0460 
  5 C        0.1360    -2.6510    -0.9470 C.2   1 <1>   1.0320 
  6 N       -2.1880    -0.0210     0.4180 N.2   1 <1>  -0.5650 
  7 C       -1.3060     2.3110     0.2230 C.3   1 <1>  -0.0600 
  8 C       -2.7990    -2.4100     0.4850 C.3   1 <1>   0.0210 
  9 O        1.2900    -2.5400    -1.3970 O.co2 1 <1>  -0.9000 
 10 O       -0.3710    -3.7870    -0.9130 O.co2 1 <1>  -0.9000 
 11 C       -3.9590    -2.4620    -0.5170 C.3   1 <1>  -0.1600 
 12 C       -4.9760    -3.5500    -0.1550 C.3   1 <1>  -0.2400 
 13 H       -1.2260     2.7700    -0.7440 H     1 <1>   0.0800 
 14 H       -0.4800     2.6210     0.8360 H     1 <1>   0.0800 
 15 H       -2.2250     2.6200     0.6860 H     1 <1>   0.0800 
 16 H       -3.1730    -2.2140     1.4730 H     1 <1>   0.0800 
 17 H       -2.3060    -3.3640     0.5100 H     1 <1>   0.0800 
 18 H       -3.5560    -2.6570    -1.4970 H     1 <1>   0.0800 
 19 H       -4.4470    -1.5020    -0.5420 H     1 <1>   0.0800 
 20 H       -4.4980    -4.5150    -0.1510 H     1 <1>   0.0800 
 21 H       -5.7710    -3.5650    -0.8790 H     1 <1>   0.0800 
 22 H       -5.3960    -3.3630     0.8170 H     1 <1>   0.0800 
@<TRIPOS>BOND
  1   1   2  1   
  2   1   3  1   
  3   2   4  2   
  4   2   5  1   
  5   3   6  2   
  6   3   7  1   
  7   4   6  1   
  8   4   8  1   
  9   5   9  ar  
 10   5  10  ar  
 11   7  13  1   
 12   7  14  1   
 13   7  15  1   
 14   8  11  1   
 15   8  16  1   
 16   8  17  1   
 17  11  12  1   
 18  11  18  1   
 19  11  19  1   
 20  12  20  1   
 21  12  21  1   
 22  12  22  1   
@<TRIPOS>SUBSTRUCTURE
  1 ****   4 GROUP 4 **** **** 0

# MOE 2024.06 (io_trps.svl 2023.06)
