@<TRIPOS>MOLECULE
NONAME
39 41 1 0 0 
SMALL
USER_CHARGES


@<TRIPOS>ATOM
  1 S       -0.1450    -0.0990    -0.0350 S.3   1 <1>  -0.9360 
  2 C       -1.7140    -0.5010     0.0640 C.cat 1 <1>   0.7360 
  3 N       -2.1330    -1.7260     0.2750 N.pl3 1 <1>  -0.3930 
  4 N       -2.7630     0.3000    -0.0340 N.pl3 1 <1>  -0.7640 
  5 N       -3.4920    -1.7690     0.3320 N.2   1 <1>  -0.2600 
  6 C       -3.8480    -0.5460     0.1490 C.2   1 <1>   0.4850 
  7 C       -2.6010     1.7670    -0.1840 C.3   1 <1>   0.4340 
  8 C       -5.3210    -0.1450     0.1160 C.3   1 <1>   0.2880 
  9 C       -2.6700     2.4520     1.1870 C.3   1 <1>  -0.1600 
 10 C       -3.5980     2.3810    -1.1780 C.3   1 <1>  -0.1600 
 11 O       -5.6080     0.8180     1.1120 O.3   1 <1>  -0.3630 
 12 C       -2.4850     3.9730     1.0630 C.3   1 <1>  -0.1600 
 13 C       -3.3740     3.8940    -1.3120 C.3   1 <1>  -0.1600 
 14 C       -6.7600     1.5300     1.0790 C.ar  1 <1>   0.0820 
 15 C       -3.4740     4.5800     0.0580 C.3   1 <1>  -0.1600 
 16 C       -7.8630     1.1790     0.3040 C.ar  1 <1>  -0.1500 
 17 C       -6.8100     2.6710     1.8640 C.ar  1 <1>  -0.1500 
 18 C       -8.9950     1.9760     0.3160 C.ar  1 <1>  -0.1500 
 19 C       -7.9430     3.4650     1.8730 C.ar  1 <1>  -0.1500 
 20 C       -9.0350     3.1180     1.0970 C.ar  1 <1>  -0.1500 
 21 H       -1.4670    -2.4910     0.3890 H     1 <1>   0.4500 
 22 H       -1.6200     1.9630    -0.5850 H     1 <1>   0.0800 
 23 H       -5.9380    -1.0040     0.3020 H     1 <1>   0.0800 
 24 H       -5.5590     0.2640    -0.8480 H     1 <1>   0.0800 
 25 H       -1.8920     2.0530     1.8150 H     1 <1>   0.0800 
 26 H       -3.6150     2.2510     1.6520 H     1 <1>   0.0800 
 27 H       -4.6030     2.2410    -0.8400 H     1 <1>   0.0800 
 28 H       -3.4770     1.9130    -2.1390 H     1 <1>   0.0800 
 29 H       -1.4780     4.1810     0.7410 H     1 <1>   0.0800 
 30 H       -2.6210     4.4320     2.0280 H     1 <1>   0.0800 
 31 H       -4.1090     4.3120    -1.9780 H     1 <1>   0.0800 
 32 H       -2.4010     4.0800    -1.7360 H     1 <1>   0.0800 
 33 H       -3.2730     5.6320    -0.0510 H     1 <1>   0.0800 
 34 H       -4.4770     4.4760     0.4370 H     1 <1>   0.0800 
 35 H       -7.8680     0.2950    -0.3040 H     1 <1>   0.1500 
 36 H       -5.9600     2.9350     2.4660 H     1 <1>   0.1500 
 37 H       -9.8500     1.7080    -0.2820 H     1 <1>   0.1500 
 38 H       -7.9760     4.3500     2.4840 H     1 <1>   0.1500 
 39 H       -9.9170     3.7350     1.1040 H     1 <1>   0.1500 
@<TRIPOS>BOND
  1   1   2  1   
  2   2   3  ar  
  3   2   4  ar  
  4   3   5  1   
  5   3  21  1   
  6   4   6  1   
  7   4   7  1   
  8   5   6  2   
  9   6   8  1   
 10   7   9  1   
 11   7  10  1   
 12   7  22  1   
 13   8  11  1   
 14   8  23  1   
 15   8  24  1   
 16   9  12  1   
 17   9  25  1   
 18   9  26  1   
 19  10  13  1   
 20  10  27  1   
 21  10  28  1   
 22  11  14  1   
 23  12  15  1   
 24  12  29  1   
 25  12  30  1   
 26  13  15  1   
 27  13  31  1   
 28  13  32  1   
 29  14  16  ar  
 30  14  17  ar  
 31  15  33  1   
 32  15  34  1   
 33  16  18  ar  
 34  16  35  1   
 35  17  19  ar  
 36  17  36  1   
 37  18  20  ar  
 38  18  37  1   
 39  19  20  ar  
 40  19  38  1   
 41  20  39  1   
@<TRIPOS>SUBSTRUCTURE
  1 ****  11 GROUP 4 **** **** 0

# MOE 2024.06 (io_trps.svl 2023.06)
