@<TRIPOS>MOLECULE
NONAME
48 49 1 0 0 
SMALL
USER_CHARGES


@<TRIPOS>ATOM
  1 O        1.5680     0.4160     1.5500 O.3   1 <1>  -0.3630 
  2 C        2.0360     1.1180     0.4790 C.ar  1 <1>   0.0830 
  3 C        0.1970     0.3800     1.8810 C.3   1 <1>   0.0400 
  4 C        1.4290     2.2370    -0.1170 C.ar  1 <1>   0.0830 
  5 C        3.2350     0.6430    -0.0260 C.ar  1 <1>  -0.1500 
  6 O        0.2670     2.7390     0.3930 O.3   1 <1>  -0.3630 
  7 C        2.0470     2.8240    -1.2200 C.ar  1 <1>  -0.1500 
  8 C        3.8500     1.2430    -1.1120 C.ar  1 <1>  -0.1430 
  9 C       -0.3460     3.9010    -0.1220 C.3   1 <1>   0.0400 
 10 C        3.2440     2.3330    -1.7120 C.ar  1 <1>  -0.1500 
 11 C        5.1770     0.7130    -1.6150 C.3   1 <1>  -0.0170 
 12 C        6.2770     1.2240    -0.6870 C.3   1 <1>   0.3430 
 13 N        7.6090     0.7040    -1.1050 N.4   1 <1>  -0.9060 
 14 C        8.7060     1.1300    -0.2140 C.3   1 <1>   0.4230 
 15 C        8.9980     2.6240    -0.4090 C.3   1 <1>  -0.1600 
 16 C        9.9400     0.2830    -0.5400 C.3   1 <1>  -0.1600 
 17 C       10.2080     3.0640     0.4290 C.3   1 <1>  -0.1600 
 18 C       11.1480     0.7180     0.3020 C.3   1 <1>  -0.1600 
 19 C       11.4490     2.2130     0.1190 C.3   1 <1>  -0.0800 
 20 C       12.6190     2.6340     1.0140 C.3   1 <1>  -0.2400 
 21 H        0.0350    -0.4440     2.5520 H     1 <1>   0.0800 
 22 H       -0.3780     0.2440     0.9830 H     1 <1>   0.0800 
 23 H       -0.0660     1.3020     2.3690 H     1 <1>   0.0800 
 24 H        3.6720    -0.2140     0.4530 H     1 <1>   0.1500 
 25 H        1.6130     3.6710    -1.7150 H     1 <1>   0.1500 
 26 H       -1.2250     4.1020     0.4640 H     1 <1>   0.0800 
 27 H       -0.6240     3.7260    -1.1460 H     1 <1>   0.0800 
 28 H        0.3410     4.7250    -0.0420 H     1 <1>   0.0800 
 29 H        3.6910     2.8140    -2.5650 H     1 <1>   0.1500 
 30 H        5.3460     1.0520    -2.6220 H     1 <1>   0.0800 
 31 H        5.1480    -0.3630    -1.6100 H     1 <1>   0.0800 
 32 H        6.0590     0.9090     0.3210 H     1 <1>   0.0800 
 33 H        6.2750     2.3020    -0.7060 H     1 <1>   0.0800 
 34 H        7.8290     1.0130    -2.0580 H     1 <1>   0.4500 
 35 H        7.5860    -0.3220    -1.1170 H     1 <1>   0.4500 
 36 H        8.4330     0.9550     0.8160 H     1 <1>   0.0800 
 37 H        8.1520     3.2160    -0.1090 H     1 <1>   0.0800 
 38 H        9.2100     2.8260    -1.4450 H     1 <1>   0.0800 
 39 H       10.1960     0.3870    -1.5810 H     1 <1>   0.0800 
 40 H        9.7390    -0.7550    -0.3370 H     1 <1>   0.0800 
 41 H        9.9690     2.9820     1.4770 H     1 <1>   0.0800 
 42 H       10.4250     4.1000     0.2270 H     1 <1>   0.0800 
 43 H       12.0110     0.1410     0.0130 H     1 <1>   0.0800 
 44 H       10.9560     0.5140     1.3430 H     1 <1>   0.0800 
 45 H       11.7380     2.3850    -0.9060 H     1 <1>   0.0800 
 46 H       12.3840     2.4830     2.0530 H     1 <1>   0.0800 
 47 H       12.8500     3.6740     0.8640 H     1 <1>   0.0800 
 48 H       13.4980     2.0590     0.7760 H     1 <1>   0.0800 
@<TRIPOS>BOND
  1   1   2  1   
  2   1   3  1   
  3   2   4  ar  
  4   2   5  ar  
  5   3  21  1   
  6   3  22  1   
  7   3  23  1   
  8   4   6  1   
  9   4   7  ar  
 10   5   8  ar  
 11   5  24  1   
 12   6   9  1   
 13   7  10  ar  
 14   7  25  1   
 15   8  10  ar  
 16   8  11  1   
 17   9  26  1   
 18   9  27  1   
 19   9  28  1   
 20  10  29  1   
 21  11  12  1   
 22  11  30  1   
 23  11  31  1   
 24  12  13  1   
 25  12  32  1   
 26  12  33  1   
 27  13  14  1   
 28  13  34  1   
 29  13  35  1   
 30  14  15  1   
 31  14  16  1   
 32  14  36  1   
 33  15  17  1   
 34  15  37  1   
 35  15  38  1   
 36  16  18  1   
 37  16  39  1   
 38  16  40  1   
 39  17  19  1   
 40  17  41  1   
 41  17  42  1   
 42  18  19  1   
 43  18  43  1   
 44  18  44  1   
 45  19  20  1   
 46  19  45  1   
 47  20  46  1   
 48  20  47  1   
 49  20  48  1   
@<TRIPOS>SUBSTRUCTURE
  1 ****  12 GROUP 4 **** **** 0

# MOE 2024.06 (io_trps.svl 2023.06)
