@<TRIPOS>MOLECULE
10215
41 43 1 0 0 
SMALL
USER_CHARGES


@<TRIPOS>ATOM
  1 O        1.0190    -3.0590     0.1200 O.2   1 <1>  -0.5760 
  2 C        0.2120    -2.2150     0.4030 C.2   1 <1>   0.4880 
  3 C       -1.1760    -2.3680     0.0820 C.2   1 <1>  -0.1330 
  4 C        0.7660    -1.0130     1.1510 C.3   1 <1>  -0.1880 
  5 C       -1.6990    -3.1800    -0.8830 C.2   1 <1>   0.1560 
  6 C       -2.1380    -1.5430     0.9470 C.3   1 <1>   0.7110 
  7 N       -3.0650    -3.3340    -1.0220 N.pl3 1 <1>  -0.6940 
  8 C       -0.9070    -4.0020    -1.8920 C.3   1 <1>  -0.1110 
  9 N       -3.5320    -2.0310     0.8430 N.pl3 1 <1>  -0.4630 
 10 C       -2.1560    -0.0720     0.5340 C.ar  1 <1>  -0.1520 
 11 C       -3.9200    -2.8080    -0.1350 C.cat 1 <1>   1.0690 
 12 N       -4.5940    -1.6610     1.6200 N.2   1 <1>  -0.2680 
 13 C       -2.2240     0.9130     1.5120 C.ar  1 <1>  -0.1590 
 14 C       -2.1130     0.3090    -0.8030 C.ar  1 <1>  -0.1590 
 15 N       -5.2160    -2.9640    -0.0390 N.pl3 1 <1>  -0.7040 
 16 C       -5.5940    -2.2370     1.0580 C.2   1 <1>   0.4970 
 17 C       -2.2430     2.2520     1.1650 C.ar  1 <1>  -0.1590 
 18 C       -2.1310     1.6470    -1.1490 C.ar  1 <1>  -0.1590 
 19 C       -2.1960     2.6260    -0.1740 C.ar  1 <1>   0.0730 
 20 O       -2.2090     3.9110    -0.6020 O.3   1 <1>  -0.3700 
 21 C       -2.2630     4.9880     0.3040 C.3   1 <1>   0.1110 
 22 C       -2.2520     6.2840    -0.5000 C.3   1 <1>  -0.2480 
 23 H        0.3690    -0.9570     2.1470 H     1 <1>   0.0710 
 24 H        0.5520    -0.1050     0.6180 H     1 <1>   0.0710 
 25 H        1.8360    -1.0990     1.2280 H     1 <1>   0.0710 
 26 H       -1.8440    -1.6270     1.9800 H     1 <1>   0.0710 
 27 H       -3.4280    -3.9390    -1.7600 H     1 <1>   0.4440 
 28 H        0.0710    -3.5910    -2.0590 H     1 <1>   0.0710 
 29 H       -1.4040    -4.0200    -2.8450 H     1 <1>   0.0710 
 30 H       -0.7960    -5.0120    -1.5390 H     1 <1>   0.0710 
 31 H       -2.2680     0.6550     2.5570 H     1 <1>   0.1410 
 32 H       -2.0620    -0.4150    -1.5980 H     1 <1>   0.1410 
 33 H       -5.8270    -3.5050    -0.6460 H     1 <1>   0.4440 
 34 H       -6.6180    -2.1680     1.3970 H     1 <1>   0.1410 
 35 H       -2.2960     2.9900     1.9440 H     1 <1>   0.1410 
 36 H       -2.0950     1.9480    -2.1810 H     1 <1>   0.1410 
 37 H       -1.4030     4.9340     0.9490 H     1 <1>   0.0710 
 38 H       -3.1690     4.9050     0.8790 H     1 <1>   0.0710 
 39 H       -1.3510     6.3500    -1.0830 H     1 <1>   0.0710 
 40 H       -2.2920     7.1260     0.1680 H     1 <1>   0.0710 
 41 H       -3.1060     6.3210    -1.1520 H     1 <1>   0.0710 
@<TRIPOS>BOND
  1   1   2  2   
  2   2   3  1   
  3   2   4  1   
  4   3   5  2   
  5   3   6  1   
  6   4  23  1   
  7   4  24  1   
  8   4  25  1   
  9   5   7  1   
 10   5   8  1   
 11   6   9  1   
 12   6  10  1   
 13   6  26  1   
 14   7  11  ar  
 15   7  27  1   
 16   8  28  1   
 17   8  29  1   
 18   8  30  1   
 19   9  11  ar  
 20   9  12  1   
 21  10  13  ar  
 22  10  14  ar  
 23  11  15  ar  
 24  12  16  2   
 25  13  17  ar  
 26  13  31  1   
 27  14  18  ar  
 28  14  32  1   
 29  15  16  1   
 30  15  33  1   
 31  16  34  1   
 32  17  19  ar  
 33  17  35  1   
 34  18  19  ar  
 35  18  36  1   
 36  19  20  1   
 37  20  21  1   
 38  21  22  1   
 39  21  37  1   
 40  21  38  1   
 41  22  39  1   
 42  22  40  1   
 43  22  41  1   
@<TRIPOS>SUBSTRUCTURE
  1 ****  10 GROUP 4 **** **** 0

# MOE 2024.06 (io_trps.svl 2023.06)
