@<TRIPOS>MOLECULE
NONAME
33 34 1 0 0 
SMALL
USER_CHARGES


@<TRIPOS>ATOM
  1 O       -0.8170     0.7270     0.2840 O.3   1 <1>  -0.2800 
  2 C       -1.3410     0.6250    -0.9230 C.2   1 <1>  -0.0400 
  3 C        0.2730     1.4600     0.1880 C.2   1 <1>  -0.0400 
  4 C       -0.5870     1.2970    -1.8210 C.2   1 <1>  -0.1500 
  5 C       -2.6220    -0.1720    -1.1160 C.3   1 <1>   0.2900 
  6 C        0.4730     1.8460    -1.0890 C.2   1 <1>  -0.1500 
  7 C        1.0750     1.7300     1.4410 C.3   1 <1>  -0.0600 
  8 N       -3.7400     0.3690    -0.3080 N.3   1 <1>  -0.8100 
  9 C       -4.9620    -0.4430    -0.4320 C.3   1 <1>   0.1100 
 10 C       -3.9940     1.8030    -0.5590 C.3   1 <1>   0.1100 
 11 C       -6.0670     0.0770     0.5110 C.3   1 <1>   0.3430 
 12 C       -5.0890     2.3410     0.3820 C.3   1 <1>   0.3430 
 13 N       -6.3590     1.5370     0.2840 N.4   1 <1>  -0.9590 
 14 C       -7.3860     2.0380     1.2430 C.3   1 <1>   0.2630 
 15 H       -0.7310     1.4110    -2.8800 H     1 <1>   0.1500 
 16 H       -2.4300    -1.1890    -0.8200 H     1 <1>   0.0800 
 17 H       -2.8880    -0.1680    -2.1590 H     1 <1>   0.0800 
 18 H        1.2680     2.4460    -1.4950 H     1 <1>   0.1500 
 19 H        1.4090     0.7990     1.8640 H     1 <1>   0.0800 
 20 H        0.4630     2.2410     2.1620 H     1 <1>   0.0800 
 21 H        1.9310     2.3380     1.2120 H     1 <1>   0.0800 
 22 H       -4.7370    -1.4630    -0.1680 H     1 <1>   0.0800 
 23 H       -5.3140    -0.4310    -1.4500 H     1 <1>   0.0800 
 24 H       -4.2790     1.9560    -1.5850 H     1 <1>   0.0800 
 25 H       -3.0960     2.3680    -0.3750 H     1 <1>   0.0800 
 26 H       -5.7380    -0.0720     1.5260 H     1 <1>   0.0800 
 27 H       -6.9620    -0.5050     0.3630 H     1 <1>   0.0800 
 28 H       -5.2860     3.3730     0.1410 H     1 <1>   0.0800 
 29 H       -4.7110     2.3010     1.3900 H     1 <1>   0.0800 
 30 H       -6.7100     1.6360    -0.6780 H     1 <1>   0.4500 
 31 H       -7.0300     1.9410     2.2560 H     1 <1>   0.0800 
 32 H       -8.2990     1.4730     1.1440 H     1 <1>   0.0800 
 33 H       -7.6020     3.0760     1.0510 H     1 <1>   0.0800 
@<TRIPOS>BOND
  1   1   2  1   
  2   1   3  1   
  3   2   4  2   
  4   2   5  1   
  5   3   6  2   
  6   3   7  1   
  7   4   6  1   
  8   4  15  1   
  9   5   8  1   
 10   5  16  1   
 11   5  17  1   
 12   6  18  1   
 13   7  19  1   
 14   7  20  1   
 15   7  21  1   
 16   8   9  1   
 17   8  10  1   
 18   9  11  1   
 19   9  22  1   
 20   9  23  1   
 21  10  12  1   
 22  10  24  1   
 23  10  25  1   
 24  11  13  1   
 25  11  26  1   
 26  11  27  1   
 27  12  13  1   
 28  12  28  1   
 29  12  29  1   
 30  13  14  1   
 31  13  30  1   
 32  14  31  1   
 33  14  32  1   
 34  14  33  1   
@<TRIPOS>SUBSTRUCTURE
  1 ****   8 GROUP 4 **** **** 0

# MOE 2024.06 (io_trps.svl 2023.06)
