@<TRIPOS>MOLECULE
NONAME
46 47 1 0 0 
SMALL
USER_CHARGES


@<TRIPOS>ATOM
  1 S        0.6670     1.7120     1.1970 S.o2  1 <1>   1.3330 
  2 O        1.2160     2.7740     2.0060 O.2   1 <1>  -0.6500 
  3 O        1.5170     0.6690     0.6820 O.2   1 <1>  -0.6500 
  4 N       -0.0930     2.4840    -0.1470 N.am  1 <1>  -0.6930 
  5 C       -0.6780     0.9530     2.0870 C.3   1 <1>  -0.1350 
  6 C       -1.4680     2.4360    -0.3620 C.ar  1 <1>   0.1990 
  7 C        0.7450     3.3960    -0.9800 C.3   1 <1>   0.2570 
  8 C       -2.3110     3.3870     0.2240 C.ar  1 <1>  -0.1440 
  9 C       -2.0190     1.4250    -1.1550 C.ar  1 <1>  -0.1440 
 10 C        1.8830     2.7150    -1.7530 C.2   1 <1>   0.5690 
 11 C       -3.6790     3.3080     0.0260 C.ar  1 <1>  -0.1500 
 12 C       -1.7620     4.5230     1.0830 C.3   1 <1>  -0.0970 
 13 C       -3.3890     1.3650    -1.3410 C.ar  1 <1>  -0.1500 
 14 C       -1.1410     0.3820    -1.8400 C.3   1 <1>  -0.0960 
 15 O        1.6340     2.1940    -2.8130 O.2   1 <1>  -0.5700 
 16 N        3.1700     2.7260    -1.3220 N.am  1 <1>  -0.7300 
 17 C       -4.2190     2.3000    -0.7510 C.ar  1 <1>  -0.1500 
 18 C        3.7670     3.2680    -0.0890 C.3   1 <1>   0.2200 
 19 C        4.8010     4.3200    -0.4680 C.3   1 <1>  -0.1600 
 20 C        4.6010     2.1780     0.5710 C.3   1 <1>  -0.1600 
 21 C        6.0640     3.5420    -0.8520 C.3   1 <1>  -0.1600 
 22 C        5.9520     2.1800    -0.1550 C.3   1 <1>  -0.1600 
 23 H       -0.3020     0.4440     2.9520 H     1 <1>   0.0800 
 24 H       -1.1810     0.2410     1.4630 H     1 <1>   0.0800 
 25 H       -1.3840     1.6940     2.4060 H     1 <1>   0.0800 
 26 H        1.1480     4.1690    -0.3540 H     1 <1>   0.0800 
 27 H        0.1110     3.8740    -1.7050 H     1 <1>   0.0800 
 28 H       -4.3390     4.0320     0.4720 H     1 <1>   0.1500 
 29 H       -1.1280     5.1570     0.4910 H     1 <1>   0.0800 
 30 H       -1.1900     4.1330     1.9050 H     1 <1>   0.0800 
 31 H       -2.5570     5.1240     1.4850 H     1 <1>   0.0800 
 32 H       -3.8220     0.5910    -1.9510 H     1 <1>   0.1500 
 33 H       -0.4230    -0.0280    -1.1540 H     1 <1>   0.0800 
 34 H       -0.6090     0.8380    -2.6560 H     1 <1>   0.0800 
 35 H       -1.7300    -0.4260    -2.2300 H     1 <1>   0.0800 
 36 H        3.8280     2.2040    -1.9020 H     1 <1>   0.3700 
 37 H       -5.2830     2.2460    -0.9020 H     1 <1>   0.1500 
 38 H        3.0200     3.6620     0.5760 H     1 <1>   0.0800 
 39 H        5.0120     4.9180     0.4020 H     1 <1>   0.0800 
 40 H        4.4570     4.9660    -1.2560 H     1 <1>   0.0800 
 41 H        4.1160     1.2180     0.5410 H     1 <1>   0.0800 
 42 H        4.7560     2.4480     1.6020 H     1 <1>   0.0800 
 43 H        6.9520     4.0700    -0.5480 H     1 <1>   0.0800 
 44 H        6.0920     3.3990    -1.9190 H     1 <1>   0.0800 
 45 H        5.9730     1.3920    -0.8900 H     1 <1>   0.0800 
 46 H        6.7580     2.0260     0.5410 H     1 <1>   0.0800 
@<TRIPOS>BOND
  1   1   2  2   
  2   1   3  2   
  3   1   4  am  
  4   1   5  1   
  5   4   6  1   
  6   4   7  1   
  7   5  23  1   
  8   5  24  1   
  9   5  25  1   
 10   6   8  ar  
 11   6   9  ar  
 12   7  10  1   
 13   7  26  1   
 14   7  27  1   
 15   8  11  ar  
 16   8  12  1   
 17   9  13  ar  
 18   9  14  1   
 19  10  15  2   
 20  10  16  am  
 21  11  17  ar  
 22  11  28  1   
 23  12  29  1   
 24  12  30  1   
 25  12  31  1   
 26  13  17  ar  
 27  13  32  1   
 28  14  33  1   
 29  14  34  1   
 30  14  35  1   
 31  16  18  1   
 32  16  36  1   
 33  17  37  1   
 34  18  19  1   
 35  18  20  1   
 36  18  38  1   
 37  19  21  1   
 38  19  39  1   
 39  19  40  1   
 40  20  22  1   
 41  20  41  1   
 42  20  42  1   
 43  21  22  1   
 44  21  43  1   
 45  21  44  1   
 46  22  45  1   
 47  22  46  1   
@<TRIPOS>SUBSTRUCTURE
  1 ****   4 GROUP 4 **** **** 0

# MOE 2024.06 (io_trps.svl 2023.06)
