@<TRIPOS>MOLECULE
NONAME
40 42 1 0 0 
SMALL
USER_CHARGES


@<TRIPOS>ATOM
  1 S       -0.6070    -0.4730     0.9720 S.3   1 <1>  -0.0800 
  2 C       -1.7310     0.5620     0.1080 C.2   1 <1>  -0.1400 
  3 C        0.5330     0.8440     1.1690 C.2   1 <1>  -0.1100 
  4 C       -1.2280     1.8100    -0.0020 C.2   1 <1>  -0.1500 
  5 C       -3.0100    -0.1130    -0.3420 C.3   1 <1>   0.5230 
  6 C        0.0590     1.9680     0.6040 C.2   1 <1>  -0.1500 
  7 N       -4.0670     0.9080    -0.5650 N.4   1 <1>  -0.9590 
  8 C       -4.4700     1.5600     0.7400 C.3   1 <1>   0.3430 
  9 C       -5.2670     0.3190    -1.2660 C.3   1 <1>   0.3430 
 10 C       -5.6000     2.5960     0.5640 C.3   1 <1>   0.2090 
 11 C       -6.4030     1.3460    -1.4620 C.3   1 <1>   0.2090 
 12 N       -6.7550     1.9980    -0.1680 N.pl3 1 <1>  -0.8380 
 13 C       -7.9400     2.7240    -0.1460 C.ar  1 <1>   0.1000 
 14 C       -9.0220     2.2450     0.5790 C.ar  1 <1>  -0.1500 
 15 C       -8.0710     3.9220    -0.8360 C.ar  1 <1>  -0.1500 
 16 C      -10.2270     2.9380     0.6270 C.ar  1 <1>  -0.1430 
 17 C       -9.2590     4.6250    -0.8000 C.ar  1 <1>  -0.1500 
 18 C      -10.3310     4.1360    -0.0720 C.ar  1 <1>  -0.1500 
 19 C      -11.4300     2.4160     1.4290 C.3   1 <1>   1.1630 
 20 F      -11.7180     3.2000     2.4600 F     1 <1>  -0.3400 
 21 F      -11.2430     1.1980     1.9270 F     1 <1>  -0.3400 
 22 F      -12.5330     2.3500     0.6930 F     1 <1>  -0.3400 
 23 H        1.4500     0.6340     1.6930 H     1 <1>   0.1500 
 24 H       -1.6870     2.6540    -0.4870 H     1 <1>   0.1500 
 25 H       -3.3320    -0.8110     0.4150 H     1 <1>   0.0800 
 26 H       -2.8170    -0.6630    -1.2490 H     1 <1>   0.0800 
 27 H        0.5710     2.9160     0.5860 H     1 <1>   0.1500 
 28 H       -3.6610     1.6320    -1.1690 H     1 <1>   0.4500 
 29 H       -3.6180     2.0430     1.1910 H     1 <1>   0.0800 
 30 H       -4.8180     0.8050     1.4260 H     1 <1>   0.0800 
 31 H       -5.6600    -0.4980    -0.6830 H     1 <1>   0.0800 
 32 H       -4.9790    -0.0710    -2.2280 H     1 <1>   0.0800 
 33 H       -5.2330     3.4530     0.0270 H     1 <1>   0.0800 
 34 H       -5.9310     2.9300     1.5330 H     1 <1>   0.0800 
 35 H       -7.2740     0.8460    -1.8530 H     1 <1>   0.0800 
 36 H       -6.1040     2.0940    -2.1760 H     1 <1>   0.0800 
 37 H       -8.8990     1.3170     1.1080 H     1 <1>   0.1500 
 38 H       -7.2430     4.3070    -1.4020 H     1 <1>   0.1500 
 39 H       -9.3550     5.5540    -1.3360 H     1 <1>   0.1500 
 40 H      -11.2520     4.6970    -0.0540 H     1 <1>   0.1500 
@<TRIPOS>BOND
  1   1   2  1   
  2   1   3  1   
  3   2   4  2   
  4   2   5  1   
  5   3   6  2   
  6   3  23  1   
  7   4   6  1   
  8   4  24  1   
  9   5   7  1   
 10   5  25  1   
 11   5  26  1   
 12   6  27  1   
 13   7   8  1   
 14   7   9  1   
 15   7  28  1   
 16   8  10  1   
 17   8  29  1   
 18   8  30  1   
 19   9  11  1   
 20   9  31  1   
 21   9  32  1   
 22  10  12  1   
 23  10  33  1   
 24  10  34  1   
 25  11  12  1   
 26  11  35  1   
 27  11  36  1   
 28  12  13  1   
 29  13  14  ar  
 30  13  15  ar  
 31  14  16  ar  
 32  14  37  1   
 33  15  17  ar  
 34  15  38  1   
 35  16  18  ar  
 36  16  19  1   
 37  17  18  ar  
 38  17  39  1   
 39  18  40  1   
 40  19  20  1   
 41  19  21  1   
 42  19  22  1   
@<TRIPOS>SUBSTRUCTURE
  1 ****  12 GROUP 4 **** **** 0

# MOE 2024.06 (io_trps.svl 2023.06)
