@<TRIPOS>MOLECULE
NONAME
39 40 1 0 0 
SMALL
USER_CHARGES


@<TRIPOS>ATOM
  1 S       -0.2290     0.0610    -0.7150 S.o2  1 <1>   1.0900 
  2 O       -0.6860    -1.3020    -0.8460 O.2   1 <1>  -0.6500 
  3 O       -0.8800     1.1520    -1.4010 O.2   1 <1>  -0.6500 
  4 C        1.5190     0.1570    -1.0360 C.3   1 <1>  -0.0550 
  5 C       -0.1190     0.4630     1.0210 C.3   1 <1>  -0.0550 
  6 C        2.2060     0.3440     0.3150 C.3   1 <1>   0.2200 
  7 C        1.2520     1.1050     1.2480 C.3   1 <1>  -0.1600 
  8 N        3.5380     1.0010     0.1650 N.am  1 <1>  -0.6600 
  9 C        4.6720     0.2160     0.0580 C.2   1 <1>   0.5440 
 10 C        3.5770     2.4760    -0.0850 C.3   1 <1>   0.0600 
 11 O        4.5340    -0.9720    -0.1710 O.2   1 <1>  -0.5700 
 12 C        6.0090     0.7630     0.1900 C.ar  1 <1>   0.0860 
 13 C        7.0080     0.4400    -0.7290 C.ar  1 <1>  -0.1500 
 14 C        6.3540     1.6230     1.2350 C.ar  1 <1>  -0.1500 
 15 C        8.2840     0.9630    -0.6290 C.ar  1 <1>  -0.1500 
 16 C        7.6270     2.1510     1.3420 C.ar  1 <1>  -0.1500 
 17 C        8.6020     1.8300     0.4120 C.ar  1 <1>   0.0830 
 18 O        9.8200     2.3900     0.5840 O.3   1 <1>  -0.3630 
 19 C       10.8950     2.1120    -0.2830 C.3   1 <1>   0.1200 
 20 C       12.1100     2.8940     0.2060 C.3   1 <1>  -0.2400 
 21 H        1.7180     0.9980    -1.6700 H     1 <1>   0.0800 
 22 H        1.8770    -0.7360    -1.5100 H     1 <1>   0.0800 
 23 H       -0.1800    -0.4410     1.5970 H     1 <1>   0.0800 
 24 H       -0.9150     1.1180     1.3230 H     1 <1>   0.0800 
 25 H        2.3450    -0.6360     0.7450 H     1 <1>   0.0800 
 26 H        1.5590     1.0200     2.2760 H     1 <1>   0.0800 
 27 H        1.1860     2.1420     0.9730 H     1 <1>   0.0800 
 28 H        3.4980     3.0050     0.8480 H     1 <1>   0.0800 
 29 H        2.7650     2.7700    -0.7260 H     1 <1>   0.0800 
 30 H        4.4970     2.7570    -0.5670 H     1 <1>   0.0800 
 31 H        6.7680    -0.2370    -1.5320 H     1 <1>   0.1500 
 32 H        5.6120     1.8740     1.9720 H     1 <1>   0.1500 
 33 H        9.0150     0.6840    -1.3640 H     1 <1>   0.1500 
 34 H        7.8790     2.8140     2.1500 H     1 <1>   0.1500 
 35 H       10.6190     2.4190    -1.2770 H     1 <1>   0.0800 
 36 H       11.0870     1.0530    -0.2570 H     1 <1>   0.0800 
 37 H       11.9010     3.9480     0.1930 H     1 <1>   0.0800 
 38 H       12.9500     2.7020    -0.4360 H     1 <1>   0.0800 
 39 H       12.3660     2.5910     1.2060 H     1 <1>   0.0800 
@<TRIPOS>BOND
  1   1   2  2   
  2   1   3  2   
  3   1   4  1   
  4   1   5  1   
  5   4   6  1   
  6   4  21  1   
  7   4  22  1   
  8   5   7  1   
  9   5  23  1   
 10   5  24  1   
 11   6   7  1   
 12   6   8  1   
 13   6  25  1   
 14   7  26  1   
 15   7  27  1   
 16   8   9  am  
 17   8  10  1   
 18   9  11  2   
 19   9  12  1   
 20  10  28  1   
 21  10  29  1   
 22  10  30  1   
 23  12  13  ar  
 24  12  14  ar  
 25  13  15  ar  
 26  13  31  1   
 27  14  16  ar  
 28  14  32  1   
 29  15  17  ar  
 30  15  33  1   
 31  16  17  ar  
 32  16  34  1   
 33  17  18  1   
 34  18  19  1   
 35  19  20  1   
 36  19  35  1   
 37  19  36  1   
 38  20  37  1   
 39  20  38  1   
 40  20  39  1   
@<TRIPOS>SUBSTRUCTURE
  1 ****   9 GROUP 4 **** **** 0

# MOE 2024.06 (io_trps.svl 2023.06)
