@<TRIPOS>MOLECULE
NONAME
40 41 1 0 0 
SMALL
USER_CHARGES


@<TRIPOS>ATOM
  1 O        0.0400     0.1700    -0.6070 O.3   1 <1>  -0.3630 
  2 C       -1.2400    -0.0310    -0.2040 C.ar  1 <1>   0.0830 
  3 C        0.9330    -0.9080    -0.7570 C.3   1 <1>   0.1200 
  4 C       -1.7760    -1.2830     0.0780 C.ar  1 <1>  -0.1500 
  5 C       -2.0360     1.0960    -0.0740 C.ar  1 <1>  -0.1500 
  6 C        2.2870    -0.3510    -1.1930 C.3   1 <1>  -0.1600 
  7 C       -3.0930    -1.4050     0.4870 C.ar  1 <1>   0.0830 
  8 C       -3.3540     0.9800     0.3330 C.ar  1 <1>  -0.1500 
  9 C        3.3090    -1.4810    -1.3510 C.3   1 <1>   0.1200 
 10 O       -3.5350    -2.6630     0.7430 O.3   1 <1>  -0.3630 
 11 C       -3.8850    -0.2660     0.6150 C.ar  1 <1>  -0.1500 
 12 O        4.5470    -0.9460    -1.7660 O.3   1 <1>  -0.3630 
 13 C       -4.8600    -2.9020     1.1650 C.3   1 <1>   0.0400 
 14 C        5.4240    -0.3610    -0.9090 C.ar  1 <1>   0.0830 
 15 C        6.5800     0.1610    -1.4670 C.ar  1 <1>  -0.1500 
 16 C        5.2310    -0.2620     0.4660 C.ar  1 <1>  -0.1500 
 17 C        7.5320     0.7730    -0.6720 C.ar  1 <1>  -0.1500 
 18 C        6.1850     0.3520     1.2590 C.ar  1 <1>  -0.1500 
 19 C        7.3400     0.8710     0.6960 C.ar  1 <1>  -0.1430 
 20 C        8.3830     1.5440     1.5700 C.3   1 <1>  -0.0970 
 21 H        0.5350    -1.5760    -1.5020 H     1 <1>   0.0800 
 22 H        1.0160    -1.4110     0.1920 H     1 <1>   0.0800 
 23 H       -1.1960    -2.1800    -0.0100 H     1 <1>   0.1500 
 24 H       -1.6160     2.0610    -0.2950 H     1 <1>   0.1500 
 25 H        2.6280     0.3530    -0.4560 H     1 <1>   0.0800 
 26 H        2.1720     0.1530    -2.1370 H     1 <1>   0.0800 
 27 H       -3.9640     1.8620     0.4310 H     1 <1>   0.1500 
 28 H        2.9880    -2.1590    -2.1220 H     1 <1>   0.0800 
 29 H        3.4510    -2.0400    -0.4440 H     1 <1>   0.0800 
 30 H       -4.9090    -0.3300     0.9290 H     1 <1>   0.1500 
 31 H       -4.9800    -3.9610     1.3040 H     1 <1>   0.0800 
 32 H       -5.5360    -2.5540     0.4040 H     1 <1>   0.0800 
 33 H       -5.0280    -2.3890     2.0950 H     1 <1>   0.0800 
 34 H        6.7280     0.0840    -2.5290 H     1 <1>   0.1500 
 35 H        4.3500    -0.6500     0.9380 H     1 <1>   0.1500 
 36 H        8.4220     1.1740    -1.1250 H     1 <1>   0.1500 
 37 H        6.0250     0.4250     2.3200 H     1 <1>   0.1500 
 38 H        8.1610     2.5920     1.6580 H     1 <1>   0.0800 
 39 H        9.3630     1.4310     1.1410 H     1 <1>   0.0800 
 40 H        8.3910     1.1060     2.5520 H     1 <1>   0.0800 
@<TRIPOS>BOND
  1   1   2  1   
  2   1   3  1   
  3   2   4  ar  
  4   2   5  ar  
  5   3   6  1   
  6   3  21  1   
  7   3  22  1   
  8   4   7  ar  
  9   4  23  1   
 10   5   8  ar  
 11   5  24  1   
 12   6   9  1   
 13   6  25  1   
 14   6  26  1   
 15   7  10  1   
 16   7  11  ar  
 17   8  11  ar  
 18   8  27  1   
 19   9  12  1   
 20   9  28  1   
 21   9  29  1   
 22  10  13  1   
 23  11  30  1   
 24  12  14  1   
 25  13  31  1   
 26  13  32  1   
 27  13  33  1   
 28  14  15  ar  
 29  14  16  ar  
 30  15  17  ar  
 31  15  34  1   
 32  16  18  ar  
 33  16  35  1   
 34  17  19  ar  
 35  17  36  1   
 36  18  19  ar  
 37  18  37  1   
 38  19  20  1   
 39  20  38  1   
 40  20  39  1   
 41  20  40  1   
@<TRIPOS>SUBSTRUCTURE
  1 ****   3 GROUP 4 **** **** 0

# MOE 2024.06 (io_trps.svl 2023.06)
