@<TRIPOS>MOLECULE
NONAME
37 39 1 0 0 
SMALL
USER_CHARGES


@<TRIPOS>ATOM
  1 O       -0.5510     1.7660     2.2220 O.2   1 <1>  -0.5700 
  2 C       -1.0900     2.5760     1.5140 C.2   1 <1>   0.6590 
  3 O       -2.1380     3.2200     2.0080 O.3   1 <1>  -0.4300 
  4 C       -0.5420     2.9100     0.1080 C.3   1 <1>   0.1220 
  5 C       -3.0370     3.9850     1.2510 C.3   1 <1>   0.3800 
  6 C       -1.3430     4.0370    -0.5610 C.2   1 <1>   0.4480 
  7 C        0.9470     3.3120     0.1890 C.3   1 <1>  -0.1600 
  8 C       -0.4810     1.6340    -0.7630 C.3   1 <1>  -0.1600 
  9 C       -4.0430     3.0520     0.5800 C.2   1 <1>  -0.0400 
 10 C       -2.2590     4.9150     0.3010 C.3   1 <1>   0.0610 
 11 O       -1.2140     4.2690    -1.7310 O.2   1 <1>  -0.5700 
 12 C        1.7610     2.0150     0.1580 C.3   1 <1>  -0.1600 
 13 C        0.8460     0.9420    -0.4380 C.3   1 <1>  -0.1600 
 14 O       -3.6450     2.1920    -0.3390 O.3   1 <1>  -0.2800 
 15 C       -5.3760     2.9420     0.7740 C.2   1 <1>  -0.1500 
 16 C       -3.2510     5.7320    -0.5640 C.3   1 <1>  -0.2400 
 17 C       -1.4110     5.9310     1.1020 C.3   1 <1>  -0.2400 
 18 C       -4.7020     1.5230    -0.7500 C.2   1 <1>  -0.0100 
 19 C       -5.8090     1.9380    -0.1000 C.2   1 <1>  -0.1500 
 20 H       -3.5780     4.5920     1.9540 H     1 <1>   0.0800 
 21 H        1.1660     3.8930     1.0680 H     1 <1>   0.0800 
 22 H        1.2100     3.8930    -0.6790 H     1 <1>   0.0800 
 23 H       -0.4740     1.8950    -1.8070 H     1 <1>   0.0800 
 24 H       -1.3170     0.9800    -0.5840 H     1 <1>   0.0800 
 25 H        2.0390     1.7310     1.1590 H     1 <1>   0.0800 
 26 H        2.6560     2.1360    -0.4280 H     1 <1>   0.0800 
 27 H        1.2770     0.5020    -1.3210 H     1 <1>   0.0800 
 28 H        0.6830     0.1650     0.2910 H     1 <1>   0.0800 
 29 H       -6.0110     3.4890     1.4490 H     1 <1>   0.1500 
 30 H       -3.8240     5.0830    -1.2030 H     1 <1>   0.0800 
 31 H       -2.7170     6.4200    -1.1970 H     1 <1>   0.0800 
 32 H       -3.9300     6.2940     0.0520 H     1 <1>   0.0800 
 33 H       -2.0430     6.5670     1.6980 H     1 <1>   0.0800 
 34 H       -0.7170     5.4400     1.7600 H     1 <1>   0.0800 
 35 H       -0.8470     6.5530     0.4280 H     1 <1>   0.0800 
 36 H       -4.5770     0.7690    -1.5080 H     1 <1>   0.1500 
 37 H       -6.8220     1.5920    -0.2070 H     1 <1>   0.1500 
@<TRIPOS>BOND
  1   1   2  2   
  2   2   3  1   
  3   2   4  1   
  4   3   5  1   
  5   4   6  1   
  6   4   7  1   
  7   4   8  1   
  8   5   9  1   
  9   5  10  1   
 10   5  20  1   
 11   6  10  1   
 12   6  11  2   
 13   7  12  1   
 14   7  21  1   
 15   7  22  1   
 16   8  13  1   
 17   8  23  1   
 18   8  24  1   
 19   9  14  1   
 20   9  15  2   
 21  10  16  1   
 22  10  17  1   
 23  12  13  1   
 24  12  25  1   
 25  12  26  1   
 26  13  27  1   
 27  13  28  1   
 28  14  18  1   
 29  15  19  1   
 30  15  29  1   
 31  16  30  1   
 32  16  31  1   
 33  16  32  1   
 34  17  33  1   
 35  17  34  1   
 36  17  35  1   
 37  18  19  2   
 38  18  36  1   
 39  19  37  1   
@<TRIPOS>SUBSTRUCTURE
  1 ****   6 GROUP 4 **** **** 0

# MOE 2024.06 (io_trps.svl 2023.06)
