@<TRIPOS>MOLECULE
NONAME
26 26 1 0 0 
SMALL
USER_CHARGES


@<TRIPOS>ATOM
  1 S        0.1160    -0.6250    -0.7070 S.3   1 <1>  -0.0800 
  2 C        1.4580     0.4870    -0.6170 C.2   1 <1>   0.0960 
  3 C       -0.9990     0.6390    -0.2130 C.2   1 <1>  -0.1400 
  4 S        3.0570    -0.2260    -0.9700 S.3   1 <1>  -0.2860 
  5 C        1.0840     1.7440    -0.2680 C.2   1 <1>  -0.0860 
  6 C       -0.3370     1.7980    -0.0250 C.2   1 <1>  -0.1500 
  7 C       -2.4570     0.2360    -0.0830 C.3   1 <1>   0.0200 
  8 C        3.9820    -0.0210     0.6150 C.3   1 <1>   0.0700 
  9 C        1.9160     2.9190    -0.1620 C.2   1 <1>   0.7160 
 10 C       -3.3440     1.4050     0.3530 C.3   1 <1>  -0.2400 
 11 C        5.4500    -0.3450     0.3480 C.3   1 <1>  -0.2400 
 12 O        1.5590     3.9090     0.4380 O.2   1 <1>  -0.5700 
 13 N        3.1280     2.9750    -0.7500 N.am  1 <1>  -0.8000 
 14 H       -0.7880     2.7270     0.2820 H     1 <1>   0.1500 
 15 H       -2.5370    -0.5600     0.6370 H     1 <1>   0.0800 
 16 H       -2.8010    -0.1380    -1.0320 H     1 <1>   0.0800 
 17 H        3.5460    -0.7010     1.3260 H     1 <1>   0.0800 
 18 H        3.8510     0.9930     0.9490 H     1 <1>   0.0800 
 19 H       -3.0240     1.7780     1.3090 H     1 <1>   0.0800 
 20 H       -4.3670     1.0820     0.4340 H     1 <1>   0.0800 
 21 H       -3.2910     2.2020    -0.3690 H     1 <1>   0.0800 
 22 H        5.5470    -1.3550    -0.0090 H     1 <1>   0.0800 
 23 H        6.0180    -0.2440     1.2550 H     1 <1>   0.0800 
 24 H        5.8520     0.3280    -0.3880 H     1 <1>   0.0800 
 25 H        3.4830     2.2100    -1.3260 H     1 <1>   0.3700 
 26 H        3.6590     3.8440    -0.7220 H     1 <1>   0.3700 
@<TRIPOS>BOND
  1   1   2  1   
  2   1   3  1   
  3   2   4  1   
  4   2   5  2   
  5   3   6  2   
  6   3   7  1   
  7   4   8  1   
  8   5   6  1   
  9   5   9  1   
 10   6  14  1   
 11   7  10  1   
 12   7  15  1   
 13   7  16  1   
 14   8  11  1   
 15   8  17  1   
 16   8  18  1   
 17   9  12  2   
 18   9  13  am  
 19  10  19  1   
 20  10  20  1   
 21  10  21  1   
 22  11  22  1   
 23  11  23  1   
 24  11  24  1   
 25  13  25  1   
 26  13  26  1   
@<TRIPOS>SUBSTRUCTURE
  1 ****   5 GROUP 4 **** **** 0

# MOE 2024.06 (io_trps.svl 2023.06)
