@<TRIPOS>MOLECULE
NONAME
42 44 1 0 0 
SMALL
USER_CHARGES


@<TRIPOS>ATOM
  1 O       -0.3890     0.6140     0.3950 O.2   1 <1>  -0.5700 
  2 C       -1.0420     1.5530     0.0060 C.2   1 <1>   0.5690 
  3 N       -2.3130     1.2740    -0.3910 N.am  1 <1>  -0.7300 
  4 C       -0.3990     2.9680    -0.0120 C.3   1 <1>   0.0610 
  5 C       -3.4280     2.0870    -0.9150 C.3   1 <1>   0.1400 
  6 C        1.0760     2.9060     0.4800 C.3   1 <1>  -0.1600 
  7 C       -1.1470     3.9380     0.9410 C.3   1 <1>  -0.1600 
  8 C       -0.3680     3.5600    -1.4450 C.3   1 <1>  -0.1600 
  9 C       -3.7530     1.6020    -2.3220 C.3   1 <1>  -0.2400 
 10 C        1.7490     4.2940     0.4790 C.3   1 <1>   0.0000 
 11 C       -0.5140     5.3440     0.9270 C.3   1 <1>   0.0000 
 12 C        0.2680     4.9610    -1.4520 C.3   1 <1>  -0.0800 
 13 C        0.9480     5.2330     1.4020 C.3   1 <1>  -0.1600 
 14 C        1.7190     4.8590    -0.9530 C.3   1 <1>  -0.1600 
 15 C        3.1970     4.1800     0.9710 C.3   1 <1>  -0.2400 
 16 C       -0.5300     5.8870    -0.5170 C.3   1 <1>  -0.1600 
 17 C       -1.2970     6.2830     1.8530 C.3   1 <1>  -0.2400 
 18 H       -2.5330     0.2790    -0.3140 H     1 <1>   0.3700 
 19 H       -3.1800     3.1300    -0.9410 H     1 <1>   0.0800 
 20 H       -4.2850     1.9620    -0.2760 H     1 <1>   0.0800 
 21 H        1.6340     2.2380    -0.1530 H     1 <1>   0.0800 
 22 H        1.1030     2.4970     1.4750 H     1 <1>   0.0800 
 23 H       -1.1180     3.5380     1.9400 H     1 <1>   0.0800 
 24 H       -2.1790     4.0210     0.6660 H     1 <1>   0.0800 
 25 H       -1.3540     3.6320    -1.8560 H     1 <1>   0.0800 
 26 H        0.1950     2.9050    -2.0880 H     1 <1>   0.0800 
 27 H       -2.8980     1.7200    -2.9630 H     1 <1>   0.0800 
 28 H       -4.5640     2.1810    -2.7260 H     1 <1>   0.0800 
 29 H       -4.0480     0.5680    -2.3050 H     1 <1>   0.0800 
 30 H        0.2580     5.3580    -2.4530 H     1 <1>   0.0800 
 31 H        0.9730     4.8560     2.4100 H     1 <1>   0.0800 
 32 H        1.4020     6.2080     1.4080 H     1 <1>   0.0800 
 33 H        2.2820     4.2210    -1.6110 H     1 <1>   0.0800 
 34 H        2.1760     5.8330    -0.9730 H     1 <1>   0.0800 
 35 H        3.2240     3.7840     1.9700 H     1 <1>   0.0800 
 36 H        3.6710     5.1450     0.9730 H     1 <1>   0.0800 
 37 H        3.7600     3.5240     0.3310 H     1 <1>   0.0800 
 38 H       -0.0990     6.8730    -0.5400 H     1 <1>   0.0800 
 39 H       -1.5440     5.9670    -0.8680 H     1 <1>   0.0800 
 40 H       -1.2910     5.9080     2.8610 H     1 <1>   0.0800 
 41 H       -2.3180     6.3700     1.5270 H     1 <1>   0.0800 
 42 H       -0.8560     7.2640     1.8530 H     1 <1>   0.0800 
@<TRIPOS>BOND
  1   1   2  2   
  2   2   3  am  
  3   2   4  1   
  4   3   5  1   
  5   3  18  1   
  6   4   6  1   
  7   4   7  1   
  8   4   8  1   
  9   5   9  1   
 10   5  19  1   
 11   5  20  1   
 12   6  10  1   
 13   6  21  1   
 14   6  22  1   
 15   7  11  1   
 16   7  23  1   
 17   7  24  1   
 18   8  12  1   
 19   8  25  1   
 20   8  26  1   
 21   9  27  1   
 22   9  28  1   
 23   9  29  1   
 24  10  13  1   
 25  10  14  1   
 26  10  15  1   
 27  11  13  1   
 28  11  16  1   
 29  11  17  1   
 30  12  14  1   
 31  12  16  1   
 32  12  30  1   
 33  13  31  1   
 34  13  32  1   
 35  14  33  1   
 36  14  34  1   
 37  15  35  1   
 38  15  36  1   
 39  15  37  1   
 40  16  38  1   
 41  16  39  1   
 42  17  40  1   
 43  17  41  1   
 44  17  42  1   
@<TRIPOS>SUBSTRUCTURE
  1 ****   4 GROUP 4 **** **** 0

# MOE 2024.06 (io_trps.svl 2023.06)
