@<TRIPOS>MOLECULE
NONAME
56 59 1 0 0 
SMALL
USER_CHARGES


@<TRIPOS>ATOM
  1 O        1.1020     1.6930    -1.7770 O.2   1 <1>  -0.5700 
  2 C        1.9980     1.4230    -1.0150 C.2   1 <1>   0.5690 
  3 N        2.3030     2.0920     0.1180 N.am  1 <1>  -0.6600 
  4 C        2.9370     0.2680    -1.2200 C.3   1 <1>  -0.0990 
  5 C        3.4530     1.5200     0.8350 C.3   1 <1>   0.1400 
  6 C        1.5560     3.2500     0.6500 C.3   1 <1>   0.1400 
  7 C        4.0170     0.4780    -0.1430 C.3   1 <1>  -0.1600 
  8 C        2.2640     4.5410     0.2430 C.3   1 <1>  -0.1600 
  9 C        1.4730     5.7590     0.7110 C.3   1 <1>   0.1400 
 10 N        2.2070     6.9790     0.3240 N.am  1 <1>  -0.7300 
 11 C        2.8220     7.8370     1.1850 C.2   1 <1>   0.5690 
 12 O        2.7840     7.6470     2.3790 O.2   1 <1>  -0.5700 
 13 C        3.5770     9.0520     0.6050 C.3   1 <1>   0.0610 
 14 C        2.6130     9.9440    -0.2180 C.3   1 <1>  -0.1600 
 15 C        4.7220     8.5770    -0.3250 C.3   1 <1>  -0.1600 
 16 C        4.2010     9.9280     1.7230 C.3   1 <1>  -0.1600 
 17 C        3.3510    11.1540    -0.8280 C.3   1 <1>   0.0000 
 18 C        5.4810     9.7730    -0.9360 C.3   1 <1>   0.0000 
 19 C        4.9520    11.1320     1.1290 C.3   1 <1>  -0.0800 
 20 C        4.4850    10.6370    -1.7370 C.3   1 <1>  -0.1600 
 21 C        3.9680    11.9880     0.3130 C.3   1 <1>  -0.1600 
 22 C        2.3740    12.0130    -1.6390 C.3   1 <1>  -0.2400 
 23 C        6.0720    10.6240     0.2060 C.3   1 <1>  -0.1600 
 24 C        6.6030     9.2720    -1.8540 C.3   1 <1>  -0.2400 
 25 H        3.3490     0.2880    -2.2130 H     1 <1>   0.0800 
 26 H        2.4000    -0.6490    -1.0610 H     1 <1>   0.0800 
 27 H        3.1130     1.0520     1.7440 H     1 <1>   0.0800 
 28 H        4.1810     2.2810     1.0610 H     1 <1>   0.0800 
 29 H        1.4880     3.1760     1.7220 H     1 <1>   0.0800 
 30 H        0.5580     3.2390     0.2440 H     1 <1>   0.0800 
 31 H        4.9080     0.8750    -0.5970 H     1 <1>   0.0800 
 32 H        4.2660    -0.4380     0.3610 H     1 <1>   0.0800 
 33 H        2.3540     4.5650    -0.8290 H     1 <1>   0.0800 
 34 H        3.2430     4.5660     0.6870 H     1 <1>   0.0800 
 35 H        1.3500     5.7300     1.7820 H     1 <1>   0.0800 
 36 H        0.4970     5.7710     0.2570 H     1 <1>   0.0800 
 37 H        2.2770     7.1550    -0.6790 H     1 <1>   0.3700 
 38 H        1.8190    10.2880     0.4220 H     1 <1>   0.0800 
 39 H        2.1660     9.3690    -1.0080 H     1 <1>   0.0800 
 40 H        4.3240     7.9700    -1.1170 H     1 <1>   0.0800 
 41 H        5.4040     7.9650     0.2400 H     1 <1>   0.0800 
 42 H        4.8810     9.3350     2.3100 H     1 <1>   0.0800 
 43 H        3.4270    10.2760     2.3840 H     1 <1>   0.0800 
 44 H        5.3750    11.7230     1.9230 H     1 <1>   0.0800 
 45 H        4.0690    10.0580    -2.5420 H     1 <1>   0.0800 
 46 H        5.0050    11.4730    -2.1730 H     1 <1>   0.0800 
 47 H        3.1910    12.3570     0.9600 H     1 <1>   0.0800 
 48 H        4.4850    12.8390    -0.0940 H     1 <1>   0.0800 
 49 H        1.9410    11.4400    -2.4390 H     1 <1>   0.0800 
 50 H        2.8830    12.8600    -2.0650 H     1 <1>   0.0800 
 51 H        1.5800    12.3750    -1.0100 H     1 <1>   0.0800 
 52 H        6.6090    11.4630    -0.2020 H     1 <1>   0.0800 
 53 H        6.7700    10.0380     0.7780 H     1 <1>   0.0800 
 54 H        6.1990     8.6790    -2.6550 H     1 <1>   0.0800 
 55 H        7.3000     8.6680    -1.3010 H     1 <1>   0.0800 
 56 H        7.1370    10.1020    -2.2810 H     1 <1>   0.0800 
@<TRIPOS>BOND
  1   1   2  2   
  2   2   3  am  
  3   2   4  1   
  4   3   5  1   
  5   3   6  1   
  6   4   7  1   
  7   4  25  1   
  8   4  26  1   
  9   5   7  1   
 10   5  27  1   
 11   5  28  1   
 12   6   8  1   
 13   6  29  1   
 14   6  30  1   
 15   7  31  1   
 16   7  32  1   
 17   8   9  1   
 18   8  33  1   
 19   8  34  1   
 20   9  10  1   
 21   9  35  1   
 22   9  36  1   
 23  10  11  am  
 24  10  37  1   
 25  11  12  2   
 26  11  13  1   
 27  13  14  1   
 28  13  15  1   
 29  13  16  1   
 30  14  17  1   
 31  14  38  1   
 32  14  39  1   
 33  15  18  1   
 34  15  40  1   
 35  15  41  1   
 36  16  19  1   
 37  16  42  1   
 38  16  43  1   
 39  17  20  1   
 40  17  21  1   
 41  17  22  1   
 42  18  20  1   
 43  18  23  1   
 44  18  24  1   
 45  19  21  1   
 46  19  23  1   
 47  19  44  1   
 48  20  45  1   
 49  20  46  1   
 50  21  47  1   
 51  21  48  1   
 52  22  49  1   
 53  22  50  1   
 54  22  51  1   
 55  23  52  1   
 56  23  53  1   
 57  24  54  1   
 58  24  55  1   
 59  24  56  1   
@<TRIPOS>SUBSTRUCTURE
  1 ****  10 GROUP 4 **** **** 0

# MOE 2024.06 (io_trps.svl 2023.06)
