@<TRIPOS>MOLECULE
NONAME
40 42 1 0 0 
SMALL
USER_CHARGES


@<TRIPOS>ATOM
  1 O        0.4370     0.4250     1.2010 O.2   1 <1>  -0.5700 
  2 C        0.1790     1.5020     0.6570 C.2   1 <1>   0.6160 
  3 N        1.1810     2.1810    -0.0540 N.am  1 <1>  -0.1150 
  4 C       -1.1110     2.1090     0.7470 C.2   1 <1>   0.1230 
  5 N        0.9880     3.4410    -0.5840 N.2   1 <1>  -0.5120 
  6 C        2.4580     1.6000    -0.2490 C.ar  1 <1>   0.1170 
  7 N       -2.2440     1.5020     1.3640 N.am  1 <1>  -0.5390 
  8 C       -1.2750     3.3810     0.2450 C.2   1 <1>   0.1140 
  9 C       -0.1710     3.9820    -0.4260 C.2   1 <1>   0.3760 
 10 C        3.6030     2.2570     0.1910 C.ar  1 <1>  -0.1500 
 11 C        2.6040     0.3750    -0.8920 C.ar  1 <1>  -0.1500 
 12 C       -2.7740     0.2540     1.3670 C.2   1 <1>   0.5690 
 13 N       -2.5060     4.0530     0.3820 N.pl3 1 <1>  -0.8380 
 14 C        4.8570     1.7060    -0.0010 C.ar  1 <1>  -0.1500 
 15 C        3.8560    -0.1800    -1.0860 C.ar  1 <1>  -0.1500 
 16 O       -3.8250     0.0630     1.9250 O.2   1 <1>  -0.5700 
 17 C       -2.1360    -0.9050     0.6400 C.3   1 <1>  -0.1790 
 18 C       -3.5130     3.8640    -0.6940 C.3   1 <1>   0.2090 
 19 C       -2.5530     5.4580     0.8780 C.3   1 <1>   0.2090 
 20 C        4.9850     0.4850    -0.6400 C.ar  1 <1>  -0.1500 
 21 C       -3.9020     5.2720    -1.1180 C.3   1 <1>  -0.1600 
 22 C       -3.7180     6.1100     0.1420 C.3   1 <1>  -0.1600 
 23 H       -2.9030     2.2010     1.7170 H     1 <1>   0.3700 
 24 H       -0.3290     4.9610    -0.8390 H     1 <1>   0.0600 
 25 H        3.5030     3.2080     0.6830 H     1 <1>   0.1500 
 26 H        1.7300    -0.1460    -1.2370 H     1 <1>   0.1500 
 27 H        5.7330     2.2270     0.3460 H     1 <1>   0.1500 
 28 H        3.9520    -1.1300    -1.5820 H     1 <1>   0.1500 
 29 H       -1.6530    -0.5710    -0.2580 H     1 <1>   0.0800 
 30 H       -2.8890    -1.6250     0.3800 H     1 <1>   0.0800 
 31 H       -1.4170    -1.3770     1.2830 H     1 <1>   0.0800 
 32 H       -4.3660     3.3470    -0.2870 H     1 <1>   0.0800 
 33 H       -3.1140     3.2990    -1.5190 H     1 <1>   0.0800 
 34 H       -1.6350     5.9720     0.6530 H     1 <1>   0.0800 
 35 H       -2.7140     5.4730     1.9430 H     1 <1>   0.0800 
 36 H        5.9600     0.0540    -0.7900 H     1 <1>   0.1500 
 37 H       -4.9100     5.3120    -1.4930 H     1 <1>   0.0800 
 38 H       -3.2270     5.6070    -1.8850 H     1 <1>   0.0800 
 39 H       -3.5240     7.1450    -0.0770 H     1 <1>   0.0800 
 40 H       -4.5980     6.0420     0.7570 H     1 <1>   0.0800 
@<TRIPOS>BOND
  1   1   2  2   
  2   2   3  am  
  3   2   4  1   
  4   3   5  1   
  5   3   6  1   
  6   4   7  1   
  7   4   8  2   
  8   5   9  2   
  9   6  10  ar  
 10   6  11  ar  
 11   7  12  am  
 12   7  23  1   
 13   8   9  1   
 14   8  13  1   
 15   9  24  1   
 16  10  14  ar  
 17  10  25  1   
 18  11  15  ar  
 19  11  26  1   
 20  12  16  2   
 21  12  17  1   
 22  13  18  1   
 23  13  19  1   
 24  14  20  ar  
 25  14  27  1   
 26  15  20  ar  
 27  15  28  1   
 28  17  29  1   
 29  17  30  1   
 30  17  31  1   
 31  18  21  1   
 32  18  32  1   
 33  18  33  1   
 34  19  22  1   
 35  19  34  1   
 36  19  35  1   
 37  20  36  1   
 38  21  22  1   
 39  21  37  1   
 40  21  38  1   
 41  22  39  1   
 42  22  40  1   
@<TRIPOS>SUBSTRUCTURE
  1 ****   2 GROUP 4 **** **** 0

# MOE 2024.06 (io_trps.svl 2023.06)
