@<TRIPOS>MOLECULE
NONAME
38 39 1 0 0 
SMALL
USER_CHARGES


@<TRIPOS>ATOM
  1 F        0.2440    -0.8190     0.0910 F     1 <1>  -0.1900 
  2 C        1.5040    -1.1590     0.1630 C.ar  1 <1>   0.1900 
  3 C        2.4240    -0.4710    -0.6050 C.ar  1 <1>  -0.1500 
  4 C        1.8680    -2.1920     1.0060 C.ar  1 <1>  -0.1500 
  5 C        3.7600    -0.8310    -0.5280 C.ar  1 <1>  -0.1500 
  6 C        3.2050    -2.5450     1.0770 C.ar  1 <1>  -0.1500 
  7 C        4.1530    -1.8720     0.3160 C.ar  1 <1>   0.0830 
  8 O        5.4380    -2.2860     0.4500 O.3   1 <1>  -0.3630 
  9 C        6.4830    -1.6820    -0.2680 C.3   1 <1>   0.1200 
 10 C        7.7740    -2.3960     0.1330 C.3   1 <1>  -0.1600 
 11 C        8.9740    -1.8070    -0.5980 C.3   1 <1>   0.3430 
 12 N       10.1950    -2.5270    -0.1640 N.4   1 <1>  -0.9060 
 13 C       11.4390    -2.0430    -0.7910 C.3   1 <1>   0.4230 
 14 C       12.5610    -2.9930    -0.3940 C.3   1 <1>  -0.1600 
 15 C       11.8630    -0.7320    -0.1350 C.3   1 <1>  -0.1600 
 16 C       12.9810    -2.5800     1.0230 C.3   1 <1>  -0.1600 
 17 C       12.5300    -1.1230     1.1900 C.3   1 <1>  -0.1600 
 18 H        2.0960     0.3270    -1.2470 H     1 <1>   0.1500 
 19 H        1.1230    -2.7030     1.5880 H     1 <1>   0.1500 
 20 H        4.4670    -0.2920    -1.1280 H     1 <1>   0.1500 
 21 H        3.5190    -3.3450     1.7230 H     1 <1>   0.1500 
 22 H        6.5140    -0.6390    -0.0040 H     1 <1>   0.0800 
 23 H        6.2800    -1.8000    -1.3200 H     1 <1>   0.0800 
 24 H        7.6740    -3.4400    -0.1110 H     1 <1>   0.0800 
 25 H        7.9050    -2.2870     1.1960 H     1 <1>   0.0800 
 26 H        9.0590    -0.7580    -0.3650 H     1 <1>   0.0800 
 27 H        8.8410    -1.9140    -1.6630 H     1 <1>   0.0800 
 28 H       10.0950    -3.5290    -0.3620 H     1 <1>   0.4500 
 29 H       10.3190    -2.4400     0.8510 H     1 <1>   0.4500 
 30 H       11.3350    -1.9620    -1.8620 H     1 <1>   0.0800 
 31 H       13.3930    -2.8260    -1.0570 H     1 <1>   0.0800 
 32 H       12.2870    -4.0320    -0.4610 H     1 <1>   0.0800 
 33 H       11.0610    -0.0290    -0.0020 H     1 <1>   0.0800 
 34 H       12.6050    -0.2690    -0.7640 H     1 <1>   0.0800 
 35 H       14.0480    -2.6730     1.1460 H     1 <1>   0.0800 
 36 H       12.5010    -3.2020     1.7590 H     1 <1>   0.0800 
 37 H       11.8320    -1.0440     2.0060 H     1 <1>   0.0800 
 38 H       13.3690    -0.4780     1.3990 H     1 <1>   0.0800 
@<TRIPOS>BOND
  1   1   2  1   
  2   2   3  ar  
  3   2   4  ar  
  4   3   5  ar  
  5   3  18  1   
  6   4   6  ar  
  7   4  19  1   
  8   5   7  ar  
  9   5  20  1   
 10   6   7  ar  
 11   6  21  1   
 12   7   8  1   
 13   8   9  1   
 14   9  10  1   
 15   9  22  1   
 16   9  23  1   
 17  10  11  1   
 18  10  24  1   
 19  10  25  1   
 20  11  12  1   
 21  11  26  1   
 22  11  27  1   
 23  12  13  1   
 24  12  28  1   
 25  12  29  1   
 26  13  14  1   
 27  13  15  1   
 28  13  30  1   
 29  14  16  1   
 30  14  31  1   
 31  14  32  1   
 32  15  17  1   
 33  15  33  1   
 34  15  34  1   
 35  16  17  1   
 36  16  35  1   
 37  16  36  1   
 38  17  37  1   
 39  17  38  1   
@<TRIPOS>SUBSTRUCTURE
  1 ****   9 GROUP 4 **** **** 0

# MOE 2024.06 (io_trps.svl 2023.06)
