@<TRIPOS>MOLECULE
NONAME
39 40 1 0 0 
SMALL
USER_CHARGES


@<TRIPOS>ATOM
  1 O       -7.0230     0.7740     0.4480 O.3   1 <1>  -0.5600 
  2 C       -6.5010    -0.5170     0.2820 C.3   1 <1>   0.1200 
  3 C       -6.7000     1.6610    -0.5890 C.3   1 <1>   0.1200 
  4 C       -4.9640    -0.4860     0.1030 C.3   1 <1>   0.3430 
  5 C       -5.1680     1.8280    -0.7190 C.3   1 <1>   0.3430 
  6 N       -4.4290     0.9120     0.2180 N.4   1 <1>  -0.9590 
  7 C       -2.9390     0.9570     0.0840 C.3   1 <1>   0.3430 
  8 C       -2.3480     2.3150     0.4960 C.3   1 <1>   0.1100 
  9 N       -0.8900     2.2370     0.4600 N.3   1 <1>  -0.9000 
 10 C       -0.2340     3.3700     1.1050 C.3   1 <1>   0.3100 
 11 C        1.1960     3.3350     0.7090 C.1   1 <1>  -0.2000 
 12 C        2.3400     3.3010     0.3820 C.1   1 <1>  -0.0730 
 13 C        3.7150     3.2500    -0.0140 C.ar  1 <1>   0.0730 
 14 C        4.3450     4.3690    -0.5430 C.ar  1 <1>  -0.1500 
 15 C        4.4480     2.0790     0.1230 C.ar  1 <1>  -0.1500 
 16 C        5.6730     4.3200    -0.9280 C.ar  1 <1>  -0.1500 
 17 C        5.7770     2.0230    -0.2610 C.ar  1 <1>  -0.1500 
 18 C        6.3910     3.1460    -0.7870 C.ar  1 <1>  -0.1500 
 19 H       -6.9750    -0.9760    -0.5690 H     1 <1>   0.0800 
 20 H       -6.7600    -1.0880     1.1570 H     1 <1>   0.0800 
 21 H       -7.1600     2.6090    -0.3670 H     1 <1>   0.0800 
 22 H       -7.1240     1.2890    -1.5060 H     1 <1>   0.0800 
 23 H       -4.7180    -0.8960    -0.8630 H     1 <1>   0.0800 
 24 H       -4.5120    -1.1200     0.8490 H     1 <1>   0.0800 
 25 H       -4.9120     2.8540    -0.5100 H     1 <1>   0.0800 
 26 H       -4.8810     1.6250    -1.7380 H     1 <1>   0.0800 
 27 H       -4.7010     1.2140     1.1670 H     1 <1>   0.4500 
 28 H       -2.6580     0.7420    -0.9340 H     1 <1>   0.0800 
 29 H       -2.5020     0.2030     0.7190 H     1 <1>   0.0800 
 30 H       -2.6610     2.5420     1.5020 H     1 <1>   0.0800 
 31 H       -2.6810     3.0950    -0.1680 H     1 <1>   0.0800 
 32 H       -0.5340     2.2210    -0.5080 H     1 <1>   0.3600 
 33 H       -0.3240     3.2930     2.1750 H     1 <1>   0.0800 
 34 H       -0.6680     4.2990     0.7750 H     1 <1>   0.0800 
 35 H        3.7890     5.2830    -0.6530 H     1 <1>   0.1500 
 36 H        3.9710     1.2050     0.5320 H     1 <1>   0.1500 
 37 H        6.1480     5.1950    -1.3370 H     1 <1>   0.1500 
 38 H        6.3310     1.1080    -0.1490 H     1 <1>   0.1500 
 39 H        7.4240     3.1050    -1.0860 H     1 <1>   0.1500 
@<TRIPOS>BOND
  1   1   2  1   
  2   1   3  1   
  3   2   4  1   
  4   2  19  1   
  5   2  20  1   
  6   3   5  1   
  7   3  21  1   
  8   3  22  1   
  9   4   6  1   
 10   4  23  1   
 11   4  24  1   
 12   5   6  1   
 13   5  25  1   
 14   5  26  1   
 15   6   7  1   
 16   6  27  1   
 17   7   8  1   
 18   7  28  1   
 19   7  29  1   
 20   8   9  1   
 21   8  30  1   
 22   8  31  1   
 23   9  10  1   
 24   9  32  1   
 25  10  11  1   
 26  10  33  1   
 27  10  34  1   
 28  11  12  3   
 29  12  13  1   
 30  13  14  ar  
 31  13  15  ar  
 32  14  16  ar  
 33  14  35  1   
 34  15  17  ar  
 35  15  36  1   
 36  16  18  ar  
 37  16  37  1   
 38  17  18  ar  
 39  17  38  1   
 40  18  39  1   
@<TRIPOS>SUBSTRUCTURE
  1 ****   9 GROUP 4 **** **** 0

# MOE 2024.06 (io_trps.svl 2023.06)
