@<TRIPOS>MOLECULE
NONAME
48 50 1 0 0 
SMALL
USER_CHARGES


@<TRIPOS>ATOM
  1 O       -0.7910    -3.6440     1.6530 O.2   1 <1>  -0.5700 
  2 C       -0.8500    -4.0060     0.5040 C.2   1 <1>   0.5690 
  3 N       -1.6520    -3.4140    -0.4280 N.am  1 <1>  -0.7300 
  4 C        0.0790    -5.1580     0.0920 C.3   1 <1>   0.4040 
  5 C       -2.5660    -2.2710    -0.2320 C.3   1 <1>   0.3000 
  6 N        1.4830    -4.7320    -0.2990 N.4   1 <1>  -0.9590 
  7 C       -1.7900    -1.0150     0.2130 C.3   1 <1>  -0.1600 
  8 C       -3.6570    -2.6070     0.8030 C.3   1 <1>  -0.1600 
  9 C       -3.2400    -1.9830    -1.5870 C.3   1 <1>  -0.1600 
 10 C        2.2860    -5.8990    -0.7450 C.3   1 <1>   0.3430 
 11 C        2.1380    -3.9890     0.8170 C.3   1 <1>   0.3430 
 12 C       -2.7560     0.1770     0.3570 C.3   1 <1>  -0.0800 
 13 C       -4.6280    -1.4190     0.9490 C.3   1 <1>  -0.0800 
 14 C       -4.2120    -0.7950    -1.4610 C.3   1 <1>  -0.0800 
 15 C        3.5020    -5.4140    -1.5240 C.3   1 <1>  -0.2400 
 16 C        2.2390    -2.5230     0.4200 C.3   1 <1>  -0.2400 
 17 C       -3.8380    -0.1740     1.3980 C.3   1 <1>  -0.1600 
 18 C       -3.4310     0.4500    -1.0000 C.3   1 <1>  -0.1600 
 19 C       -5.2880    -1.1340    -0.4130 C.3   1 <1>  -0.1600 
 20 H       -1.7210    -3.7850    -1.3750 H     1 <1>   0.3700 
 21 H       -0.3820    -5.6810    -0.7280 H     1 <1>   0.0800 
 22 H        0.1330    -5.8380     0.9250 H     1 <1>   0.0800 
 23 H        1.4080    -4.0710    -1.0830 H     1 <1>   0.4500 
 24 H       -1.0300    -0.7750    -0.5090 H     1 <1>   0.0800 
 25 H       -1.3150    -1.1870     1.1620 H     1 <1>   0.0800 
 26 H       -3.2130    -2.8080     1.7620 H     1 <1>   0.0800 
 27 H       -4.2030    -3.4810     0.4950 H     1 <1>   0.0800 
 28 H       -3.7880    -2.8480    -1.9180 H     1 <1>   0.0800 
 29 H       -2.4950    -1.7470    -2.3270 H     1 <1>   0.0800 
 30 H        1.6910    -6.5280    -1.3890 H     1 <1>   0.0800 
 31 H        2.5980    -6.4860     0.1050 H     1 <1>   0.0800 
 32 H        3.1260    -4.3780     1.0010 H     1 <1>   0.0800 
 33 H        1.5650    -4.0830     1.7280 H     1 <1>   0.0800 
 34 H       -2.2140     1.0500     0.6770 H     1 <1>   0.0800 
 35 H       -5.3840    -1.6530     1.6790 H     1 <1>   0.0800 
 36 H       -4.6800    -0.5990    -2.4120 H     1 <1>   0.0800 
 37 H        3.2040    -4.8270    -2.3750 H     1 <1>   0.0800 
 38 H        4.0510    -6.2650    -1.8860 H     1 <1>   0.0800 
 39 H        4.1660    -4.8400    -0.9030 H     1 <1>   0.0800 
 40 H        2.8350    -2.4030    -0.4660 H     1 <1>   0.0800 
 41 H        2.7140    -1.9760     1.2160 H     1 <1>   0.0800 
 42 H        1.2640    -2.0940     0.2690 H     1 <1>   0.0800 
 43 H       -3.3780    -0.3590     2.3530 H     1 <1>   0.0800 
 44 H       -4.5100     0.6580     1.5170 H     1 <1>   0.0800 
 45 H       -2.6870     0.7090    -1.7340 H     1 <1>   0.0800 
 46 H       -4.1010     1.2870    -0.9100 H     1 <1>   0.0800 
 47 H       -5.9750    -0.3100    -0.3170 H     1 <1>   0.0800 
 48 H       -5.8540    -1.9920    -0.7320 H     1 <1>   0.0800 
@<TRIPOS>BOND
  1   1   2  2   
  2   2   3  am  
  3   2   4  1   
  4   3   5  1   
  5   3  20  1   
  6   4   6  1   
  7   4  21  1   
  8   4  22  1   
  9   5   7  1   
 10   5   8  1   
 11   5   9  1   
 12   6  10  1   
 13   6  11  1   
 14   6  23  1   
 15   7  12  1   
 16   7  24  1   
 17   7  25  1   
 18   8  13  1   
 19   8  26  1   
 20   8  27  1   
 21   9  14  1   
 22   9  28  1   
 23   9  29  1   
 24  10  15  1   
 25  10  30  1   
 26  10  31  1   
 27  11  16  1   
 28  11  32  1   
 29  11  33  1   
 30  12  17  1   
 31  12  18  1   
 32  12  34  1   
 33  13  17  1   
 34  13  19  1   
 35  13  35  1   
 36  14  18  1   
 37  14  19  1   
 38  14  36  1   
 39  15  37  1   
 40  15  38  1   
 41  15  39  1   
 42  16  40  1   
 43  16  41  1   
 44  16  42  1   
 45  17  43  1   
 46  17  44  1   
 47  18  45  1   
 48  18  46  1   
 49  19  47  1   
 50  19  48  1   
@<TRIPOS>SUBSTRUCTURE
  1 ****   3 GROUP 4 **** **** 0

# MOE 2024.06 (io_trps.svl 2023.06)
