@<TRIPOS>MOLECULE
NONAME
34 35 1 0 0 
SMALL
USER_CHARGES


@<TRIPOS>ATOM
  1 O        0.3250     0.0050     0.0080 O.2   1 <1>  -0.5700 
  2 C        0.7440     1.1440    -0.0740 C.2   1 <1>   0.6900 
  3 N        2.0920     1.3730    -0.1590 N.am  1 <1>  -0.6600 
  4 N       -0.1000     2.2180    -0.1030 N.am  1 <1>  -0.5470 
  5 C        3.0770     0.2710    -0.0990 C.3   1 <1>   0.1400 
  6 C        2.7610     2.6890    -0.0650 C.3   1 <1>   0.1400 
  7 C       -1.4900     2.3240     0.0510 C.ar  1 <1>   0.1170 
  8 C        4.3820     0.9390     0.3190 C.3   1 <1>  -0.1600 
  9 C        4.2510     2.3790    -0.1670 C.3   1 <1>  -0.1600 
 10 C       -2.1340     3.4490    -0.4510 C.ar  1 <1>  -0.1500 
 11 C       -2.2580     1.3650     0.7030 C.ar  1 <1>  -0.1500 
 12 C       -3.5010     3.6110    -0.3110 C.ar  1 <1>  -0.1500 
 13 C       -3.6250     1.5230     0.8430 C.ar  1 <1>  -0.1500 
 14 C       -4.2570     2.6490     0.3390 C.ar  1 <1>  -0.1440 
 15 C       -5.7590     2.8220     0.4940 C.3   1 <1>  -0.0170 
 16 C       -6.4960     2.2140    -0.7010 C.3   1 <1>  -0.2400 
 17 H        0.3740     3.0750    -0.3540 H     1 <1>   0.3700 
 18 H        3.1690    -0.1680    -1.0770 H     1 <1>   0.0800 
 19 H        2.7720    -0.4830     0.6070 H     1 <1>   0.0800 
 20 H        2.5350     3.1320     0.8910 H     1 <1>   0.0800 
 21 H        2.4450     3.3420    -0.8610 H     1 <1>   0.0800 
 22 H        5.2380     0.4380    -0.0980 H     1 <1>   0.0800 
 23 H        4.4530     0.9190     1.3930 H     1 <1>   0.0800 
 24 H        4.8430     3.0640     0.4140 H     1 <1>   0.0800 
 25 H        4.5510     2.4430    -1.1980 H     1 <1>   0.0800 
 26 H       -1.5650     4.2040    -0.9600 H     1 <1>   0.1500 
 27 H       -1.7890     0.4860     1.1060 H     1 <1>   0.1500 
 28 H       -3.9770     4.4880    -0.7110 H     1 <1>   0.1500 
 29 H       -4.1950     0.7630     1.3480 H     1 <1>   0.1500 
 30 H       -5.9970     3.8690     0.5720 H     1 <1>   0.0800 
 31 H       -6.0870     2.3450     1.4010 H     1 <1>   0.0800 
 32 H       -6.1870     2.6960    -1.6110 H     1 <1>   0.0800 
 33 H       -7.5580     2.3380    -0.5850 H     1 <1>   0.0800 
 34 H       -6.2750     1.1640    -0.7760 H     1 <1>   0.0800 
@<TRIPOS>BOND
  1   1   2  2   
  2   2   3  am  
  3   2   4  am  
  4   3   5  1   
  5   3   6  1   
  6   4   7  1   
  7   4  17  1   
  8   5   8  1   
  9   5  18  1   
 10   5  19  1   
 11   6   9  1   
 12   6  20  1   
 13   6  21  1   
 14   7  10  ar  
 15   7  11  ar  
 16   8   9  1   
 17   8  22  1   
 18   8  23  1   
 19   9  24  1   
 20   9  25  1   
 21  10  12  ar  
 22  10  26  1   
 23  11  13  ar  
 24  11  27  1   
 25  12  14  ar  
 26  12  28  1   
 27  13  14  ar  
 28  13  29  1   
 29  14  15  1   
 30  15  16  1   
 31  15  30  1   
 32  15  31  1   
 33  16  32  1   
 34  16  33  1   
 35  16  34  1   
@<TRIPOS>SUBSTRUCTURE
  1 ****   4 GROUP 4 **** **** 0

# MOE 2024.06 (io_trps.svl 2023.06)
