@<TRIPOS>MOLECULE
NONAME
48 50 1 0 0 
SMALL
USER_CHARGES


@<TRIPOS>ATOM
  1 CL       0.1890     0.2190    -0.3150 Cl    1 <1>  -0.1770 
  2 C        1.1200    -1.2470    -0.1130 C.ar  1 <1>   0.1770 
  3 C        0.5240    -2.3870     0.4050 C.ar  1 <1>  -0.1440 
  4 C        2.4510    -1.2270    -0.4820 C.ar  1 <1>  -0.1500 
  5 C        1.3030    -3.5260     0.5440 C.ar  1 <1>  -0.1500 
  6 C       -0.9430    -2.4010     0.8080 C.3   1 <1>  -0.0960 
  7 C        3.2430    -2.3620    -0.3310 C.ar  1 <1>   0.0530 
  8 C        2.6380    -3.5090     0.1780 C.ar  1 <1>  -0.1500 
  9 C        4.6410    -2.3680    -0.6880 C.2   1 <1>   0.1330 
 10 N        5.2080    -3.2490    -1.4660 N.2   1 <1>  -0.3380 
 11 N        5.5500    -1.4710    -0.2530 N.pl3 1 <1>   0.0480 
 12 N        6.5000    -2.9380    -1.5690 N.2   1 <1>  -0.3380 
 13 C        6.6630    -1.8910    -0.8440 C.2   1 <1>   0.2430 
 14 C        5.3790    -0.3380     0.6810 C.3   1 <1>   0.0160 
 15 S        8.2450    -1.0680    -0.6390 S.3   1 <1>  -0.2860 
 16 C        9.3680    -2.0640    -1.7400 C.3   1 <1>   0.1310 
 17 C       10.8020    -1.5610    -1.6820 C.2   1 <1>   0.5690 
 18 O       11.5360    -1.8140    -2.6070 O.2   1 <1>  -0.5700 
 19 N       11.2270    -0.8580    -0.5990 N.am  1 <1>  -0.7300 
 20 C       12.5770    -0.3100    -0.4070 C.3   1 <1>   0.2200 
 21 C       13.1650    -0.8870     0.8850 C.3   1 <1>  -0.1600 
 22 C       12.4870     1.2180    -0.3440 C.3   1 <1>  -0.1600 
 23 C       14.5350    -0.2660     1.1970 C.3   1 <1>  -0.1600 
 24 C       13.8550     1.8430    -0.0340 C.3   1 <1>  -0.1600 
 25 C       14.4490     1.2650     1.2580 C.3   1 <1>  -0.1600 
 26 H        2.8660    -0.3270    -0.8950 H     1 <1>   0.1500 
 27 H        0.8740    -4.4330     0.9340 H     1 <1>   0.1500 
 28 H       -1.1220    -1.6650     1.5700 H     1 <1>   0.0800 
 29 H       -1.2300    -3.3640     1.1890 H     1 <1>   0.0800 
 30 H       -1.5590    -2.1740    -0.0440 H     1 <1>   0.0800 
 31 H        3.2300    -4.4030     0.2840 H     1 <1>   0.1500 
 32 H        4.5580    -0.5350     1.3460 H     1 <1>   0.0800 
 33 H        5.1840     0.5580     0.1220 H     1 <1>   0.0800 
 34 H        6.2740    -0.2090     1.2620 H     1 <1>   0.0800 
 35 H        8.9840    -1.9850    -2.7400 H     1 <1>   0.0800 
 36 H        9.3170    -3.0850    -1.4120 H     1 <1>   0.0800 
 37 H       10.5530    -0.6330     0.1340 H     1 <1>   0.3700 
 38 H       13.2060    -0.5920    -1.2360 H     1 <1>   0.0800 
 39 H       13.2740    -1.9520     0.7790 H     1 <1>   0.0800 
 40 H       12.4980    -0.6910     1.7050 H     1 <1>   0.0800 
 41 H       11.7890     1.5070     0.4220 H     1 <1>   0.0800 
 42 H       12.1320     1.5900    -1.2890 H     1 <1>   0.0800 
 43 H       15.2380    -0.5530     0.4330 H     1 <1>   0.0800 
 44 H       14.8980    -0.6460     2.1370 H     1 <1>   0.0800 
 45 H       13.7520     2.9100     0.0610 H     1 <1>   0.0800 
 46 H       14.5280     1.6490    -0.8520 H     1 <1>   0.0800 
 47 H       15.4320     1.6750     1.4170 H     1 <1>   0.0800 
 48 H       13.8350     1.5550     2.0940 H     1 <1>   0.0800 
@<TRIPOS>BOND
  1   1   2  1   
  2   2   3  ar  
  3   2   4  ar  
  4   3   5  ar  
  5   3   6  1   
  6   4   7  ar  
  7   4  26  1   
  8   5   8  ar  
  9   5  27  1   
 10   6  28  1   
 11   6  29  1   
 12   6  30  1   
 13   7   8  ar  
 14   7   9  1   
 15   8  31  1   
 16   9  10  2   
 17   9  11  1   
 18  10  12  1   
 19  11  13  1   
 20  11  14  1   
 21  12  13  2   
 22  13  15  1   
 23  14  32  1   
 24  14  33  1   
 25  14  34  1   
 26  15  16  1   
 27  16  17  1   
 28  16  35  1   
 29  16  36  1   
 30  17  18  2   
 31  17  19  am  
 32  19  20  1   
 33  19  37  1   
 34  20  21  1   
 35  20  22  1   
 36  20  38  1   
 37  21  23  1   
 38  21  39  1   
 39  21  40  1   
 40  22  24  1   
 41  22  41  1   
 42  22  42  1   
 43  23  25  1   
 44  23  43  1   
 45  23  44  1   
 46  24  25  1   
 47  24  45  1   
 48  24  46  1   
 49  25  47  1   
 50  25  48  1   
@<TRIPOS>SUBSTRUCTURE
  1 ****  13 GROUP 4 **** **** 0

# MOE 2024.06 (io_trps.svl 2023.06)
