@<TRIPOS>MOLECULE
NONAME
55 56 1 0 0 
SMALL
USER_CHARGES


@<TRIPOS>ATOM
  1 O        2.1520    -1.9030     1.8200 O.2   1 <1>  -0.5700 
  2 C        2.3130    -1.8690     0.6220 C.2   1 <1>   0.5690 
  3 N        1.4140    -2.4430    -0.2430 N.am  1 <1>  -0.6600 
  4 C        3.5630    -1.1530     0.1160 C.3   1 <1>  -0.0190 
  5 C        1.4900    -2.3900    -1.7290 C.3   1 <1>   0.1400 
  6 C        0.2110    -3.1430     0.2890 C.3   1 <1>   0.1400 
  7 C        4.6680    -1.2960     1.1840 C.3   1 <1>   0.3430 
  8 C        3.2610     0.3250    -0.2370 C.3   1 <1>  -0.1600 
  9 C        2.1890    -3.6430    -2.2520 C.3   1 <1>  -0.2400 
 10 C       -0.9510    -2.1580     0.3920 C.3   1 <1>  -0.2400 
 11 N        5.7130    -0.2320     1.0640 N.4   1 <1>  -0.9590 
 12 C        3.6790     1.2640     0.9040 C.3   1 <1>  -0.1600 
 13 C        5.1740     1.1580     1.2460 C.3   1 <1>   0.3430 
 14 C        6.5310    -0.3690    -0.1680 C.3   1 <1>   0.4860 
 15 C        7.7380     0.5350    -0.0460 C.ar  1 <1>  -0.1440 
 16 C        8.6720     0.3280     0.9640 C.ar  1 <1>   0.0820 
 17 C        7.9110     1.5770    -0.9420 C.ar  1 <1>  -0.1500 
 18 O        8.4450    -0.7030     1.8240 O.3   1 <1>  -0.3630 
 19 C        9.7760     1.1720     1.0610 C.ar  1 <1>  -0.1500 
 20 C        9.0030     2.4200    -0.8430 C.ar  1 <1>   0.0820 
 21 C        9.4440    -1.1200     2.7350 C.3   1 <1>   0.0400 
 22 C        9.9410     2.2120     0.1640 C.ar  1 <1>  -0.1500 
 23 O        9.0790     3.4160    -1.7600 O.3   1 <1>  -0.3620 
 24 C       10.1830     4.2940    -1.7940 C.3   1 <1>   0.0400 
 25 H        3.9010    -1.6610    -0.7660 H     1 <1>   0.0800 
 26 H        2.0180    -1.5100    -2.0490 H     1 <1>   0.0800 
 27 H        0.4960    -2.3330    -2.1400 H     1 <1>   0.0800 
 28 H        0.4230    -3.5510     1.2640 H     1 <1>   0.0800 
 29 H       -0.0550    -3.9630    -0.3570 H     1 <1>   0.0800 
 30 H        5.1120    -2.2750     1.1180 H     1 <1>   0.0800 
 31 H        4.2190    -1.2110     2.1610 H     1 <1>   0.0800 
 32 H        2.2110     0.4520    -0.4430 H     1 <1>   0.0800 
 33 H        3.7960     0.6000    -1.1290 H     1 <1>   0.0800 
 34 H        3.1820    -3.7240    -1.8520 H     1 <1>   0.0800 
 35 H        2.2540    -3.5990    -3.3240 H     1 <1>   0.0800 
 36 H        1.6290    -4.5220    -1.9870 H     1 <1>   0.0800 
 37 H       -0.6930    -1.3520     1.0570 H     1 <1>   0.0800 
 38 H       -1.8140    -2.6600     0.7900 H     1 <1>   0.0800 
 39 H       -1.2050    -1.7600    -0.5730 H     1 <1>   0.0800 
 40 H        6.4150    -0.3800     1.8110 H     1 <1>   0.4500 
 41 H        3.1030     1.0310     1.7840 H     1 <1>   0.0800 
 42 H        3.4530     2.2830     0.6430 H     1 <1>   0.0800 
 43 H        5.7280     1.8430     0.6240 H     1 <1>   0.0800 
 44 H        5.3150     1.4690     2.2690 H     1 <1>   0.0800 
 45 H        5.9520    -0.1010    -1.0360 H     1 <1>   0.0800 
 46 H        6.8680    -1.3870    -0.2750 H     1 <1>   0.0800 
 47 H        7.2060     1.7590    -1.7350 H     1 <1>   0.1500 
 48 H       10.5170     1.0410     1.8280 H     1 <1>   0.1500 
 49 H        9.6230    -0.3330     3.4470 H     1 <1>   0.0800 
 50 H       10.3420    -1.3530     2.1900 H     1 <1>   0.0800 
 51 H        9.0920    -1.9980     3.2460 H     1 <1>   0.0800 
 52 H       10.8000     2.8490     0.2630 H     1 <1>   0.1500 
 53 H       10.0410     4.9780    -2.6110 H     1 <1>   0.0800 
 54 H       11.0810     3.7230    -1.9490 H     1 <1>   0.0800 
 55 H       10.2270     4.8390    -0.8670 H     1 <1>   0.0800 
@<TRIPOS>BOND
  1   1   2  2   
  2   2   3  am  
  3   2   4  1   
  4   3   5  1   
  5   3   6  1   
  6   4   7  1   
  7   4   8  1   
  8   4  25  1   
  9   5   9  1   
 10   5  26  1   
 11   5  27  1   
 12   6  10  1   
 13   6  28  1   
 14   6  29  1   
 15   7  11  1   
 16   7  30  1   
 17   7  31  1   
 18   8  12  1   
 19   8  32  1   
 20   8  33  1   
 21   9  34  1   
 22   9  35  1   
 23   9  36  1   
 24  10  37  1   
 25  10  38  1   
 26  10  39  1   
 27  11  13  1   
 28  11  14  1   
 29  11  40  1   
 30  12  13  1   
 31  12  41  1   
 32  12  42  1   
 33  13  43  1   
 34  13  44  1   
 35  14  15  1   
 36  14  45  1   
 37  14  46  1   
 38  15  16  ar  
 39  15  17  ar  
 40  16  18  1   
 41  16  19  ar  
 42  17  20  ar  
 43  17  47  1   
 44  18  21  1   
 45  19  22  ar  
 46  19  48  1   
 47  20  22  ar  
 48  20  23  1   
 49  21  49  1   
 50  21  50  1   
 51  21  51  1   
 52  22  52  1   
 53  23  24  1   
 54  24  53  1   
 55  24  54  1   
 56  24  55  1   
@<TRIPOS>SUBSTRUCTURE
  1 ****  11 GROUP 4 **** **** 0

# MOE 2024.06 (io_trps.svl 2023.06)
