@<TRIPOS>MOLECULE
NONAME
34 35 1 0 0 
SMALL
USER_CHARGES


@<TRIPOS>ATOM
  1 S        0.1340    -1.6900    -0.2370 S.3   1 <1>  -0.2860 
  2 C       -1.4380    -1.2370     0.5070 C.2   1 <1>   0.2420 
  3 C        1.3470    -0.7060     0.7470 C.3   1 <1>   0.2140 
  4 N       -1.5350    -0.3830     1.4620 N.2   1 <1>  -0.3380 
  5 N       -2.6080    -1.7580     0.1250 N.pl3 1 <1>   0.0480 
  6 C        2.7250    -0.8950     0.1310 C.ar  1 <1>  -0.1440 
  7 N       -2.8340    -0.3140     1.7540 N.2   1 <1>  -0.3380 
  8 C       -3.4550    -1.1270     0.9650 C.2   1 <1>   0.0070 
  9 C       -2.8140    -2.7830    -0.9390 C.3   1 <1>   0.1760 
 10 C        3.6960    -1.6790     0.7360 C.ar  1 <1>   0.1900 
 11 C        3.0470    -0.2750    -1.0680 C.ar  1 <1>  -0.1500 
 12 C       -4.9600    -1.3090     1.0230 C.3   1 <1>  -0.0600 
 13 C       -3.9090    -2.3770    -1.9340 C.3   1 <1>  -0.2400 
 14 C       -3.1010    -4.1560    -0.3200 C.3   1 <1>  -0.2400 
 15 F        3.4300    -2.2770     1.8670 F     1 <1>  -0.1900 
 16 C        4.9540    -1.8580     0.1900 C.ar  1 <1>  -0.1500 
 17 C        4.3030    -0.4420    -1.6310 C.ar  1 <1>  -0.1500 
 18 C        5.2570    -1.2310    -1.0060 C.ar  1 <1>  -0.1500 
 19 H        1.2920    -1.0560     1.7630 H     1 <1>   0.0800 
 20 H        1.0360     0.3220     0.7020 H     1 <1>   0.0800 
 21 H       -1.8990    -2.8630    -1.4980 H     1 <1>   0.0800 
 22 H        2.3170     0.3380    -1.5700 H     1 <1>   0.1500 
 23 H       -5.2180    -2.3490     1.0650 H     1 <1>   0.0800 
 24 H       -5.4200    -0.8540     0.1660 H     1 <1>   0.0800 
 25 H       -5.3470    -0.8300     1.9050 H     1 <1>   0.0800 
 26 H       -4.8860    -2.4400    -1.4930 H     1 <1>   0.0800 
 27 H       -3.8900    -3.0410    -2.7800 H     1 <1>   0.0800 
 28 H       -3.7370    -1.3770    -2.2900 H     1 <1>   0.0800 
 29 H       -2.3020    -4.4330     0.3460 H     1 <1>   0.0800 
 30 H       -3.1650    -4.9000    -1.0930 H     1 <1>   0.0800 
 31 H       -4.0270    -4.1530     0.2240 H     1 <1>   0.0800 
 32 H        5.6760    -2.4750     0.6940 H     1 <1>   0.1500 
 33 H        4.5390     0.0440    -2.5630 H     1 <1>   0.1500 
 34 H        6.2300    -1.3560    -1.4500 H     1 <1>   0.1500 
@<TRIPOS>BOND
  1   1   2  1   
  2   1   3  1   
  3   2   4  2   
  4   2   5  1   
  5   3   6  1   
  6   3  19  1   
  7   3  20  1   
  8   4   7  1   
  9   5   8  1   
 10   5   9  1   
 11   6  10  ar  
 12   6  11  ar  
 13   7   8  2   
 14   8  12  1   
 15   9  13  1   
 16   9  14  1   
 17   9  21  1   
 18  10  15  1   
 19  10  16  ar  
 20  11  17  ar  
 21  11  22  1   
 22  12  23  1   
 23  12  24  1   
 24  12  25  1   
 25  13  26  1   
 26  13  27  1   
 27  13  28  1   
 28  14  29  1   
 29  14  30  1   
 30  14  31  1   
 31  16  18  ar  
 32  16  32  1   
 33  17  18  ar  
 34  17  33  1   
 35  18  34  1   
@<TRIPOS>SUBSTRUCTURE
  1 ****   1 GROUP 4 **** **** 0

# MOE 2024.06 (io_trps.svl 2023.06)
