@<TRIPOS>MOLECULE
NONAME
42 43 1 0 0 
SMALL
USER_CHARGES


@<TRIPOS>ATOM
  1 BR       1.7920     2.0320     3.2380 Br    1 <1>  -0.1110 
  2 C        2.6150     2.1380     1.4960 C.ar  1 <1>   0.1110 
  3 C        2.2900     3.1780     0.6380 C.ar  1 <1>   0.0820 
  4 C        3.5170     1.1460     1.1590 C.ar  1 <1>  -0.1500 
  5 O        1.3750     4.1010     1.0270 O.3   1 <1>  -0.3630 
  6 C        2.9250     3.2260    -0.6090 C.ar  1 <1>   0.0830 
  7 C        4.1280     1.1880    -0.0870 C.ar  1 <1>  -0.1440 
  8 C        0.0480     3.8470     0.6240 C.3   1 <1>   0.0400 
  9 O        2.7400     4.1970    -1.5400 O.3   1 <1>  -0.3630 
 10 C        3.8200     2.2250    -0.9590 C.ar  1 <1>  -0.1500 
 11 C        5.1290     0.1300    -0.4920 C.3   1 <1>   0.4860 
 12 C        2.6050     5.5440    -1.1400 C.3   1 <1>   0.1200 
 13 N        6.4620     0.6680    -0.1660 N.4   1 <1>  -0.9060 
 14 C        3.0080     6.4280    -2.3170 C.3   1 <1>  -0.2400 
 15 C        7.5900    -0.2110    -0.5220 C.3   1 <1>   0.4860 
 16 C        8.8420     0.5240    -0.1070 C.ar  1 <1>  -0.1430 
 17 C        9.3650     0.3490     1.1670 C.ar  1 <1>  -0.1500 
 18 C        9.4710     1.3870    -0.9930 C.ar  1 <1>  -0.1500 
 19 C       10.5010     1.0400     1.5520 C.ar  1 <1>  -0.1500 
 20 C       10.6060     2.0760    -0.6050 C.ar  1 <1>  -0.1500 
 21 C       11.1200     1.9040     0.6680 C.ar  1 <1>  -0.1500 
 22 H        3.7180     0.3640     1.8710 H     1 <1>   0.1500 
 23 H       -0.5700     4.6550     0.9730 H     1 <1>   0.0800 
 24 H       -0.2800     2.9200     1.0610 H     1 <1>   0.0800 
 25 H        0.0110     3.7910    -0.4500 H     1 <1>   0.0800 
 26 H        4.2690     2.2850    -1.9360 H     1 <1>   0.1500 
 27 H        5.0470    -0.0660    -1.5490 H     1 <1>   0.0800 
 28 H        4.9430    -0.7830     0.0510 H     1 <1>   0.0800 
 29 H        3.2430     5.7220    -0.2910 H     1 <1>   0.0800 
 30 H        1.5790     5.7210    -0.8710 H     1 <1>   0.0800 
 31 H        6.5130     0.8840     0.8360 H     1 <1>   0.4500 
 32 H        6.5880     1.5740    -0.6320 H     1 <1>   0.4500 
 33 H        4.0310     6.2420    -2.5880 H     1 <1>   0.0800 
 34 H        2.9090     7.4630    -2.0420 H     1 <1>   0.0800 
 35 H        2.3690     6.2350    -3.1600 H     1 <1>   0.0800 
 36 H        7.6080    -0.3990    -1.5840 H     1 <1>   0.0800 
 37 H        7.5240    -1.1510     0.0020 H     1 <1>   0.0800 
 38 H        8.9060    -0.3210     1.8740 H     1 <1>   0.1500 
 39 H        9.0960     1.5360    -1.9920 H     1 <1>   0.1500 
 40 H       10.9100     0.9050     2.5400 H     1 <1>   0.1500 
 41 H       11.0970     2.7470    -1.2910 H     1 <1>   0.1500 
 42 H       12.0050     2.4400     0.9680 H     1 <1>   0.1500 
@<TRIPOS>BOND
  1   1   2  1   
  2   2   3  ar  
  3   2   4  ar  
  4   3   5  1   
  5   3   6  ar  
  6   4   7  ar  
  7   4  22  1   
  8   5   8  1   
  9   6   9  1   
 10   6  10  ar  
 11   7  10  ar  
 12   7  11  1   
 13   8  23  1   
 14   8  24  1   
 15   8  25  1   
 16   9  12  1   
 17  10  26  1   
 18  11  13  1   
 19  11  27  1   
 20  11  28  1   
 21  12  14  1   
 22  12  29  1   
 23  12  30  1   
 24  13  15  1   
 25  13  31  1   
 26  13  32  1   
 27  14  33  1   
 28  14  34  1   
 29  14  35  1   
 30  15  16  1   
 31  15  36  1   
 32  15  37  1   
 33  16  17  ar  
 34  16  18  ar  
 35  17  19  ar  
 36  17  38  1   
 37  18  20  ar  
 38  18  39  1   
 39  19  21  ar  
 40  19  40  1   
 41  20  21  ar  
 42  20  41  1   
 43  21  42  1   
@<TRIPOS>SUBSTRUCTURE
  1 ****   7 GROUP 4 **** **** 0

# MOE 2024.06 (io_trps.svl 2023.06)
