@<TRIPOS>MOLECULE
NONAME
53 55 1 0 0 
SMALL
USER_CHARGES


@<TRIPOS>ATOM
  1 O        0.4080     0.6580    -0.4430 O.2   1 <1>  -0.5700 
  2 C        0.2590     1.7200     0.1310 C.2   1 <1>   0.5440 
  3 N        1.3520     2.3160     0.7340 N.am  1 <1>  -0.6600 
  4 C       -1.0580     2.3260     0.1540 C.ar  1 <1>   0.0860 
  5 C        2.6520     1.6010     0.8640 C.3   1 <1>   0.1400 
  6 C        1.3930     3.7510     1.1290 C.3   1 <1>   0.1400 
  7 C       -1.6860     2.6680     1.3520 C.ar  1 <1>  -0.1500 
  8 C       -1.7470     2.5830    -1.0310 C.ar  1 <1>  -0.1500 
  9 C        3.7190     2.3140     0.0290 C.3   1 <1>  -0.1600 
 10 C        2.4580     4.4800     0.3060 C.3   1 <1>  -0.1600 
 11 C       -2.9360     3.2580     1.3640 C.ar  1 <1>  -0.1500 
 12 C       -2.9980     3.1720    -1.0280 C.ar  1 <1>  -0.1500 
 13 C        3.8400     3.8010     0.4150 C.3   1 <1>  -0.0190 
 14 C       -3.6020     3.5190     0.1770 C.ar  1 <1>   0.0820 
 15 C        4.9160     4.5000    -0.4190 C.2   1 <1>   0.5690 
 16 O       -4.8180     4.1010     0.2720 O.3   1 <1>  -0.3630 
 17 O        4.5930     5.1860    -1.3570 O.2   1 <1>  -0.5700 
 18 N        6.2180     4.2910    -0.0500 N.am  1 <1>  -0.5470 
 19 C       -5.5980     4.3800    -0.8690 C.3   1 <1>   0.0400 
 20 C        7.4220     4.7840    -0.5850 C.ar  1 <1>   0.1170 
 21 C        8.5990     4.0350    -0.4650 C.ar  1 <1>  -0.1440 
 22 C        7.4690     6.0250    -1.2120 C.ar  1 <1>  -0.1500 
 23 C        9.7850     4.5560    -0.9720 C.ar  1 <1>  -0.1500 
 24 C        8.5530     2.6600     0.2160 C.3   1 <1>  -0.0170 
 25 C        8.6530     6.5280    -1.7150 C.ar  1 <1>  -0.1500 
 26 C        9.8140     5.7910    -1.5930 C.ar  1 <1>  -0.1500 
 27 C        9.8460     1.8370     0.1640 C.3   1 <1>  -0.2400 
 28 H        2.5620     0.5790     0.5370 H     1 <1>   0.0800 
 29 H        2.9400     1.5880     1.9010 H     1 <1>   0.0800 
 30 H        1.6260     3.8200     2.1780 H     1 <1>   0.0800 
 31 H        0.4420     4.2270     0.9640 H     1 <1>   0.0800 
 32 H       -1.1830     2.4620     2.2800 H     1 <1>   0.1500 
 33 H       -1.2830     2.3090    -1.9630 H     1 <1>   0.1500 
 34 H        3.4540     2.2300    -1.0120 H     1 <1>   0.0800 
 35 H        4.6610     1.8160     0.1660 H     1 <1>   0.0800 
 36 H        2.5300     5.5000     0.6380 H     1 <1>   0.0800 
 37 H        2.1420     4.4970    -0.7240 H     1 <1>   0.0800 
 38 H       -3.4090     3.5190     2.2940 H     1 <1>   0.1500 
 39 H       -3.4870     3.3520    -1.9670 H     1 <1>   0.1500 
 40 H        4.1450     3.8580     1.4450 H     1 <1>   0.0800 
 41 H        6.3500     3.6220     0.7020 H     1 <1>   0.3700 
 42 H       -6.5190     4.8280    -0.5430 H     1 <1>   0.0800 
 43 H       -5.8010     3.4600    -1.3870 H     1 <1>   0.0800 
 44 H       -5.0610     5.0670    -1.4990 H     1 <1>   0.0800 
 45 H        6.5750     6.6120    -1.3080 H     1 <1>   0.1500 
 46 H       10.7110     4.0160    -0.8990 H     1 <1>   0.1500 
 47 H        7.7780     2.0760    -0.2520 H     1 <1>   0.0800 
 48 H        8.2850     2.7980     1.2490 H     1 <1>   0.0800 
 49 H        8.6680     7.4890    -2.1990 H     1 <1>   0.1500 
 50 H       10.7400     6.1780    -1.9830 H     1 <1>   0.1500 
 51 H       10.1460     1.6740    -0.8560 H     1 <1>   0.0800 
 52 H        9.6900     0.8800     0.6280 H     1 <1>   0.0800 
 53 H       10.6360     2.3420     0.6920 H     1 <1>   0.0800 
@<TRIPOS>BOND
  1   1   2  2   
  2   2   3  am  
  3   2   4  1   
  4   3   5  1   
  5   3   6  1   
  6   4   7  ar  
  7   4   8  ar  
  8   5   9  1   
  9   5  28  1   
 10   5  29  1   
 11   6  10  1   
 12   6  30  1   
 13   6  31  1   
 14   7  11  ar  
 15   7  32  1   
 16   8  12  ar  
 17   8  33  1   
 18   9  13  1   
 19   9  34  1   
 20   9  35  1   
 21  10  13  1   
 22  10  36  1   
 23  10  37  1   
 24  11  14  ar  
 25  11  38  1   
 26  12  14  ar  
 27  12  39  1   
 28  13  15  1   
 29  13  40  1   
 30  14  16  1   
 31  15  17  2   
 32  15  18  am  
 33  16  19  1   
 34  18  20  1   
 35  18  41  1   
 36  19  42  1   
 37  19  43  1   
 38  19  44  1   
 39  20  21  ar  
 40  20  22  ar  
 41  21  23  ar  
 42  21  24  1   
 43  22  25  ar  
 44  22  45  1   
 45  23  26  ar  
 46  23  46  1   
 47  24  27  1   
 48  24  47  1   
 49  24  48  1   
 50  25  26  ar  
 51  25  49  1   
 52  26  50  1   
 53  27  51  1   
 54  27  52  1   
 55  27  53  1   
@<TRIPOS>SUBSTRUCTURE
  1 ****  10 GROUP 4 **** **** 0

# MOE 2024.06 (io_trps.svl 2023.06)
