@<TRIPOS>MOLECULE
NONAME
43 44 1 0 0 
SMALL
USER_CHARGES


@<TRIPOS>ATOM
  1 O       -1.2120    -0.8400     0.7780 O.2   1 <1>  -0.5700 
  2 C       -0.6350    -1.8190     1.2080 C.2   1 <1>   0.6900 
  3 N        0.6440    -2.1260     0.8630 N.am  1 <1>  -0.5470 
  4 N       -1.2980    -2.6570     2.0430 N.am  1 <1>  -0.7300 
  5 C        1.5130    -1.5190    -0.0570 C.ar  1 <1>   0.1170 
  6 C       -2.5820    -2.3470     2.7440 C.3   1 <1>   0.1400 
  7 C        2.8940    -1.5830     0.1510 C.ar  1 <1>  -0.1430 
  8 C        1.0380    -0.8700    -1.1930 C.ar  1 <1>  -0.1500 
  9 C       -3.8170    -2.5880     1.8500 C.3   1 <1>   0.3430 
 10 C        3.7570    -1.0030    -0.7650 C.ar  1 <1>  -0.1500 
 11 C        3.4840    -2.2760     1.3740 C.3   1 <1>  -0.0970 
 12 C        1.9040    -0.2910    -2.1010 C.ar  1 <1>  -0.1500 
 13 N       -3.8270    -1.6790     0.6670 N.4   1 <1>  -0.9590 
 14 C        3.2680    -0.3580    -1.8870 C.ar  1 <1>  -0.1500 
 15 C       -4.4490    -0.3570     0.9550 C.3   1 <1>   0.3430 
 16 C       -4.3780    -2.3260    -0.5530 C.3   1 <1>   0.3430 
 17 C       -4.2360     0.5830    -0.2330 C.3   1 <1>  -0.1600 
 18 C       -4.1520    -1.4160    -1.7610 C.3   1 <1>  -0.1600 
 19 C       -4.7550    -0.0230    -1.5440 C.3   1 <1>  -0.1600 
 20 H        1.0920    -2.8230     1.4470 H     1 <1>   0.3700 
 21 H       -0.7960    -3.4780     2.3850 H     1 <1>   0.3700 
 22 H       -2.5700    -1.3230     3.0770 H     1 <1>   0.0800 
 23 H       -2.6560    -2.9720     3.6180 H     1 <1>   0.0800 
 24 H       -0.0180    -0.8130    -1.3790 H     1 <1>   0.1500 
 25 H       -4.7170    -2.4440     2.4250 H     1 <1>   0.0800 
 26 H       -3.7960    -3.6140     1.5210 H     1 <1>   0.0800 
 27 H        4.8210    -1.0450    -0.6140 H     1 <1>   0.1500 
 28 H        3.2730    -3.3290     1.3410 H     1 <1>   0.0800 
 29 H        3.0700    -1.8550     2.2730 H     1 <1>   0.0800 
 30 H        4.5510    -2.1480     1.4090 H     1 <1>   0.0800 
 31 H        1.5200     0.2090    -2.9720 H     1 <1>   0.1500 
 32 H       -2.8270    -1.4590     0.4690 H     1 <1>   0.4500 
 33 H        3.9460     0.0910    -2.5910 H     1 <1>   0.1500 
 34 H       -3.9980     0.0780     1.8330 H     1 <1>   0.0800 
 35 H       -5.5050    -0.4800     1.1340 H     1 <1>   0.0800 
 36 H       -5.4340    -2.5050    -0.4270 H     1 <1>   0.0800 
 37 H       -3.8880    -3.2710    -0.7230 H     1 <1>   0.0800 
 38 H       -3.1850     0.8020    -0.3230 H     1 <1>   0.0800 
 39 H       -4.7410     1.5130    -0.0430 H     1 <1>   0.0800 
 40 H       -4.5960    -1.8670    -2.6310 H     1 <1>   0.0800 
 41 H       -3.0940    -1.3310    -1.9460 H     1 <1>   0.0800 
 42 H       -4.4970     0.6200    -2.3690 H     1 <1>   0.0800 
 43 H       -5.8290    -0.0950    -1.5070 H     1 <1>   0.0800 
@<TRIPOS>BOND
  1   1   2  2   
  2   2   3  am  
  3   2   4  am  
  4   3   5  1   
  5   3  20  1   
  6   4   6  1   
  7   4  21  1   
  8   5   7  ar  
  9   5   8  ar  
 10   6   9  1   
 11   6  22  1   
 12   6  23  1   
 13   7  10  ar  
 14   7  11  1   
 15   8  12  ar  
 16   8  24  1   
 17   9  13  1   
 18   9  25  1   
 19   9  26  1   
 20  10  14  ar  
 21  10  27  1   
 22  11  28  1   
 23  11  29  1   
 24  11  30  1   
 25  12  14  ar  
 26  12  31  1   
 27  13  15  1   
 28  13  16  1   
 29  13  32  1   
 30  14  33  1   
 31  15  17  1   
 32  15  34  1   
 33  15  35  1   
 34  16  18  1   
 35  16  36  1   
 36  16  37  1   
 37  17  19  1   
 38  17  38  1   
 39  17  39  1   
 40  18  19  1   
 41  18  40  1   
 42  18  41  1   
 43  19  42  1   
 44  19  43  1   
@<TRIPOS>SUBSTRUCTURE
  1 ****   1 GROUP 4 **** **** 0

# MOE 2024.06 (io_trps.svl 2023.06)
