@<TRIPOS>MOLECULE
NONAME
43 44 1 0 0 
SMALL
USER_CHARGES


@<TRIPOS>ATOM
  1 O        0.1750     0.2250    -0.1130 O.2   1 <1>  -0.5700 
  2 C        0.7290     1.2730     0.1610 C.2   1 <1>   0.5440 
  3 N       -0.0500     2.3480     0.4770 N.am  1 <1>  -0.7300 
  4 C        2.1780     1.3770     0.1580 C.ar  1 <1>   0.0860 
  5 C       -1.5280     2.4150     0.4170 C.3   1 <1>   0.1400 
  6 C        2.9790     0.2420     0.2950 C.ar  1 <1>  -0.1500 
  7 C        2.8350     2.6040     0.0190 C.ar  1 <1>  -0.1500 
  8 C       -1.9640     3.7340    -0.2400 C.3   1 <1>   0.2000 
  9 C        4.3580     0.3240     0.3030 C.ar  1 <1>  -0.1500 
 10 C        4.2150     2.6950     0.0260 C.ar  1 <1>  -0.1500 
 11 O       -1.2880     4.8120     0.3350 O.3   1 <1>  -0.5600 
 12 C       -3.4370     4.0670    -0.0610 C.3   1 <1>  -0.1600 
 13 C        4.9900     1.5490     0.1710 C.ar  1 <1>   0.0830 
 14 C       -2.0240     5.9890     0.1960 C.3   1 <1>   0.1200 
 15 C       -3.4460     5.5790    -0.1830 C.3   1 <1>  -0.1600 
 16 O        6.3410     1.5470     0.1890 O.3   1 <1>  -0.3630 
 17 C        7.0890     2.7350     0.0400 C.3   1 <1>   0.1200 
 18 C        8.5890     2.4030     0.0720 C.3   1 <1>  -0.0800 
 19 C        9.4180     3.6910    -0.0010 C.3   1 <1>  -0.2400 
 20 C        8.9880     1.4650    -1.0770 C.3   1 <1>  -0.2400 
 21 H        0.3700     3.2500     0.7190 H     1 <1>   0.3700 
 22 H       -1.9200     2.3610     1.4170 H     1 <1>   0.0800 
 23 H       -1.9180     1.5830    -0.1440 H     1 <1>   0.0800 
 24 H        2.5030    -0.7190     0.3970 H     1 <1>   0.1500 
 25 H        2.2580     3.5030    -0.1050 H     1 <1>   0.1500 
 26 H       -1.7150     3.7200    -1.2870 H     1 <1>   0.0800 
 27 H        4.9560    -0.5630     0.4110 H     1 <1>   0.1500 
 28 H        4.6700     3.6620    -0.0830 H     1 <1>   0.1500 
 29 H       -3.7630     3.7730     0.9220 H     1 <1>   0.0800 
 30 H       -4.0520     3.5860    -0.8010 H     1 <1>   0.0800 
 31 H       -1.5670     6.5890    -0.5730 H     1 <1>   0.0800 
 32 H       -1.9970     6.5120     1.1360 H     1 <1>   0.0800 
 33 H       -4.1760     6.0350     0.4640 H     1 <1>   0.0800 
 34 H       -3.6430     5.8770    -1.1980 H     1 <1>   0.0800 
 35 H        6.8330     3.3940     0.8520 H     1 <1>   0.0800 
 36 H        6.8230     3.1870    -0.8990 H     1 <1>   0.0800 
 37 H        8.8040     1.9180     1.0100 H     1 <1>   0.0800 
 38 H        9.2340     4.2110    -0.9240 H     1 <1>   0.0800 
 39 H       10.4680     3.4610     0.0580 H     1 <1>   0.0800 
 40 H        9.1710     4.3430     0.8190 H     1 <1>   0.0800 
 41 H        8.7730     1.9160    -2.0290 H     1 <1>   0.0800 
 42 H        8.4460     0.5380    -1.0080 H     1 <1>   0.0800 
 43 H       10.0390     1.2420    -1.0300 H     1 <1>   0.0800 
@<TRIPOS>BOND
  1   1   2  2   
  2   2   3  am  
  3   2   4  1   
  4   3   5  1   
  5   3  21  1   
  6   4   6  ar  
  7   4   7  ar  
  8   5   8  1   
  9   5  22  1   
 10   5  23  1   
 11   6   9  ar  
 12   6  24  1   
 13   7  10  ar  
 14   7  25  1   
 15   8  11  1   
 16   8  12  1   
 17   8  26  1   
 18   9  13  ar  
 19   9  27  1   
 20  10  13  ar  
 21  10  28  1   
 22  11  14  1   
 23  12  15  1   
 24  12  29  1   
 25  12  30  1   
 26  13  16  1   
 27  14  15  1   
 28  14  31  1   
 29  14  32  1   
 30  15  33  1   
 31  15  34  1   
 32  16  17  1   
 33  17  18  1   
 34  17  35  1   
 35  17  36  1   
 36  18  19  1   
 37  18  20  1   
 38  18  37  1   
 39  19  38  1   
 40  19  39  1   
 41  19  40  1   
 42  20  41  1   
 43  20  42  1   
 44  20  43  1   
@<TRIPOS>SUBSTRUCTURE
  1 ****   7 GROUP 4 **** **** 0

# MOE 2024.06 (io_trps.svl 2023.06)
