@<TRIPOS>MOLECULE
NONAME
40 40 1 0 0 
SMALL
USER_CHARGES


@<TRIPOS>ATOM
  1 O       -0.0330    -0.3560    -0.1870 O.3   1 <1>  -0.3630 
  2 C       -1.2630    -0.8870     0.0270 C.ar  1 <1>   0.0830 
  3 C        1.1380    -1.0820     0.0960 C.3   1 <1>   0.1200 
  4 C       -1.4800    -2.1650     0.5370 C.ar  1 <1>  -0.1500 
  5 C       -2.3490    -0.0870    -0.2890 C.ar  1 <1>  -0.1500 
  6 C        2.3270    -0.1890    -0.2630 C.3   1 <1>  -0.1600 
  7 C       -2.7720    -2.6260     0.7240 C.ar  1 <1>  -0.1500 
  8 C       -3.6400    -0.5490    -0.1020 C.ar  1 <1>  -0.1500 
  9 C        3.6690    -0.8870     0.0010 C.3   1 <1>  -0.1600 
 10 C       -3.8520    -1.8190     0.4050 C.ar  1 <1>  -0.1500 
 11 C        4.8320     0.0390    -0.3660 C.3   1 <1>   0.3430 
 12 N        6.1420    -0.5830    -0.0170 N.4   1 <1>  -0.9590 
 13 C        7.2100     0.4530    -0.0280 C.3   1 <1>   0.3430 
 14 C        6.4740    -1.7310    -0.9060 C.3   1 <1>   0.3430 
 15 C        8.4370    -0.0570     0.7190 C.3   1 <1>  -0.2400 
 16 C        6.5340    -2.9950    -0.0600 C.3   1 <1>  -0.2400 
 17 H        1.1310    -1.9780    -0.5000 H     1 <1>   0.0800 
 18 H        1.1380    -1.3260     1.1440 H     1 <1>   0.0800 
 19 H       -0.6650    -2.8130     0.7940 H     1 <1>   0.1500 
 20 H       -2.1770     0.8990    -0.6820 H     1 <1>   0.1500 
 21 H        2.2640     0.7130     0.3220 H     1 <1>   0.0800 
 22 H        2.2530     0.0740    -1.3050 H     1 <1>   0.0800 
 23 H       -2.9410    -3.6130     1.1180 H     1 <1>   0.1500 
 24 H       -4.4770     0.0800    -0.3510 H     1 <1>   0.1500 
 25 H        3.7090    -1.7870    -0.5870 H     1 <1>   0.0800 
 26 H        3.7270    -1.1460     1.0440 H     1 <1>   0.0800 
 27 H       -4.8550    -2.1790     0.5510 H     1 <1>   0.1500 
 28 H        4.7170     0.9620     0.1790 H     1 <1>   0.0800 
 29 H        4.7990     0.2680    -1.4190 H     1 <1>   0.0800 
 30 H        6.0750    -0.9430     0.9440 H     1 <1>   0.4500 
 31 H        6.8550     1.3460     0.4640 H     1 <1>   0.0800 
 32 H        7.4720     0.7100    -1.0420 H     1 <1>   0.0800 
 33 H        7.4270    -1.5720    -1.3860 H     1 <1>   0.0800 
 34 H        5.7250    -1.8410    -1.6750 H     1 <1>   0.0800 
 35 H        8.1860    -0.3280     1.7290 H     1 <1>   0.0800 
 36 H        9.1740     0.7260     0.7610 H     1 <1>   0.0800 
 37 H        8.8840    -0.8970     0.2180 H     1 <1>   0.0800 
 38 H        7.3000    -2.9190     0.6910 H     1 <1>   0.0800 
 39 H        6.7740    -3.8320    -0.6920 H     1 <1>   0.0800 
 40 H        5.5870    -3.1940     0.4080 H     1 <1>   0.0800 
@<TRIPOS>BOND
  1   1   2  1   
  2   1   3  1   
  3   2   4  ar  
  4   2   5  ar  
  5   3   6  1   
  6   3  17  1   
  7   3  18  1   
  8   4   7  ar  
  9   4  19  1   
 10   5   8  ar  
 11   5  20  1   
 12   6   9  1   
 13   6  21  1   
 14   6  22  1   
 15   7  10  ar  
 16   7  23  1   
 17   8  10  ar  
 18   8  24  1   
 19   9  11  1   
 20   9  25  1   
 21   9  26  1   
 22  10  27  1   
 23  11  12  1   
 24  11  28  1   
 25  11  29  1   
 26  12  13  1   
 27  12  14  1   
 28  12  30  1   
 29  13  15  1   
 30  13  31  1   
 31  13  32  1   
 32  14  16  1   
 33  14  33  1   
 34  14  34  1   
 35  15  35  1   
 36  15  36  1   
 37  15  37  1   
 38  16  38  1   
 39  16  39  1   
 40  16  40  1   
@<TRIPOS>SUBSTRUCTURE
  1 ****   3 GROUP 4 **** **** 0

# MOE 2024.06 (io_trps.svl 2023.06)
