@<TRIPOS>MOLECULE
NONAME
34 35 1 0 0 
SMALL
USER_CHARGES


@<TRIPOS>ATOM
  1 S       -0.3570    -0.4620     2.4910 S.3   1 <1>  -0.0800 
  2 C       -1.6460    -1.6120     2.1900 C.2   1 <1>  -0.1100 
  3 C        0.0440    -0.4000     0.7860 C.2   1 <1>  -0.1100 
  4 C       -1.7400    -1.8940     0.8750 C.2   1 <1>  -0.1810 
  5 C       -0.7670    -1.2040     0.0750 C.2   1 <1>  -0.1500 
  6 C       -2.7500    -2.8360     0.2530 C.3   1 <1>   0.5240 
  7 N       -4.0210    -2.0990     0.0460 N.4   1 <1>  -0.9590 
  8 C       -5.1650    -2.9620    -0.3920 C.3   1 <1>   0.3430 
  9 C       -3.9060    -0.8790    -0.8200 C.3   1 <1>   0.3430 
 10 C       -6.4870    -2.1560    -0.4460 C.3   1 <1>   0.1100 
 11 C       -5.2470    -0.1090    -0.8830 C.3   1 <1>   0.1100 
 12 N       -6.3050    -0.7350    -0.0510 N.3   1 <1>  -0.8100 
 13 C       -7.5650     0.0360    -0.1460 C.3   1 <1>   0.1100 
 14 C       -8.5420    -0.3260     0.9800 C.3   1 <1>   0.1200 
 15 O       -9.6840     0.4480     0.8540 O.3   1 <1>  -0.6800 
 16 H       -2.1970    -1.9490     3.0510 H     1 <1>   0.1500 
 17 H        0.8620     0.2390     0.4970 H     1 <1>   0.1500 
 18 H       -0.7030    -1.3390    -0.9910 H     1 <1>   0.1500 
 19 H       -2.9160    -3.6650     0.9220 H     1 <1>   0.0800 
 20 H       -2.3740    -3.2180    -0.6810 H     1 <1>   0.0800 
 21 H       -4.3210    -1.7100     0.9520 H     1 <1>   0.4500 
 22 H       -5.2890    -3.7850     0.2930 H     1 <1>   0.0800 
 23 H       -4.9650    -3.3750    -1.3670 H     1 <1>   0.0800 
 24 H       -3.6080    -1.1570    -1.8180 H     1 <1>   0.0800 
 25 H       -3.1500    -0.2190    -0.4250 H     1 <1>   0.0800 
 26 H       -7.1970    -2.6280     0.2110 H     1 <1>   0.0800 
 27 H       -6.8910    -2.2100    -1.4440 H     1 <1>   0.0800 
 28 H       -5.5730    -0.0520    -1.9080 H     1 <1>   0.0800 
 29 H       -5.0780     0.9000    -0.5440 H     1 <1>   0.0800 
 30 H       -8.0340    -0.1370    -1.1000 H     1 <1>   0.0800 
 31 H       -7.3400     1.0860    -0.0610 H     1 <1>   0.0800 
 32 H       -8.1080    -0.1360     1.9470 H     1 <1>   0.0800 
 33 H       -8.8470    -1.3540     0.9120 H     1 <1>   0.0800 
 34 H       -9.5110     1.3770     1.1040 H     1 <1>   0.4000 
@<TRIPOS>BOND
  1   1   2  1   
  2   1   3  1   
  3   2   4  2   
  4   2  16  1   
  5   3   5  2   
  6   3  17  1   
  7   4   5  1   
  8   4   6  1   
  9   5  18  1   
 10   6   7  1   
 11   6  19  1   
 12   6  20  1   
 13   7   8  1   
 14   7   9  1   
 15   7  21  1   
 16   8  10  1   
 17   8  22  1   
 18   8  23  1   
 19   9  11  1   
 20   9  24  1   
 21   9  25  1   
 22  10  12  1   
 23  10  26  1   
 24  10  27  1   
 25  11  12  1   
 26  11  28  1   
 27  11  29  1   
 28  12  13  1   
 29  13  14  1   
 30  13  30  1   
 31  13  31  1   
 32  14  15  1   
 33  14  32  1   
 34  14  33  1   
 35  15  34  1   
@<TRIPOS>SUBSTRUCTURE
  1 ****   7 GROUP 4 **** **** 0

# MOE 2024.06 (io_trps.svl 2023.06)
