@<TRIPOS>MOLECULE
NONAME
47 48 1 0 0 
SMALL
USER_CHARGES


@<TRIPOS>ATOM
  1 O       -9.6080     2.5360    -0.0280 O.3   1 <1>  -0.3630 
  2 C      -10.7950     1.9280    -0.2820 C.ar  1 <1>   0.0830 
  3 C       -8.3840     1.8600    -0.2090 C.3   1 <1>   0.1200 
  4 C      -11.9410     2.6510     0.0020 C.ar  1 <1>  -0.1500 
  5 C      -10.9100     0.6410    -0.8030 C.ar  1 <1>  -0.1500 
  6 C       -7.2550     2.8170     0.1840 C.3   1 <1>   0.1100 
  7 C      -13.1960     2.1110    -0.2210 C.ar  1 <1>   0.0830 
  8 C      -12.1620     0.0960    -1.0280 C.ar  1 <1>  -0.1500 
  9 N       -5.9200     2.1900     0.0470 N.3   1 <1>  -0.8100 
 10 O      -14.2630     2.8920     0.0880 O.3   1 <1>  -0.3630 
 11 C      -13.3040     0.8230    -0.7400 C.ar  1 <1>  -0.1500 
 12 C       -4.8620     3.2290     0.0110 C.3   1 <1>   0.1100 
 13 C       -5.6430     1.2180     1.1380 C.3   1 <1>   0.1100 
 14 C      -15.5830     2.4390    -0.1040 C.3   1 <1>   0.1200 
 15 C       -3.4410     2.6300    -0.1410 C.3   1 <1>   0.3430 
 16 C       -4.2130     0.6240     1.0630 C.3   1 <1>   0.3430 
 17 C      -16.5380     3.5490     0.3370 C.3   1 <1>  -0.1600 
 18 N       -3.4770     1.1300    -0.1410 N.4   1 <1>  -0.9590 
 19 C      -18.0020     3.1310     0.1570 C.3   1 <1>  -0.2400 
 20 C       -2.1360     0.5050    -0.3280 C.3   1 <1>   0.2630 
 21 H       -8.2980     1.5880    -1.2460 H     1 <1>   0.0800 
 22 H       -8.3930     0.9880     0.4180 H     1 <1>   0.0800 
 23 H      -11.8580     3.6440     0.4020 H     1 <1>   0.1500 
 24 H      -10.0450     0.0530    -1.0390 H     1 <1>   0.1500 
 25 H       -7.4040     3.1540     1.1960 H     1 <1>   0.0800 
 26 H       -7.3160     3.6700    -0.4710 H     1 <1>   0.0800 
 27 H      -12.2500    -0.8990    -1.4310 H     1 <1>   0.1500 
 28 H      -14.2610     0.3740    -0.9260 H     1 <1>   0.1500 
 29 H       -4.9000     3.8200     0.9100 H     1 <1>   0.0800 
 30 H       -5.0430     3.8940    -0.8170 H     1 <1>   0.0800 
 31 H       -6.3490     0.4080     1.0870 H     1 <1>   0.0800 
 32 H       -5.7720     1.6950     2.0960 H     1 <1>   0.0800 
 33 H      -15.7290     1.5540     0.4910 H     1 <1>   0.0800 
 34 H      -15.7170     2.2150    -1.1480 H     1 <1>   0.0800 
 35 H       -2.8210     2.9850     0.6660 H     1 <1>   0.0800 
 36 H       -3.0110     2.9850    -1.0630 H     1 <1>   0.0800 
 37 H       -4.2840    -0.4510     1.0270 H     1 <1>   0.0800 
 38 H       -3.6750     0.8860     1.9590 H     1 <1>   0.0800 
 39 H      -16.3470     4.4320    -0.2480 H     1 <1>   0.0800 
 40 H      -16.3590     3.7770     1.3730 H     1 <1>   0.0800 
 41 H       -4.1040     0.9010    -0.9300 H     1 <1>   0.4500 
 42 H      -18.2080     2.9130    -0.8760 H     1 <1>   0.0800 
 43 H      -18.6520     3.9270     0.4740 H     1 <1>   0.0800 
 44 H      -18.2200     2.2580     0.7470 H     1 <1>   0.0800 
 45 H       -1.4890     0.7510     0.4980 H     1 <1>   0.0800 
 46 H       -1.6830     0.8590    -1.2400 H     1 <1>   0.0800 
 47 H       -2.2290    -0.5670    -0.3870 H     1 <1>   0.0800 
@<TRIPOS>BOND
  1   1   2  1   
  2   1   3  1   
  3   2   4  ar  
  4   2   5  ar  
  5   3   6  1   
  6   3  21  1   
  7   3  22  1   
  8   4   7  ar  
  9   4  23  1   
 10   5   8  ar  
 11   5  24  1   
 12   6   9  1   
 13   6  25  1   
 14   6  26  1   
 15   7  10  1   
 16   7  11  ar  
 17   8  11  ar  
 18   8  27  1   
 19   9  12  1   
 20   9  13  1   
 21  10  14  1   
 22  11  28  1   
 23  12  15  1   
 24  12  29  1   
 25  12  30  1   
 26  13  16  1   
 27  13  31  1   
 28  13  32  1   
 29  14  17  1   
 30  14  33  1   
 31  14  34  1   
 32  15  18  1   
 33  15  35  1   
 34  15  36  1   
 35  16  18  1   
 36  16  37  1   
 37  16  38  1   
 38  17  19  1   
 39  17  39  1   
 40  17  40  1   
 41  18  20  1   
 42  18  41  1   
 43  19  42  1   
 44  19  43  1   
 45  19  44  1   
 46  20  45  1   
 47  20  46  1   
 48  20  47  1   
@<TRIPOS>SUBSTRUCTURE
  1 ****   1 GROUP 4 **** **** 0

# MOE 2024.06 (io_trps.svl 2023.06)
