@<TRIPOS>MOLECULE
NONAME
43 44 1 0 0 
SMALL
USER_CHARGES


@<TRIPOS>ATOM
  1 S       -1.7570     0.1950     1.8850 S.3   1 <1>  -0.0800 
  2 C       -2.4660     1.1610     0.6100 C.2   1 <1>   0.1040 
  3 C       -0.2480     1.0830     1.8140 C.2   1 <1>  -0.1400 
  4 N       -3.7400     0.7790     0.2320 N.am  1 <1>  -0.4940 
  5 C       -1.6010     2.1450     0.2080 C.2   1 <1>  -0.0860 
  6 C       -0.3240     2.0610     0.8910 C.2   1 <1>  -0.1810 
  7 C        0.8310     0.6030     2.7670 C.3   1 <1>  -0.0600 
  8 C       -4.3730     0.8740    -0.9810 C.2   1 <1>   0.5690 
  9 C       -1.9340     3.1780    -0.7350 C.2   1 <1>   0.8060 
 10 C        0.8060     3.0290     0.5620 C.3   1 <1>  -0.0590 
 11 O       -3.8090     1.2110    -1.9910 O.2   1 <1>  -0.5700 
 12 C       -5.8480     0.5220    -1.0700 C.3   1 <1>   0.1310 
 13 O       -1.1620     3.6200    -1.5690 O.2   1 <1>  -0.5700 
 14 O       -3.1570     3.7170    -0.6520 O.3   1 <1>  -0.4300 
 15 S       -6.4430    -0.3340     0.4710 S.3   1 <1>  -0.3310 
 16 C       -3.6130     4.6500    -1.6020 C.3   1 <1>   0.1200 
 17 C       -8.1900    -0.5550     0.1970 C.ar  1 <1>   0.7220 
 18 C       -5.0580     5.0010    -1.2620 C.3   1 <1>  -0.2400 
 19 N       -8.8320    -1.1340     1.1950 N.ar  1 <1>  -0.6200 
 20 N       -8.6520    -0.1190    -0.9640 N.ar  1 <1>  -0.6200 
 21 C      -10.1190    -1.3000     0.9980 C.ar  1 <1>   0.1670 
 22 C       -9.9440    -0.3000    -1.1290 C.ar  1 <1>   0.1600 
 23 C      -10.7300    -0.8920    -0.1670 C.ar  1 <1>  -0.1500 
 24 C      -10.9040    -1.9600     2.1110 C.3   1 <1>  -0.0970 
 25 H       -4.2730     0.2660     0.9380 H     1 <1>   0.3700 
 26 H        1.0590    -0.4280     2.5650 H     1 <1>   0.0800 
 27 H        0.4840     0.6890     3.7810 H     1 <1>   0.0800 
 28 H        1.7300     1.1800     2.6620 H     1 <1>   0.0800 
 29 H        1.6540     2.8770     1.2010 H     1 <1>   0.0800 
 30 H        0.4710     4.0430     0.6830 H     1 <1>   0.0800 
 31 H        1.1230     2.8880    -0.4560 H     1 <1>   0.0800 
 32 H       -6.0250    -0.1440    -1.8950 H     1 <1>   0.0800 
 33 H       -6.4330     1.4140    -1.1890 H     1 <1>   0.0800 
 34 H       -3.5470     4.1980    -2.5780 H     1 <1>   0.0800 
 35 H       -2.9800     5.5210    -1.5600 H     1 <1>   0.0800 
 36 H       -5.6700     4.1180    -1.3040 H     1 <1>   0.0800 
 37 H       -5.4350     5.7140    -1.9720 H     1 <1>   0.0800 
 38 H       -5.1130     5.4320    -0.2780 H     1 <1>   0.0800 
 39 H      -10.3870     0.0310    -2.0540 H     1 <1>   0.1500 
 40 H      -11.7830    -1.0290    -0.3260 H     1 <1>   0.1500 
 41 H      -10.8170    -1.3760     3.0090 H     1 <1>   0.0800 
 42 H      -10.5060    -2.9410     2.2990 H     1 <1>   0.0800 
 43 H      -11.9430    -2.0500     1.8540 H     1 <1>   0.0800 
@<TRIPOS>BOND
  1   1   2  1   
  2   1   3  1   
  3   2   4  1   
  4   2   5  2   
  5   3   6  2   
  6   3   7  1   
  7   4   8  am  
  8   4  25  1   
  9   5   6  1   
 10   5   9  1   
 11   6  10  1   
 12   7  26  1   
 13   7  27  1   
 14   7  28  1   
 15   8  11  2   
 16   8  12  1   
 17   9  13  2   
 18   9  14  1   
 19  10  29  1   
 20  10  30  1   
 21  10  31  1   
 22  12  15  1   
 23  12  32  1   
 24  12  33  1   
 25  14  16  1   
 26  15  17  1   
 27  16  18  1   
 28  16  34  1   
 29  16  35  1   
 30  17  19  ar  
 31  17  20  ar  
 32  18  36  1   
 33  18  37  1   
 34  18  38  1   
 35  19  21  ar  
 36  20  22  ar  
 37  21  23  ar  
 38  21  24  1   
 39  22  23  ar  
 40  22  39  1   
 41  23  40  1   
 42  24  41  1   
 43  24  42  1   
 44  24  43  1   
@<TRIPOS>SUBSTRUCTURE
  1 ****   4 GROUP 4 **** **** 0

# MOE 2024.06 (io_trps.svl 2023.06)
