@<TRIPOS>MOLECULE
NONAME
50 52 1 0 0 
SMALL
USER_CHARGES


@<TRIPOS>ATOM
  1 O        0.1920    -0.7200     1.7960 O.2   1 <1>  -0.5700 
  2 C       -0.0240    -1.8390     1.3850 C.2   1 <1>   0.5690 
  3 N        0.9730    -2.7700     1.2930 N.am  1 <1>  -0.6600 
  4 C       -1.4580    -2.2010     1.0120 C.3   1 <1>   0.1810 
  5 C        2.3800    -2.5140     1.6490 C.3   1 <1>   0.2200 
  6 C        0.8300    -4.1730     0.8270 C.3   1 <1>   0.1400 
  7 O       -1.5670    -2.5510    -0.3600 O.3   1 <1>  -0.3630 
  8 C        3.1420    -1.9550     0.4340 C.3   1 <1>  -0.1600 
  9 C        2.9030    -3.9080     1.9590 C.3   1 <1>  -0.1600 
 10 C        2.2660    -4.7190     0.8340 C.3   1 <1>   0.0000 
 11 C       -2.7380    -3.1110    -0.7460 C.ar  1 <1>   0.0820 
 12 C        3.1350    -2.8650    -0.8290 C.3   1 <1>   0.0000 
 13 C        3.0180    -4.3800    -0.4790 C.3   1 <1>  -0.1600 
 14 C        2.3110    -6.2270     1.1140 C.3   1 <1>  -0.2400 
 15 C       -3.0860    -4.4180    -0.3890 C.ar  1 <1>   0.0820 
 16 C       -3.5840    -2.3490    -1.5330 C.ar  1 <1>  -0.1500 
 17 C        2.0050    -2.4340    -1.7880 C.3   1 <1>  -0.2400 
 18 C        4.4480    -2.6430    -1.6000 C.3   1 <1>  -0.2400 
 19 O       -2.2090    -5.1450     0.3630 O.3   1 <1>  -0.3620 
 20 C       -4.3080    -4.9280    -0.8200 C.ar  1 <1>  -0.1500 
 21 C       -4.7940    -2.8690    -1.9580 C.ar  1 <1>  -0.1500 
 22 C       -2.4050    -6.5220     0.5920 C.3   1 <1>   0.0400 
 23 C       -5.1550    -4.1560    -1.5990 C.ar  1 <1>  -0.1500 
 24 H       -2.1020    -1.3600     1.1890 H     1 <1>   0.0800 
 25 H       -1.7810    -3.0280     1.6140 H     1 <1>   0.0800 
 26 H        2.4530    -1.8530     2.4970 H     1 <1>   0.0800 
 27 H        0.3850    -4.2300    -0.1510 H     1 <1>   0.0800 
 28 H        0.2160    -4.7100     1.5270 H     1 <1>   0.0800 
 29 H        4.1570    -1.8050     0.7550 H     1 <1>   0.0800 
 30 H        2.7520    -0.9810     0.1990 H     1 <1>   0.0800 
 31 H        2.5380    -4.2210     2.9210 H     1 <1>   0.0800 
 32 H        3.9780    -3.9550     1.9580 H     1 <1>   0.0800 
 33 H        2.5590    -4.9050    -1.2980 H     1 <1>   0.0800 
 34 H        4.0100    -4.7850    -0.3810 H     1 <1>   0.0800 
 35 H        1.8130    -6.4550     2.0400 H     1 <1>   0.0800 
 36 H        3.3300    -6.5650     1.1850 H     1 <1>   0.0800 
 37 H        1.8240    -6.7670     0.3210 H     1 <1>   0.0800 
 38 H       -3.2910    -1.3520    -1.8100 H     1 <1>   0.1500 
 39 H        1.0390    -2.4950    -1.3280 H     1 <1>   0.0800 
 40 H        1.9950    -3.0520    -2.6680 H     1 <1>   0.0800 
 41 H        2.1450    -1.4140    -2.0980 H     1 <1>   0.0800 
 42 H        4.5550    -1.6080    -1.8760 H     1 <1>   0.0800 
 43 H        4.4650    -3.2360    -2.4980 H     1 <1>   0.0800 
 44 H        5.2970    -2.9180    -0.9990 H     1 <1>   0.0800 
 45 H       -4.6210    -5.9220    -0.5630 H     1 <1>   0.1500 
 46 H       -5.4510    -2.2730    -2.5680 H     1 <1>   0.1500 
 47 H       -1.5550    -6.8950     1.1350 H     1 <1>   0.0800 
 48 H       -2.4840    -7.0260    -0.3550 H     1 <1>   0.0800 
 49 H       -3.2980    -6.6560     1.1760 H     1 <1>   0.0800 
 50 H       -6.0970    -4.5580    -1.9290 H     1 <1>   0.1500 
@<TRIPOS>BOND
  1   1   2  2   
  2   2   3  am  
  3   2   4  1   
  4   3   5  1   
  5   3   6  1   
  6   4   7  1   
  7   4  24  1   
  8   4  25  1   
  9   5   8  1   
 10   5   9  1   
 11   5  26  1   
 12   6  10  1   
 13   6  27  1   
 14   6  28  1   
 15   7  11  1   
 16   8  12  1   
 17   8  29  1   
 18   8  30  1   
 19   9  10  1   
 20   9  31  1   
 21   9  32  1   
 22  10  13  1   
 23  10  14  1   
 24  11  15  ar  
 25  11  16  ar  
 26  12  13  1   
 27  12  17  1   
 28  12  18  1   
 29  13  33  1   
 30  13  34  1   
 31  14  35  1   
 32  14  36  1   
 33  14  37  1   
 34  15  19  1   
 35  15  20  ar  
 36  16  21  ar  
 37  16  38  1   
 38  17  39  1   
 39  17  40  1   
 40  17  41  1   
 41  18  42  1   
 42  18  43  1   
 43  18  44  1   
 44  19  22  1   
 45  20  23  ar  
 46  20  45  1   
 47  21  23  ar  
 48  21  46  1   
 49  22  47  1   
 50  22  48  1   
 51  22  49  1   
 52  23  50  1   
@<TRIPOS>SUBSTRUCTURE
  1 ****   6 GROUP 4 **** **** 0

# MOE 2024.06 (io_trps.svl 2023.06)
