@<TRIPOS>MOLECULE
NONAME
54 57 1 0 0 
SMALL
USER_CHARGES


@<TRIPOS>ATOM
  1 S        0.3780     0.2820     1.2860 S.3   1 <1>  -0.3320 
  2 C        1.3260     1.7530     0.9140 C.ar  1 <1>   0.7220 
  3 C       -1.3920     0.8180     1.3600 C.3   1 <1>   0.0700 
  4 N        0.6550     2.9000     0.8430 N.ar  1 <1>  -0.3100 
  5 N        2.6070     1.5610     0.7510 N.ar  1 <1>  -0.6200 
  6 C       -1.9390     0.8890    -0.0690 C.3   1 <1>  -0.1600 
  7 N        1.3080     3.9930     0.5700 N.ar  1 <1>  -0.3100 
  8 C        3.2650     2.6700     0.4700 C.ar  1 <1>   0.3930 
  9 C       -3.4120     1.3160    -0.0750 C.3   1 <1>  -0.1600 
 10 C        2.6330     3.9320     0.3720 C.ar  1 <1>   0.3100 
 11 O        4.5740     2.4120     0.3070 O.3   1 <1>  -0.3620 
 12 C       -3.9570     1.3860    -1.5030 C.3   1 <1>  -0.2400 
 13 C        3.2640     5.2110     0.0620 C.ar  1 <1>   0.0000 
 14 C        5.5520     3.3870     0.1410 C.3   1 <1>   0.7130 
 15 C        4.4520     5.3060    -0.6800 C.ar  1 <1>   0.1000 
 16 C        2.6820     6.4190     0.4670 C.ar  1 <1>  -0.1500 
 17 N        5.1540     4.1750    -1.0170 N.pl3 1 <1>  -0.8690 
 18 C        6.8990     2.7390    -0.1440 C.ar  1 <1>  -0.1440 
 19 C        4.9720     6.5420    -1.0450 C.ar  1 <1>  -0.1500 
 20 C        3.2130     7.6470     0.1210 C.ar  1 <1>  -0.1500 
 21 C        8.0560     3.3000     0.3870 C.ar  1 <1>   0.0820 
 22 C        6.9940     1.6020    -0.9370 C.ar  1 <1>  -0.1500 
 23 C        4.3590     7.7110    -0.6480 C.ar  1 <1>  -0.1500 
 24 O        7.9180     4.4190     1.1460 O.3   1 <1>  -0.3620 
 25 C        9.2900     2.7150     0.1230 C.ar  1 <1>  -0.1500 
 26 C        8.2220     1.0230    -1.1980 C.ar  1 <1>  -0.1500 
 27 C        9.0350     5.0600     1.7250 C.3   1 <1>   0.0400 
 28 C        9.3800     1.5810    -0.6640 C.ar  1 <1>   0.0820 
 29 O       10.6220     1.0770    -0.8680 O.3   1 <1>  -0.3620 
 30 C       10.8210    -0.0980    -1.6220 C.3   1 <1>   0.0400 
 31 H       -1.4350     1.7690     1.8610 H     1 <1>   0.0800 
 32 H       -1.9150     0.0790     1.9400 H     1 <1>   0.0800 
 33 H       -1.8420    -0.0790    -0.5310 H     1 <1>   0.0800 
 34 H       -1.3610     1.5950    -0.6390 H     1 <1>   0.0800 
 35 H       -3.5080     2.2840     0.3880 H     1 <1>   0.0800 
 36 H       -3.9970     0.6130     0.4940 H     1 <1>   0.0800 
 37 H       -3.3990     2.1000    -2.0840 H     1 <1>   0.0800 
 38 H       -4.9890     1.6890    -1.4890 H     1 <1>   0.0800 
 39 H       -3.8900     0.4240    -1.9800 H     1 <1>   0.0800 
 40 H        5.5830     3.9850     1.0370 H     1 <1>   0.0800 
 41 H        1.7840     6.4090     1.0610 H     1 <1>   0.1500 
 42 H        5.9920     4.3310    -1.5820 H     1 <1>   0.4000 
 43 H        5.8690     6.5860    -1.6350 H     1 <1>   0.1500 
 44 H        2.7320     8.5540     0.4450 H     1 <1>   0.1500 
 45 H        6.1020     1.1640    -1.3560 H     1 <1>   0.1500 
 46 H        4.7690     8.6650    -0.9300 H     1 <1>   0.1500 
 47 H       10.2040     3.1170     0.5160 H     1 <1>   0.1500 
 48 H        8.2550     0.1440    -1.8130 H     1 <1>   0.1500 
 49 H        8.6840     5.9140     2.2750 H     1 <1>   0.0800 
 50 H        9.7010     5.3780     0.9420 H     1 <1>   0.0800 
 51 H        9.5250     4.3730     2.3920 H     1 <1>   0.0800 
 52 H       11.8750    -0.3120    -1.6360 H     1 <1>   0.0800 
 53 H       10.4690     0.0660    -2.6250 H     1 <1>   0.0800 
 54 H       10.2900    -0.9080    -1.1540 H     1 <1>   0.0800 
@<TRIPOS>BOND
  1   1   2  1   
  2   1   3  1   
  3   2   4  ar  
  4   2   5  ar  
  5   3   6  1   
  6   3  31  1   
  7   3  32  1   
  8   4   7  ar  
  9   5   8  ar  
 10   6   9  1   
 11   6  33  1   
 12   6  34  1   
 13   7  10  ar  
 14   8  10  ar  
 15   8  11  1   
 16   9  12  1   
 17   9  35  1   
 18   9  36  1   
 19  10  13  1   
 20  11  14  1   
 21  12  37  1   
 22  12  38  1   
 23  12  39  1   
 24  13  15  ar  
 25  13  16  ar  
 26  14  17  1   
 27  14  18  1   
 28  14  40  1   
 29  15  17  1   
 30  15  19  ar  
 31  16  20  ar  
 32  16  41  1   
 33  17  42  1   
 34  18  21  ar  
 35  18  22  ar  
 36  19  23  ar  
 37  19  43  1   
 38  20  23  ar  
 39  20  44  1   
 40  21  24  1   
 41  21  25  ar  
 42  22  26  ar  
 43  22  45  1   
 44  23  46  1   
 45  24  27  1   
 46  25  28  ar  
 47  25  47  1   
 48  26  28  ar  
 49  26  48  1   
 50  27  49  1   
 51  27  50  1   
 52  27  51  1   
 53  28  29  1   
 54  29  30  1   
 55  30  52  1   
 56  30  53  1   
 57  30  54  1   
@<TRIPOS>SUBSTRUCTURE
  1 ****  11 GROUP 4 **** **** 0

# MOE 2024.06 (io_trps.svl 2023.06)
