@<TRIPOS>MOLECULE
NONAME
40 41 1 0 0 
SMALL
USER_CHARGES


@<TRIPOS>ATOM
  1 N       -0.0500     0.2300     0.2150 N.4   1 <1>  -0.9590 
  2 C        0.5620    -1.0230     0.7310 C.3   1 <1>   0.3430 
  3 C        0.8770     1.3970     0.2740 C.3   1 <1>   0.3430 
  4 C       -1.3370     0.5280     0.9120 C.3   1 <1>   0.4860 
  5 C        1.8220    -1.3510    -0.0790 C.3   1 <1>  -0.1600 
  6 C        2.1480     1.1010    -0.5340 C.3   1 <1>  -0.1600 
  7 C       -2.0190     1.6630     0.1770 C.ar  1 <1>  -0.1430 
  8 C        2.8480    -0.1990    -0.0810 C.3   1 <1>  -0.0800 
  9 C       -2.0210     2.9420     0.7170 C.ar  1 <1>  -0.1500 
 10 C       -2.6370     1.4360    -1.0450 C.ar  1 <1>  -0.1500 
 11 C        4.0590    -0.5800    -0.9640 C.3   1 <1>   0.3430 
 12 C       -2.6150     3.9910     0.0380 C.ar  1 <1>  -0.1430 
 13 C       -3.2330     2.4820    -1.7240 C.ar  1 <1>  -0.1500 
 14 N        5.1450     0.4340    -0.8920 N.4   1 <1>  -0.8530 
 15 C       -3.2190     3.7560    -1.1850 C.ar  1 <1>  -0.1500 
 16 C       -2.6200     5.3920     0.6260 C.3   1 <1>  -0.0970 
 17 H       -0.3110     0.0990    -0.7710 H     1 <1>   0.4500 
 18 H       -0.1410    -1.8390     0.6510 H     1 <1>   0.0800 
 19 H        0.8200    -0.9020     1.7710 H     1 <1>   0.0800 
 20 H        1.1360     1.6030     1.3000 H     1 <1>   0.0800 
 21 H        0.3920     2.2730    -0.1310 H     1 <1>   0.0800 
 22 H       -1.1570     0.8070     1.9370 H     1 <1>   0.0800 
 23 H       -1.9800    -0.3370     0.8990 H     1 <1>   0.0800 
 24 H        1.5280    -1.5950    -1.0860 H     1 <1>   0.0800 
 25 H        2.2690    -2.2350     0.3440 H     1 <1>   0.0800 
 26 H        2.8100     1.9410    -0.4190 H     1 <1>   0.0800 
 27 H        1.8820     1.0400    -1.5760 H     1 <1>   0.0800 
 28 H        3.1950    -0.0740     0.9330 H     1 <1>   0.0800 
 29 H       -1.5650     3.1350     1.6740 H     1 <1>   0.1500 
 30 H       -2.6720     0.4530    -1.4820 H     1 <1>   0.1500 
 31 H        3.7340    -0.6900    -1.9870 H     1 <1>   0.0800 
 32 H        4.4430    -1.5350    -0.6390 H     1 <1>   0.0800 
 33 H       -3.7160     2.3110    -2.6720 H     1 <1>   0.1500 
 34 H        4.8440     1.3490    -1.2460 H     1 <1>   0.4500 
 35 H        5.9490     0.1420    -1.4650 H     1 <1>   0.4500 
 36 H        5.4930     0.5550     0.0670 H     1 <1>   0.4500 
 37 H       -3.6890     4.5640    -1.7210 H     1 <1>   0.1500 
 38 H       -1.7980     5.5270     1.3050 H     1 <1>   0.0800 
 39 H       -3.5390     5.5580     1.1590 H     1 <1>   0.0800 
 40 H       -2.5380     6.1270    -0.1550 H     1 <1>   0.0800 
@<TRIPOS>BOND
  1   1   2  1   
  2   1   3  1   
  3   1   4  1   
  4   1  17  1   
  5   2   5  1   
  6   2  18  1   
  7   2  19  1   
  8   3   6  1   
  9   3  20  1   
 10   3  21  1   
 11   4   7  1   
 12   4  22  1   
 13   4  23  1   
 14   5   8  1   
 15   5  24  1   
 16   5  25  1   
 17   6   8  1   
 18   6  26  1   
 19   6  27  1   
 20   7   9  ar  
 21   7  10  ar  
 22   8  11  1   
 23   8  28  1   
 24   9  12  ar  
 25   9  29  1   
 26  10  13  ar  
 27  10  30  1   
 28  11  14  1   
 29  11  31  1   
 30  11  32  1   
 31  12  15  ar  
 32  12  16  1   
 33  13  15  ar  
 34  13  33  1   
 35  14  34  1   
 36  14  35  1   
 37  14  36  1   
 38  15  37  1   
 39  16  38  1   
 40  16  39  1   
 41  16  40  1   
@<TRIPOS>SUBSTRUCTURE
  1 ****   3 GROUP 4 **** **** 0

# MOE 2024.06 (io_trps.svl 2023.06)
