@<TRIPOS>MOLECULE
NONAME
42 43 1 0 0 
SMALL
USER_CHARGES


@<TRIPOS>ATOM
  1 S        0.0580     0.3460    -0.5130 S.o2  1 <1>   1.4970 
  2 O        0.4690     0.5630    -1.8890 O.2   1 <1>  -0.6500 
  3 O        0.0020     1.4800     0.3860 O.2   1 <1>  -0.6500 
  4 N        1.0910    -0.7860     0.1570 N.2   1 <1>  -0.6380 
  5 C       -1.5430    -0.5130    -0.4890 C.ar  1 <1>  -0.0090 
  6 C        2.3390    -0.5510     0.0450 C.2   1 <1>   0.4860 
  7 C       -1.9530    -1.3010    -1.5600 C.ar  1 <1>  -0.1500 
  8 C       -2.3900    -0.4270     0.6120 C.ar  1 <1>  -0.1500 
  9 N        2.9750     0.4610    -0.6120 N.pl3 1 <1>  -0.4710 
 10 C        3.3900    -1.3540     0.5450 C.2   1 <1>  -0.1360 
 11 C       -3.1650    -1.9690    -1.5360 C.ar  1 <1>  -0.1500 
 12 C       -3.6040    -1.0920     0.6460 C.ar  1 <1>  -0.1500 
 13 O        4.3400     0.2800    -0.5630 O.3   1 <1>  -0.0560 
 14 C        4.5600    -0.8200     0.1450 C.2   1 <1>  -0.0620 
 15 C       -4.0000    -1.8710    -0.4360 C.ar  1 <1>   0.0830 
 16 C        6.0070    -1.2590     0.3760 C.3   1 <1>   0.1380 
 17 O       -5.1680    -2.5540    -0.4920 O.3   1 <1>  -0.3620 
 18 C        6.7630    -0.1530     1.1220 C.3   1 <1>  -0.2400 
 19 C        6.0540    -2.5440     1.2140 C.3   1 <1>  -0.2400 
 20 C        6.6830    -1.5220    -0.9760 C.3   1 <1>  -0.2400 
 21 C       -6.0980    -2.5110     0.5650 C.3   1 <1>   0.1200 
 22 C       -7.2950    -3.3750     0.1770 C.3   1 <1>  -0.2400 
 23 H       -1.3180    -1.3920    -2.4250 H     1 <1>   0.1500 
 24 H       -2.0920     0.1720     1.4570 H     1 <1>   0.1500 
 25 H        2.5810     0.8780    -1.4650 H     1 <1>   0.4000 
 26 H        3.2070    -2.2330     1.1320 H     1 <1>   0.1500 
 27 H       -3.4720    -2.5730    -2.3710 H     1 <1>   0.1500 
 28 H       -4.2230    -0.9920     1.5170 H     1 <1>   0.1500 
 29 H        6.2860     0.0550     2.0630 H     1 <1>   0.0800 
 30 H        6.7730     0.7530     0.5420 H     1 <1>   0.0800 
 31 H        7.7800    -0.4470     1.3090 H     1 <1>   0.0800 
 32 H        7.0720    -2.8520     1.3750 H     1 <1>   0.0800 
 33 H        5.5930    -2.3850     2.1720 H     1 <1>   0.0800 
 34 H        5.5360    -3.3410     0.7100 H     1 <1>   0.0800 
 35 H        6.6930    -0.6280    -1.5730 H     1 <1>   0.0800 
 36 H        6.1500    -2.2840    -1.5160 H     1 <1>   0.0800 
 37 H        7.6980    -1.8480    -0.8350 H     1 <1>   0.0800 
 38 H       -6.3990    -1.4890     0.7140 H     1 <1>   0.0800 
 39 H       -5.6240    -2.8960     1.4520 H     1 <1>   0.0800 
 40 H       -7.7510    -2.9920    -0.7180 H     1 <1>   0.0800 
 41 H       -8.0240    -3.3630     0.9660 H     1 <1>   0.0800 
 42 H       -6.9810    -4.3900     0.0150 H     1 <1>   0.0800 
@<TRIPOS>BOND
  1   1   2  2   
  2   1   3  2   
  3   1   4  1   
  4   1   5  1   
  5   4   6  2   
  6   5   7  ar  
  7   5   8  ar  
  8   6   9  1   
  9   6  10  1   
 10   7  11  ar  
 11   7  23  1   
 12   8  12  ar  
 13   8  24  1   
 14   9  13  1   
 15   9  25  1   
 16  10  14  2   
 17  10  26  1   
 18  11  15  ar  
 19  11  27  1   
 20  12  15  ar  
 21  12  28  1   
 22  13  14  1   
 23  14  16  1   
 24  15  17  1   
 25  16  18  1   
 26  16  19  1   
 27  16  20  1   
 28  17  21  1   
 29  18  29  1   
 30  18  30  1   
 31  18  31  1   
 32  19  32  1   
 33  19  33  1   
 34  19  34  1   
 35  20  35  1   
 36  20  36  1   
 37  20  37  1   
 38  21  22  1   
 39  21  38  1   
 40  21  39  1   
 41  22  40  1   
 42  22  41  1   
 43  22  42  1   
@<TRIPOS>SUBSTRUCTURE
  1 ****   4 GROUP 4 **** **** 0

# MOE 2024.06 (io_trps.svl 2023.06)
