@<TRIPOS>MOLECULE
NONAME
39 40 1 0 0 
SMALL
USER_CHARGES


@<TRIPOS>ATOM
  1 O       -1.4480     2.2010     1.0970 O.3   1 <1>  -0.5600 
  2 C       -1.1190     1.8770    -0.2280 C.3   1 <1>   0.1200 
  3 C       -1.9540     1.1270     1.8420 C.3   1 <1>   0.1200 
  4 C       -2.3290     1.2710    -0.9770 C.3   1 <1>   0.3430 
  5 C       -3.2450     0.5660     1.1990 C.3   1 <1>   0.3430 
  6 N       -3.5540     1.2490    -0.1070 N.4   1 <1>  -0.9590 
  7 C       -4.7470     0.6910    -0.8240 C.3   1 <1>   0.3430 
  8 C       -6.0560     0.9240    -0.0660 C.3   1 <1>   0.1200 
  9 O       -7.0810     0.3310    -0.8220 O.3   1 <1>  -0.3630 
 10 C       -8.3720     0.3300    -0.3950 C.ar  1 <1>   0.0820 
 11 C       -9.3050    -0.3610    -1.1630 C.ar  1 <1>  -0.1430 
 12 C       -8.7870     0.9840     0.7630 C.ar  1 <1>  -0.1500 
 13 C      -10.6310    -0.3930    -0.7640 C.ar  1 <1>  -0.1500 
 14 C       -8.8880    -1.0850    -2.4360 C.3   1 <1>  -0.0970 
 15 C      -10.1140     0.9430     1.1490 C.ar  1 <1>  -0.1500 
 16 C      -11.0430     0.2560     0.3870 C.ar  1 <1>  -0.1430 
 17 C      -12.5010     0.2080     0.8100 C.3   1 <1>  -0.0970 
 18 H       -0.2910     1.1880    -0.2190 H     1 <1>   0.0800 
 19 H       -0.7960     2.7810    -0.7140 H     1 <1>   0.0800 
 20 H       -2.1580     1.4830     2.8370 H     1 <1>   0.0800 
 21 H       -1.1970     0.3640     1.9070 H     1 <1>   0.0800 
 22 H       -2.0810     0.2690    -1.2880 H     1 <1>   0.0800 
 23 H       -2.5160     1.8490    -1.8670 H     1 <1>   0.0800 
 24 H       -4.0620     0.7010     1.8890 H     1 <1>   0.0800 
 25 H       -3.1250    -0.4940     1.0440 H     1 <1>   0.0800 
 26 H       -3.7170     2.2400     0.1340 H     1 <1>   0.4500 
 27 H       -4.6150    -0.3680    -0.9740 H     1 <1>   0.0800 
 28 H       -4.8340     1.1610    -1.7910 H     1 <1>   0.0800 
 29 H       -6.2700     1.9740     0.0200 H     1 <1>   0.0800 
 30 H       -6.0430     0.4480     0.8980 H     1 <1>   0.0800 
 31 H       -8.1040     1.5320     1.3810 H     1 <1>   0.1500 
 32 H      -11.3550    -0.9290    -1.3540 H     1 <1>   0.1500 
 33 H       -8.4580    -0.3850    -3.1290 H     1 <1>   0.0800 
 34 H       -9.7300    -1.5570    -2.9070 H     1 <1>   0.0800 
 35 H       -8.1590    -1.8400    -2.2050 H     1 <1>   0.0800 
 36 H      -10.4250     1.4500     2.0460 H     1 <1>   0.1500 
 37 H      -12.6840    -0.6830     1.3820 H     1 <1>   0.0800 
 38 H      -13.1400     0.2050    -0.0540 H     1 <1>   0.0800 
 39 H      -12.7490     1.0650     1.4110 H     1 <1>   0.0800 
@<TRIPOS>BOND
  1   1   2  1   
  2   1   3  1   
  3   2   4  1   
  4   2  18  1   
  5   2  19  1   
  6   3   5  1   
  7   3  20  1   
  8   3  21  1   
  9   4   6  1   
 10   4  22  1   
 11   4  23  1   
 12   5   6  1   
 13   5  24  1   
 14   5  25  1   
 15   6   7  1   
 16   6  26  1   
 17   7   8  1   
 18   7  27  1   
 19   7  28  1   
 20   8   9  1   
 21   8  29  1   
 22   8  30  1   
 23   9  10  1   
 24  10  11  ar  
 25  10  12  ar  
 26  11  13  ar  
 27  11  14  1   
 28  12  15  ar  
 29  12  31  1   
 30  13  16  ar  
 31  13  32  1   
 32  14  33  1   
 33  14  34  1   
 34  14  35  1   
 35  15  16  ar  
 36  15  36  1   
 37  16  17  1   
 38  17  37  1   
 39  17  38  1   
 40  17  39  1   
@<TRIPOS>SUBSTRUCTURE
  1 ****   8 GROUP 4 **** **** 0

# MOE 2024.06 (io_trps.svl 2023.06)
