@<TRIPOS>MOLECULE
NONAME
46 48 1 0 0 
SMALL
USER_CHARGES


@<TRIPOS>ATOM
  1 CL       0.9090    -0.9090    -0.8780 Cl    1 <1>  -0.1770 
  2 C        2.3990    -1.5070    -0.1930 C.ar  1 <1>   0.1770 
  3 C        3.5710    -0.8120    -0.4030 C.ar  1 <1>  -0.1500 
  4 C        2.3760    -2.6700     0.5510 C.ar  1 <1>  -0.1500 
  5 C        4.7640    -1.2790     0.1380 C.ar  1 <1>   0.1170 
  6 C        3.5580    -3.1420     1.0940 C.ar  1 <1>  -0.1500 
  7 N        5.9790    -0.6040    -0.0470 N.am  1 <1>  -0.5470 
  8 C        4.7470    -2.4570     0.8940 C.ar  1 <1>  -0.1430 
  9 C        6.3890     0.4250    -0.8450 C.2   1 <1>   0.5690 
 10 C        6.0270    -3.0130     1.5100 C.3   1 <1>  -0.0960 
 11 O        5.6800     1.0200    -1.6200 O.2   1 <1>  -0.5700 
 12 C        7.8630     0.8140    -0.7210 C.3   1 <1>   0.1710 
 13 N        8.7170    -0.2870    -0.1810 N.3   1 <1>  -0.8100 
 14 C       10.0110     0.2330     0.3160 C.3   1 <1>   0.1100 
 15 C        8.9750    -1.3170    -1.2210 C.3   1 <1>   0.1100 
 16 C       10.9010    -0.8880     0.8870 C.3   1 <1>   0.2090 
 17 C        9.8440    -2.4720    -0.6890 C.3   1 <1>   0.2090 
 18 N       11.1290    -1.9630    -0.1250 N.pl3 1 <1>  -0.8380 
 19 C       12.0640    -2.9430     0.2340 C.ar  1 <1>   0.1000 
 20 C       11.8940    -3.8790     1.2620 C.ar  1 <1>   0.1900 
 21 C       13.2560    -3.0030    -0.4760 C.ar  1 <1>  -0.1500 
 22 F       10.7890    -3.8770     1.9720 F     1 <1>  -0.1900 
 23 C       12.8480    -4.8270     1.5760 C.ar  1 <1>  -0.1500 
 24 C       14.2260    -3.9460    -0.1760 C.ar  1 <1>  -0.1500 
 25 C       14.0260    -4.8590     0.8480 C.ar  1 <1>  -0.1500 
 26 H        3.5410     0.0890    -0.9850 H     1 <1>   0.1500 
 27 H        1.4480    -3.1930     0.6990 H     1 <1>   0.1500 
 28 H        3.5400    -4.0490     1.6750 H     1 <1>   0.1500 
 29 H        6.7770    -0.9890     0.4680 H     1 <1>   0.3700 
 30 H        6.4470    -2.3010     2.1980 H     1 <1>   0.0800 
 31 H        6.7470    -3.2240     0.7400 H     1 <1>   0.0800 
 32 H        5.8350    -3.9240     2.0470 H     1 <1>   0.0800 
 33 H        7.9090     1.6590    -0.0590 H     1 <1>   0.0800 
 34 H        8.2260     1.1290    -1.6840 H     1 <1>   0.0800 
 35 H        9.8320     0.9570     1.0920 H     1 <1>   0.0800 
 36 H       10.5430     0.7220    -0.4830 H     1 <1>   0.0800 
 37 H        9.4790    -0.8700    -2.0610 H     1 <1>   0.0800 
 38 H        8.0420    -1.7230    -1.5720 H     1 <1>   0.0800 
 39 H       10.4270    -1.3040     1.7590 H     1 <1>   0.0800 
 40 H       11.8490    -0.4770     1.1840 H     1 <1>   0.0800 
 41 H       10.0580    -3.1570    -1.4910 H     1 <1>   0.0800 
 42 H        9.2990    -3.0030     0.0700 H     1 <1>   0.0800 
 43 H       13.4140    -2.2960    -1.2700 H     1 <1>   0.1500 
 44 H       12.6720    -5.5240     2.3740 H     1 <1>   0.1500 
 45 H       15.1410    -3.9690    -0.7420 H     1 <1>   0.1500 
 46 H       14.7840    -5.5890     1.0770 H     1 <1>   0.1500 
@<TRIPOS>BOND
  1   1   2  1   
  2   2   3  ar  
  3   2   4  ar  
  4   3   5  ar  
  5   3  26  1   
  6   4   6  ar  
  7   4  27  1   
  8   5   7  1   
  9   5   8  ar  
 10   6   8  ar  
 11   6  28  1   
 12   7   9  am  
 13   7  29  1   
 14   8  10  1   
 15   9  11  2   
 16   9  12  1   
 17  10  30  1   
 18  10  31  1   
 19  10  32  1   
 20  12  13  1   
 21  12  33  1   
 22  12  34  1   
 23  13  14  1   
 24  13  15  1   
 25  14  16  1   
 26  14  35  1   
 27  14  36  1   
 28  15  17  1   
 29  15  37  1   
 30  15  38  1   
 31  16  18  1   
 32  16  39  1   
 33  16  40  1   
 34  17  18  1   
 35  17  41  1   
 36  17  42  1   
 37  18  19  1   
 38  19  20  ar  
 39  19  21  ar  
 40  20  22  1   
 41  20  23  ar  
 42  21  24  ar  
 43  21  43  1   
 44  23  25  ar  
 45  23  44  1   
 46  24  25  ar  
 47  24  45  1   
 48  25  46  1   
@<TRIPOS>SUBSTRUCTURE
  1 ****  15 GROUP 4 **** **** 0

# MOE 2024.06 (io_trps.svl 2023.06)
