@<TRIPOS>MOLECULE
NONAME
35 36 1 0 0 
SMALL
USER_CHARGES


@<TRIPOS>ATOM
  1 F        2.2390    -2.1380    -0.5060 F     1 <1>  -0.3400 
  2 C        3.2440    -1.6490     0.2210 C.3   1 <1>   1.0200 
  3 F        4.3530    -2.0760    -0.3760 F     1 <1>  -0.3400 
  4 F        3.1800    -2.3020     1.3780 F     1 <1>  -0.3400 
  5 C        3.1700    -0.0670     0.3600 C.3   1 <1>   0.5800 
  6 O        2.2340     0.3640     1.3090 O.3   1 <1>  -0.6800 
  7 N        4.4420     0.6130     0.7410 N.am  1 <1>  -0.2980 
  8 C        2.8280     0.6270    -0.9690 C.3   1 <1>  -0.0990 
  9 N        4.7430     1.6500    -0.1210 N.2   1 <1>  -0.5120 
 10 C        5.1870     0.2340     1.8320 C.2   1 <1>   0.5690 
 11 C        3.8880     1.6920    -1.0410 C.2   1 <1>   0.3280 
 12 O        4.6970    -0.3730     2.7560 O.2   1 <1>  -0.5700 
 13 C        6.6640     0.5990     1.8640 C.3   1 <1>   0.1810 
 14 C        3.8700     2.6820    -2.1820 C.3   1 <1>  -0.1790 
 15 O        7.3430    -0.0910     0.8230 O.3   1 <1>  -0.3630 
 16 C        8.2430     0.5910     0.0840 C.ar  1 <1>   0.0820 
 17 C        8.0700     0.6880    -1.2980 C.ar  1 <1>   0.0730 
 18 C        9.3370     1.1770     0.7070 C.ar  1 <1>  -0.1500 
 19 C        6.9400     0.1040    -1.9640 C.1   1 <1>   0.4840 
 20 C        9.0230     1.3890    -2.0300 C.ar  1 <1>  -0.1500 
 21 C       10.2700     1.8720    -0.0400 C.ar  1 <1>  -0.1500 
 22 N        6.0470    -0.3170    -2.5390 N.1   1 <1>  -0.5570 
 23 C       10.1120     1.9770    -1.4110 C.ar  1 <1>  -0.1500 
 24 H        2.6040     0.1580     2.1950 H     1 <1>   0.4000 
 25 H        1.8360     1.0410    -0.9680 H     1 <1>   0.0800 
 26 H        2.9470    -0.0340    -1.8080 H     1 <1>   0.0800 
 27 H        7.1000     0.3060     2.8010 H     1 <1>   0.0800 
 28 H        6.7740     1.6590     1.7230 H     1 <1>   0.0800 
 29 H        3.9700     2.1610    -3.1170 H     1 <1>   0.0800 
 30 H        4.6880     3.3710    -2.0800 H     1 <1>   0.0800 
 31 H        2.9480     3.2330    -2.1770 H     1 <1>   0.0800 
 32 H        9.4650     1.0830     1.7710 H     1 <1>   0.1500 
 33 H        8.9110     1.4790    -3.0980 H     1 <1>   0.1500 
 34 H       11.1190     2.3270     0.4410 H     1 <1>   0.1500 
 35 H       10.8390     2.5170    -1.9940 H     1 <1>   0.1500 
@<TRIPOS>BOND
  1   1   2  1   
  2   2   3  1   
  3   2   4  1   
  4   2   5  1   
  5   5   6  1   
  6   5   7  1   
  7   5   8  1   
  8   6  24  1   
  9   7   9  1   
 10   7  10  am  
 11   8  11  1   
 12   8  25  1   
 13   8  26  1   
 14   9  11  2   
 15  10  12  2   
 16  10  13  1   
 17  11  14  1   
 18  13  15  1   
 19  13  27  1   
 20  13  28  1   
 21  14  29  1   
 22  14  30  1   
 23  14  31  1   
 24  15  16  1   
 25  16  17  ar  
 26  16  18  ar  
 27  17  19  1   
 28  17  20  ar  
 29  18  21  ar  
 30  18  32  1   
 31  19  22  3   
 32  20  23  ar  
 33  20  33  1   
 34  21  23  ar  
 35  21  34  1   
 36  23  35  1   
@<TRIPOS>SUBSTRUCTURE
  1 ****   7 GROUP 4 **** **** 0

# MOE 2024.06 (io_trps.svl 2023.06)
