@<TRIPOS>MOLECULE
NONAME
46 49 1 0 0 
SMALL
USER_CHARGES


@<TRIPOS>ATOM
  1 O       -0.1220     3.2440     1.0130 O.2   1 <1>  -0.5700 
  2 C        0.3800     2.4490     0.2410 C.2   1 <1>   0.6900 
  3 N        1.7360     2.2720     0.1990 N.am  1 <1>  -0.6600 
  4 N       -0.4020     1.7060    -0.5780 N.am  1 <1>  -0.7300 
  5 C        2.6240     2.8420     1.2550 C.3   1 <1>   0.1400 
  6 C        2.4790     1.8430    -1.0210 C.3   1 <1>   0.1400 
  7 C       -1.8860     1.6870    -0.5540 C.3   1 <1>   0.1400 
  8 C        3.5670     3.8970     0.6550 C.3   1 <1>   0.1200 
  9 C        3.4370     2.9530    -1.4870 C.3   1 <1>   0.1200 
 10 C       -2.4430     0.3420    -0.0400 C.3   1 <1>   0.0000 
 11 O        4.2660     3.3680    -0.4380 O.3   1 <1>  -0.5600 
 12 C       -1.9810     0.0620     1.4110 C.3   1 <1>  -0.1600 
 13 C       -2.0000    -0.8390    -0.9390 C.3   1 <1>  -0.1600 
 14 C       -3.9890     0.4060    -0.0510 C.3   1 <1>  -0.1600 
 15 C       -2.5780    -1.2600     1.9280 C.3   1 <1>  -0.0800 
 16 C       -2.5980    -2.1640    -0.4300 C.3   1 <1>  -0.0800 
 17 C       -4.5990    -0.9120     0.4600 C.3   1 <1>  -0.0800 
 18 C       -2.1220    -2.4130     1.0140 C.3   1 <1>  -0.1600 
 19 C       -4.1140    -1.1680     1.8990 C.3   1 <1>  -0.1600 
 20 C       -4.1350    -2.0670    -0.4460 C.3   1 <1>  -0.1600 
 21 H        0.0330     0.8850    -0.9860 H     1 <1>   0.3700 
 22 H        3.2090     2.0500     1.6890 H     1 <1>   0.0800 
 23 H        2.0430     3.2890     2.0430 H     1 <1>   0.0800 
 24 H        1.8000     1.6150    -1.8230 H     1 <1>   0.0800 
 25 H        3.0450     0.9560    -0.7970 H     1 <1>   0.0800 
 26 H       -2.2460     1.8690    -1.5510 H     1 <1>   0.0800 
 27 H       -2.2470     2.4850     0.0730 H     1 <1>   0.0800 
 28 H        4.2890     4.2100     1.3880 H     1 <1>   0.0800 
 29 H        3.0090     4.7570     0.3280 H     1 <1>   0.0800 
 30 H        2.8830     3.8030    -1.8450 H     1 <1>   0.0800 
 31 H        4.0680     2.5920    -2.2800 H     1 <1>   0.0800 
 32 H       -2.2820     0.8720     2.0520 H     1 <1>   0.0800 
 33 H       -0.9070     0.0040     1.4540 H     1 <1>   0.0800 
 34 H       -0.9280    -0.9240    -0.9410 H     1 <1>   0.0800 
 35 H       -2.3180    -0.6680    -1.9520 H     1 <1>   0.0800 
 36 H       -4.3420     0.5970    -1.0500 H     1 <1>   0.0800 
 37 H       -4.3240     1.2170     0.5730 H     1 <1>   0.0800 
 38 H       -2.2430    -1.4390     2.9360 H     1 <1>   0.0800 
 39 H       -2.2790    -2.9750    -1.0620 H     1 <1>   0.0800 
 40 H       -5.6730    -0.8470     0.4450 H     1 <1>   0.0800 
 41 H       -2.5240    -3.3430     1.3750 H     1 <1>   0.0800 
 42 H       -1.0490    -2.4910     1.0360 H     1 <1>   0.0800 
 43 H       -4.5410    -2.0830     2.2700 H     1 <1>   0.0800 
 44 H       -4.4430    -0.3700     2.5410 H     1 <1>   0.0800 
 45 H       -4.5610    -2.9930    -0.1020 H     1 <1>   0.0800 
 46 H       -4.4800    -1.9030    -1.4520 H     1 <1>   0.0800 
@<TRIPOS>BOND
  1   1   2  2   
  2   2   3  am  
  3   2   4  am  
  4   3   5  1   
  5   3   6  1   
  6   4   7  1   
  7   4  21  1   
  8   5   8  1   
  9   5  22  1   
 10   5  23  1   
 11   6   9  1   
 12   6  24  1   
 13   6  25  1   
 14   7  10  1   
 15   7  26  1   
 16   7  27  1   
 17   8  11  1   
 18   8  28  1   
 19   8  29  1   
 20   9  11  1   
 21   9  30  1   
 22   9  31  1   
 23  10  12  1   
 24  10  13  1   
 25  10  14  1   
 26  12  15  1   
 27  12  32  1   
 28  12  33  1   
 29  13  16  1   
 30  13  34  1   
 31  13  35  1   
 32  14  17  1   
 33  14  36  1   
 34  14  37  1   
 35  15  18  1   
 36  15  19  1   
 37  15  38  1   
 38  16  18  1   
 39  16  20  1   
 40  16  39  1   
 41  17  19  1   
 42  17  20  1   
 43  17  40  1   
 44  18  41  1   
 45  18  42  1   
 46  19  43  1   
 47  19  44  1   
 48  20  45  1   
 49  20  46  1   
@<TRIPOS>SUBSTRUCTURE
  1 ****   4 GROUP 4 **** **** 0

# MOE 2024.06 (io_trps.svl 2023.06)
