@<TRIPOS>MOLECULE
NONAME
41 41 1 0 0 
SMALL
USER_CHARGES


@<TRIPOS>ATOM
  1 O        4.1100    -6.5350    -0.0630 O.3   1 <1>  -0.3630 
  2 C        5.3460    -7.0940    -0.1570 C.ar  1 <1>   0.0830 
  3 C        2.9340    -7.3010    -0.0690 C.3   1 <1>   0.1200 
  4 C        6.4610    -6.2510    -0.1420 C.ar  1 <1>  -0.1440 
  5 C        5.5200    -8.4740    -0.2660 C.ar  1 <1>  -0.1500 
  6 C        1.7680    -6.3200     0.0530 C.3   1 <1>   0.3430 
  7 C        7.7250    -6.8180    -0.2390 C.ar  1 <1>  -0.1500 
  8 C        6.3820    -4.7220    -0.0260 C.3   1 <1>   0.0640 
  9 C        6.7880    -9.0160    -0.3610 C.ar  1 <1>  -0.1500 
 10 N        0.4470    -7.0210     0.0580 N.4   1 <1>  -0.9060 
 11 C        7.8920    -8.1870    -0.3470 C.ar  1 <1>  -0.1500 
 12 C        5.7690    -4.2730     1.3060 C.3   1 <1>  -0.2400 
 13 C        5.6600    -4.0870    -1.2210 C.3   1 <1>  -0.2400 
 14 C       -0.6790    -6.0450     0.1780 C.3   1 <1>   0.3430 
 15 C       -2.0420    -6.7420     0.1840 C.3   1 <1>   0.1200 
 16 O       -3.0000    -5.7480     0.2990 O.3   1 <1>  -0.5600 
 17 C       -4.3150    -6.2090     0.3210 C.3   1 <1>   0.0400 
 18 H        2.9700    -7.9720     0.7720 H     1 <1>   0.0800 
 19 H        2.8950    -7.8410    -0.9990 H     1 <1>   0.0800 
 20 H        4.6910    -9.1520    -0.2810 H     1 <1>   0.1500 
 21 H        1.8110    -5.6320    -0.7760 H     1 <1>   0.0800 
 22 H        1.8850    -5.7600     0.9670 H     1 <1>   0.0800 
 23 H        8.6030    -6.1960    -0.2300 H     1 <1>   0.1500 
 24 H        7.3870    -4.3360    -0.0410 H     1 <1>   0.0800 
 25 H        6.9190   -10.0810    -0.4450 H     1 <1>   0.1500 
 26 H        0.4090    -7.6820     0.8450 H     1 <1>   0.4500 
 27 H        0.3380    -7.5600    -0.8110 H     1 <1>   0.4500 
 28 H        8.8810    -8.6040    -0.4200 H     1 <1>   0.1500 
 29 H        4.7310    -4.5410     1.3680 H     1 <1>   0.0800 
 30 H        5.8540    -3.2070     1.4110 H     1 <1>   0.0800 
 31 H        6.2930    -4.7390     2.1210 H     1 <1>   0.0800 
 32 H        4.6200    -4.3480    -1.2330 H     1 <1>   0.0800 
 33 H        6.1100    -4.4240    -2.1370 H     1 <1>   0.0800 
 34 H        5.7430    -3.0160    -1.1750 H     1 <1>   0.0800 
 35 H       -0.6530    -5.3540    -0.6500 H     1 <1>   0.0800 
 36 H       -0.5790    -5.4830     1.0930 H     1 <1>   0.0800 
 37 H       -2.1380    -7.4020     1.0300 H     1 <1>   0.0800 
 38 H       -2.2130    -7.2720    -0.7370 H     1 <1>   0.0800 
 39 H       -4.9680    -5.3580     0.4110 H     1 <1>   0.0800 
 40 H       -4.4550    -6.8600     1.1670 H     1 <1>   0.0800 
 41 H       -4.5300    -6.7290    -0.5970 H     1 <1>   0.0800 
@<TRIPOS>BOND
  1   1   2  1   
  2   1   3  1   
  3   2   4  ar  
  4   2   5  ar  
  5   3   6  1   
  6   3  18  1   
  7   3  19  1   
  8   4   7  ar  
  9   4   8  1   
 10   5   9  ar  
 11   5  20  1   
 12   6  10  1   
 13   6  21  1   
 14   6  22  1   
 15   7  11  ar  
 16   7  23  1   
 17   8  12  1   
 18   8  13  1   
 19   8  24  1   
 20   9  11  ar  
 21   9  25  1   
 22  10  14  1   
 23  10  26  1   
 24  10  27  1   
 25  11  28  1   
 26  12  29  1   
 27  12  30  1   
 28  12  31  1   
 29  13  32  1   
 30  13  33  1   
 31  13  34  1   
 32  14  15  1   
 33  14  35  1   
 34  14  36  1   
 35  15  16  1   
 36  15  37  1   
 37  15  38  1   
 38  16  17  1   
 39  17  39  1   
 40  17  40  1   
 41  17  41  1   
@<TRIPOS>SUBSTRUCTURE
  1 ****   1 GROUP 4 **** **** 0

# MOE 2024.06 (io_trps.svl 2023.06)
