@<TRIPOS>MOLECULE
NONAME
40 42 1 0 0 
SMALL
USER_CHARGES


@<TRIPOS>ATOM
  1 O       -0.6650     0.1280     1.0770 O.2   1 <1>  -0.5700 
  2 C        0.3550    -0.4760     0.8960 C.2   1 <1>   0.4480 
  3 C        0.5080    -1.9910     1.0610 C.3   1 <1>   0.2610 
  4 C        1.6210     0.2570     0.5010 C.3   1 <1>  -0.0990 
  5 O        1.2460    -2.5380    -0.0200 O.3   1 <1>  -0.5600 
  6 C       -0.8340    -2.7420     1.1990 C.3   1 <1>   0.4850 
  7 C        2.3490    -0.5020    -0.6170 C.3   1 <1>  -0.1600 
  8 C        2.4960    -2.0070    -0.3230 C.3   1 <1>   0.2800 
  9 O       -1.6570    -2.1480     2.1680 O.3   1 <1>  -0.6800 
 10 C       -0.5540    -4.2240     1.5120 C.2   1 <1>   0.5690 
 11 C       -1.6440    -2.8870    -0.0910 C.ar  1 <1>  -0.1440 
 12 C        2.9520    -2.7440    -1.5810 C.3   1 <1>  -0.2400 
 13 C        3.4730    -2.3100     0.8210 C.3   1 <1>  -0.2400 
 14 O        0.1110    -4.6230     2.4460 O.2   1 <1>  -0.5700 
 15 N       -1.1300    -5.0200     0.5580 N.am  1 <1>  -0.4770 
 16 C       -1.7670    -4.2310    -0.3970 C.ar  1 <1>   0.1170 
 17 C       -2.2180    -1.9270    -0.9090 C.ar  1 <1>  -0.1500 
 18 C       -1.0460    -6.4970     0.5190 C.3   1 <1>   0.0600 
 19 C       -2.4560    -4.6370    -1.5300 C.ar  1 <1>  -0.1500 
 20 C       -2.9080    -2.3310    -2.0430 C.ar  1 <1>  -0.1500 
 21 C       -3.0250    -3.6790    -2.3520 C.ar  1 <1>  -0.1500 
 22 H        1.0650    -2.1790     1.9590 H     1 <1>   0.0800 
 23 H        2.2530     0.3460     1.3650 H     1 <1>   0.0800 
 24 H        1.3720     1.2490     0.1680 H     1 <1>   0.0800 
 25 H        3.3200    -0.0670    -0.7790 H     1 <1>   0.0800 
 26 H        1.7900    -0.3850    -1.5300 H     1 <1>   0.0800 
 27 H       -1.7970    -1.2100     1.9040 H     1 <1>   0.4000 
 28 H        2.2460    -2.5950    -2.3780 H     1 <1>   0.0800 
 29 H        3.0330    -3.7980    -1.3840 H     1 <1>   0.0800 
 30 H        3.9110    -2.3810    -1.9010 H     1 <1>   0.0800 
 31 H        3.2320    -1.7710     1.7170 H     1 <1>   0.0800 
 32 H        4.4690    -2.0290     0.5320 H     1 <1>   0.0800 
 33 H        3.4720    -3.3640     1.0360 H     1 <1>   0.0800 
 34 H       -2.1400    -0.8800    -0.6800 H     1 <1>   0.1500 
 35 H       -0.5040    -6.8580     1.3760 H     1 <1>   0.0800 
 36 H       -0.5340    -6.8050    -0.3750 H     1 <1>   0.0800 
 37 H       -2.0370    -6.9140     0.5290 H     1 <1>   0.0800 
 38 H       -2.5460    -5.6810    -1.7640 H     1 <1>   0.1500 
 39 H       -3.3560    -1.5930    -2.6850 H     1 <1>   0.1500 
 40 H       -3.5620    -3.9790    -3.2350 H     1 <1>   0.1500 
@<TRIPOS>BOND
  1   1   2  2   
  2   2   3  1   
  3   2   4  1   
  4   3   5  1   
  5   3   6  1   
  6   3  22  1   
  7   4   7  1   
  8   4  23  1   
  9   4  24  1   
 10   5   8  1   
 11   6   9  1   
 12   6  10  1   
 13   6  11  1   
 14   7   8  1   
 15   7  25  1   
 16   7  26  1   
 17   8  12  1   
 18   8  13  1   
 19   9  27  1   
 20  10  14  2   
 21  10  15  am  
 22  11  16  ar  
 23  11  17  ar  
 24  12  28  1   
 25  12  29  1   
 26  12  30  1   
 27  13  31  1   
 28  13  32  1   
 29  13  33  1   
 30  15  16  1   
 31  15  18  1   
 32  16  19  ar  
 33  17  20  ar  
 34  17  34  1   
 35  18  35  1   
 36  18  36  1   
 37  18  37  1   
 38  19  21  ar  
 39  19  38  1   
 40  20  21  ar  
 41  20  39  1   
 42  21  40  1   
@<TRIPOS>SUBSTRUCTURE
  1 ****   6 GROUP 4 **** **** 0

# MOE 2024.06 (io_trps.svl 2023.06)
