@<TRIPOS>MOLECULE
NONAME
35 36 1 0 0 
SMALL
USER_CHARGES


@<TRIPOS>ATOM
  1 O        0.5740    -1.7670    -0.5090 O.3   1 <1>  -0.3630 
  2 C       -0.7470    -1.5990    -0.2230 C.ar  1 <1>   0.0820 
  3 C        1.5810    -1.0680     0.1850 C.3   1 <1>   0.1200 
  4 C       -1.6730    -2.3700    -0.9270 C.ar  1 <1>  -0.1440 
  5 C       -1.1850    -0.6970     0.7440 C.ar  1 <1>  -0.1500 
  6 C        2.9300    -1.5250    -0.3620 C.3   1 <1>   0.0960 
  7 C       -3.0290    -2.2420    -0.6380 C.ar  1 <1>  -0.1440 
  8 C       -1.1950    -3.3520    -1.9980 C.3   1 <1>  -0.0960 
  9 C       -2.5330    -0.5630     1.0190 C.ar  1 <1>  -0.1430 
 10 N        4.0150    -0.8320     0.3540 N.pl3 1 <1>   0.0480 
 11 C       -3.4450    -1.3390     0.3280 C.ar  1 <1>  -0.1500 
 12 C       -4.0910    -3.0710    -1.3490 C.3   1 <1>  -0.0970 
 13 C       -3.0120     0.4200     2.0730 C.3   1 <1>  -0.0970 
 14 C        4.6800    -1.2490     1.4540 C.2   1 <1>   0.0360 
 15 C        4.5450     0.3710     0.0700 C.2   1 <1>  -0.3020 
 16 N        5.5730    -0.4140     1.8770 N.2   1 <1>  -0.5650 
 17 C        5.4910     0.6070     1.0050 C.2   1 <1>   0.0770 
 18 H        1.4960    -1.3040     1.2320 H     1 <1>   0.0800 
 19 H        1.4400    -0.0150     0.0160 H     1 <1>   0.0800 
 20 H       -0.4940    -0.0910     1.2940 H     1 <1>   0.1500 
 21 H        3.0000    -1.2920    -1.4080 H     1 <1>   0.0800 
 22 H        3.0420    -2.5850    -0.2230 H     1 <1>   0.0800 
 23 H       -0.2560    -3.0460    -2.4210 H     1 <1>   0.0800 
 24 H       -1.8960    -3.4140    -2.8090 H     1 <1>   0.0800 
 25 H       -1.0740    -4.3270    -1.5630 H     1 <1>   0.0800 
 26 H       -4.4930    -1.2380     0.5490 H     1 <1>   0.1500 
 27 H       -3.8250    -4.1120    -1.3290 H     1 <1>   0.0800 
 28 H       -4.1830    -2.7490    -2.3710 H     1 <1>   0.0800 
 29 H       -5.0490    -2.9640    -0.8730 H     1 <1>   0.0800 
 30 H       -2.3230     1.2410     2.1660 H     1 <1>   0.0800 
 31 H       -3.0910    -0.0770     3.0230 H     1 <1>   0.0800 
 32 H       -3.9750     0.8160     1.8050 H     1 <1>   0.0800 
 33 H        4.4710    -2.1940     1.9240 H     1 <1>   0.1500 
 34 H        4.2340     0.9800    -0.7590 H     1 <1>   0.1500 
 35 H        6.1280     1.4720     1.0980 H     1 <1>   0.1500 
@<TRIPOS>BOND
  1   1   2  1   
  2   1   3  1   
  3   2   4  ar  
  4   2   5  ar  
  5   3   6  1   
  6   3  18  1   
  7   3  19  1   
  8   4   7  ar  
  9   4   8  1   
 10   5   9  ar  
 11   5  20  1   
 12   6  10  1   
 13   6  21  1   
 14   6  22  1   
 15   7  11  ar  
 16   7  12  1   
 17   8  23  1   
 18   8  24  1   
 19   8  25  1   
 20   9  11  ar  
 21   9  13  1   
 22  10  14  1   
 23  10  15  1   
 24  11  26  1   
 25  12  27  1   
 26  12  28  1   
 27  12  29  1   
 28  13  30  1   
 29  13  31  1   
 30  13  32  1   
 31  14  16  2   
 32  14  33  1   
 33  15  17  2   
 34  15  34  1   
 35  16  17  1   
 36  17  35  1   
@<TRIPOS>SUBSTRUCTURE
  1 ****   1 GROUP 4 **** **** 0

# MOE 2024.06 (io_trps.svl 2023.06)
