@<TRIPOS>MOLECULE
NONAME
41 42 1 0 0 
SMALL
USER_CHARGES


@<TRIPOS>ATOM
  1 CL       1.8410    -2.1460     2.9920 Cl    1 <1>  -0.1770 
  2 C        1.9790    -0.5570     2.2820 C.ar  1 <1>   0.1770 
  3 C        2.3470    -0.3760     0.9490 C.ar  1 <1>  -0.1440 
  4 C        1.7040     0.5160     3.1080 C.ar  1 <1>  -0.1500 
  5 C        2.4260     0.9250     0.4590 C.ar  1 <1>  -0.1500 
  6 C        2.6680    -1.5340     0.0000 C.3   1 <1>   0.5020 
  7 C        1.7940     1.7930     2.5940 C.ar  1 <1>   0.1770 
  8 C        2.1520     2.0080     1.2770 C.ar  1 <1>  -0.1500 
  9 N        1.4010    -2.2110    -0.3250 N.am  1 <1>  -0.7300 
 10 C        3.7590    -2.4900     0.5090 C.2   1 <1>  -0.1240 
 11 CL       1.4520     3.1590     3.6220 Cl    1 <1>  -0.1770 
 12 C        1.1830    -3.5210    -0.1370 C.2   1 <1>   0.6900 
 13 C        3.4560    -3.8120     0.6560 C.2   1 <1>  -0.0290 
 14 C        5.0150    -1.8380     0.7490 C.2   1 <1>   0.7060 
 15 O        0.1010    -4.0070    -0.3690 O.2   1 <1>  -0.5700 
 16 N        2.2010    -4.2860     0.3220 N.am  1 <1>  -0.5390 
 17 C        4.3960    -4.9030     1.1620 C.3   1 <1>  -0.0220 
 18 O        5.9400    -2.3300     1.3640 O.2   1 <1>  -0.5700 
 19 O        5.1940    -0.6100     0.2450 O.3   1 <1>  -0.4300 
 20 C        5.1500    -5.5520    -0.0050 C.3   1 <1>  -0.1600 
 21 C        6.3870     0.1130     0.4560 C.3   1 <1>   0.1200 
 22 C        6.0810    -6.6680     0.4800 C.3   1 <1>  -0.2400 
 23 C        6.2200     1.4900    -0.1790 C.3   1 <1>  -0.2400 
 24 H        1.4230     0.3590     4.1330 H     1 <1>   0.1500 
 25 H        2.7080     1.1070    -0.5650 H     1 <1>   0.1500 
 26 H        3.0290    -1.1200    -0.9260 H     1 <1>   0.0800 
 27 H        2.2140     3.0150     0.9010 H     1 <1>   0.1500 
 28 H        0.5930    -1.6330    -0.5410 H     1 <1>   0.3700 
 29 H        1.9530    -5.2680     0.4410 H     1 <1>   0.3700 
 30 H        3.8260    -5.6520     1.6850 H     1 <1>   0.0800 
 31 H        5.0960    -4.5110     1.8750 H     1 <1>   0.0800 
 32 H        5.7330    -4.8000    -0.5090 H     1 <1>   0.0800 
 33 H        4.4450    -5.9560    -0.7110 H     1 <1>   0.0800 
 34 H        7.2000    -0.4290     0.0030 H     1 <1>   0.0800 
 35 H        6.5550     0.1970     1.5170 H     1 <1>   0.0800 
 36 H        6.8090    -6.2750     1.1680 H     1 <1>   0.0800 
 37 H        6.6010    -7.1020    -0.3560 H     1 <1>   0.0800 
 38 H        5.5190    -7.4420     0.9730 H     1 <1>   0.0800 
 39 H        5.4040     2.0160     0.2850 H     1 <1>   0.0800 
 40 H        6.0390     1.3940    -1.2340 H     1 <1>   0.0800 
 41 H        7.1190     2.0640    -0.0370 H     1 <1>   0.0800 
@<TRIPOS>BOND
  1   1   2  1   
  2   2   3  ar  
  3   2   4  ar  
  4   3   5  ar  
  5   3   6  1   
  6   4   7  ar  
  7   4  24  1   
  8   5   8  ar  
  9   5  25  1   
 10   6   9  1   
 11   6  10  1   
 12   6  26  1   
 13   7   8  ar  
 14   7  11  1   
 15   8  27  1   
 16   9  12  am  
 17   9  28  1   
 18  10  13  2   
 19  10  14  1   
 20  12  15  2   
 21  12  16  am  
 22  13  16  1   
 23  13  17  1   
 24  14  18  2   
 25  14  19  1   
 26  16  29  1   
 27  17  20  1   
 28  17  30  1   
 29  17  31  1   
 30  19  21  1   
 31  20  22  1   
 32  20  32  1   
 33  20  33  1   
 34  21  23  1   
 35  21  34  1   
 36  21  35  1   
 37  22  36  1   
 38  22  37  1   
 39  22  38  1   
 40  23  39  1   
 41  23  40  1   
 42  23  41  1   
@<TRIPOS>SUBSTRUCTURE
  1 ****  10 GROUP 4 **** **** 0

# MOE 2024.06 (io_trps.svl 2023.06)
