@<TRIPOS>MOLECULE
NONAME
43 44 1 0 0 
SMALL
USER_CHARGES


@<TRIPOS>ATOM
  1 O       -0.7160     1.6960    -1.1520 O.3   1 <1>  -0.3630 
  2 C        0.0960     2.0670    -0.1310 C.ar  1 <1>   0.0820 
  3 C       -1.9750     1.1450    -0.8250 C.3   1 <1>   0.1200 
  4 C        0.7560     1.1050     0.6350 C.ar  1 <1>  -0.1440 
  5 C        0.2790     3.4250     0.1290 C.ar  1 <1>  -0.1440 
  6 C       -2.9900     2.2670    -0.6010 C.3   1 <1>  -0.1600 
  7 C        1.5460     1.5140     1.6970 C.ar  1 <1>  -0.1500 
  8 C        0.6610    -0.3860     0.3360 C.3   1 <1>  -0.0960 
  9 C        1.0760     3.8090     1.1940 C.ar  1 <1>  -0.1500 
 10 C       -0.3660     4.5060    -0.7280 C.3   1 <1>  -0.0970 
 11 C       -4.3810     1.6940    -0.3430 C.3   1 <1>   0.1200 
 12 C        1.7020     2.8580     1.9800 C.ar  1 <1>  -0.1500 
 13 O       -5.2710     2.7700    -0.1540 O.3   1 <1>  -0.3630 
 14 C       -6.5850     2.5540     0.1060 C.ar  1 <1>   0.0820 
 15 C       -7.1590     1.2910     0.2030 C.ar  1 <1>  -0.1500 
 16 C       -7.3780     3.6770     0.2810 C.ar  1 <1>  -0.1500 
 17 C       -8.5100     1.1530     0.4720 C.ar  1 <1>   0.0820 
 18 C       -8.7290     3.5470     0.5500 C.ar  1 <1>  -0.1500 
 19 O       -8.9880    -0.1150     0.5510 O.3   1 <1>  -0.3620 
 20 C       -9.2980     2.2890     0.6460 C.ar  1 <1>  -0.1500 
 21 C      -10.3490    -0.3690     0.8200 C.3   1 <1>   0.0400 
 22 H       -1.8780     0.5370     0.0570 H     1 <1>   0.0800 
 23 H       -2.2750     0.5260    -1.6520 H     1 <1>   0.0800 
 24 H       -3.0220     2.8950    -1.4730 H     1 <1>   0.0800 
 25 H       -2.6920     2.8470     0.2550 H     1 <1>   0.0800 
 26 H        2.0520     0.7860     2.3070 H     1 <1>   0.1500 
 27 H       -0.1530    -0.8220     0.8860 H     1 <1>   0.0800 
 28 H        1.5720    -0.8820     0.6190 H     1 <1>   0.0800 
 29 H        0.5070    -0.5520    -0.7150 H     1 <1>   0.0800 
 30 H        1.2160     4.8520     1.4170 H     1 <1>   0.1500 
 31 H       -0.4980     4.1630    -1.7380 H     1 <1>   0.0800 
 32 H        0.2540     5.3830    -0.7540 H     1 <1>   0.0800 
 33 H       -1.3250     4.7730    -0.3220 H     1 <1>   0.0800 
 34 H       -4.3860     1.0910     0.5480 H     1 <1>   0.0800 
 35 H       -4.7220     1.1200    -1.1880 H     1 <1>   0.0800 
 36 H        2.3160     3.1660     2.8080 H     1 <1>   0.1500 
 37 H       -6.5830     0.3960     0.0750 H     1 <1>   0.1500 
 38 H       -6.9290     4.6510     0.2050 H     1 <1>   0.1500 
 39 H       -9.3360     4.4250     0.6840 H     1 <1>   0.1500 
 40 H      -10.3480     2.2140     0.8560 H     1 <1>   0.1500 
 41 H      -10.4930    -1.4340     0.8340 H     1 <1>   0.0800 
 42 H      -10.9470     0.0700     0.0410 H     1 <1>   0.0800 
 43 H      -10.5990     0.0460     1.7800 H     1 <1>   0.0800 
@<TRIPOS>BOND
  1   1   2  1   
  2   1   3  1   
  3   2   4  ar  
  4   2   5  ar  
  5   3   6  1   
  6   3  22  1   
  7   3  23  1   
  8   4   7  ar  
  9   4   8  1   
 10   5   9  ar  
 11   5  10  1   
 12   6  11  1   
 13   6  24  1   
 14   6  25  1   
 15   7  12  ar  
 16   7  26  1   
 17   8  27  1   
 18   8  28  1   
 19   8  29  1   
 20   9  12  ar  
 21   9  30  1   
 22  10  31  1   
 23  10  32  1   
 24  10  33  1   
 25  11  13  1   
 26  11  34  1   
 27  11  35  1   
 28  12  36  1   
 29  13  14  1   
 30  14  15  ar  
 31  14  16  ar  
 32  15  17  ar  
 33  15  37  1   
 34  16  18  ar  
 35  16  38  1   
 36  17  19  1   
 37  17  20  ar  
 38  18  20  ar  
 39  18  39  1   
 40  19  21  1   
 41  20  40  1   
 42  21  41  1   
 43  21  42  1   
 44  21  43  1   
@<TRIPOS>SUBSTRUCTURE
  1 ****  11 GROUP 4 **** **** 0

# MOE 2024.06 (io_trps.svl 2023.06)
