@<TRIPOS>MOLECULE
NONAME
49 51 1 0 0 
SMALL
USER_CHARGES


@<TRIPOS>ATOM
  1 O        0.7250     0.0570     0.2110 O.2   1 <1>  -0.5700 
  2 C        1.5740    -0.7600    -0.0860 C.2   1 <1>   0.6340 
  3 O        2.8030    -0.3190    -0.3860 O.3   1 <1>  -0.4300 
  4 C        1.3330    -2.1870    -0.1300 C.ar  1 <1>   0.0860 
  5 C        3.1230     1.0580    -0.3690 C.3   1 <1>   0.0400 
  6 C        0.0560    -2.7140     0.0800 C.ar  1 <1>  -0.1500 
  7 C        2.3600    -3.1020    -0.3820 C.ar  1 <1>  -0.1500 
  8 C       -0.1950    -4.0760     0.0460 C.ar  1 <1>   0.1170 
  9 C        2.1270    -4.4630    -0.4150 C.ar  1 <1>  -0.1500 
 10 N       -1.4580    -4.6460     0.2610 N.am  1 <1>  -0.5470 
 11 C        0.8550    -4.9740    -0.1970 C.ar  1 <1>   0.1000 
 12 C       -2.7400    -4.1630     0.2090 C.2   1 <1>   0.5440 
 13 N        0.6130    -6.3520    -0.2300 N.pl3 1 <1>  -0.8380 
 14 O       -2.9450    -3.0120    -0.1190 O.2   1 <1>  -0.5700 
 15 C       -3.8470    -5.0520     0.5160 C.ar  1 <1>   0.0860 
 16 C        1.4550    -7.2370     0.6300 C.3   1 <1>   0.2090 
 17 C        0.3930    -6.9430    -1.5840 C.3   1 <1>   0.2090 
 18 C       -5.0950    -4.8740    -0.0770 C.ar  1 <1>  -0.1500 
 19 C       -3.7100    -6.1190     1.4090 C.ar  1 <1>  -0.1500 
 20 C        0.9030    -8.6740     0.6350 C.3   1 <1>   0.1200 
 21 C       -0.1010    -8.3970    -1.4720 C.3   1 <1>   0.1200 
 22 C       -6.1590    -5.7180     0.1860 C.ar  1 <1>   0.0830 
 23 C       -4.7650    -6.9720     1.6810 C.ar  1 <1>  -0.1500 
 24 O        0.7620    -9.1600    -0.6720 O.3   1 <1>  -0.5600 
 25 O       -7.3240    -5.4510    -0.4530 O.3   1 <1>  -0.3630 
 26 C       -5.9900    -6.7780     1.0710 C.ar  1 <1>  -0.1500 
 27 C       -8.4870    -6.2120    -0.2160 C.3   1 <1>   0.0400 
 28 H        4.1560     1.1710    -0.6420 H     1 <1>   0.0800 
 29 H        2.9560     1.4420     0.6220 H     1 <1>   0.0800 
 30 H        2.4930     1.5690    -1.0760 H     1 <1>   0.0800 
 31 H       -0.7520    -2.0330     0.2780 H     1 <1>   0.1500 
 32 H        3.3590    -2.7410    -0.5550 H     1 <1>   0.1500 
 33 H        2.9380    -5.1370    -0.6180 H     1 <1>   0.1500 
 34 H       -1.3600    -5.6620     0.3170 H     1 <1>   0.3700 
 35 H        1.4710    -6.8520     1.6340 H     1 <1>   0.0800 
 36 H        2.4650    -7.2540     0.2590 H     1 <1>   0.0800 
 37 H        1.3130    -6.9230    -2.1400 H     1 <1>   0.0800 
 38 H       -0.3340    -6.3550    -2.1180 H     1 <1>   0.0800 
 39 H       -5.2400    -4.0550    -0.7600 H     1 <1>   0.1500 
 40 H       -2.7690    -6.2810     1.9050 H     1 <1>   0.1500 
 41 H       -0.0580    -8.7050     1.1190 H     1 <1>   0.0800 
 42 H        1.5760    -9.3290     1.1570 H     1 <1>   0.0800 
 43 H       -0.1350    -8.8530    -2.4450 H     1 <1>   0.0800 
 44 H       -1.0860    -8.4270    -1.0410 H     1 <1>   0.0800 
 45 H       -4.6340    -7.7880     2.3720 H     1 <1>   0.1500 
 46 H       -6.7950    -7.4520     1.2970 H     1 <1>   0.1500 
 47 H       -9.2820    -5.8030    -0.8140 H     1 <1>   0.0800 
 48 H       -8.7430    -6.1440     0.8260 H     1 <1>   0.0800 
 49 H       -8.3030    -7.2320    -0.5040 H     1 <1>   0.0800 
@<TRIPOS>BOND
  1   1   2  2   
  2   2   3  1   
  3   2   4  1   
  4   3   5  1   
  5   4   6  ar  
  6   4   7  ar  
  7   5  28  1   
  8   5  29  1   
  9   5  30  1   
 10   6   8  ar  
 11   6  31  1   
 12   7   9  ar  
 13   7  32  1   
 14   8  10  1   
 15   8  11  ar  
 16   9  11  ar  
 17   9  33  1   
 18  10  12  am  
 19  10  34  1   
 20  11  13  1   
 21  12  14  2   
 22  12  15  1   
 23  13  16  1   
 24  13  17  1   
 25  15  18  ar  
 26  15  19  ar  
 27  16  20  1   
 28  16  35  1   
 29  16  36  1   
 30  17  21  1   
 31  17  37  1   
 32  17  38  1   
 33  18  22  ar  
 34  18  39  1   
 35  19  23  ar  
 36  19  40  1   
 37  20  24  1   
 38  20  41  1   
 39  20  42  1   
 40  21  24  1   
 41  21  43  1   
 42  21  44  1   
 43  22  25  1   
 44  22  26  ar  
 45  23  26  ar  
 46  23  45  1   
 47  25  27  1   
 48  26  46  1   
 49  27  47  1   
 50  27  48  1   
 51  27  49  1   
@<TRIPOS>SUBSTRUCTURE
  1 ****  10 GROUP 4 **** **** 0

# MOE 2024.06 (io_trps.svl 2023.06)
