@<TRIPOS>MOLECULE
NONAME
44 45 1 0 0 
SMALL
USER_CHARGES


@<TRIPOS>ATOM
  1 O       -1.9720     0.5810    -0.4900 O.2   1 <1>  -0.5700 
  2 C       -1.5700    -0.0670     0.4570 C.2   1 <1>   0.6900 
  3 N       -0.6130    -1.0020     0.3200 N.am  1 <1>  -0.7300 
  4 N       -2.1190     0.1160     1.6790 N.am  1 <1>  -0.7300 
  5 C        0.1010    -1.3100    -0.9310 C.3   1 <1>   0.2200 
  6 C       -2.9340     1.2970     2.0960 C.3   1 <1>   0.1400 
  7 C       -0.1690    -2.7700    -1.3100 C.3   1 <1>  -0.1600 
  8 C        1.5980    -1.0580    -0.7210 C.3   1 <1>  -0.1600 
  9 C       -4.4190     1.1580     1.6970 C.3   1 <1>   0.3430 
 10 C        0.6340    -3.1760    -2.5540 C.3   1 <1>  -0.1600 
 11 C        2.4050    -1.4610    -1.9640 C.3   1 <1>  -0.1600 
 12 N       -4.5740     1.0360     0.2200 N.4   1 <1>  -0.9590 
 13 C        2.1340    -2.9200    -2.3530 C.3   1 <1>  -0.1600 
 14 C       -4.5490     2.3550    -0.4970 C.3   1 <1>   0.3430 
 15 C       -5.7460     0.2040    -0.2020 C.3   1 <1>   0.3430 
 16 C       -4.7040     2.1590    -2.0160 C.3   1 <1>   0.1200 
 17 C       -5.8470     0.1230    -1.7380 C.3   1 <1>   0.1200 
 18 O       -5.8530     1.4070    -2.2920 O.3   1 <1>  -0.5600 
 19 H       -0.2900    -1.5250     1.1290 H     1 <1>   0.3700 
 20 H       -1.6820    -0.4020     2.4430 H     1 <1>   0.3700 
 21 H       -0.2520    -0.6710    -1.7250 H     1 <1>   0.0800 
 22 H       -2.5210     2.1890     1.6560 H     1 <1>   0.0800 
 23 H       -2.8680     1.4020     3.1650 H     1 <1>   0.0800 
 24 H       -1.2180    -2.8990    -1.5090 H     1 <1>   0.0800 
 25 H        0.1070    -3.4130    -0.4930 H     1 <1>   0.0800 
 26 H        1.9480    -1.6300     0.1200 H     1 <1>   0.0800 
 27 H        1.7590    -0.0140    -0.5180 H     1 <1>   0.0800 
 28 H       -4.9760     2.0080     2.0550 H     1 <1>   0.0800 
 29 H       -4.8130     0.2770     2.1780 H     1 <1>   0.0800 
 30 H        0.2880    -2.6120    -3.4040 H     1 <1>   0.0800 
 31 H        0.4720    -4.2200    -2.7650 H     1 <1>   0.0800 
 32 H        3.4560    -1.3280    -1.7710 H     1 <1>   0.0800 
 33 H        2.1390    -0.8180    -2.7860 H     1 <1>   0.0800 
 34 H       -3.7090     0.5540    -0.1100 H     1 <1>   0.4500 
 35 H        2.6640    -3.1550    -3.2610 H     1 <1>   0.0800 
 36 H        2.5060    -3.5700    -1.5800 H     1 <1>   0.0800 
 37 H       -3.6150     2.8570    -0.3040 H     1 <1>   0.0800 
 38 H       -5.3510     2.9820    -0.1460 H     1 <1>   0.0800 
 39 H       -6.6570     0.6350     0.1780 H     1 <1>   0.0800 
 40 H       -5.6540    -0.7920     0.2000 H     1 <1>   0.0800 
 41 H       -3.8470     1.6540    -2.4280 H     1 <1>   0.0800 
 42 H       -4.8090     3.1120    -2.5050 H     1 <1>   0.0800 
 43 H       -6.7630    -0.3630    -2.0260 H     1 <1>   0.0800 
 44 H       -5.0200    -0.4290    -2.1510 H     1 <1>   0.0800 
@<TRIPOS>BOND
  1   1   2  2   
  2   2   3  am  
  3   2   4  am  
  4   3   5  1   
  5   3  19  1   
  6   4   6  1   
  7   4  20  1   
  8   5   7  1   
  9   5   8  1   
 10   5  21  1   
 11   6   9  1   
 12   6  22  1   
 13   6  23  1   
 14   7  10  1   
 15   7  24  1   
 16   7  25  1   
 17   8  11  1   
 18   8  26  1   
 19   8  27  1   
 20   9  12  1   
 21   9  28  1   
 22   9  29  1   
 23  10  13  1   
 24  10  30  1   
 25  10  31  1   
 26  11  13  1   
 27  11  32  1   
 28  11  33  1   
 29  12  14  1   
 30  12  15  1   
 31  12  34  1   
 32  13  35  1   
 33  13  36  1   
 34  14  16  1   
 35  14  37  1   
 36  14  38  1   
 37  15  17  1   
 38  15  39  1   
 39  15  40  1   
 40  16  18  1   
 41  16  41  1   
 42  16  42  1   
 43  17  18  1   
 44  17  43  1   
 45  17  44  1   
@<TRIPOS>SUBSTRUCTURE
  1 ****   1 GROUP 4 **** **** 0

# MOE 2024.06 (io_trps.svl 2023.06)
