@<TRIPOS>MOLECULE
NONAME
31 32 1 0 0 
SMALL
USER_CHARGES


@<TRIPOS>ATOM
  1 S       -0.7700     0.6620     1.1670 S.3   1 <1>  -0.0800 
  2 C        0.7640     0.9420     0.4330 C.2   1 <1>   0.4340 
  3 C       -1.4480     0.8840    -0.4170 C.2   1 <1>   0.4420 
  4 S        2.1920     0.8840     1.5020 S.3   1 <1>  -0.2860 
  5 N        0.7230     1.1650    -0.8170 N.2   1 <1>  -0.3380 
  6 N       -0.5550     1.1320    -1.3090 N.2   1 <1>  -0.3380 
  7 N       -2.8150     0.7720    -0.5170 N.am  1 <1>  -0.4940 
  8 C        3.5910     1.2280     0.3490 C.3   1 <1>   0.0700 
  9 C       -3.6510     0.8880    -1.5940 C.2   1 <1>   0.7160 
 10 C        4.8860     1.2040     1.1570 C.3   1 <1>  -0.2400 
 11 O       -3.2160     1.1340    -2.7030 O.2   1 <1>  -0.5700 
 12 C       -5.0670     0.7030    -1.3430 C.2   1 <1>   0.2030 
 13 N       -5.5900     0.4310    -0.1590 N.2   1 <1>  -0.7070 
 14 C       -6.0750     0.7860    -2.3100 C.2   1 <1>  -0.1500 
 15 N       -6.9130     0.3430    -0.3640 N.pl3 1 <1>   0.3140 
 16 C       -7.2280     0.5520    -1.6560 C.2   1 <1>  -0.3020 
 17 C       -7.8660     0.0450     0.7260 C.3   1 <1>   0.0960 
 18 C       -8.5580     1.3210     1.2220 C.3   1 <1>  -0.2400 
 19 H       -3.3350     0.5650     0.3360 H     1 <1>   0.3700 
 20 H        3.4120     2.1920    -0.0950 H     1 <1>   0.0800 
 21 H        3.5770     0.4640    -0.4090 H     1 <1>   0.0800 
 22 H        4.8580     1.9570     1.9250 H     1 <1>   0.0800 
 23 H        5.7230     1.4020     0.5120 H     1 <1>   0.0800 
 24 H        5.0220     0.2400     1.6130 H     1 <1>   0.0800 
 25 H       -5.9130     0.9960    -3.3540 H     1 <1>   0.1500 
 26 H       -8.2360     0.5250    -2.0280 H     1 <1>   0.1500 
 27 H       -7.3230    -0.4150     1.5320 H     1 <1>   0.0800 
 28 H       -8.5940    -0.6570     0.3610 H     1 <1>   0.0800 
 29 H       -7.8260     2.0180     1.5910 H     1 <1>   0.0800 
 30 H       -9.2350     1.0810     2.0220 H     1 <1>   0.0800 
 31 H       -9.1170     1.7800     0.4260 H     1 <1>   0.0800 
@<TRIPOS>BOND
  1   1   2  1   
  2   1   3  1   
  3   2   4  1   
  4   2   5  2   
  5   3   6  2   
  6   3   7  1   
  7   4   8  1   
  8   5   6  1   
  9   7   9  am  
 10   7  19  1   
 11   8  10  1   
 12   8  20  1   
 13   8  21  1   
 14   9  11  2   
 15   9  12  1   
 16  10  22  1   
 17  10  23  1   
 18  10  24  1   
 19  12  13  2   
 20  12  14  1   
 21  13  15  1   
 22  14  16  2   
 23  14  25  1   
 24  15  16  1   
 25  15  17  1   
 26  16  26  1   
 27  17  18  1   
 28  17  27  1   
 29  17  28  1   
 30  18  29  1   
 31  18  30  1   
 32  18  31  1   
@<TRIPOS>SUBSTRUCTURE
  1 ****   7 GROUP 4 **** **** 0

# MOE 2024.06 (io_trps.svl 2023.06)
