@<TRIPOS>MOLECULE
NONAME
47 49 1 0 0 
SMALL
USER_CHARGES


@<TRIPOS>ATOM
  1 S        0.1750     0.1980    -2.2210 S.o2  1 <1>   1.4470 
  2 O       -0.5170    -0.0540    -3.4630 O.2   1 <1>  -0.6500 
  3 O        1.5870    -0.1100    -2.1300 O.2   1 <1>  -0.6500 
  4 N        0.0420     1.8970    -1.8910 N.am  1 <1>  -0.6930 
  5 C       -0.6970    -0.5690    -0.8260 C.ar  1 <1>  -0.0090 
  6 C       -1.1880     2.5300    -1.7340 C.ar  1 <1>   0.1990 
  7 C        1.3020     2.6940    -1.7490 C.3   1 <1>   0.2570 
  8 C       -0.4840    -0.1620     0.4870 C.ar  1 <1>  -0.1500 
  9 C       -1.5980    -1.6060    -1.0390 C.ar  1 <1>  -0.1500 
 10 C       -1.4800     3.2180    -0.5600 C.ar  1 <1>  -0.1500 
 11 C       -2.1520     2.4940    -2.7350 C.ar  1 <1>  -0.1500 
 12 C        1.9890     2.5490    -0.3870 C.2   1 <1>   0.5690 
 13 C       -1.1430    -0.7640     1.5440 C.ar  1 <1>  -0.1500 
 14 C       -2.2610    -2.2130     0.0140 C.ar  1 <1>  -0.1500 
 15 C       -2.6990     3.8500    -0.3820 C.ar  1 <1>  -0.1430 
 16 C       -3.3730     3.1190    -2.5650 C.ar  1 <1>  -0.1500 
 17 O        1.8680     3.4380     0.4240 O.2   1 <1>  -0.5700 
 18 N        2.7010     1.4210    -0.1210 N.am  1 <1>  -0.5790 
 19 C       -2.0370    -1.7930     1.3130 C.ar  1 <1>  -0.1430 
 20 C       -3.6470     3.7950    -1.3890 C.ar  1 <1>  -0.1500 
 21 C       -2.9990     4.5920     0.9080 C.3   1 <1>  -0.0970 
 22 C        3.3430     1.0810     1.1540 C.3   1 <1>   0.0490 
 23 C       -2.7620    -2.4550     2.4710 C.3   1 <1>  -0.0970 
 24 C        4.4760     0.1100     1.1300 C.3   1 <1>  -0.2000 
 25 C        3.1430    -0.3020     1.6800 C.3   1 <1>  -0.2000 
 26 H        1.0720     3.7350    -1.8950 H     1 <1>   0.0800 
 27 H        1.9930     2.4080    -2.5220 H     1 <1>   0.0800 
 28 H        0.2040     0.6370     0.6960 H     1 <1>   0.1500 
 29 H       -1.7870    -1.9450    -2.0440 H     1 <1>   0.1500 
 30 H       -0.7460     3.2540     0.2240 H     1 <1>   0.1500 
 31 H       -1.9460     1.9800    -3.6570 H     1 <1>   0.1500 
 32 H       -0.9550    -0.4250     2.5480 H     1 <1>   0.1500 
 33 H       -2.9530    -3.0130    -0.1850 H     1 <1>   0.1500 
 34 H       -4.1110     3.0800    -3.3470 H     1 <1>   0.1500 
 35 H        2.7010     0.6660    -0.8230 H     1 <1>   0.3700 
 36 H       -4.6010     4.2780    -1.2620 H     1 <1>   0.1500 
 37 H       -2.0900     4.8350     1.4280 H     1 <1>   0.0800 
 38 H       -3.6110     3.9800     1.5450 H     1 <1>   0.0800 
 39 H       -3.5230     5.5080     0.6960 H     1 <1>   0.0800 
 40 H        3.3750     1.9030     1.8520 H     1 <1>   0.1000 
 41 H       -2.9290    -1.7480     3.2630 H     1 <1>   0.0800 
 42 H       -2.1720    -3.2700     2.8520 H     1 <1>   0.0800 
 43 H       -3.7150    -2.8360     2.1520 H     1 <1>   0.0800 
 44 H        5.2890     0.2490     1.8200 H     1 <1>   0.1000 
 45 H        4.7980    -0.2920     0.1850 H     1 <1>   0.1000 
 46 H        2.5390    -0.9920     1.1170 H     1 <1>   0.1000 
 47 H        3.0540    -0.4430     2.7420 H     1 <1>   0.1000 
@<TRIPOS>BOND
  1   1   2  2   
  2   1   3  2   
  3   1   4  am  
  4   1   5  1   
  5   4   6  1   
  6   4   7  1   
  7   5   8  ar  
  8   5   9  ar  
  9   6  10  ar  
 10   6  11  ar  
 11   7  12  1   
 12   7  26  1   
 13   7  27  1   
 14   8  13  ar  
 15   8  28  1   
 16   9  14  ar  
 17   9  29  1   
 18  10  15  ar  
 19  10  30  1   
 20  11  16  ar  
 21  11  31  1   
 22  12  17  2   
 23  12  18  am  
 24  13  19  ar  
 25  13  32  1   
 26  14  19  ar  
 27  14  33  1   
 28  15  20  ar  
 29  15  21  1   
 30  16  20  ar  
 31  16  34  1   
 32  18  22  1   
 33  18  35  1   
 34  19  23  1   
 35  20  36  1   
 36  21  37  1   
 37  21  38  1   
 38  21  39  1   
 39  22  24  1   
 40  22  25  1   
 41  22  40  1   
 42  23  41  1   
 43  23  42  1   
 44  23  43  1   
 45  24  25  1   
 46  24  44  1   
 47  24  45  1   
 48  25  46  1   
 49  25  47  1   
@<TRIPOS>SUBSTRUCTURE
  1 ****   8 GROUP 4 **** **** 0

# MOE 2024.06 (io_trps.svl 2023.06)
