@<TRIPOS>MOLECULE
NONAME
51 53 1 0 0 
SMALL
USER_CHARGES


@<TRIPOS>ATOM
  1 S        0.3860    -0.2160    -0.7220 S.o2  1 <1>   1.4470 
  2 O       -0.1800     0.1290    -2.0100 O.2   1 <1>  -0.6500 
  3 O        0.2080    -1.5550    -0.2060 O.2   1 <1>  -0.6500 
  4 N       -0.2870     0.8400     0.4180 N.am  1 <1>  -0.8490 
  5 C        2.1470     0.2120    -0.6860 C.ar  1 <1>  -0.0090 
  6 C       -0.3590     2.2290    -0.0040 C.3   1 <1>   0.1960 
  7 C       -1.6410     0.4770     0.7900 C.3   1 <1>   0.1960 
  8 C        2.8370     0.2800     0.5170 C.ar  1 <1>  -0.1500 
  9 C        2.8500     0.4780    -1.8550 C.ar  1 <1>  -0.1500 
 10 C       -1.3180     2.8700     0.9900 C.3   1 <1>  -0.1600 
 11 C       -2.1960     1.7180     1.4820 C.3   1 <1>  -0.1600 
 12 C        4.1830     0.6040     0.5690 C.ar  1 <1>  -0.1430 
 13 C        4.1940     0.8040    -1.8260 C.ar  1 <1>  -0.1500 
 14 C        4.8700     0.8670    -0.6110 C.ar  1 <1>   0.0820 
 15 C        4.8910     0.6640     1.9160 C.3   1 <1>  -0.0970 
 16 O        6.1860     1.1760    -0.5170 O.3   1 <1>  -0.3630 
 17 C        7.0030     1.3360    -1.6700 C.3   1 <1>   0.1810 
 18 C        8.4520     1.5810    -1.2800 C.2   1 <1>   0.5690 
 19 O        9.2470     1.8180    -2.1560 O.2   1 <1>  -0.5700 
 20 N        8.7800     1.5270     0.0460 N.am  1 <1>  -0.5470 
 21 C       10.0100     1.7680     0.6730 C.ar  1 <1>   0.1170 
 22 C       11.1500     0.9950     0.4360 C.ar  1 <1>  -0.1430 
 23 C       10.0800     2.8090     1.5900 C.ar  1 <1>  -0.1500 
 24 C       12.3270     1.2890     1.1070 C.ar  1 <1>  -0.1500 
 25 C       11.1430    -0.1740    -0.5400 C.3   1 <1>  -0.0970 
 26 C       11.2560     3.0930     2.2580 C.ar  1 <1>  -0.1500 
 27 C       12.3840     2.3320     2.0150 C.ar  1 <1>  -0.1500 
 28 H       -0.7730     2.3000    -0.9970 H     1 <1>   0.0800 
 29 H        0.6130     2.6940     0.0160 H     1 <1>   0.0800 
 30 H       -1.6450    -0.3840     1.4380 H     1 <1>   0.0800 
 31 H       -2.2190     0.2620    -0.0950 H     1 <1>   0.0800 
 32 H        2.2980     0.0710     1.4270 H     1 <1>   0.1500 
 33 H        2.3350     0.4290    -2.8010 H     1 <1>   0.1500 
 34 H       -1.8930     3.6490     0.5220 H     1 <1>   0.0800 
 35 H       -0.7600     3.2880     1.8090 H     1 <1>   0.0800 
 36 H       -2.1080     1.6100     2.5490 H     1 <1>   0.0800 
 37 H       -3.2310     1.8610     1.2270 H     1 <1>   0.0800 
 38 H        4.6880     1.0020    -2.7580 H     1 <1>   0.1500 
 39 H        4.2140     0.4410     2.7210 H     1 <1>   0.0800 
 40 H        5.2960     1.6470     2.0730 H     1 <1>   0.0800 
 41 H        5.6940    -0.0510     1.9380 H     1 <1>   0.0800 
 42 H        6.6390     2.1760    -2.2320 H     1 <1>   0.0800 
 43 H        6.9420     0.4400    -2.2600 H     1 <1>   0.0800 
 44 H        7.9780     1.3990     0.6650 H     1 <1>   0.3700 
 45 H        9.2070     3.4070     1.7770 H     1 <1>   0.1500 
 46 H       13.2130     0.7060     0.9260 H     1 <1>   0.1500 
 47 H       10.2290    -0.7330    -0.4540 H     1 <1>   0.0800 
 48 H       11.9630    -0.8420    -0.3450 H     1 <1>   0.0800 
 49 H       11.2340     0.1930    -1.5460 H     1 <1>   0.0800 
 50 H       11.2960     3.9060     2.9630 H     1 <1>   0.1500 
 51 H       13.3040     2.5500     2.5280 H     1 <1>   0.1500 
@<TRIPOS>BOND
  1   1   2  2   
  2   1   3  2   
  3   1   4  am  
  4   1   5  1   
  5   4   6  1   
  6   4   7  1   
  7   5   8  ar  
  8   5   9  ar  
  9   6  10  1   
 10   6  28  1   
 11   6  29  1   
 12   7  11  1   
 13   7  30  1   
 14   7  31  1   
 15   8  12  ar  
 16   8  32  1   
 17   9  13  ar  
 18   9  33  1   
 19  10  11  1   
 20  10  34  1   
 21  10  35  1   
 22  11  36  1   
 23  11  37  1   
 24  12  14  ar  
 25  12  15  1   
 26  13  14  ar  
 27  13  38  1   
 28  14  16  1   
 29  15  39  1   
 30  15  40  1   
 31  15  41  1   
 32  16  17  1   
 33  17  18  1   
 34  17  42  1   
 35  17  43  1   
 36  18  19  2   
 37  18  20  am  
 38  20  21  1   
 39  20  44  1   
 40  21  22  ar  
 41  21  23  ar  
 42  22  24  ar  
 43  22  25  1   
 44  23  26  ar  
 45  23  45  1   
 46  24  27  ar  
 47  24  46  1   
 48  25  47  1   
 49  25  48  1   
 50  25  49  1   
 51  26  27  ar  
 52  26  50  1   
 53  27  51  1   
@<TRIPOS>SUBSTRUCTURE
  1 ****  14 GROUP 4 **** **** 0

# MOE 2024.06 (io_trps.svl 2023.06)
