@<TRIPOS>MOLECULE
NONAME
38 37 1 0 0 
SMALL
USER_CHARGES


@<TRIPOS>ATOM
  1 O        0.9020    -1.2350     1.0200 O.2   1 <1>  -0.5700 
  2 C        0.2230    -1.3590     0.0330 C.2   1 <1>   0.6590 
  3 O        0.1750    -2.4600    -0.7000 O.3   1 <1>  -0.4300 
  4 C       -0.6410    -0.2280    -0.4600 C.3   1 <1>  -0.1790 
  5 C        0.7940    -3.6880    -0.3940 C.3   1 <1>   0.6180 
  6 C        2.2640    -3.4940    -0.1730 C.1   1 <1>  -0.2000 
  7 C        0.1350    -4.2680     0.8580 C.2   1 <1>  -0.2880 
  8 C        0.5880    -4.5750    -1.6200 C.3   1 <1>  -0.2400 
  9 C        3.3960    -3.2760     0.1190 C.1   1 <1>  -0.2000 
 10 C       -0.5810    -5.3940     0.9910 C.2   1 <1>  -0.3000 
 11 C        4.7460    -2.9070     0.6190 C.3   1 <1>   0.5430 
 12 N        5.0270    -1.4940     0.2460 N.4   1 <1>  -0.9590 
 13 C        6.4480    -1.1660     0.5340 C.3   1 <1>   0.3430 
 14 C        4.0570    -0.5570     0.8880 C.3   1 <1>   0.3430 
 15 C        6.8550     0.1300    -0.1560 C.3   1 <1>  -0.2400 
 16 C        3.4360     0.3140    -0.1970 C.3   1 <1>  -0.2400 
 17 H       -1.6670    -0.5440    -0.4760 H     1 <1>   0.0800 
 18 H       -0.3400     0.0520    -1.4510 H     1 <1>   0.0800 
 19 H       -0.5450     0.6190     0.1940 H     1 <1>   0.0800 
 20 H        0.3140    -3.6350     1.7090 H     1 <1>   0.1500 
 21 H        1.0560    -4.1330    -2.4810 H     1 <1>   0.0800 
 22 H       -0.4610    -4.7020    -1.8140 H     1 <1>   0.0800 
 23 H        1.0280    -5.5410    -1.4520 H     1 <1>   0.0800 
 24 H       -1.0060    -5.7190     1.9260 H     1 <1>   0.1500 
 25 H       -0.8090    -6.0860     0.1980 H     1 <1>   0.1500 
 26 H        5.4770    -3.5630     0.1750 H     1 <1>   0.0800 
 27 H        4.7800    -3.0250     1.6900 H     1 <1>   0.0800 
 28 H        4.8630    -1.4370    -0.7660 H     1 <1>   0.4500 
 29 H        7.0820    -1.9600     0.1700 H     1 <1>   0.0800 
 30 H        6.6000    -1.0780     1.5990 H     1 <1>   0.0800 
 31 H        4.5530     0.0590     1.6210 H     1 <1>   0.0800 
 32 H        3.2710    -1.1050     1.3860 H     1 <1>   0.0800 
 33 H        6.6580     0.0830    -1.2120 H     1 <1>   0.0800 
 34 H        7.9110     0.2830    -0.0220 H     1 <1>   0.0800 
 35 H        6.3500     0.9760     0.2740 H     1 <1>   0.0800 
 36 H        2.7150     0.9710     0.2570 H     1 <1>   0.0800 
 37 H        4.1710     0.9200    -0.6920 H     1 <1>   0.0800 
 38 H        2.9190    -0.2930    -0.9180 H     1 <1>   0.0800 
@<TRIPOS>BOND
  1   1   2  2   
  2   2   3  1   
  3   2   4  1   
  4   3   5  1   
  5   4  17  1   
  6   4  18  1   
  7   4  19  1   
  8   5   6  1   
  9   5   7  1   
 10   5   8  1   
 11   6   9  3   
 12   7  10  2   
 13   7  20  1   
 14   8  21  1   
 15   8  22  1   
 16   8  23  1   
 17   9  11  1   
 18  10  24  1   
 19  10  25  1   
 20  11  12  1   
 21  11  26  1   
 22  11  27  1   
 23  12  13  1   
 24  12  14  1   
 25  12  28  1   
 26  13  15  1   
 27  13  29  1   
 28  13  30  1   
 29  14  16  1   
 30  14  31  1   
 31  14  32  1   
 32  15  33  1   
 33  15  34  1   
 34  15  35  1   
 35  16  36  1   
 36  16  37  1   
 37  16  38  1   
@<TRIPOS>SUBSTRUCTURE
  1 ****   6 GROUP 4 **** **** 0

# MOE 2024.06 (io_trps.svl 2023.06)
