@<TRIPOS>MOLECULE
NONAME
43 44 1 0 0 
SMALL
USER_CHARGES


@<TRIPOS>ATOM
  1 O       -2.2830    -2.0200     0.8840 O.2   1 <1>  -0.5700 
  2 C       -2.0070    -1.4770    -0.1680 C.2   1 <1>   0.7800 
  3 O       -1.0440    -1.9400    -0.9630 O.3   1 <1>  -0.4300 
  4 N       -2.6340    -0.3710    -0.6070 N.am  1 <1>  -0.7300 
  5 C       -0.2040    -3.0470    -0.7310 C.3   1 <1>   0.2800 
  6 C       -3.5160     0.4600     0.2200 C.3   1 <1>   0.3640 
  7 C       -1.0320    -4.3360    -0.6570 C.3   1 <1>  -0.2400 
  8 C        0.7180    -3.1090    -1.9490 C.3   1 <1>  -0.2400 
  9 C        0.6390    -2.8170     0.5290 C.3   1 <1>  -0.2400 
 10 C       -4.8820    -0.2050     0.3990 C.ar  1 <1>  -0.1440 
 11 C       -3.6880     1.8110    -0.4540 C.3   1 <1>  -0.2660 
 12 C       -5.5250    -0.8470    -0.6280 C.ar  1 <1>  -0.1500 
 13 C       -5.5040    -0.1460     1.6560 C.ar  1 <1>  -0.1500 
 14 C       -2.3530     2.4670    -0.6020 C.2   1 <1>   0.9060 
 15 C       -6.7880    -1.4480    -0.4580 C.ar  1 <1>   0.0000 
 16 C       -6.7300    -0.7200     1.8530 C.ar  1 <1>  -0.1500 
 17 O       -2.0280     3.3340     0.2080 O.co2 1 <1>  -0.9000 
 18 O       -1.6190     2.0800    -1.5190 O.co2 1 <1>  -0.9000 
 19 C       -7.4050    -1.3830     0.8090 C.ar  1 <1>   0.0000 
 20 C       -7.4590    -2.1120    -1.5050 C.ar  1 <1>  -0.1500 
 21 C       -8.6700    -1.9830     0.9780 C.ar  1 <1>  -0.1500 
 22 C       -8.6860    -2.6850    -1.3130 C.ar  1 <1>  -0.1500 
 23 C       -9.2990    -2.6190    -0.0560 C.ar  1 <1>  -0.1500 
 24 H       -2.0930     0.2160    -1.2660 H     1 <1>   0.3700 
 25 H       -3.0480     0.6010     1.1800 H     1 <1>   0.0800 
 26 H       -1.6420    -4.3530     0.2270 H     1 <1>   0.0800 
 27 H       -0.3800    -5.1900    -0.6190 H     1 <1>   0.0800 
 28 H       -1.6630    -4.4230    -1.5220 H     1 <1>   0.0800 
 29 H        0.1400    -3.2430    -2.8450 H     1 <1>   0.0800 
 30 H        1.4060    -3.9290    -1.8590 H     1 <1>   0.0800 
 31 H        1.2820    -2.1970    -2.0310 H     1 <1>   0.0800 
 32 H        0.0280    -2.8400     1.4130 H     1 <1>   0.0800 
 33 H        1.1400    -1.8680     0.4720 H     1 <1>   0.0800 
 34 H        1.3780    -3.5910     0.6250 H     1 <1>   0.0800 
 35 H       -4.3130     2.4410     0.1480 H     1 <1>   0.0800 
 36 H       -4.1370     1.7000    -1.4210 H     1 <1>   0.0800 
 37 H       -5.0620    -0.9020    -1.5970 H     1 <1>   0.1500 
 38 H       -4.9990     0.3550     2.4630 H     1 <1>   0.1500 
 39 H       -7.1990    -0.6730     2.8180 H     1 <1>   0.1500 
 40 H       -6.9790    -2.1580    -2.4650 H     1 <1>   0.1500 
 41 H       -9.1340    -1.9300     1.9460 H     1 <1>   0.1500 
 42 H       -9.1920    -3.1910    -2.1160 H     1 <1>   0.1500 
 43 H      -10.2640    -3.0750     0.0800 H     1 <1>   0.1500 
@<TRIPOS>BOND
  1   1   2  2   
  2   2   3  1   
  3   2   4  am  
  4   3   5  1   
  5   4   6  1   
  6   4  24  1   
  7   5   7  1   
  8   5   8  1   
  9   5   9  1   
 10   6  10  1   
 11   6  11  1   
 12   6  25  1   
 13   7  26  1   
 14   7  27  1   
 15   7  28  1   
 16   8  29  1   
 17   8  30  1   
 18   8  31  1   
 19   9  32  1   
 20   9  33  1   
 21   9  34  1   
 22  10  12  ar  
 23  10  13  ar  
 24  11  14  1   
 25  11  35  1   
 26  11  36  1   
 27  12  15  ar  
 28  12  37  1   
 29  13  16  ar  
 30  13  38  1   
 31  14  17  ar  
 32  14  18  ar  
 33  15  19  ar  
 34  15  20  ar  
 35  16  19  ar  
 36  16  39  1   
 37  19  21  ar  
 38  20  22  ar  
 39  20  40  1   
 40  21  23  ar  
 41  21  41  1   
 42  22  23  ar  
 43  22  42  1   
 44  23  43  1   
@<TRIPOS>SUBSTRUCTURE
  1 ****  10 GROUP 4 **** **** 0

# MOE 2024.06 (io_trps.svl 2023.06)
