@<TRIPOS>MOLECULE
NONAME
50 52 1 0 0 
SMALL
USER_CHARGES


@<TRIPOS>ATOM
  1 S       -0.2470    -0.0830    -1.3860 S.o2  1 <1>   1.4470 
  2 O        0.3500    -1.2060    -2.0790 O.2   1 <1>  -0.6500 
  3 O       -1.0740     0.8440    -2.1280 O.2   1 <1>  -0.6500 
  4 N        1.0410     0.8080    -0.7320 N.am  1 <1>  -0.8490 
  5 C       -1.1500    -0.6540     0.0810 C.ar  1 <1>  -0.0090 
  6 C        1.6690     1.6550    -1.7480 C.3   1 <1>   0.1960 
  7 C        2.0190    -0.0560    -0.0630 C.3   1 <1>   0.1960 
  8 C       -1.5120    -1.9880     0.2320 C.ar  1 <1>  -0.1500 
  9 C       -1.5020     0.2340     1.0920 C.ar  1 <1>  -0.1500 
 10 C        2.7340     2.5520    -1.1110 C.3   1 <1>  -0.1600 
 11 C        3.0840     0.7910     0.6360 C.3   1 <1>  -0.1600 
 12 C       -2.1970    -2.4240     1.3530 C.ar  1 <1>  -0.1500 
 13 C       -2.1870    -0.1930     2.2170 C.ar  1 <1>  -0.1500 
 14 C        3.7900     1.7250    -0.3600 C.3   1 <1>  -0.0190 
 15 C       -2.5340    -1.5250     2.3480 C.ar  1 <1>  -0.1500 
 16 C        4.8200     2.6180     0.3310 C.2   1 <1>   0.5690 
 17 O        4.4490     3.3590     1.2080 O.2   1 <1>  -0.5700 
 18 N        6.1210     2.5200    -0.0830 N.am  1 <1>  -0.5470 
 19 C        7.2820     3.1980     0.3240 C.ar  1 <1>   0.1170 
 20 C        7.2600     4.4130     1.0020 C.ar  1 <1>  -0.1500 
 21 C        8.5160     2.6350     0.0190 C.ar  1 <1>  -0.1500 
 22 C        8.4340     5.0450     1.3720 C.ar  1 <1>  -0.1430 
 23 C        9.6980     3.2580     0.3790 C.ar  1 <1>  -0.1430 
 24 C        9.6510     4.4640     1.0570 C.ar  1 <1>  -0.1500 
 25 C        8.3930     6.3690     2.1150 C.3   1 <1>  -0.0970 
 26 C       11.0410     2.6340     0.0440 C.3   1 <1>  -0.0970 
 27 H        0.9240     2.2850    -2.2080 H     1 <1>   0.0800 
 28 H        2.1070     1.0400    -2.5170 H     1 <1>   0.0800 
 29 H        2.4850    -0.7110    -0.7810 H     1 <1>   0.0800 
 30 H        1.5220    -0.6660     0.6740 H     1 <1>   0.0800 
 31 H       -1.2560    -2.6950    -0.5390 H     1 <1>   0.1500 
 32 H       -1.2350     1.2730     0.9940 H     1 <1>   0.1500 
 33 H        2.2510     3.2310    -0.4300 H     1 <1>   0.0800 
 34 H        3.2080     3.1410    -1.8760 H     1 <1>   0.0800 
 35 H        3.8050     0.1450     1.1040 H     1 <1>   0.0800 
 36 H        2.6120     1.3710     1.4120 H     1 <1>   0.0800 
 37 H       -2.4680    -3.4610     1.4500 H     1 <1>   0.1500 
 38 H       -2.4490     0.5120     2.9880 H     1 <1>   0.1500 
 39 H        4.3020     1.1110    -1.0810 H     1 <1>   0.0800 
 40 H       -3.0670    -1.8600     3.2220 H     1 <1>   0.1500 
 41 H        6.2930     1.8110    -0.7910 H     1 <1>   0.3700 
 42 H        6.3210     4.8730     1.2410 H     1 <1>   0.1500 
 43 H        8.5520     1.6970    -0.5020 H     1 <1>   0.1500 
 44 H       10.5660     4.9540     1.3420 H     1 <1>   0.1500 
 45 H        7.4340     6.5140     2.5770 H     1 <1>   0.0800 
 46 H        8.5740     7.1760     1.4290 H     1 <1>   0.0800 
 47 H        9.1460     6.3870     2.8820 H     1 <1>   0.0800 
 48 H       10.9320     1.8630    -0.6970 H     1 <1>   0.0800 
 49 H       11.4730     2.2050     0.9300 H     1 <1>   0.0800 
 50 H       11.7100     3.3830    -0.3410 H     1 <1>   0.0800 
@<TRIPOS>BOND
  1   1   2  2   
  2   1   3  2   
  3   1   4  am  
  4   1   5  1   
  5   4   6  1   
  6   4   7  1   
  7   5   8  ar  
  8   5   9  ar  
  9   6  10  1   
 10   6  27  1   
 11   6  28  1   
 12   7  11  1   
 13   7  29  1   
 14   7  30  1   
 15   8  12  ar  
 16   8  31  1   
 17   9  13  ar  
 18   9  32  1   
 19  10  14  1   
 20  10  33  1   
 21  10  34  1   
 22  11  14  1   
 23  11  35  1   
 24  11  36  1   
 25  12  15  ar  
 26  12  37  1   
 27  13  15  ar  
 28  13  38  1   
 29  14  16  1   
 30  14  39  1   
 31  15  40  1   
 32  16  17  2   
 33  16  18  am  
 34  18  19  1   
 35  18  41  1   
 36  19  20  ar  
 37  19  21  ar  
 38  20  22  ar  
 39  20  42  1   
 40  21  23  ar  
 41  21  43  1   
 42  22  24  ar  
 43  22  25  1   
 44  23  24  ar  
 45  23  26  1   
 46  24  44  1   
 47  25  45  1   
 48  25  46  1   
 49  25  47  1   
 50  26  48  1   
 51  26  49  1   
 52  26  50  1   
@<TRIPOS>SUBSTRUCTURE
  1 ****  14 GROUP 4 **** **** 0

# MOE 2024.06 (io_trps.svl 2023.06)
