@<TRIPOS>MOLECULE
NONAME
52 54 1 0 0 
SMALL
USER_CHARGES


@<TRIPOS>ATOM
  1 O      -12.6730     4.2140    -0.9840 O.2   1 <1>  -0.5700 
  2 C      -13.2400     4.8830    -0.1540 C.2   1 <1>   0.5690 
  3 N      -14.4500     4.5260     0.3880 N.am  1 <1>  -0.5470 
  4 C      -12.5430     6.1820     0.2940 C.3   1 <1>   0.4040 
  5 C      -15.2420     3.4270     0.0270 C.ar  1 <1>   0.1170 
  6 N      -11.0820     6.2500    -0.0980 N.4   1 <1>  -0.9590 
  7 C      -16.5170     3.6750    -0.5390 C.ar  1 <1>   0.0000 
  8 C      -14.8540     2.1130     0.2090 C.ar  1 <1>  -0.1430 
  9 C      -10.2560     5.2670     0.6620 C.3   1 <1>   0.3430 
 10 C      -10.5270     7.6320    -0.0430 C.3   1 <1>   0.3430 
 11 C      -17.3030     2.5610    -0.8970 C.ar  1 <1>   0.3100 
 12 C      -17.0520     4.9640    -0.7740 C.ar  1 <1>  -0.1500 
 13 C      -15.7160     1.0810    -0.2140 C.ar  1 <1>   0.1670 
 14 C      -13.5180     1.7490     0.8690 C.3   1 <1>  -0.0970 
 15 C       -8.8360     5.2440     0.0980 C.3   1 <1>  -0.1600 
 16 C       -9.1100     7.6400    -0.6180 C.3   1 <1>  -0.1600 
 17 N      -16.8860     1.2900    -0.7370 N.ar  1 <1>  -0.6200 
 18 C      -18.5770     2.7710    -1.4480 C.ar  1 <1>  -0.1500 
 19 C      -18.2970     5.1390    -1.3150 C.ar  1 <1>  -0.1500 
 20 C      -15.3390    -0.3960    -0.1030 C.3   1 <1>  -0.0170 
 21 C       -8.1970     6.6400     0.1060 C.3   1 <1>  -0.0800 
 22 C      -19.0730     4.0290    -1.6550 C.ar  1 <1>  -0.1500 
 23 C      -14.5740    -0.8780    -1.3420 C.3   1 <1>  -0.2400 
 24 C       -6.8120     6.6030    -0.5480 C.3   1 <1>  -0.2400 
 25 H      -14.9250     5.1820     1.0080 H     1 <1>   0.3700 
 26 H      -12.6340     6.2770     1.3620 H     1 <1>   0.0800 
 27 H      -13.0690     7.0020    -0.1620 H     1 <1>   0.0800 
 28 H      -11.0490     5.9220    -1.0790 H     1 <1>   0.4500 
 29 H      -10.6850     4.2800     0.5780 H     1 <1>   0.0800 
 30 H      -10.2240     5.5400     1.7050 H     1 <1>   0.0800 
 31 H      -10.5000     7.9760     0.9780 H     1 <1>   0.0800 
 32 H      -11.1460     8.3060    -0.6150 H     1 <1>   0.0800 
 33 H      -16.4730     5.8330    -0.5300 H     1 <1>   0.1500 
 34 H      -12.9980     2.6030     1.2530 H     1 <1>   0.0800 
 35 H      -12.8780     1.2650     0.1540 H     1 <1>   0.0800 
 36 H      -13.6810     1.0890     1.7010 H     1 <1>   0.0800 
 37 H       -8.8620     4.8500    -0.9040 H     1 <1>   0.0800 
 38 H       -8.2380     4.5730     0.6900 H     1 <1>   0.0800 
 39 H       -8.7020     8.6310    -0.5210 H     1 <1>   0.0800 
 40 H       -9.1530     7.4120    -1.6690 H     1 <1>   0.0800 
 41 H      -19.1530     1.9010    -1.7060 H     1 <1>   0.1500 
 42 H      -18.6960     6.1240    -1.4880 H     1 <1>   0.1500 
 43 H      -16.2420    -0.9760    -0.0130 H     1 <1>   0.0800 
 44 H      -14.7660    -0.5920     0.7820 H     1 <1>   0.0800 
 45 H       -8.0760     6.9590     1.1290 H     1 <1>   0.0800 
 46 H      -20.0520     4.1750    -2.0790 H     1 <1>   0.1500 
 47 H      -15.1770    -0.7270    -2.2210 H     1 <1>   0.0800 
 48 H      -14.3470    -1.9250    -1.2550 H     1 <1>   0.0800 
 49 H      -13.6580    -0.3300    -1.4600 H     1 <1>   0.0800 
 50 H       -6.8780     6.2880    -1.5750 H     1 <1>   0.0800 
 51 H       -6.1680     5.9190    -0.0240 H     1 <1>   0.0800 
 52 H       -6.3570     7.5780    -0.5200 H     1 <1>   0.0800 
@<TRIPOS>BOND
  1   1   2  2   
  2   2   3  am  
  3   2   4  1   
  4   3   5  1   
  5   3  25  1   
  6   4   6  1   
  7   4  26  1   
  8   4  27  1   
  9   5   7  ar  
 10   5   8  ar  
 11   6   9  1   
 12   6  10  1   
 13   6  28  1   
 14   7  11  ar  
 15   7  12  ar  
 16   8  13  ar  
 17   8  14  1   
 18   9  15  1   
 19   9  29  1   
 20   9  30  1   
 21  10  16  1   
 22  10  31  1   
 23  10  32  1   
 24  11  17  ar  
 25  11  18  ar  
 26  12  19  ar  
 27  12  33  1   
 28  13  17  ar  
 29  13  20  1   
 30  14  34  1   
 31  14  35  1   
 32  14  36  1   
 33  15  21  1   
 34  15  37  1   
 35  15  38  1   
 36  16  21  1   
 37  16  39  1   
 38  16  40  1   
 39  18  22  ar  
 40  18  41  1   
 41  19  22  ar  
 42  19  42  1   
 43  20  23  1   
 44  20  43  1   
 45  20  44  1   
 46  21  24  1   
 47  21  45  1   
 48  22  46  1   
 49  23  47  1   
 50  23  48  1   
 51  23  49  1   
 52  24  50  1   
 53  24  51  1   
 54  24  52  1   
@<TRIPOS>SUBSTRUCTURE
  1 ****   2 GROUP 4 **** **** 0

# MOE 2024.06 (io_trps.svl 2023.06)
