@<TRIPOS>MOLECULE
NONAME
27 27 1 0 0 
SMALL
USER_CHARGES


@<TRIPOS>ATOM
  1 CL       0.1810     0.4830    -0.9310 Cl    1 <1>  -0.1770 
  2 C       -0.8170     1.8870    -0.6200 C.ar  1 <1>   0.1770 
  3 C       -0.2280     3.1110    -0.3340 C.ar  1 <1>   0.0830 
  4 C       -2.1890     1.7360    -0.6530 C.ar  1 <1>  -0.1500 
  5 O        1.1230     3.2050    -0.2810 O.3   1 <1>  -0.3630 
  6 C       -1.0650     4.2080    -0.1090 C.ar  1 <1>   0.0830 
  7 C       -3.0370     2.8140    -0.3960 C.ar  1 <1>   0.0860 
  8 C        1.6960     3.4100     0.9910 C.3   1 <1>   0.0400 
  9 O       -0.5910     5.4540     0.1390 O.3   1 <1>  -0.3630 
 10 C       -2.4390     4.0490    -0.1320 C.ar  1 <1>  -0.1500 
 11 C       -4.4790     2.6440    -0.4120 C.2   1 <1>   0.5440 
 12 C        0.1340     6.0780    -0.9000 C.3   1 <1>   0.0400 
 13 O       -4.9870     1.7530    -1.0630 O.2   1 <1>  -0.5700 
 14 N       -5.2910     3.4720     0.3170 N.am  1 <1>  -0.7300 
 15 C       -6.7750     3.4000     0.3660 C.3   1 <1>   0.0600 
 16 H       -2.6080     0.7710    -0.8780 H     1 <1>   0.1500 
 17 H        2.7650     3.4180     0.8800 H     1 <1>   0.0800 
 18 H        1.3990     2.6040     1.6380 H     1 <1>   0.0800 
 19 H        1.3610     4.3530     1.3860 H     1 <1>   0.0800 
 20 H       -3.0510     4.9140     0.0480 H     1 <1>   0.1500 
 21 H        0.3140     7.0990    -0.6170 H     1 <1>   0.0800 
 22 H       -0.4480     6.0420    -1.8030 H     1 <1>   0.0800 
 23 H        1.0710     5.5690    -1.0390 H     1 <1>   0.0800 
 24 H       -4.8630     4.1560     0.9430 H     1 <1>   0.3700 
 25 H       -7.1420     2.6730    -0.3380 H     1 <1>   0.0800 
 26 H       -7.1940     4.3600     0.1210 H     1 <1>   0.0800 
 27 H       -7.0920     3.1150     1.3540 H     1 <1>   0.0800 
@<TRIPOS>BOND
  1   1   2  1   
  2   2   3  ar  
  3   2   4  ar  
  4   3   5  1   
  5   3   6  ar  
  6   4   7  ar  
  7   4  16  1   
  8   5   8  1   
  9   6   9  1   
 10   6  10  ar  
 11   7  10  ar  
 12   7  11  1   
 13   8  17  1   
 14   8  18  1   
 15   8  19  1   
 16   9  12  1   
 17  10  20  1   
 18  11  13  2   
 19  11  14  am  
 20  12  21  1   
 21  12  22  1   
 22  12  23  1   
 23  14  15  1   
 24  14  24  1   
 25  15  25  1   
 26  15  26  1   
 27  15  27  1   
@<TRIPOS>SUBSTRUCTURE
  1 ****  10 GROUP 4 **** **** 0

# MOE 2024.06 (io_trps.svl 2023.06)
