@<TRIPOS>MOLECULE
NONAME
47 49 1 0 0 
SMALL
USER_CHARGES


@<TRIPOS>ATOM
  1 CL      -1.3010    -0.4000    -1.8520 Cl    1 <1>  -0.1770 
  2 C       -2.6860    -0.0750    -0.8440 C.ar  1 <1>   0.1770 
  3 C       -3.4060    -1.1380    -0.3320 C.ar  1 <1>  -0.1500 
  4 C       -3.0430     1.2320    -0.5770 C.ar  1 <1>  -0.1500 
  5 C       -4.5180    -0.8910     0.4630 C.ar  1 <1>  -0.1440 
  6 C       -4.1440     1.4800     0.2230 C.ar  1 <1>  -0.1500 
  7 C       -4.8770     0.4230     0.7410 C.ar  1 <1>  -0.1500 
  8 C       -5.3360    -2.0420     1.0190 C.3   1 <1>   0.4870 
  9 N       -6.1390    -2.6340    -0.0840 N.4   1 <1>  -0.9590 
 10 C       -7.1210    -1.6250    -0.6310 C.3   1 <1>   0.3430 
 11 C       -6.8350    -3.8880     0.3810 C.3   1 <1>   0.3430 
 12 C       -8.0500    -2.2290    -1.7050 C.3   1 <1>   0.1400 
 13 C       -7.7750    -4.4750    -0.6950 C.3   1 <1>   0.1400 
 14 N       -8.7340    -3.4410    -1.1750 N.am  1 <1>  -0.6600 
 15 C       -9.8160    -3.2100    -0.3810 C.2   1 <1>   0.6900 
 16 O       -9.6220    -2.7800     0.7400 O.2   1 <1>  -0.5700 
 17 N      -11.0460    -3.4550    -0.9030 N.am  1 <1>  -0.5470 
 18 C      -12.3430    -3.3040    -0.3880 C.ar  1 <1>   0.1170 
 19 C      -13.4160    -3.4040    -1.2670 C.ar  1 <1>  -0.1500 
 20 C      -12.6180    -3.0700     0.9560 C.ar  1 <1>  -0.1500 
 21 C      -14.7190    -3.2680    -0.8230 C.ar  1 <1>  -0.1500 
 22 C      -13.9200    -2.9340     1.4020 C.ar  1 <1>  -0.1500 
 23 C      -14.9800    -3.0300     0.5160 C.ar  1 <1>  -0.1430 
 24 C      -16.4070    -2.8810     1.0080 C.3   1 <1>  -0.0970 
 25 H       -3.0790    -2.1360    -0.5630 H     1 <1>   0.1500 
 26 H       -2.4630     2.0410    -0.9880 H     1 <1>   0.1500 
 27 H       -4.4270     2.4960     0.4430 H     1 <1>   0.1500 
 28 H       -5.7270     0.6440     1.3660 H     1 <1>   0.1500 
 29 H       -5.9860    -1.6870     1.8030 H     1 <1>   0.0800 
 30 H       -4.6710    -2.7810     1.4360 H     1 <1>   0.0800 
 31 H       -5.4890    -2.8720    -0.8420 H     1 <1>   0.4500 
 32 H       -6.5920    -0.7860    -1.0530 H     1 <1>   0.0800 
 33 H       -7.7390    -1.2530     0.1720 H     1 <1>   0.0800 
 34 H       -7.4310    -3.6640     1.2530 H     1 <1>   0.0800 
 35 H       -6.1090    -4.6330     0.6610 H     1 <1>   0.0800 
 36 H       -7.4860    -2.4840    -2.5850 H     1 <1>   0.0800 
 37 H       -8.7880    -1.4960    -1.9870 H     1 <1>   0.0800 
 38 H       -8.3230    -5.3000    -0.2720 H     1 <1>   0.0800 
 39 H       -7.2020    -4.8520    -1.5250 H     1 <1>   0.0800 
 40 H      -11.0030    -3.7910    -1.8600 H     1 <1>   0.3700 
 41 H      -13.2380    -3.5870    -2.3100 H     1 <1>   0.1500 
 42 H      -11.8210    -2.9950     1.6700 H     1 <1>   0.1500 
 43 H      -15.5320    -3.3500    -1.5230 H     1 <1>   0.1500 
 44 H      -14.1050    -2.7530     2.4460 H     1 <1>   0.1500 
 45 H      -16.7870    -3.8390     1.3160 H     1 <1>   0.0800 
 46 H      -17.0360    -2.4910     0.2290 H     1 <1>   0.0800 
 47 H      -16.4460    -2.2060     1.8450 H     1 <1>   0.0800 
@<TRIPOS>BOND
  1   1   2  1   
  2   2   3  ar  
  3   2   4  ar  
  4   3   5  ar  
  5   3  25  1   
  6   4   6  ar  
  7   4  26  1   
  8   5   7  ar  
  9   5   8  1   
 10   6   7  ar  
 11   6  27  1   
 12   7  28  1   
 13   8   9  1   
 14   8  29  1   
 15   8  30  1   
 16   9  10  1   
 17   9  11  1   
 18   9  31  1   
 19  10  12  1   
 20  10  32  1   
 21  10  33  1   
 22  11  13  1   
 23  11  34  1   
 24  11  35  1   
 25  12  14  1   
 26  12  36  1   
 27  12  37  1   
 28  13  14  1   
 29  13  38  1   
 30  13  39  1   
 31  14  15  am  
 32  15  16  2   
 33  15  17  am  
 34  17  18  1   
 35  17  40  1   
 36  18  19  ar  
 37  18  20  ar  
 38  19  21  ar  
 39  19  41  1   
 40  20  22  ar  
 41  20  42  1   
 42  21  23  ar  
 43  21  43  1   
 44  22  23  ar  
 45  22  44  1   
 46  23  24  1   
 47  24  45  1   
 48  24  46  1   
 49  24  47  1   
@<TRIPOS>SUBSTRUCTURE
  1 ****  10 GROUP 4 **** **** 0

# MOE 2024.06 (io_trps.svl 2023.06)
