@<TRIPOS>MOLECULE
NONAME
51 54 1 0 0 
SMALL
USER_CHARGES


@<TRIPOS>ATOM
  1 S        0.8490    -0.8810    -1.1700 S.3   1 <1>  -0.3710 
  2 C        2.1200     0.2380    -0.6380 C.2   1 <1>   0.6410 
  3 C       -0.6260    -0.4660    -0.1350 C.3   1 <1>   0.0700 
  4 N        3.3090     0.0390    -1.2500 N.pl3 1 <1>  -0.5500 
  5 N        1.8760     1.1220     0.2510 N.2   1 <1>  -0.6610 
  6 C       -0.4910    -1.1930     1.2020 C.3   1 <1>  -0.2400 
  7 C        4.3520     0.8530    -0.9570 C.2   1 <1>   0.2000 
  8 C        2.9220     1.9310     0.6050 C.2   1 <1>   0.7670 
  9 N        5.6220     0.5290    -1.3910 N.pl3 1 <1>  -0.6000 
 10 C        4.1370     1.9110    -0.1220 C.2   1 <1>  -0.1240 
 11 O        2.7610     2.6060     1.6110 O.2   1 <1>  -0.5700 
 12 C        6.6930     0.9610    -0.6240 C.2   1 <1>  -0.0380 
 13 C        5.3120     2.8970    -0.0560 C.3   1 <1>   0.3400 
 14 C        6.5690     2.0400     0.2010 C.2   1 <1>  -0.1240 
 15 C        7.9540     0.1110    -0.6590 C.3   1 <1>  -0.0220 
 16 C        5.2210     4.3950     0.3330 C.ar  1 <1>  -0.1430 
 17 C        7.5120     2.3090     1.2390 C.2   1 <1>   0.4950 
 18 C        9.1720     0.8680    -0.0860 C.3   1 <1>   0.0000 
 19 C        6.3840     5.1590     0.3840 C.ar  1 <1>  -0.1500 
 20 C        4.0170     5.0690     0.5250 C.ar  1 <1>  -0.1500 
 21 O        7.3460     3.0810     2.1500 O.2   1 <1>  -0.5700 
 22 C        8.7990     1.4990     1.2730 C.3   1 <1>  -0.0990 
 23 C        9.6280     1.9650    -1.0680 C.3   1 <1>  -0.2400 
 24 C       10.3410    -0.1100     0.1100 C.3   1 <1>  -0.2400 
 25 C        6.3510     6.5100     0.6800 C.ar  1 <1>   0.0830 
 26 C        3.9790     6.4200     0.8300 C.ar  1 <1>  -0.1500 
 27 O        7.5000     7.2000     0.7290 O.3   1 <1>  -0.5330 
 28 C        5.1480     7.1480     0.9160 C.ar  1 <1>  -0.1500 
 29 H       -1.4940    -0.7990    -0.6760 H     1 <1>   0.0800 
 30 H       -0.6600     0.6030    -0.0120 H     1 <1>   0.0800 
 31 H        3.3780    -0.7450    -1.8950 H     1 <1>   0.4000 
 32 H       -0.4220    -2.2540     1.0430 H     1 <1>   0.0800 
 33 H       -1.3510    -0.9900     1.8150 H     1 <1>   0.0800 
 34 H        0.3870    -0.8540     1.7230 H     1 <1>   0.0800 
 35 H        5.7460    -0.2570    -2.0370 H     1 <1>   0.4000 
 36 H        5.4360     3.0900    -1.1090 H     1 <1>   0.0800 
 37 H        8.1640    -0.1860    -1.6710 H     1 <1>   0.0800 
 38 H        7.7730    -0.7810    -0.0840 H     1 <1>   0.0800 
 39 H        7.3470     4.7270     0.1930 H     1 <1>   0.1500 
 40 H        3.0730     4.5750     0.4280 H     1 <1>   0.1500 
 41 H        8.6670     0.7270     2.0090 H     1 <1>   0.0800 
 42 H        9.5960     2.1360     1.6140 H     1 <1>   0.0800 
 43 H        8.8470     2.6820    -1.2530 H     1 <1>   0.0800 
 44 H        9.9130     1.5340    -2.0110 H     1 <1>   0.0800 
 45 H       10.4770     2.4960    -0.6730 H     1 <1>   0.0800 
 46 H       10.0720    -0.8960     0.7940 H     1 <1>   0.0800 
 47 H       11.2000     0.4020     0.5090 H     1 <1>   0.0800 
 48 H       10.6220    -0.5590    -0.8260 H     1 <1>   0.0800 
 49 H        3.0300     6.9010     0.9950 H     1 <1>   0.1500 
 50 H        7.3740     8.1200     1.0150 H     1 <1>   0.4500 
 51 H        5.1160     8.1950     1.1560 H     1 <1>   0.1500 
@<TRIPOS>BOND
  1   1   2  1   
  2   1   3  1   
  3   2   4  1   
  4   2   5  2   
  5   3   6  1   
  6   3  29  1   
  7   3  30  1   
  8   4   7  1   
  9   4  31  1   
 10   5   8  1   
 11   6  32  1   
 12   6  33  1   
 13   6  34  1   
 14   7   9  1   
 15   7  10  2   
 16   8  10  1   
 17   8  11  2   
 18   9  12  1   
 19   9  35  1   
 20  10  13  1   
 21  12  14  2   
 22  12  15  1   
 23  13  14  1   
 24  13  16  1   
 25  13  36  1   
 26  14  17  1   
 27  15  18  1   
 28  15  37  1   
 29  15  38  1   
 30  16  19  ar  
 31  16  20  ar  
 32  17  21  2   
 33  17  22  1   
 34  18  22  1   
 35  18  23  1   
 36  18  24  1   
 37  19  25  ar  
 38  19  39  1   
 39  20  26  ar  
 40  20  40  1   
 41  22  41  1   
 42  22  42  1   
 43  23  43  1   
 44  23  44  1   
 45  23  45  1   
 46  24  46  1   
 47  24  47  1   
 48  24  48  1   
 49  25  27  1   
 50  25  28  ar  
 51  26  28  ar  
 52  26  49  1   
 53  27  50  1   
 54  28  51  1   
@<TRIPOS>SUBSTRUCTURE
  1 ****  13 GROUP 4 **** **** 0

# MOE 2024.06 (io_trps.svl 2023.06)
