@<TRIPOS>MOLECULE
NONAME
32 33 1 0 0 
SMALL
USER_CHARGES


@<TRIPOS>ATOM
  1 F       -1.6390    -0.0140    -1.8440 F     1 <1>  -0.3400 
  2 C       -2.4590     0.5420    -0.9650 C.3   1 <1>   1.1640 
  3 F       -3.6440     0.6400    -1.5590 F     1 <1>  -0.3400 
  4 F       -2.6210    -0.3360     0.0150 F     1 <1>  -0.3400 
  5 C       -2.0020     1.9130    -0.4290 C.ar  1 <1>  -0.1440 
  6 C       -2.7140     2.5950     0.5680 C.ar  1 <1>  -0.1440 
  7 C       -0.8480     2.5010    -0.9430 C.ar  1 <1>  -0.1500 
  8 C       -2.2510     3.8210     1.0290 C.ar  1 <1>  -0.1500 
  9 C       -3.9990     2.0550     1.1910 C.3   1 <1>   0.4870 
 10 C       -0.4040     3.7260    -0.4820 C.ar  1 <1>  -0.1500 
 11 C       -1.1040     4.3860     0.5070 C.ar  1 <1>  -0.1500 
 12 N       -5.1420     2.2760     0.2630 N.4   1 <1>  -0.9590 
 13 C       -5.3290     3.7080    -0.1550 C.3   1 <1>   0.3430 
 14 C       -6.4310     1.6880     0.7600 C.3   1 <1>   0.3430 
 15 C       -6.5140     3.8580    -1.1370 C.3   1 <1>   0.1200 
 16 C       -7.6030     1.9880    -0.2040 C.3   1 <1>   0.1200 
 17 O       -7.1510     2.6290    -1.3650 O.3   1 <1>  -0.5600 
 18 H       -0.2710     2.0130    -1.7130 H     1 <1>   0.1500 
 19 H       -2.7730     4.3560     1.8060 H     1 <1>   0.1500 
 20 H       -4.1830     2.5630     2.1230 H     1 <1>   0.0800 
 21 H       -3.8910     1.0040     1.4050 H     1 <1>   0.0800 
 22 H        0.4920     4.1640    -0.8910 H     1 <1>   0.1500 
 23 H       -0.7500     5.3370     0.8700 H     1 <1>   0.1500 
 24 H       -4.9510     1.7780    -0.6230 H     1 <1>   0.4500 
 25 H       -4.4340     4.0740    -0.6320 H     1 <1>   0.0800 
 26 H       -5.5100     4.3250     0.7090 H     1 <1>   0.0800 
 27 H       -6.6710     2.0860     1.7320 H     1 <1>   0.0800 
 28 H       -6.3300     0.6200     0.8620 H     1 <1>   0.0800 
 29 H       -6.1630     4.2240    -2.0860 H     1 <1>   0.0800 
 30 H       -7.2390     4.5570    -0.7560 H     1 <1>   0.0800 
 31 H       -8.3390     2.6140     0.2710 H     1 <1>   0.0800 
 32 H       -8.0830     1.0710    -0.5000 H     1 <1>   0.0800 
@<TRIPOS>BOND
  1   1   2  1   
  2   2   3  1   
  3   2   4  1   
  4   2   5  1   
  5   5   6  ar  
  6   5   7  ar  
  7   6   8  ar  
  8   6   9  1   
  9   7  10  ar  
 10   7  18  1   
 11   8  11  ar  
 12   8  19  1   
 13   9  12  1   
 14   9  20  1   
 15   9  21  1   
 16  10  11  ar  
 17  10  22  1   
 18  11  23  1   
 19  12  13  1   
 20  12  14  1   
 21  12  24  1   
 22  13  15  1   
 23  13  25  1   
 24  13  26  1   
 25  14  16  1   
 26  14  27  1   
 27  14  28  1   
 28  15  17  1   
 29  15  29  1   
 30  15  30  1   
 31  16  17  1   
 32  16  31  1   
 33  16  32  1   
@<TRIPOS>SUBSTRUCTURE
  1 ****   6 GROUP 4 **** **** 0

# MOE 2024.06 (io_trps.svl 2023.06)
