@<TRIPOS>MOLECULE
NONAME
31 32 1 0 0 
SMALL
USER_CHARGES


@<TRIPOS>ATOM
  1 BR       0.1080    -0.2520     1.4630 Br    1 <1>  -0.1110 
  2 C        1.8360    -0.9500     0.9820 C.ar  1 <1>   0.1110 
  3 C        2.6950    -1.3480     1.9880 C.ar  1 <1>  -0.1500 
  4 C        2.1700    -1.0350    -0.3580 C.ar  1 <1>  -0.1500 
  5 C        3.9310    -1.8440     1.6190 C.ar  1 <1>   0.1770 
  6 C        3.4130    -1.5370    -0.7110 C.ar  1 <1>  -0.1500 
  7 CL       5.0400    -2.3340     2.8820 Cl    1 <1>  -0.1770 
  8 C        4.3060    -1.9440     0.2800 C.ar  1 <1>   0.0830 
  9 O        5.5340    -2.4410    -0.0140 O.3   1 <1>  -0.3630 
 10 C        6.2570    -1.9330    -1.1270 C.3   1 <1>   0.1810 
 11 C        7.7050    -2.4200    -1.1380 C.2   1 <1>   0.5690 
 12 O        8.0950    -2.9330    -2.1620 O.2   1 <1>  -0.5700 
 13 N        8.5420    -2.2600    -0.0570 N.am  1 <1>  -0.6600 
 14 C        9.9280    -2.8170    -0.0570 C.3   1 <1>   0.1400 
 15 C        8.1620    -1.6380     1.2490 C.3   1 <1>   0.1400 
 16 C       10.9280    -1.7990     0.5150 C.3   1 <1>   0.1200 
 17 C        9.2710    -0.7010     1.7590 C.3   1 <1>   0.1200 
 18 O       10.5100    -1.3490     1.7730 O.3   1 <1>  -0.5600 
 19 H        2.4140    -1.2740     3.0220 H     1 <1>   0.1500 
 20 H        1.4670    -0.7170    -1.1090 H     1 <1>   0.1500 
 21 H        3.6660    -1.6160    -1.7520 H     1 <1>   0.1500 
 22 H        6.2410    -0.8600    -1.0860 H     1 <1>   0.0800 
 23 H        5.7720    -2.2690    -2.0250 H     1 <1>   0.0800 
 24 H       10.2300    -3.0830    -1.0550 H     1 <1>   0.0800 
 25 H        9.9490    -3.7090     0.5430 H     1 <1>   0.0800 
 26 H        7.9960    -2.4160     1.9740 H     1 <1>   0.0800 
 27 H        7.2540    -1.0720     1.1570 H     1 <1>   0.0800 
 28 H       11.0230    -0.9530    -0.1430 H     1 <1>   0.0800 
 29 H       11.8940    -2.2560     0.6330 H     1 <1>   0.0800 
 30 H        9.0550    -0.3860     2.7650 H     1 <1>   0.0800 
 31 H        9.3470     0.1710     1.1330 H     1 <1>   0.0800 
@<TRIPOS>BOND
  1   1   2  1   
  2   2   3  ar  
  3   2   4  ar  
  4   3   5  ar  
  5   3  19  1   
  6   4   6  ar  
  7   4  20  1   
  8   5   7  1   
  9   5   8  ar  
 10   6   8  ar  
 11   6  21  1   
 12   8   9  1   
 13   9  10  1   
 14  10  11  1   
 15  10  22  1   
 16  10  23  1   
 17  11  12  2   
 18  11  13  am  
 19  13  14  1   
 20  13  15  1   
 21  14  16  1   
 22  14  24  1   
 23  14  25  1   
 24  15  17  1   
 25  15  26  1   
 26  15  27  1   
 27  16  18  1   
 28  16  28  1   
 29  16  29  1   
 30  17  18  1   
 31  17  30  1   
 32  17  31  1   
@<TRIPOS>SUBSTRUCTURE
  1 ****   9 GROUP 4 **** **** 0

# MOE 2024.06 (io_trps.svl 2023.06)
