@<TRIPOS>MOLECULE
NONAME
54 54 1 0 0 
SMALL
USER_CHARGES


@<TRIPOS>ATOM
  1 O       -6.1010     1.0120     0.7750 O.3   1 <1>  -0.3630 
  2 C       -5.0070     1.6380     0.2790 C.ar  1 <1>   0.0830 
  3 C       -7.2880     1.1310     0.0210 C.3   1 <1>   0.0400 
  4 C       -4.3760     1.2430    -0.9050 C.ar  1 <1>   0.0830 
  5 C       -4.5150     2.7130     0.9970 C.ar  1 <1>  -0.1500 
  6 O       -4.7650     0.1710    -1.6410 O.3   1 <1>  -0.3630 
  7 C       -3.2960     1.9670    -1.3790 C.ar  1 <1>  -0.1500 
  8 C       -3.4160     3.4280     0.5280 C.ar  1 <1>   0.0830 
  9 C       -4.7180    -1.0920    -1.0110 C.3   1 <1>   0.0400 
 10 C       -2.8120     3.0570    -0.6700 C.ar  1 <1>  -0.1440 
 11 O       -2.8830     4.4900     1.1960 O.3   1 <1>  -0.3630 
 12 C       -1.6320     3.8380    -1.2010 C.3   1 <1>   0.4860 
 13 C       -3.5650     5.0650     2.2950 C.3   1 <1>   0.0400 
 14 N       -0.5510     3.7030    -0.2030 N.4   1 <1>  -0.9060 
 15 C        0.6970     4.4560    -0.3740 C.3   1 <1>   0.5030 
 16 C        1.5380     4.1140     0.8870 C.3   1 <1>  -0.1600 
 17 C        1.3330     4.0090    -1.6910 C.3   1 <1>  -0.2400 
 18 C        0.3310     5.9450    -0.4340 C.3   1 <1>  -0.2400 
 19 C        3.0680     4.3800     1.0130 C.3   1 <1>   0.0000 
 20 C        3.4910     5.7990     0.6090 C.3   1 <1>  -0.2400 
 21 C        3.4370     4.2010     2.4970 C.3   1 <1>  -0.2400 
 22 C        3.9090     3.3580     0.2270 C.3   1 <1>  -0.2400 
 23 H       -8.0800     0.6450     0.5620 H     1 <1>   0.0800 
 24 H       -7.1550     0.6580    -0.9350 H     1 <1>   0.0800 
 25 H       -7.5160     2.1740    -0.1060 H     1 <1>   0.0800 
 26 H       -5.0130     2.9670     1.9130 H     1 <1>   0.1500 
 27 H       -2.8480     1.6550    -2.3070 H     1 <1>   0.1500 
 28 H       -4.8830    -1.8460    -1.7600 H     1 <1>   0.0800 
 29 H       -5.4880    -1.1510    -0.2640 H     1 <1>   0.0800 
 30 H       -3.7500    -1.2250    -0.5620 H     1 <1>   0.0800 
 31 H       -1.9160     4.8710    -1.3150 H     1 <1>   0.0800 
 32 H       -1.3230     3.4470    -2.1560 H     1 <1>   0.0800 
 33 H       -3.0220     5.9370     2.6140 H     1 <1>   0.0800 
 34 H       -3.6060     4.3500     3.0990 H     1 <1>   0.0800 
 35 H       -4.5560     5.3480     1.9860 H     1 <1>   0.0800 
 36 H       -0.3380     2.7090    -0.0960 H     1 <1>   0.4500 
 37 H       -0.9900     3.9930     0.6820 H     1 <1>   0.4500 
 38 H        1.4170     3.0630     1.0870 H     1 <1>   0.0800 
 39 H        1.0670     4.6260     1.7070 H     1 <1>   0.0800 
 40 H        0.6830     4.1780    -2.5290 H     1 <1>   0.0800 
 41 H        2.2220     4.5800    -1.8820 H     1 <1>   0.0800 
 42 H        1.6010     2.9680    -1.6540 H     1 <1>   0.0800 
 43 H       -0.1880     6.2520     0.4570 H     1 <1>   0.0800 
 44 H       -0.2770     6.1720    -1.2910 H     1 <1>   0.0800 
 45 H        1.2090     6.5520    -0.5240 H     1 <1>   0.0800 
 46 H        2.9160     6.5360     1.1420 H     1 <1>   0.0800 
 47 H        3.3820     5.9590    -0.4470 H     1 <1>   0.0800 
 48 H        4.5290     5.9590     0.8470 H     1 <1>   0.0800 
 49 H        2.9200     4.9160     3.1130 H     1 <1>   0.0800 
 50 H        4.4930     4.3430     2.6500 H     1 <1>   0.0800 
 51 H        3.1840     3.2130     2.8400 H     1 <1>   0.0800 
 52 H        3.8360     3.4960    -0.8340 H     1 <1>   0.0800 
 53 H        3.6140     2.3510     0.4650 H     1 <1>   0.0800 
 54 H        4.9500     3.4620     0.4800 H     1 <1>   0.0800 
@<TRIPOS>BOND
  1   1   2  1   
  2   1   3  1   
  3   2   4  ar  
  4   2   5  ar  
  5   3  23  1   
  6   3  24  1   
  7   3  25  1   
  8   4   6  1   
  9   4   7  ar  
 10   5   8  ar  
 11   5  26  1   
 12   6   9  1   
 13   7  10  ar  
 14   7  27  1   
 15   8  10  ar  
 16   8  11  1   
 17   9  28  1   
 18   9  29  1   
 19   9  30  1   
 20  10  12  1   
 21  11  13  1   
 22  12  14  1   
 23  12  31  1   
 24  12  32  1   
 25  13  33  1   
 26  13  34  1   
 27  13  35  1   
 28  14  15  1   
 29  14  36  1   
 30  14  37  1   
 31  15  16  1   
 32  15  17  1   
 33  15  18  1   
 34  16  19  1   
 35  16  38  1   
 36  16  39  1   
 37  17  40  1   
 38  17  41  1   
 39  17  42  1   
 40  18  43  1   
 41  18  44  1   
 42  18  45  1   
 43  19  20  1   
 44  19  21  1   
 45  19  22  1   
 46  20  46  1   
 47  20  47  1   
 48  20  48  1   
 49  21  49  1   
 50  21  50  1   
 51  21  51  1   
 52  22  52  1   
 53  22  53  1   
 54  22  54  1   
@<TRIPOS>SUBSTRUCTURE
  1 ****  14 GROUP 4 **** **** 0

# MOE 2024.06 (io_trps.svl 2023.06)
