@<TRIPOS>MOLECULE
NONAME
41 43 1 0 0 
SMALL
USER_CHARGES


@<TRIPOS>ATOM
  1 CL      -0.8520     0.2670    -1.5230 Cl    1 <1>  -0.1770 
  2 C       -2.2960    -0.5340    -0.9490 C.ar  1 <1>   0.1770 
  3 C       -3.5350    -0.1840    -1.4550 C.ar  1 <1>   0.1600 
  4 C       -2.1960    -1.5170     0.0100 C.ar  1 <1>  -0.1500 
  5 N       -4.6800    -0.7390    -1.0780 N.ar  1 <1>  -0.6200 
  6 C       -3.3800    -2.0990     0.4080 C.ar  1 <1>  -0.1500 
  7 C       -4.5910    -1.6860    -0.1530 C.ar  1 <1>   0.4270 
  8 N       -5.8210    -2.2100     0.1830 N.am  1 <1>  -0.5470 
  9 C       -6.2290    -3.1380     1.0980 C.2   1 <1>   0.5690 
 10 O       -5.4720    -3.7050     1.8460 O.2   1 <1>  -0.5700 
 11 C       -7.7060    -3.4900     1.1780 C.3   1 <1>   0.1310 
 12 S       -8.7740    -2.1320     0.4880 S.3   1 <1>  -0.2860 
 13 C      -10.4250    -2.8230     0.6360 C.2   1 <1>   0.2430 
 14 N      -10.6610    -3.9980     1.0970 N.2   1 <1>  -0.3380 
 15 N      -11.5210    -2.1610     0.2690 N.pl3 1 <1>   0.0480 
 16 N      -11.9880    -4.1460     1.0400 N.2   1 <1>  -0.3380 
 17 C      -12.4840    -3.0560     0.5460 C.2   1 <1>   0.0060 
 18 C      -11.6140    -0.8000    -0.2980 C.3   1 <1>   0.0160 
 19 C      -13.9710    -2.8010     0.3010 C.3   1 <1>   0.1000 
 20 C      -14.9090    -3.8740     0.8550 C.3   1 <1>  -0.1600 
 21 C      -14.3350    -2.7600    -1.1830 C.3   1 <1>  -0.1600 
 22 C      -16.2220    -3.6680     0.1000 C.3   1 <1>  -0.1600 
 23 C      -15.8380    -3.0510    -1.2510 C.3   1 <1>  -0.1600 
 24 H       -3.5800     0.5870    -2.2040 H     1 <1>   0.1500 
 25 H       -1.2440    -1.8060     0.4180 H     1 <1>   0.1500 
 26 H       -3.3590    -2.8720     1.1520 H     1 <1>   0.1500 
 27 H       -6.5650    -1.7660    -0.3520 H     1 <1>   0.3700 
 28 H       -8.0030    -3.6380     2.2000 H     1 <1>   0.0800 
 29 H       -7.9110    -4.3780     0.6100 H     1 <1>   0.0800 
 30 H      -10.8570    -0.1740     0.1390 H     1 <1>   0.0800 
 31 H      -12.5790    -0.3790    -0.0870 H     1 <1>   0.0800 
 32 H      -11.4670    -0.8490    -1.3610 H     1 <1>   0.0800 
 33 H      -14.2460    -1.8630     0.7540 H     1 <1>   0.0800 
 34 H      -15.0310    -3.7910     1.9210 H     1 <1>   0.0800 
 35 H      -14.5210    -4.8510     0.6210 H     1 <1>   0.0800 
 36 H      -13.8010    -3.5440    -1.6950 H     1 <1>   0.0800 
 37 H      -14.0910    -1.8160    -1.6360 H     1 <1>   0.0800 
 38 H      -16.8480    -2.9820     0.6440 H     1 <1>   0.0800 
 39 H      -16.7500    -4.5990    -0.0230 H     1 <1>   0.0800 
 40 H      -16.0520    -3.7300    -2.0590 H     1 <1>   0.0800 
 41 H      -16.3920    -2.1410    -1.4060 H     1 <1>   0.0800 
@<TRIPOS>BOND
  1   1   2  1   
  2   2   3  ar  
  3   2   4  ar  
  4   3   5  ar  
  5   3  24  1   
  6   4   6  ar  
  7   4  25  1   
  8   5   7  ar  
  9   6   7  ar  
 10   6  26  1   
 11   7   8  1   
 12   8   9  am  
 13   8  27  1   
 14   9  10  2   
 15   9  11  1   
 16  11  12  1   
 17  11  28  1   
 18  11  29  1   
 19  12  13  1   
 20  13  14  2   
 21  13  15  1   
 22  14  16  1   
 23  15  17  1   
 24  15  18  1   
 25  16  17  2   
 26  17  19  1   
 27  18  30  1   
 28  18  31  1   
 29  18  32  1   
 30  19  20  1   
 31  19  21  1   
 32  19  33  1   
 33  20  22  1   
 34  20  34  1   
 35  20  35  1   
 36  21  23  1   
 37  21  36  1   
 38  21  37  1   
 39  22  23  1   
 40  22  38  1   
 41  22  39  1   
 42  23  40  1   
 43  23  41  1   
@<TRIPOS>SUBSTRUCTURE
  1 ****  12 GROUP 4 **** **** 0

# MOE 2024.06 (io_trps.svl 2023.06)
