@<TRIPOS>MOLECULE
NONAME
47 48 1 0 0 
SMALL
USER_CHARGES


@<TRIPOS>ATOM
  1 O       -1.8900    -6.1570    -0.0960 O.3   1 <1>  -0.3630 
  2 C       -3.2430    -6.0500    -0.0070 C.ar  1 <1>   0.0830 
  3 C       -1.2200    -7.3430     0.2410 C.3   1 <1>   0.1200 
  4 C       -3.8200    -4.8380    -0.3730 C.ar  1 <1>  -0.1440 
  5 C       -4.0580    -7.0930     0.4300 C.ar  1 <1>  -0.1500 
  6 C        0.2710    -7.0940     0.0190 C.3   1 <1>  -0.1600 
  7 C       -5.1950    -4.6830    -0.2980 C.ar  1 <1>  -0.1500 
  8 C       -2.9580    -3.6800    -0.8560 C.3   1 <1>  -0.0960 
  9 C       -5.4280    -6.9240     0.5000 C.ar  1 <1>  -0.1500 
 10 C        1.0830    -8.3390     0.3650 C.3   1 <1>   0.3430 
 11 C       -6.0040    -5.7190     0.1380 C.ar  1 <1>  -0.1440 
 12 N        2.5230    -8.1290     0.0410 N.4   1 <1>  -0.9590 
 13 C       -7.5090    -5.5330     0.2130 C.3   1 <1>  -0.0970 
 14 C        3.2160    -9.4450    -0.0720 C.3   1 <1>   0.3430 
 15 C        3.1720    -7.2020     1.0150 C.3   1 <1>   0.3430 
 16 C        4.3650    -9.3400    -1.0740 C.3   1 <1>  -0.1600 
 17 C        4.5750    -6.7810     0.5710 C.3   1 <1>  -0.1600 
 18 C        5.7010    -8.8450    -0.4940 C.3   1 <1>  -0.1600 
 19 C        5.6180    -7.8990     0.7120 C.3   1 <1>  -0.1600 
 20 H       -1.5870    -8.1280    -0.3980 H     1 <1>   0.0800 
 21 H       -1.4310    -7.5650     1.2730 H     1 <1>   0.0800 
 22 H       -3.6530    -8.0420     0.7190 H     1 <1>   0.1500 
 23 H        0.5650    -6.2670     0.6390 H     1 <1>   0.0800 
 24 H        0.4200    -6.8390    -1.0160 H     1 <1>   0.0800 
 25 H       -5.6440    -3.7470    -0.5810 H     1 <1>   0.1500 
 26 H       -2.2630    -3.3990    -0.0850 H     1 <1>   0.0800 
 27 H       -3.5590    -2.8250    -1.1040 H     1 <1>   0.0800 
 28 H       -2.4070    -3.9770    -1.7300 H     1 <1>   0.0800 
 29 H       -6.0470    -7.7370     0.8370 H     1 <1>   0.1500 
 30 H        0.7030    -9.1670    -0.2130 H     1 <1>   0.0800 
 31 H        0.9690    -8.5790     1.4100 H     1 <1>   0.0800 
 32 H        2.5750    -7.6850    -0.8850 H     1 <1>   0.4500 
 33 H       -7.7470    -4.5200     0.4830 H     1 <1>   0.0800 
 34 H       -7.9350    -6.1890     0.9500 H     1 <1>   0.0800 
 35 H       -7.9490    -5.7510    -0.7430 H     1 <1>   0.0800 
 36 H        2.5200   -10.1810    -0.4420 H     1 <1>   0.0800 
 37 H        3.5770    -9.7770     0.8880 H     1 <1>   0.0800 
 38 H        3.2280    -7.6670     1.9860 H     1 <1>   0.0800 
 39 H        2.5750    -6.3100     1.1120 H     1 <1>   0.0800 
 40 H        4.0720    -8.7150    -1.9000 H     1 <1>   0.0800 
 41 H        4.5390   -10.3200    -1.4840 H     1 <1>   0.0800 
 42 H        4.8770    -5.9780     1.2210 H     1 <1>   0.0800 
 43 H        4.5630    -6.3830    -0.4290 H     1 <1>   0.0800 
 44 H        6.2510    -8.3570    -1.2820 H     1 <1>   0.0800 
 45 H        6.2880    -9.6980    -0.1970 H     1 <1>   0.0800 
 46 H        5.4290    -8.4640     1.6100 H     1 <1>   0.0800 
 47 H        6.5890    -7.4470     0.8350 H     1 <1>   0.0800 
@<TRIPOS>BOND
  1   1   2  1   
  2   1   3  1   
  3   2   4  ar  
  4   2   5  ar  
  5   3   6  1   
  6   3  20  1   
  7   3  21  1   
  8   4   7  ar  
  9   4   8  1   
 10   5   9  ar  
 11   5  22  1   
 12   6  10  1   
 13   6  23  1   
 14   6  24  1   
 15   7  11  ar  
 16   7  25  1   
 17   8  26  1   
 18   8  27  1   
 19   8  28  1   
 20   9  11  ar  
 21   9  29  1   
 22  10  12  1   
 23  10  30  1   
 24  10  31  1   
 25  11  13  1   
 26  12  14  1   
 27  12  15  1   
 28  12  32  1   
 29  13  33  1   
 30  13  34  1   
 31  13  35  1   
 32  14  16  1   
 33  14  36  1   
 34  14  37  1   
 35  15  17  1   
 36  15  38  1   
 37  15  39  1   
 38  16  18  1   
 39  16  40  1   
 40  16  41  1   
 41  17  19  1   
 42  17  42  1   
 43  17  43  1   
 44  18  19  1   
 45  18  44  1   
 46  18  45  1   
 47  19  46  1   
 48  19  47  1   
@<TRIPOS>SUBSTRUCTURE
  1 ****   3 GROUP 4 **** **** 0

# MOE 2024.06 (io_trps.svl 2023.06)
