@<TRIPOS>MOLECULE
NONAME
36 37 1 0 0 
SMALL
USER_CHARGES


@<TRIPOS>ATOM
  1 CL       0.6110     2.1690     2.5390 Cl    1 <1>  -0.1230 
  2 C        1.9330     1.6140     1.5240 C.2   1 <1>   0.1230 
  3 C        2.6720     0.4590     1.7210 C.2   1 <1>   0.1080 
  4 C        2.4230     2.2110     0.4230 C.2   1 <1>  -0.3320 
  5 N        3.5780     0.3260     0.8070 N.2   1 <1>  -0.7070 
  6 C        2.4850    -0.5440     2.8380 C.3   1 <1>  -0.0590 
  7 N        3.4520     1.4220    -0.0290 N.pl3 1 <1>   0.5840 
  8 C        1.9590     3.5090    -0.2280 C.3   1 <1>  -0.0600 
  9 S        4.4520     1.6860    -1.5010 S.o2  1 <1>   1.2950 
 10 O        4.5010     3.0980    -1.8410 O.2   1 <1>  -0.6500 
 11 O        4.0060     0.7860    -2.5510 O.2   1 <1>  -0.6500 
 12 C        6.0950     1.1650    -0.9550 C.ar  1 <1>  -0.0090 
 13 C        6.6680     1.7210     0.1850 C.ar  1 <1>   0.0830 
 14 C        6.8160     0.2100    -1.6600 C.ar  1 <1>  -0.1500 
 15 O        5.9440     2.6570     0.8550 O.3   1 <1>  -0.3630 
 16 C        7.9350     1.3190     0.6030 C.ar  1 <1>  -0.1500 
 17 C        8.0730    -0.1970    -1.2510 C.ar  1 <1>   0.0830 
 18 C        6.3050     3.0880     2.1480 C.3   1 <1>   0.0400 
 19 C        8.6350     0.3640    -0.1090 C.ar  1 <1>  -0.1500 
 20 O        8.6870    -1.1380    -2.0120 O.3   1 <1>  -0.3630 
 21 C        9.9590    -1.6420    -1.6680 C.3   1 <1>   0.0400 
 22 H        1.4870    -0.4890     3.2330 H     1 <1>   0.0800 
 23 H        3.1880    -0.3440     3.6250 H     1 <1>   0.0800 
 24 H        2.6550    -1.5370     2.4640 H     1 <1>   0.0800 
 25 H        1.0980     3.9010     0.2830 H     1 <1>   0.0800 
 26 H        1.6940     3.3410    -1.2580 H     1 <1>   0.0800 
 27 H        2.7400     4.2480    -0.1880 H     1 <1>   0.0800 
 28 H        6.3970    -0.2340    -2.5470 H     1 <1>   0.1500 
 29 H        8.3930     1.7400     1.4780 H     1 <1>   0.1500 
 30 H        5.5310     3.7410     2.5110 H     1 <1>   0.0800 
 31 H        7.2360     3.6240     2.0930 H     1 <1>   0.0800 
 32 H        6.3890     2.2300     2.7920 H     1 <1>   0.0800 
 33 H        9.6090     0.0710     0.2350 H     1 <1>   0.1500 
 34 H       10.2360    -2.3770    -2.4020 H     1 <1>   0.0800 
 35 H        9.9020    -2.1000    -0.6960 H     1 <1>   0.0800 
 36 H       10.6690    -0.8340    -1.6750 H     1 <1>   0.0800 
@<TRIPOS>BOND
  1   1   2  1   
  2   2   3  1   
  3   2   4  2   
  4   3   5  2   
  5   3   6  1   
  6   4   7  1   
  7   4   8  1   
  8   5   7  1   
  9   6  22  1   
 10   6  23  1   
 11   6  24  1   
 12   7   9  1   
 13   8  25  1   
 14   8  26  1   
 15   8  27  1   
 16   9  10  2   
 17   9  11  2   
 18   9  12  1   
 19  12  13  ar  
 20  12  14  ar  
 21  13  15  1   
 22  13  16  ar  
 23  14  17  ar  
 24  14  28  1   
 25  15  18  1   
 26  16  19  ar  
 27  16  29  1   
 28  17  19  ar  
 29  17  20  1   
 30  18  30  1   
 31  18  31  1   
 32  18  32  1   
 33  19  33  1   
 34  20  21  1   
 35  21  34  1   
 36  21  35  1   
 37  21  36  1   
@<TRIPOS>SUBSTRUCTURE
  1 ****  12 GROUP 4 **** **** 0

# MOE 2024.06 (io_trps.svl 2023.06)
