@<TRIPOS>MOLECULE
NONAME
32 33 1 0 0 
SMALL
USER_CHARGES


@<TRIPOS>ATOM
  1 F       -0.2730     0.7730     1.1400 F     1 <1>  -0.1900 
  2 C        0.3150     1.6040     0.3140 C.ar  1 <1>   0.1900 
  3 C       -0.2620     2.8610     0.1030 C.ar  1 <1>   0.1170 
  4 C        1.4780     1.1870    -0.2990 C.ar  1 <1>  -0.1500 
  5 N       -1.4510     3.2040     0.7760 N.am  1 <1>  -0.5470 
  6 C        0.4000     3.7250    -0.7710 C.ar  1 <1>  -0.1500 
  7 C        2.0870     2.0780    -1.1590 C.ar  1 <1>   0.1900 
  8 C       -2.3900     4.1590     0.5280 C.2   1 <1>   0.6900 
  9 C        1.5720     3.3380    -1.4060 C.ar  1 <1>  -0.1500 
 10 F        3.1910     1.7200    -1.7600 F     1 <1>  -0.1900 
 11 O       -2.3400     4.8780    -0.4490 O.2   1 <1>  -0.5700 
 12 N       -3.4130     4.2740     1.4080 N.am  1 <1>  -0.7300 
 13 C       -4.5090     5.2800     1.3010 C.3   1 <1>   0.1400 
 14 C       -5.4400     5.0030     0.1100 C.3   1 <1>   0.2000 
 15 O       -6.5680     5.8080     0.2150 O.3   1 <1>  -0.5600 
 16 C       -6.0070     3.5900     0.0430 C.3   1 <1>  -0.1600 
 17 C       -7.5880     5.2930    -0.5770 C.3   1 <1>   0.1200 
 18 C       -7.3450     3.7870    -0.6530 C.3   1 <1>  -0.1600 
 19 H        1.8940     0.2140    -0.1180 H     1 <1>   0.1500 
 20 H       -1.7210     2.5410     1.4970 H     1 <1>   0.3700 
 21 H        0.0060     4.7080    -0.9600 H     1 <1>   0.1500 
 22 H        2.0790     4.0040    -2.0820 H     1 <1>   0.1500 
 23 H       -3.3870     3.7480     2.2790 H     1 <1>   0.3700 
 24 H       -4.0770     6.2590     1.1830 H     1 <1>   0.0800 
 25 H       -5.0870     5.2650     2.2080 H     1 <1>   0.0800 
 26 H       -4.9460     5.2570    -0.8130 H     1 <1>   0.0800 
 27 H       -6.1580     3.2100     1.0380 H     1 <1>   0.0800 
 28 H       -5.3500     2.9300    -0.4960 H     1 <1>   0.0800 
 29 H       -7.5180     5.7490    -1.5500 H     1 <1>   0.0800 
 30 H       -8.5330     5.5330    -0.1220 H     1 <1>   0.0800 
 31 H       -8.1300     3.2430    -0.1580 H     1 <1>   0.0800 
 32 H       -7.2980     3.4780    -1.6830 H     1 <1>   0.0800 
@<TRIPOS>BOND
  1   1   2  1   
  2   2   3  ar  
  3   2   4  ar  
  4   3   5  1   
  5   3   6  ar  
  6   4   7  ar  
  7   4  19  1   
  8   5   8  am  
  9   5  20  1   
 10   6   9  ar  
 11   6  21  1   
 12   7   9  ar  
 13   7  10  1   
 14   8  11  2   
 15   8  12  am  
 16   9  22  1   
 17  12  13  1   
 18  12  23  1   
 19  13  14  1   
 20  13  24  1   
 21  13  25  1   
 22  14  15  1   
 23  14  16  1   
 24  14  26  1   
 25  15  17  1   
 26  16  18  1   
 27  16  27  1   
 28  16  28  1   
 29  17  18  1   
 30  17  29  1   
 31  17  30  1   
 32  18  31  1   
 33  18  32  1   
@<TRIPOS>SUBSTRUCTURE
  1 ****   8 GROUP 4 **** **** 0

# MOE 2024.06 (io_trps.svl 2023.06)
