@<TRIPOS>MOLECULE
NONAME
43 44 1 0 0 
SMALL
USER_CHARGES


@<TRIPOS>ATOM
  1 O        0.6920    -5.6700     0.0660 O.3   1 <1>  -0.3630 
  2 C        1.9190    -6.2400    -0.0300 C.ar  1 <1>   0.0830 
  3 C       -0.4750    -6.3590    -0.3020 C.3   1 <1>   0.1200 
  4 C        2.9970    -5.4860     0.3500 C.ar  1 <1>  -0.1500 
  5 C        2.1240    -7.5530    -0.4960 C.ar  1 <1>  -0.1500 
  6 C       -1.6500    -5.4110    -0.0640 C.3   1 <1>  -0.1600 
  7 C        4.3110    -5.9870     0.2880 C.ar  1 <1>   0.0000 
  8 C        3.3910    -8.0630    -0.5660 C.ar  1 <1>  -0.1500 
  9 C       -2.9700    -6.0750    -0.4480 C.3   1 <1>   0.3430 
 10 C        4.5140    -7.3020    -0.1800 C.ar  1 <1>   0.0000 
 11 C        5.4340    -5.2250     0.6740 C.ar  1 <1>  -0.1500 
 12 N       -4.1240    -5.1910    -0.1110 N.4   1 <1>  -0.9590 
 13 C        5.8290    -7.8050    -0.2430 C.ar  1 <1>  -0.1500 
 14 C        6.6990    -5.7380     0.6020 C.ar  1 <1>  -0.1500 
 15 C       -5.3910    -5.9710    -0.1430 C.3   1 <1>   0.3430 
 16 C       -4.1890    -3.9890    -0.9900 C.3   1 <1>   0.3430 
 17 C        6.9000    -7.0430     0.1380 C.ar  1 <1>  -0.1500 
 18 C       -6.4860    -5.2130     0.5980 C.3   1 <1>  -0.2400 
 19 C       -3.9840    -2.7510    -0.1280 C.3   1 <1>  -0.2400 
 20 H       -0.5530    -7.2400     0.3120 H     1 <1>   0.0800 
 21 H       -0.3930    -6.6280    -1.3410 H     1 <1>   0.0800 
 22 H        2.8450    -4.4840     0.7060 H     1 <1>   0.1500 
 23 H        1.2980    -8.1660    -0.8000 H     1 <1>   0.1500 
 24 H       -1.4900    -4.5280    -0.6570 H     1 <1>   0.0800 
 25 H       -1.6660    -5.1460     0.9790 H     1 <1>   0.0800 
 26 H        3.5550    -9.0640    -0.9210 H     1 <1>   0.1500 
 27 H       -3.0590    -7.0020     0.0970 H     1 <1>   0.0800 
 28 H       -2.9750    -6.3040    -1.5020 H     1 <1>   0.0800 
 29 H        5.2740    -4.2240     1.0300 H     1 <1>   0.1500 
 30 H       -3.9940    -4.8570     0.8530 H     1 <1>   0.4500 
 31 H        5.9780    -8.8080    -0.6000 H     1 <1>   0.1500 
 32 H        7.5520    -5.1520     0.8990 H     1 <1>   0.1500 
 33 H       -5.2430    -6.9230     0.3420 H     1 <1>   0.0800 
 34 H       -5.6910    -6.1550    -1.1630 H     1 <1>   0.0800 
 35 H       -5.1490    -3.9320    -1.4800 H     1 <1>   0.0800 
 36 H       -3.4260    -4.0340    -1.7500 H     1 <1>   0.0800 
 37 H        7.9020    -7.4330     0.0880 H     1 <1>   0.1500 
 38 H       -6.1940    -5.0120     1.6130 H     1 <1>   0.0800 
 39 H       -7.3750    -5.8180     0.6250 H     1 <1>   0.0800 
 40 H       -6.7350    -4.2920     0.1020 H     1 <1>   0.0800 
 41 H       -4.7560    -2.6670     0.6160 H     1 <1>   0.0800 
 42 H       -4.0300    -1.8750    -0.7510 H     1 <1>   0.0800 
 43 H       -3.0200    -2.7650     0.3490 H     1 <1>   0.0800 
@<TRIPOS>BOND
  1   1   2  1   
  2   1   3  1   
  3   2   4  ar  
  4   2   5  ar  
  5   3   6  1   
  6   3  20  1   
  7   3  21  1   
  8   4   7  ar  
  9   4  22  1   
 10   5   8  ar  
 11   5  23  1   
 12   6   9  1   
 13   6  24  1   
 14   6  25  1   
 15   7  10  ar  
 16   7  11  ar  
 17   8  10  ar  
 18   8  26  1   
 19   9  12  1   
 20   9  27  1   
 21   9  28  1   
 22  10  13  ar  
 23  11  14  ar  
 24  11  29  1   
 25  12  15  1   
 26  12  16  1   
 27  12  30  1   
 28  13  17  ar  
 29  13  31  1   
 30  14  17  ar  
 31  14  32  1   
 32  15  18  1   
 33  15  33  1   
 34  15  34  1   
 35  16  19  1   
 36  16  35  1   
 37  16  36  1   
 38  17  37  1   
 39  18  38  1   
 40  18  39  1   
 41  18  40  1   
 42  19  41  1   
 43  19  42  1   
 44  19  43  1   
@<TRIPOS>SUBSTRUCTURE
  1 ****   1 GROUP 4 **** **** 0

# MOE 2024.06 (io_trps.svl 2023.06)
