@<TRIPOS>MOLECULE
NONAME
38 39 1 0 0 
SMALL
USER_CHARGES


@<TRIPOS>ATOM
  1 I        0.2470    -1.3060     0.8120 I     1 <1>  -0.0810 
  2 C        2.2420    -0.6440     0.4820 C.ar  1 <1>   0.0810 
  3 C        2.5020     0.1630    -0.6090 C.ar  1 <1>  -0.1500 
  4 C        3.2270    -1.0380     1.3660 C.ar  1 <1>  -0.1500 
  5 C        3.8030     0.5890    -0.8180 C.ar  1 <1>  -0.1500 
  6 C        4.5220    -0.6030     1.1420 C.ar  1 <1>  -0.1500 
  7 C        4.8200     0.2100     0.0530 C.ar  1 <1>  -0.1430 
  8 C        6.2490     0.6840    -0.1960 C.3   1 <1>   0.3640 
  9 N        7.1230    -0.4890    -0.4140 N.am  1 <1>  -0.7300 
 10 C        6.7460     1.6280     0.9000 C.3   1 <1>  -0.2400 
 11 C        7.8400    -1.2250     0.4780 C.2   1 <1>   0.5690 
 12 O        7.9240    -0.9500     1.6500 O.2   1 <1>  -0.5700 
 13 C        8.5410    -2.4800    -0.0430 C.3   1 <1>  -0.0190 
 14 C        7.7970    -3.7510     0.4090 C.3   1 <1>  -0.1600 
 15 C       10.0200    -2.5370     0.3860 C.3   1 <1>  -0.1600 
 16 C        8.4850    -5.0230    -0.1060 C.3   1 <1>  -0.1600 
 17 C       10.7090    -3.8070    -0.1320 C.3   1 <1>  -0.1600 
 18 C        9.9590    -5.0670     0.3200 C.3   1 <1>  -0.1600 
 19 H        1.7110     0.4530    -1.2770 H     1 <1>   0.1500 
 20 H        2.9960    -1.6670     2.2070 H     1 <1>   0.1500 
 21 H        4.0170     1.2190    -1.6640 H     1 <1>   0.1500 
 22 H        5.3040    -0.9000     1.8220 H     1 <1>   0.1500 
 23 H        6.2600     1.2500    -1.1120 H     1 <1>   0.0800 
 24 H        7.0120    -0.8800    -1.3470 H     1 <1>   0.3700 
 25 H        6.6410     1.1830     1.8720 H     1 <1>   0.0800 
 26 H        6.1620     2.5290     0.8870 H     1 <1>   0.0800 
 27 H        7.7770     1.8810     0.7330 H     1 <1>   0.0800 
 28 H        8.5180    -2.4500    -1.1180 H     1 <1>   0.0800 
 29 H        6.7810    -3.7220     0.0540 H     1 <1>   0.0800 
 30 H        7.7650    -3.7760     1.4860 H     1 <1>   0.0800 
 31 H       10.0790    -2.5180     1.4620 H     1 <1>   0.0800 
 32 H       10.5370    -1.6690     0.0160 H     1 <1>   0.0800 
 33 H        8.4240    -5.0540    -1.1810 H     1 <1>   0.0800 
 34 H        7.9750    -5.8890     0.2780 H     1 <1>   0.0800 
 35 H       11.7210    -3.8420     0.2330 H     1 <1>   0.0800 
 36 H       10.7480    -3.7810    -1.2080 H     1 <1>   0.0800 
 37 H       10.4300    -5.9390    -0.1000 H     1 <1>   0.0800 
 38 H       10.0150    -5.1470     1.3930 H     1 <1>   0.0800 
@<TRIPOS>BOND
  1   1   2  1   
  2   2   3  ar  
  3   2   4  ar  
  4   3   5  ar  
  5   3  19  1   
  6   4   6  ar  
  7   4  20  1   
  8   5   7  ar  
  9   5  21  1   
 10   6   7  ar  
 11   6  22  1   
 12   7   8  1   
 13   8   9  1   
 14   8  10  1   
 15   8  23  1   
 16   9  11  am  
 17   9  24  1   
 18  10  25  1   
 19  10  26  1   
 20  10  27  1   
 21  11  12  2   
 22  11  13  1   
 23  13  14  1   
 24  13  15  1   
 25  13  28  1   
 26  14  16  1   
 27  14  29  1   
 28  14  30  1   
 29  15  17  1   
 30  15  31  1   
 31  15  32  1   
 32  16  18  1   
 33  16  33  1   
 34  16  34  1   
 35  17  18  1   
 36  17  35  1   
 37  17  36  1   
 38  18  37  1   
 39  18  38  1   
@<TRIPOS>SUBSTRUCTURE
  1 ****   9 GROUP 4 **** **** 0

# MOE 2024.06 (io_trps.svl 2023.06)
