@<TRIPOS>MOLECULE
NONAME
45 46 1 0 0 
SMALL
USER_CHARGES


@<TRIPOS>ATOM
  1 O       -0.4020    -0.6790    -0.5130 O.co2 1 <1>  -0.9000 
  2 C       -0.8950    -1.3300     0.4160 C.2   1 <1>   0.9060 
  3 O       -0.2000    -1.8390     1.3030 O.co2 1 <1>  -0.9000 
  4 C       -2.4110    -1.5180     0.4810 C.3   1 <1>  -0.1860 
  5 C       -2.9460    -2.2850    -0.7440 C.3   1 <1>  -0.1600 
  6 C       -3.1490    -0.1740     0.6400 C.3   1 <1>  -0.1600 
  7 C       -4.4690    -2.4680    -0.6750 C.3   1 <1>  -0.1600 
  8 C       -4.6720    -0.3640     0.7010 C.3   1 <1>  -0.1600 
  9 C       -5.1930    -1.1140    -0.5430 C.3   1 <1>  -0.0800 
 10 C       -6.7350    -1.2800    -0.5960 C.3   1 <1>  -0.0800 
 11 C       -7.4480     0.0700    -0.8010 C.3   1 <1>  -0.1600 
 12 C       -7.3400    -2.0020     0.6250 C.3   1 <1>  -0.1600 
 13 C       -8.9650    -0.1080    -0.9580 C.3   1 <1>  -0.1600 
 14 C       -8.8560    -2.1870     0.4690 C.3   1 <1>  -0.1600 
 15 C       -9.5780    -0.8470     0.2470 C.3   1 <1>  -0.0800 
 16 C      -11.0880    -1.0970     0.0730 C.3   1 <1>  -0.1600 
 17 C      -11.9220     0.1930     0.0260 C.3   1 <1>  -0.1600 
 18 C      -13.4190    -0.1220    -0.0120 C.3   1 <1>  -0.2400 
 19 H       -2.6050    -2.1110     1.3560 H     1 <1>   0.0800 
 20 H       -2.4630    -3.2450    -0.7960 H     1 <1>   0.0800 
 21 H       -2.6850    -1.7400    -1.6360 H     1 <1>   0.0800 
 22 H       -2.8940     0.4610    -0.1910 H     1 <1>   0.0800 
 23 H       -2.8040     0.3110     1.5370 H     1 <1>   0.0800 
 24 H       -4.6960    -3.0930     0.1690 H     1 <1>   0.0800 
 25 H       -4.7990    -2.9750    -1.5650 H     1 <1>   0.0800 
 26 H       -5.1310     0.6040     0.7760 H     1 <1>   0.0800 
 27 H       -4.9090    -0.9180     1.5910 H     1 <1>   0.0800 
 28 H       -4.9110    -0.5320    -1.4050 H     1 <1>   0.0800 
 29 H       -6.9530    -1.8800    -1.4640 H     1 <1>   0.0800 
 30 H       -7.0570     0.5540    -1.6800 H     1 <1>   0.0800 
 31 H       -7.2640     0.7140     0.0400 H     1 <1>   0.0800 
 32 H       -7.1520    -1.4320     1.5180 H     1 <1>   0.0800 
 33 H       -6.8860    -2.9680     0.7480 H     1 <1>   0.0800 
 34 H       -9.1650    -0.6620    -1.8590 H     1 <1>   0.0800 
 35 H       -9.4100     0.8640    -1.0620 H     1 <1>   0.0800 
 36 H       -9.2430    -2.6640     1.3530 H     1 <1>   0.0800 
 37 H       -9.0450    -2.8400    -0.3660 H     1 <1>   0.0800 
 38 H       -9.4330    -0.2410     1.1260 H     1 <1>   0.0800 
 39 H      -11.4330    -1.6920     0.9010 H     1 <1>   0.0800 
 40 H      -11.2580    -1.6640    -0.8270 H     1 <1>   0.0800 
 41 H      -11.6690     0.7670    -0.8480 H     1 <1>   0.0800 
 42 H      -11.7090     0.7930     0.8940 H     1 <1>   0.0800 
 43 H      -13.6570    -0.7090    -0.8820 H     1 <1>   0.0800 
 44 H      -13.9870     0.7910    -0.0500 H     1 <1>   0.0800 
 45 H      -13.7120    -0.6700     0.8660 H     1 <1>   0.0800 
@<TRIPOS>BOND
  1   1   2  ar  
  2   2   3  ar  
  3   2   4  1   
  4   4   5  1   
  5   4   6  1   
  6   4  19  1   
  7   5   7  1   
  8   5  20  1   
  9   5  21  1   
 10   6   8  1   
 11   6  22  1   
 12   6  23  1   
 13   7   9  1   
 14   7  24  1   
 15   7  25  1   
 16   8   9  1   
 17   8  26  1   
 18   8  27  1   
 19   9  10  1   
 20   9  28  1   
 21  10  11  1   
 22  10  12  1   
 23  10  29  1   
 24  11  13  1   
 25  11  30  1   
 26  11  31  1   
 27  12  14  1   
 28  12  32  1   
 29  12  33  1   
 30  13  15  1   
 31  13  34  1   
 32  13  35  1   
 33  14  15  1   
 34  14  36  1   
 35  14  37  1   
 36  15  16  1   
 37  15  38  1   
 38  16  17  1   
 39  16  39  1   
 40  16  40  1   
 41  17  18  1   
 42  17  41  1   
 43  17  42  1   
 44  18  43  1   
 45  18  44  1   
 46  18  45  1   
@<TRIPOS>SUBSTRUCTURE
  1 ****  10 GROUP 4 **** **** 0

# MOE 2024.06 (io_trps.svl 2023.06)
