@<TRIPOS>MOLECULE
NONAME
31 32 1 0 0 
SMALL
USER_CHARGES


@<TRIPOS>ATOM
  1 S       -0.0820    -0.4180     0.2320 S.3   1 <1>  -0.2860 
  2 C       -1.7000     0.3260     0.0270 C.2   1 <1>   0.2420 
  3 C        1.0580     1.0190     0.0310 C.3   1 <1>   0.0700 
  4 N       -2.8100    -0.3920     0.1030 N.pl3 1 <1>   0.0330 
  5 N       -1.9150     1.5730    -0.2020 N.2   1 <1>  -0.3380 
  6 C        2.4930     0.5150     0.1850 C.3   1 <1>  -0.1600 
  7 C       -3.7570     0.5280    -0.1020 C.2   1 <1>   0.0060 
  8 N       -3.2460     1.7010    -0.2850 N.2   1 <1>  -0.3380 
  9 C        3.4880     1.6650     0.0280 C.3   1 <1>   0.0700 
 10 C       -5.2400     0.2210    -0.1160 C.3   1 <1>  -0.0600 
 11 S        5.1910     0.9830     0.2260 S.3   1 <1>  -0.2860 
 12 C        6.2250     2.4330     0.0180 C.2   1 <1>   0.2430 
 13 N        7.5460     2.3600     0.0910 N.pl3 1 <1>   0.0330 
 14 N        5.7920     3.6210    -0.2120 N.2   1 <1>  -0.3380 
 15 C        7.9100     3.6290    -0.1160 C.2   1 <1>   0.0060 
 16 N        6.8840     4.3930    -0.2980 N.2   1 <1>  -0.3380 
 17 C        9.3500     4.0990    -0.1330 C.3   1 <1>  -0.0600 
 18 H        0.7990     1.7380     0.7890 H     1 <1>   0.0800 
 19 H        0.8780     1.4320    -0.9460 H     1 <1>   0.0800 
 20 H       -2.8870    -1.3940     0.2760 H     1 <1>   0.2700 
 21 H        2.6900    -0.2320    -0.5630 H     1 <1>   0.0800 
 22 H        2.6120     0.0710     1.1580 H     1 <1>   0.0800 
 23 H        3.3570     2.4180     0.7860 H     1 <1>   0.0800 
 24 H        3.4360     2.1120    -0.9490 H     1 <1>   0.0800 
 25 H       -5.4650    -0.4850    -0.8940 H     1 <1>   0.0800 
 26 H       -5.7960     1.1240    -0.3000 H     1 <1>   0.0800 
 27 H       -5.5440    -0.1810     0.8330 H     1 <1>   0.0800 
 28 H        8.1110     1.5290     0.2630 H     1 <1>   0.2700 
 29 H        9.8950     3.5970    -0.9110 H     1 <1>   0.0800 
 30 H        9.8160     3.9010     0.8150 H     1 <1>   0.0800 
 31 H        9.3840     5.1580    -0.3190 H     1 <1>   0.0800 
@<TRIPOS>BOND
  1   1   2  1   
  2   1   3  1   
  3   2   4  1   
  4   2   5  2   
  5   3   6  1   
  6   3  18  1   
  7   3  19  1   
  8   4   7  1   
  9   4  20  1   
 10   5   8  1   
 11   6   9  1   
 12   6  21  1   
 13   6  22  1   
 14   7   8  2   
 15   7  10  1   
 16   9  11  1   
 17   9  23  1   
 18   9  24  1   
 19  10  25  1   
 20  10  26  1   
 21  10  27  1   
 22  11  12  1   
 23  12  13  1   
 24  12  14  2   
 25  13  15  1   
 26  13  28  1   
 27  14  16  1   
 28  15  16  2   
 29  15  17  1   
 30  17  29  1   
 31  17  30  1   
 32  17  31  1   
@<TRIPOS>SUBSTRUCTURE
  1 ****   6 GROUP 4 **** **** 0

# MOE 2024.06 (io_trps.svl 2023.06)
