@<TRIPOS>MOLECULE
NONAME
33 33 1 0 0 
SMALL
USER_CHARGES


@<TRIPOS>ATOM
  1 F       -0.2260     0.3040    -1.0540 F     1 <1>  -0.3400 
  2 C        0.7880     0.5410    -0.2340 C.3   1 <1>   1.0200 
  3 F        1.7220    -0.3410    -0.5630 F     1 <1>  -0.3400 
  4 F        0.3820     0.1820     0.9780 F     1 <1>  -0.3400 
  5 C        1.3220     1.9810    -0.2890 C.3   1 <1>   0.2200 
  6 N        2.6100     2.2000     0.5230 N.am  1 <1>  -0.7300 
  7 C        0.1850     2.9430     0.0850 C.3   1 <1>   1.0200 
  8 C        3.8210     2.3360    -0.0500 C.2   1 <1>   0.6900 
  9 F       -0.8980     2.8360    -0.6740 F     1 <1>  -0.3400 
 10 F       -0.2230     2.8060     1.3410 F     1 <1>  -0.3400 
 11 F        0.5670     4.2090    -0.0220 F     1 <1>  -0.3400 
 12 O        3.9100     2.3220    -1.2590 O.2   1 <1>  -0.5700 
 13 N        4.8770     2.4900     0.7750 N.am  1 <1>  -0.7300 
 14 C        6.3040     2.7080     0.4510 C.3   1 <1>   0.3640 
 15 C        6.5880     4.2050     0.4110 C.ar  1 <1>  -0.1440 
 16 C        6.7750     1.9920    -0.8150 C.3   1 <1>  -0.2400 
 17 C        7.4950     4.7660     1.3000 C.ar  1 <1>  -0.1500 
 18 C        5.9490     5.0300    -0.5050 C.ar  1 <1>  -0.1500 
 19 C        7.7560     6.1250     1.2760 C.ar  1 <1>  -0.1500 
 20 C        6.2090     6.3890    -0.5320 C.ar  1 <1>  -0.1500 
 21 C        7.1130     6.9380     0.3600 C.ar  1 <1>  -0.1500 
 22 H        1.5380     2.1750    -1.3220 H     1 <1>   0.0800 
 23 H        2.5630     2.0480     1.5320 H     1 <1>   0.3700 
 24 H        4.6570     2.8360     1.7040 H     1 <1>   0.3700 
 25 H        6.8680     2.2850     1.2650 H     1 <1>   0.0800 
 26 H        6.3650     2.4490    -1.6960 H     1 <1>   0.0800 
 27 H        6.4920     0.9560    -0.7840 H     1 <1>   0.0800 
 28 H        7.8450     2.0550    -0.8820 H     1 <1>   0.0800 
 29 H        8.0070     4.1500     2.0190 H     1 <1>   0.1500 
 30 H        5.2430     4.6140    -1.2040 H     1 <1>   0.1500 
 31 H        8.4600     6.5510     1.9680 H     1 <1>   0.1500 
 32 H        5.7060     7.0170    -1.2470 H     1 <1>   0.1500 
 33 H        7.3160     7.9940     0.3390 H     1 <1>   0.1500 
@<TRIPOS>BOND
  1   1   2  1   
  2   2   3  1   
  3   2   4  1   
  4   2   5  1   
  5   5   6  1   
  6   5   7  1   
  7   5  22  1   
  8   6   8  am  
  9   6  23  1   
 10   7   9  1   
 11   7  10  1   
 12   7  11  1   
 13   8  12  2   
 14   8  13  am  
 15  13  14  1   
 16  13  24  1   
 17  14  15  1   
 18  14  16  1   
 19  14  25  1   
 20  15  17  ar  
 21  15  18  ar  
 22  16  26  1   
 23  16  27  1   
 24  16  28  1   
 25  17  19  ar  
 26  17  29  1   
 27  18  20  ar  
 28  18  30  1   
 29  19  21  ar  
 30  19  31  1   
 31  20  21  ar  
 32  20  32  1   
 33  21  33  1   
@<TRIPOS>SUBSTRUCTURE
  1 ****   8 GROUP 4 **** **** 0

# MOE 2024.06 (io_trps.svl 2023.06)
