@<TRIPOS>MOLECULE
NONAME
57 60 1 0 0 
SMALL
USER_CHARGES


@<TRIPOS>ATOM
  1 O       -1.0130     1.7390     1.1580 O.2   1 <1>  -0.5700 
  2 C       -0.0460     2.2060     0.5840 C.2   1 <1>   0.5440 
  3 N       -0.2500     3.2630    -0.2660 N.am  1 <1>  -0.6600 
  4 C        1.2590     1.6040     0.7550 C.ar  1 <1>   0.0860 
  5 C        0.8390     4.0210    -0.9360 C.3   1 <1>   0.2810 
  6 C       -1.5840     3.6900    -0.7320 C.3   1 <1>   0.1400 
  7 C        2.4470     2.3450     0.9030 C.ar  1 <1>   0.1170 
  8 C        1.3450     0.2090     0.7600 C.ar  1 <1>  -0.1500 
  9 C        1.8490     4.6010     0.0760 C.2   1 <1>   0.5690 
 10 C        0.0880     5.0590    -1.7880 C.3   1 <1>  -0.1600 
 11 C       -1.3000     4.4630    -2.0130 C.3   1 <1>  -0.1600 
 12 N        2.4710     3.7540     0.9720 N.am  1 <1>  -0.4770 
 13 C        3.6590     1.6600     1.0000 C.ar  1 <1>  -0.1500 
 14 C        2.5510    -0.4500     0.8750 C.ar  1 <1>  -0.1500 
 15 O        2.0910     5.7900     0.0690 O.2   1 <1>  -0.5700 
 16 C        3.1940     4.3690     2.1410 C.3   1 <1>   0.2010 
 17 C        3.7170     0.2820     0.9880 C.ar  1 <1>  -0.1500 
 18 C        4.6140     4.8230     1.8090 C.2   1 <1>   0.5690 
 19 O        5.5430     4.2830     2.3630 O.2   1 <1>  -0.5700 
 20 N        4.7910     5.8100     0.8960 N.am  1 <1>  -0.7300 
 21 C        6.0800     6.3130     0.3940 C.3   1 <1>   0.2200 
 22 C        6.0860     7.8390     0.5560 C.3   1 <1>  -0.1600 
 23 C        6.2380     5.8460    -1.0680 C.3   1 <1>  -0.1600 
 24 C        7.4860     8.4580     0.6920 C.3   1 <1>  -0.1600 
 25 C        7.5330     5.0550    -1.3090 C.3   1 <1>  -0.1600 
 26 C        8.4230     8.2380    -0.5060 C.3   1 <1>  -0.1600 
 27 C        8.7660     5.9230    -1.6060 C.3   1 <1>  -0.1600 
 28 C        9.1730     6.8910    -0.4840 C.3   1 <1>  -0.1600 
 29 H        1.3610     3.3480    -1.5920 H     1 <1>   0.0800 
 30 H       -2.2250     2.8420    -0.9070 H     1 <1>   0.0800 
 31 H       -2.0270     4.3300     0.0120 H     1 <1>   0.0800 
 32 H        0.4370    -0.3650     0.6700 H     1 <1>   0.1500 
 33 H       -0.0170     5.9800    -1.2410 H     1 <1>   0.0800 
 34 H        0.6040     5.2640    -2.7090 H     1 <1>   0.0800 
 35 H       -1.2800     3.7760    -2.8410 H     1 <1>   0.0800 
 36 H       -2.0460     5.2160    -2.1980 H     1 <1>   0.0800 
 37 H        4.5820     2.2060     1.0850 H     1 <1>   0.1500 
 38 H        2.5860    -1.5260     0.8740 H     1 <1>   0.1500 
 39 H        2.6400     5.2190     2.4960 H     1 <1>   0.0800 
 40 H        3.2410     3.6570     2.9450 H     1 <1>   0.0800 
 41 H        4.6650    -0.2220     1.0710 H     1 <1>   0.1500 
 42 H        3.9540     6.1810     0.4240 H     1 <1>   0.3700 
 43 H        6.8620     5.8950     1.0060 H     1 <1>   0.0800 
 44 H        5.5630     8.2990    -0.2640 H     1 <1>   0.0800 
 45 H        5.5510     8.0870     1.4570 H     1 <1>   0.0800 
 46 H        5.4190     5.1960    -1.3210 H     1 <1>   0.0800 
 47 H        6.1940     6.6770    -1.7490 H     1 <1>   0.0800 
 48 H        7.3540     9.5200     0.8160 H     1 <1>   0.0800 
 49 H        7.9550     8.1000     1.5930 H     1 <1>   0.0800 
 50 H        7.7300     4.4090    -0.4700 H     1 <1>   0.0800 
 51 H        7.3780     4.4170    -2.1620 H     1 <1>   0.0800 
 52 H        7.8860     8.3770    -1.4290 H     1 <1>   0.0800 
 53 H        9.1670     9.0160    -0.4700 H     1 <1>   0.0800 
 54 H        9.5910     5.2520    -1.7740 H     1 <1>   0.0800 
 55 H        8.6190     6.4660    -2.5240 H     1 <1>   0.0800 
 56 H        9.0900     6.4060     0.4740 H     1 <1>   0.0800 
 57 H       10.2180     7.1080    -0.6210 H     1 <1>   0.0800 
@<TRIPOS>BOND
  1   1   2  2   
  2   2   3  am  
  3   2   4  1   
  4   3   5  1   
  5   3   6  1   
  6   4   7  ar  
  7   4   8  ar  
  8   5   9  1   
  9   5  10  1   
 10   5  29  1   
 11   6  11  1   
 12   6  30  1   
 13   6  31  1   
 14   7  12  1   
 15   7  13  ar  
 16   8  14  ar  
 17   8  32  1   
 18   9  12  am  
 19   9  15  2   
 20  10  11  1   
 21  10  33  1   
 22  10  34  1   
 23  11  35  1   
 24  11  36  1   
 25  12  16  1   
 26  13  17  ar  
 27  13  37  1   
 28  14  17  ar  
 29  14  38  1   
 30  16  18  1   
 31  16  39  1   
 32  16  40  1   
 33  17  41  1   
 34  18  19  2   
 35  18  20  am  
 36  20  21  1   
 37  20  42  1   
 38  21  22  1   
 39  21  23  1   
 40  21  43  1   
 41  22  24  1   
 42  22  44  1   
 43  22  45  1   
 44  23  25  1   
 45  23  46  1   
 46  23  47  1   
 47  24  26  1   
 48  24  48  1   
 49  24  49  1   
 50  25  27  1   
 51  25  50  1   
 52  25  51  1   
 53  26  28  1   
 54  26  52  1   
 55  26  53  1   
 56  27  28  1   
 57  27  54  1   
 58  27  55  1   
 59  28  56  1   
 60  28  57  1   
@<TRIPOS>SUBSTRUCTURE
  1 ****  12 GROUP 4 **** **** 0

# MOE 2024.06 (io_trps.svl 2023.06)
