@<TRIPOS>MOLECULE
NONAME
29 30 1 0 0 
SMALL
USER_CHARGES


@<TRIPOS>ATOM
  1 N       -4.5820     0.4770     0.1580 N.ar  1 <1>  -0.6200 
  2 C       -3.4050     0.8820    -0.2590 C.ar  1 <1>   0.4100 
  3 C       -5.2390     1.3220     0.9350 C.ar  1 <1>   0.1600 
  4 N       -2.7860    -0.0270    -1.0510 N.pl3 1 <1>  -0.9000 
  5 C       -2.8200     2.1020     0.0770 C.ar  1 <1>  -0.1440 
  6 C       -4.7620     2.5600     1.3260 C.ar  1 <1>  -0.1500 
  7 C       -3.5160     2.9710     0.8940 C.ar  1 <1>  -0.1500 
  8 C       -1.4280     2.3900    -0.4480 C.3   1 <1>   0.5660 
  9 N       -0.4780     2.2400     0.6760 N.4   1 <1>  -0.9590 
 10 C       -1.2120     3.8080    -0.9840 C.3   1 <1>  -0.1600 
 11 C        0.6220     3.2050     0.4640 C.3   1 <1>   0.3430 
 12 C       -0.0360     0.8230     0.8380 C.3   1 <1>   0.2630 
 13 C       -0.0710     4.4060    -0.1580 C.3   1 <1>  -0.1600 
 14 H       -6.2120     1.0100     1.2790 H     1 <1>   0.1500 
 15 H       -3.0810     0.0640    -2.0270 H     1 <1>   0.4000 
 16 H       -3.1140    -0.9610    -0.7770 H     1 <1>   0.4000 
 17 H       -5.3600     3.1900     1.9600 H     1 <1>   0.1500 
 18 H       -3.1310     3.9310     1.1960 H     1 <1>   0.1500 
 19 H       -1.1770     1.6890    -1.2280 H     1 <1>   0.0800 
 20 H       -1.0120     2.5200     1.5080 H     1 <1>   0.4500 
 21 H       -2.1000     4.4120    -0.9330 H     1 <1>   0.0800 
 22 H       -0.9250     3.7380    -2.0180 H     1 <1>   0.0800 
 23 H        1.3390     2.7990    -0.2330 H     1 <1>   0.0800 
 24 H        1.1190     3.4590     1.3870 H     1 <1>   0.0800 
 25 H        0.5000     0.4940    -0.0370 H     1 <1>   0.0800 
 26 H       -0.8930     0.1810     0.9740 H     1 <1>   0.0800 
 27 H        0.6070     0.7260     1.6980 H     1 <1>   0.0800 
 28 H       -0.4630     5.0330     0.6240 H     1 <1>   0.0800 
 29 H        0.6080     4.9870    -0.7580 H     1 <1>   0.0800 
@<TRIPOS>BOND
  1   1   2  ar  
  2   1   3  ar  
  3   2   4  1   
  4   2   5  ar  
  5   3   6  ar  
  6   3  14  1   
  7   4  15  1   
  8   4  16  1   
  9   5   7  ar  
 10   5   8  1   
 11   6   7  ar  
 12   6  17  1   
 13   7  18  1   
 14   8   9  1   
 15   8  10  1   
 16   8  19  1   
 17   9  11  1   
 18   9  12  1   
 19   9  20  1   
 20  10  13  1   
 21  10  21  1   
 22  10  22  1   
 23  11  13  1   
 24  11  23  1   
 25  11  24  1   
 26  12  25  1   
 27  12  26  1   
 28  12  27  1   
 29  13  28  1   
 30  13  29  1   
@<TRIPOS>SUBSTRUCTURE
  1 ****   5 GROUP 4 **** **** 0

# MOE 2024.06 (io_trps.svl 2023.06)
