@<TRIPOS>MOLECULE
NONAME
35 36 1 0 0 
SMALL
USER_CHARGES


@<TRIPOS>ATOM
  1 BR      -0.3300     0.0310    -2.6670 Br    1 <1>  -0.1110 
  2 C       -1.2040     0.8300    -1.1400 C.ar  1 <1>   0.1110 
  3 C       -0.6720     1.9420    -0.4860 C.ar  1 <1>   0.0830 
  4 C       -2.3970     0.2550    -0.7450 C.ar  1 <1>  -0.1500 
  5 O        0.5030     2.5390    -0.8110 O.3   1 <1>  -0.3630 
  6 C       -1.3890     2.4900     0.5670 C.ar  1 <1>  -0.1500 
  7 C       -3.0900     0.8060     0.3210 C.ar  1 <1>  -0.1500 
  8 C        1.6740     1.7580    -0.8540 C.3   1 <1>   0.1200 
  9 C       -2.5870     1.9220     0.9710 C.ar  1 <1>  -0.1500 
 10 C        2.8320     2.6330    -0.3660 C.3   1 <1>   0.3430 
 11 N        4.1600     1.9420    -0.4600 N.4   1 <1>  -0.9590 
 12 C        4.2650     0.7760     0.4710 C.3   1 <1>   0.3430 
 13 C        5.2640     2.9200    -0.2280 C.3   1 <1>   0.3430 
 14 C        5.5940     0.0520     0.2430 C.3   1 <1>  -0.1600 
 15 C        6.6140     2.2440    -0.4720 C.3   1 <1>  -0.1600 
 16 C        6.7910     0.9970     0.4050 C.3   1 <1>  -0.1600 
 17 H       -2.7830    -0.6040    -1.2640 H     1 <1>   0.1500 
 18 H       -1.0100     3.3600     1.0730 H     1 <1>   0.1500 
 19 H       -4.0210     0.3700     0.6410 H     1 <1>   0.1500 
 20 H        1.8340     1.4610    -1.8740 H     1 <1>   0.0800 
 21 H        1.5360     0.8990    -0.2200 H     1 <1>   0.0800 
 22 H       -3.1350     2.3530     1.7930 H     1 <1>   0.1500 
 23 H        2.6450     2.9220     0.6550 H     1 <1>   0.0800 
 24 H        2.8520     3.5240    -0.9720 H     1 <1>   0.0800 
 25 H        4.2800     1.5850    -1.4180 H     1 <1>   0.4500 
 26 H        3.4540     0.0860     0.3020 H     1 <1>   0.0800 
 27 H        4.2130     1.1180     1.4920 H     1 <1>   0.0800 
 28 H        5.2220     3.2840     0.7870 H     1 <1>   0.0800 
 29 H        5.1600     3.7620    -0.8940 H     1 <1>   0.0800 
 30 H        5.6000    -0.3840    -0.7400 H     1 <1>   0.0800 
 31 H        5.6800    -0.7540     0.9520 H     1 <1>   0.0800 
 32 H        7.4020     2.9440    -0.2550 H     1 <1>   0.0800 
 33 H        6.6990     1.9780    -1.5110 H     1 <1>   0.0800 
 34 H        7.7010     0.4860     0.1350 H     1 <1>   0.0800 
 35 H        6.8780     1.2940     1.4370 H     1 <1>   0.0800 
@<TRIPOS>BOND
  1   1   2  1   
  2   2   3  ar  
  3   2   4  ar  
  4   3   5  1   
  5   3   6  ar  
  6   4   7  ar  
  7   4  17  1   
  8   5   8  1   
  9   6   9  ar  
 10   6  18  1   
 11   7   9  ar  
 12   7  19  1   
 13   8  10  1   
 14   8  20  1   
 15   8  21  1   
 16   9  22  1   
 17  10  11  1   
 18  10  23  1   
 19  10  24  1   
 20  11  12  1   
 21  11  13  1   
 22  11  25  1   
 23  12  14  1   
 24  12  26  1   
 25  12  27  1   
 26  13  15  1   
 27  13  28  1   
 28  13  29  1   
 29  14  16  1   
 30  14  30  1   
 31  14  31  1   
 32  15  16  1   
 33  15  32  1   
 34  15  33  1   
 35  16  34  1   
 36  16  35  1   
@<TRIPOS>SUBSTRUCTURE
  1 ****   8 GROUP 4 **** **** 0

# MOE 2024.06 (io_trps.svl 2023.06)
