@<TRIPOS>MOLECULE
NONAME
42 44 1 0 0 
SMALL
USER_CHARGES


@<TRIPOS>ATOM
  1 O       -0.3640     0.3040     1.4290 O.co2 1 <1>  -0.9000 
  2 C       -0.5030     1.2100     0.5990 C.2   1 <1>   0.9060 
  3 O        0.1040     1.2100    -0.4730 O.co2 1 <1>  -0.9000 
  4 C       -1.5330     2.2820     0.9220 C.3   1 <1>  -0.1860 
  5 C       -3.1280     1.9140     0.4890 C.3   1 <1>  -0.0190 
  6 C       -1.1590     3.7400     0.2650 C.3   1 <1>  -0.0800 
  7 C       -3.4930     0.4770     0.0610 C.2   1 <1>   0.5690 
  8 C       -3.6080     3.0720    -0.5770 C.3   1 <1>  -0.0800 
  9 C       -2.3920     3.4160    -0.1340 C.3   1 <1>  -0.1600 
 10 C       -1.6760     4.9020    -0.7600 C.3   1 <1>  -0.1600 
 11 O       -4.4410     0.3260    -0.6770 O.2   1 <1>  -0.5700 
 12 N       -2.8140    -0.5890     0.5770 N.am  1 <1>  -0.5470 
 13 C       -3.2510     4.5440    -1.1860 C.3   1 <1>  -0.1600 
 14 C       -2.8520    -1.9320     0.1790 C.ar  1 <1>   0.1170 
 15 C       -3.9820    -2.7490     0.2820 C.ar  1 <1>  -0.1440 
 16 C       -1.6740    -2.4690    -0.3230 C.ar  1 <1>  -0.1500 
 17 C       -3.9090    -4.0670    -0.1400 C.ar  1 <1>  -0.1500 
 18 C       -5.2950    -2.2350     0.8540 C.3   1 <1>  -0.0970 
 19 C       -1.6060    -3.7850    -0.7370 C.ar  1 <1>  -0.1500 
 20 C       -2.7330    -4.5950    -0.6490 C.ar  1 <1>   0.0820 
 21 O       -2.7610    -5.9000    -1.0350 O.3   1 <1>  -0.3620 
 22 C       -1.6140    -6.5100    -1.5820 C.3   1 <1>   0.0400 
 23 H       -1.4990     2.3720     1.9950 H     1 <1>   0.0800 
 24 H       -3.7190     2.0490     1.3820 H     1 <1>   0.0800 
 25 H       -0.9800     4.3220     1.1580 H     1 <1>   0.0800 
 26 H       -3.7230     2.5080    -1.4940 H     1 <1>   0.0800 
 27 H       -1.9220     2.8440    -1.0500 H     1 <1>   0.0800 
 28 H       -2.8470     3.9780     0.7920 H     1 <1>   0.0800 
 29 H       -1.0470     4.9120    -1.6390 H     1 <1>   0.0800 
 30 H       -1.6160     5.8780    -0.3060 H     1 <1>   0.0800 
 31 H       -1.9220    -0.3430     1.0480 H     1 <1>   0.3700 
 32 H       -3.9240     5.2850    -0.7840 H     1 <1>   0.0800 
 33 H       -3.3600     4.5520    -2.2590 H     1 <1>   0.0800 
 34 H       -0.8050    -1.8320    -0.3850 H     1 <1>   0.1500 
 35 H       -4.7690    -4.7060    -0.0760 H     1 <1>   0.1500 
 36 H       -5.8830    -3.0440     1.2460 H     1 <1>   0.0800 
 37 H       -5.1110    -1.5350     1.6480 H     1 <1>   0.0800 
 38 H       -5.8560    -1.7420     0.0810 H     1 <1>   0.0800 
 39 H       -0.6730    -4.1490    -1.1200 H     1 <1>   0.1500 
 40 H       -1.8590    -7.5280    -1.8220 H     1 <1>   0.0800 
 41 H       -0.8250    -6.4850    -0.8520 H     1 <1>   0.0800 
 42 H       -1.3300    -5.9800    -2.4750 H     1 <1>   0.0800 
@<TRIPOS>BOND
  1   1   2  ar  
  2   2   3  ar  
  3   2   4  1   
  4   4   5  1   
  5   4   6  1   
  6   4  23  1   
  7   5   7  1   
  8   5   8  1   
  9   5  24  1   
 10   6   9  1   
 11   6  10  1   
 12   6  25  1   
 13   7  11  2   
 14   7  12  am  
 15   8   9  1   
 16   8  13  1   
 17   8  26  1   
 18   9  27  1   
 19   9  28  1   
 20  10  13  1   
 21  10  29  1   
 22  10  30  1   
 23  12  14  1   
 24  12  31  1   
 25  13  32  1   
 26  13  33  1   
 27  14  15  ar  
 28  14  16  ar  
 29  15  17  ar  
 30  15  18  1   
 31  16  19  ar  
 32  16  34  1   
 33  17  20  ar  
 34  17  35  1   
 35  18  36  1   
 36  18  37  1   
 37  18  38  1   
 38  19  20  ar  
 39  19  39  1   
 40  20  21  1   
 41  21  22  1   
 42  22  40  1   
 43  22  41  1   
 44  22  42  1   
@<TRIPOS>SUBSTRUCTURE
  1 ****  12 GROUP 4 **** **** 0

# MOE 2024.06 (io_trps.svl 2023.06)
