@<TRIPOS>MOLECULE
NONAME
53 55 1 0 0 
SMALL
USER_CHARGES


@<TRIPOS>ATOM
  1 O       -0.6160     3.3760    -1.2510 O.2   1 <1>  -0.5700 
  2 C        0.1280     2.6540    -0.6300 C.2   1 <1>   0.5690 
  3 N       -0.2560     1.4470    -0.1500 N.am  1 <1>  -0.7300 
  4 C        1.5760     3.0850    -0.3710 C.3   1 <1>   0.1710 
  5 C       -1.5410     0.7700    -0.3510 C.3   1 <1>   0.2200 
  6 N        2.5000     1.9410    -0.1140 N.3   1 <1>  -0.8100 
  7 C       -1.9440     0.0990     0.9560 C.3   1 <1>  -0.1600 
  8 C       -1.3240    -0.4090    -1.2920 C.3   1 <1>  -0.1600 
  9 C        3.7730     2.3840     0.4930 C.3   1 <1>   0.1100 
 10 C        2.7890     1.1910    -1.3600 C.3   1 <1>   0.1100 
 11 C       -1.1430    -1.2080     1.0180 C.3   1 <1>  -0.1600 
 12 C       -0.7280    -1.5250    -0.4260 C.3   1 <1>  -0.1600 
 13 C        4.7060     1.1940     0.7930 C.3   1 <1>   0.2090 
 14 C        3.7020    -0.0210    -1.1010 C.3   1 <1>   0.2090 
 15 N        4.9750     0.3900    -0.4370 N.pl3 1 <1>  -0.8380 
 16 C        5.9180    -0.6360    -0.2760 C.ar  1 <1>   0.1000 
 17 C        5.7290    -1.7710     0.5340 C.ar  1 <1>   0.0820 
 18 C        7.1110    -0.5110    -0.9730 C.ar  1 <1>  -0.1500 
 19 O        4.5530    -1.9040     1.2200 O.3   1 <1>  -0.3620 
 20 C        6.7330    -2.7290     0.6270 C.ar  1 <1>  -0.1500 
 21 C        8.1030    -1.4700    -0.8810 C.ar  1 <1>  -0.1500 
 22 C        4.0730    -3.1760     1.5820 C.3   1 <1>   0.1200 
 23 C        7.9150    -2.5800    -0.0800 C.ar  1 <1>  -0.1500 
 24 C        2.6150    -3.0210     2.0020 C.3   1 <1>  -0.2400 
 25 H        0.4810     0.8920     0.2960 H     1 <1>   0.3700 
 26 H        1.5610     3.7290     0.4900 H     1 <1>   0.0800 
 27 H        1.9250     3.6600    -1.2090 H     1 <1>   0.0800 
 28 H       -2.2830     1.4630    -0.7140 H     1 <1>   0.0800 
 29 H       -2.9930    -0.1350     0.9080 H     1 <1>   0.0800 
 30 H       -1.7730     0.7340     1.8070 H     1 <1>   0.0800 
 31 H       -0.6990    -0.1500    -2.1290 H     1 <1>   0.0800 
 32 H       -2.2820    -0.7270    -1.6650 H     1 <1>   0.0800 
 33 H        3.5690     2.9010     1.4150 H     1 <1>   0.0800 
 34 H        4.2810     3.0640    -0.1700 H     1 <1>   0.0800 
 35 H        3.2710     1.8370    -2.0740 H     1 <1>   0.0800 
 36 H        1.8710     0.8400    -1.7960 H     1 <1>   0.0800 
 37 H       -1.7360    -2.0010     1.4400 H     1 <1>   0.0800 
 38 H       -0.2640    -1.0700     1.6240 H     1 <1>   0.0800 
 39 H        0.3460    -1.5100    -0.5040 H     1 <1>   0.0800 
 40 H       -1.0880    -2.4900    -0.7390 H     1 <1>   0.0800 
 41 H        4.2480     0.5720     1.5420 H     1 <1>   0.0800 
 42 H        5.6390     1.5580     1.1850 H     1 <1>   0.0800 
 43 H        3.9330    -0.5040    -2.0340 H     1 <1>   0.0800 
 44 H        3.1760    -0.7250    -0.4810 H     1 <1>   0.0800 
 45 H        7.2510     0.3560    -1.5920 H     1 <1>   0.1500 
 46 H        6.6170    -3.5950     1.2500 H     1 <1>   0.1500 
 47 H        9.0190    -1.3490    -1.4320 H     1 <1>   0.1500 
 48 H        4.6690    -3.5460     2.3980 H     1 <1>   0.0800 
 49 H        4.1570    -3.8290     0.7300 H     1 <1>   0.0800 
 50 H        8.6870    -3.3260    -0.0040 H     1 <1>   0.1500 
 51 H        2.5420    -2.3500     2.8390 H     1 <1>   0.0800 
 52 H        2.2140    -3.9760     2.2900 H     1 <1>   0.0800 
 53 H        2.0340    -2.6370     1.1830 H     1 <1>   0.0800 
@<TRIPOS>BOND
  1   1   2  2   
  2   2   3  am  
  3   2   4  1   
  4   3   5  1   
  5   3  25  1   
  6   4   6  1   
  7   4  26  1   
  8   4  27  1   
  9   5   7  1   
 10   5   8  1   
 11   5  28  1   
 12   6   9  1   
 13   6  10  1   
 14   7  11  1   
 15   7  29  1   
 16   7  30  1   
 17   8  12  1   
 18   8  31  1   
 19   8  32  1   
 20   9  13  1   
 21   9  33  1   
 22   9  34  1   
 23  10  14  1   
 24  10  35  1   
 25  10  36  1   
 26  11  12  1   
 27  11  37  1   
 28  11  38  1   
 29  12  39  1   
 30  12  40  1   
 31  13  15  1   
 32  13  41  1   
 33  13  42  1   
 34  14  15  1   
 35  14  43  1   
 36  14  44  1   
 37  15  16  1   
 38  16  17  ar  
 39  16  18  ar  
 40  17  19  1   
 41  17  20  ar  
 42  18  21  ar  
 43  18  45  1   
 44  19  22  1   
 45  20  23  ar  
 46  20  46  1   
 47  21  23  ar  
 48  21  47  1   
 49  22  24  1   
 50  22  48  1   
 51  22  49  1   
 52  23  50  1   
 53  24  51  1   
 54  24  52  1   
 55  24  53  1   
@<TRIPOS>SUBSTRUCTURE
  1 ****  14 GROUP 4 **** **** 0

# MOE 2024.06 (io_trps.svl 2023.06)
