@<TRIPOS>MOLECULE
NONAME
36 37 1 0 0 
SMALL
USER_CHARGES


@<TRIPOS>ATOM
  1 BR       0.1560    -0.4800     2.1240 Br    1 <1>  -0.1110 
  2 C        1.8330    -1.1170     1.4260 C.ar  1 <1>   0.1110 
  3 C        2.8880    -1.3020     2.2990 C.ar  1 <1>  -0.1500 
  4 C        1.9350    -1.3730     0.0700 C.ar  1 <1>  -0.1500 
  5 C        4.0820    -1.7570     1.7750 C.ar  1 <1>   0.1770 
  6 C        3.1400    -1.8330    -0.4390 C.ar  1 <1>  -0.1500 
  7 CL       5.4400    -1.9750     2.8610 Cl    1 <1>  -0.1770 
  8 C        4.2260    -2.0260     0.4140 C.ar  1 <1>   0.0830 
  9 O        5.4250    -2.4750    -0.0370 O.3   1 <1>  -0.3630 
 10 C        5.9100    -2.0490    -1.3040 C.3   1 <1>   0.1810 
 11 C        7.3630    -2.4760    -1.5320 C.2   1 <1>   0.5690 
 12 O        7.6320    -2.9040    -2.6290 O.2   1 <1>  -0.5700 
 13 N        8.3430    -2.3760    -0.5650 N.am  1 <1>  -0.6600 
 14 C        9.6610    -3.0620    -0.7630 C.3   1 <1>   0.1400 
 15 C        8.1370    -1.7660     0.7890 C.3   1 <1>   0.1400 
 16 C       10.8390    -2.1970    -0.2820 C.3   1 <1>   0.3430 
 17 C        9.3600    -0.9540     1.2590 C.3   1 <1>   0.3430 
 18 N       10.6450    -1.7240     1.1330 N.4   1 <1>  -0.9590 
 19 C       11.8100    -0.9120     1.5970 C.3   1 <1>   0.2630 
 20 H        2.7830    -1.0970     3.3480 H     1 <1>   0.1500 
 21 H        1.0840    -1.2190    -0.5720 H     1 <1>   0.1500 
 22 H        3.2130    -2.0460    -1.4890 H     1 <1>   0.1500 
 23 H        5.8340    -0.9790    -1.3590 H     1 <1>   0.0800 
 24 H        5.2970    -2.4940    -2.0660 H     1 <1>   0.0800 
 25 H        9.8140    -3.2950    -1.8030 H     1 <1>   0.0800 
 26 H        9.6540    -3.9940    -0.2260 H     1 <1>   0.0800 
 27 H        7.9270    -2.5490     1.4980 H     1 <1>   0.0800 
 28 H        7.2910    -1.1020     0.7740 H     1 <1>   0.0800 
 29 H       10.9280    -1.3480    -0.9410 H     1 <1>   0.0800 
 30 H       11.7480    -2.7710    -0.3580 H     1 <1>   0.0800 
 31 H        9.2070    -0.6590     2.2850 H     1 <1>   0.0800 
 32 H        9.4190    -0.0570     0.6650 H     1 <1>   0.0800 
 33 H       10.5630    -2.5610     1.7300 H     1 <1>   0.4500 
 34 H       11.9190    -0.0290     0.9870 H     1 <1>   0.0800 
 35 H       12.7190    -1.4890     1.5320 H     1 <1>   0.0800 
 36 H       11.6720    -0.6080     2.6220 H     1 <1>   0.0800 
@<TRIPOS>BOND
  1   1   2  1   
  2   2   3  ar  
  3   2   4  ar  
  4   3   5  ar  
  5   3  20  1   
  6   4   6  ar  
  7   4  21  1   
  8   5   7  1   
  9   5   8  ar  
 10   6   8  ar  
 11   6  22  1   
 12   8   9  1   
 13   9  10  1   
 14  10  11  1   
 15  10  23  1   
 16  10  24  1   
 17  11  12  2   
 18  11  13  am  
 19  13  14  1   
 20  13  15  1   
 21  14  16  1   
 22  14  25  1   
 23  14  26  1   
 24  15  17  1   
 25  15  27  1   
 26  15  28  1   
 27  16  18  1   
 28  16  29  1   
 29  16  30  1   
 30  17  18  1   
 31  17  31  1   
 32  17  32  1   
 33  18  19  1   
 34  18  33  1   
 35  19  34  1   
 36  19  35  1   
 37  19  36  1   
@<TRIPOS>SUBSTRUCTURE
  1 ****   9 GROUP 4 **** **** 0

# MOE 2024.06 (io_trps.svl 2023.06)
