@<TRIPOS>MOLECULE
NONAME
43 44 1 0 0 
SMALL
USER_CHARGES


@<TRIPOS>ATOM
  1 CL       0.4670     0.8560    -1.6620 Cl    1 <1>  -0.1770 
  2 C       -0.4400     1.7870    -0.4900 C.ar  1 <1>   0.1770 
  3 C        0.0680     2.9960    -0.0200 C.ar  1 <1>   0.0830 
  4 C       -1.6520     1.2900    -0.0500 C.ar  1 <1>  -0.1500 
  5 O        1.2680     3.4110    -0.5060 O.3   1 <1>  -0.3630 
  6 C       -0.6680     3.7190     0.9180 C.ar  1 <1>  -0.1500 
  7 C       -2.3630     2.0230     0.8800 C.ar  1 <1>   0.1770 
  8 C        1.9580     4.5180     0.0350 C.3   1 <1>   0.1200 
  9 C       -1.8850     3.2280     1.3670 C.ar  1 <1>  -0.1500 
 10 CL      -3.8960     1.4190     1.4540 Cl    1 <1>  -0.1770 
 11 C        3.3180     4.6280    -0.6690 C.3   1 <1>   0.2000 
 12 O        3.9390     3.3770    -0.6590 O.3   1 <1>  -0.6800 
 13 C        4.2420     5.6900    -0.0250 C.3   1 <1>   0.3430 
 14 N        5.6880     5.3490    -0.2100 N.4   1 <1>  -0.9590 
 15 C        6.2720     4.5900     0.9400 C.3   1 <1>   0.3430 
 16 C        6.5800     6.4930    -0.6080 C.3   1 <1>   0.3430 
 17 C        7.6720     4.0300     0.5740 C.3   1 <1>   0.2000 
 18 C        8.0910     6.1550    -0.4810 C.3   1 <1>   0.2000 
 19 O        8.2880     4.7670    -0.4540 O.3   1 <1>  -0.5600 
 20 C        7.5820     2.5930     0.0630 C.3   1 <1>  -0.2400 
 21 C        8.7660     6.7930     0.7410 C.3   1 <1>  -0.2400 
 22 H       -2.0320     0.3560    -0.4200 H     1 <1>   0.1500 
 23 H       -0.3210     4.6570     1.3070 H     1 <1>   0.1500 
 24 H        2.0880     4.3530     1.0910 H     1 <1>   0.0800 
 25 H        1.3690     5.4030    -0.1320 H     1 <1>   0.0800 
 26 H       -2.4660     3.7730     2.0900 H     1 <1>   0.1500 
 27 H        3.1500     4.8910    -1.7000 H     1 <1>   0.0800 
 28 H        3.2740     2.6950    -0.9190 H     1 <1>   0.4000 
 29 H        4.0220     5.7640     1.0270 H     1 <1>   0.0800 
 30 H        4.0250     6.6460    -0.4700 H     1 <1>   0.0800 
 31 H        5.7180     4.6520    -0.9750 H     1 <1>   0.4500 
 32 H        5.6270     3.7710     1.2130 H     1 <1>   0.0800 
 33 H        6.3650     5.2370     1.7950 H     1 <1>   0.0800 
 34 H        6.3720     7.3550     0.0030 H     1 <1>   0.0800 
 35 H        6.3750     6.7660    -1.6300 H     1 <1>   0.0800 
 36 H        8.3140     4.0570     1.4390 H     1 <1>   0.0800 
 37 H        8.5940     6.5180    -1.3610 H     1 <1>   0.0800 
 38 H        6.9620     2.5380    -0.8140 H     1 <1>   0.0800 
 39 H        7.1630     1.9530     0.8190 H     1 <1>   0.0800 
 40 H        8.5650     2.2290    -0.1770 H     1 <1>   0.0800 
 41 H        8.2750     6.5310     1.6600 H     1 <1>   0.0800 
 42 H        8.7490     7.8640     0.6470 H     1 <1>   0.0800 
 43 H        9.7960     6.4830     0.7880 H     1 <1>   0.0800 
@<TRIPOS>BOND
  1   1   2  1   
  2   2   3  ar  
  3   2   4  ar  
  4   3   5  1   
  5   3   6  ar  
  6   4   7  ar  
  7   4  22  1   
  8   5   8  1   
  9   6   9  ar  
 10   6  23  1   
 11   7   9  ar  
 12   7  10  1   
 13   8  11  1   
 14   8  24  1   
 15   8  25  1   
 16   9  26  1   
 17  11  12  1   
 18  11  13  1   
 19  11  27  1   
 20  12  28  1   
 21  13  14  1   
 22  13  29  1   
 23  13  30  1   
 24  14  15  1   
 25  14  16  1   
 26  14  31  1   
 27  15  17  1   
 28  15  32  1   
 29  15  33  1   
 30  16  18  1   
 31  16  34  1   
 32  16  35  1   
 33  17  19  1   
 34  17  20  1   
 35  17  36  1   
 36  18  19  1   
 37  18  21  1   
 38  18  37  1   
 39  20  38  1   
 40  20  39  1   
 41  20  40  1   
 42  21  41  1   
 43  21  42  1   
 44  21  43  1   
@<TRIPOS>SUBSTRUCTURE
  1 ****  11 GROUP 4 **** **** 0

# MOE 2024.06 (io_trps.svl 2023.06)
