@<TRIPOS>MOLECULE
NONAME
46 47 1 0 0 
SMALL
USER_CHARGES


@<TRIPOS>ATOM
  1 S       -0.5770     0.6310    -1.1500 S.o2  1 <1>   1.4470 
  2 O        0.4400    -0.2800    -1.6300 O.2   1 <1>  -0.6500 
  3 O       -1.1310     1.5940    -2.0770 O.2   1 <1>  -0.6500 
  4 N        0.1060     1.5320     0.1140 N.am  1 <1>  -0.8490 
  5 C       -1.9150    -0.3020    -0.3310 C.ar  1 <1>  -0.0090 
  6 C        1.3920     2.1090    -0.2850 C.3   1 <1>   0.1960 
  7 C       -0.8060     2.5730     0.6010 C.3   1 <1>   0.1960 
  8 C       -1.6840    -1.3260     0.5920 C.ar  1 <1>  -0.1440 
  9 C       -3.2350     0.0300    -0.6120 C.ar  1 <1>  -0.1500 
 10 C        2.0660     2.7870     0.9130 C.3   1 <1>  -0.1600 
 11 C       -0.2160     3.2570     1.8380 C.3   1 <1>  -0.1600 
 12 C       -2.7530    -1.9770     1.1890 C.ar  1 <1>  -0.1500 
 13 C       -0.2740    -1.7590     0.9770 C.3   1 <1>  -0.0970 
 14 C       -4.3240    -0.6080    -0.0250 C.ar  1 <1>   0.0860 
 15 C        1.1620     3.8570     1.5360 C.3   1 <1>  -0.1600 
 16 C       -4.0520    -1.6220     0.8870 C.ar  1 <1>  -0.1500 
 17 C       -5.6820    -0.2170    -0.3560 C.2   1 <1>   0.5440 
 18 O       -5.9480     0.9460    -0.5890 O.2   1 <1>  -0.5700 
 19 N       -6.6740    -1.1530    -0.4220 N.am  1 <1>  -0.7300 
 20 C       -8.0780    -0.8890    -0.7550 C.3   1 <1>   0.2200 
 21 C       -8.9470    -1.4800     0.3490 C.3   1 <1>  -0.2400 
 22 C       -8.3760    -1.5330    -2.1040 C.3   1 <1>  -0.2400 
 23 H        1.2420     2.8220    -1.0800 H     1 <1>   0.0800 
 24 H        2.0440     1.3320    -0.6500 H     1 <1>   0.0800 
 25 H       -1.7540     2.1360     0.8660 H     1 <1>   0.0800 
 26 H       -0.9790     3.3050    -0.1730 H     1 <1>   0.0800 
 27 H       -3.4390     0.8200    -1.3160 H     1 <1>   0.1500 
 28 H        2.9910     3.2350     0.5950 H     1 <1>   0.0800 
 29 H        2.2990     2.0360     1.6470 H     1 <1>   0.0800 
 30 H       -0.1340     2.5310     2.6280 H     1 <1>   0.0800 
 31 H       -0.8840     4.0320     2.1700 H     1 <1>   0.0800 
 32 H       -2.5770    -2.7660     1.9000 H     1 <1>   0.1500 
 33 H        0.2180    -2.2120     0.1340 H     1 <1>   0.0800 
 34 H       -0.2910    -2.4760     1.7770 H     1 <1>   0.0800 
 35 H        0.3060    -0.9140     1.3040 H     1 <1>   0.0800 
 36 H        1.0520     4.6780     0.8480 H     1 <1>   0.0800 
 37 H        1.6060     4.2350     2.4410 H     1 <1>   0.0800 
 38 H       -4.8640    -2.1320     1.3740 H     1 <1>   0.1500 
 39 H       -6.4330    -2.1390    -0.3390 H     1 <1>   0.3700 
 40 H       -8.2490     0.1750    -0.8170 H     1 <1>   0.0800 
 41 H       -8.8000    -2.5420     0.4280 H     1 <1>   0.0800 
 42 H       -9.9840    -1.2920     0.1330 H     1 <1>   0.0800 
 43 H       -8.7110    -1.0140     1.2890 H     1 <1>   0.0800 
 44 H       -8.2220    -2.5960    -2.0660 H     1 <1>   0.0800 
 45 H       -7.7400    -1.1060    -2.8590 H     1 <1>   0.0800 
 46 H       -9.3970    -1.3440    -2.3800 H     1 <1>   0.0800 
@<TRIPOS>BOND
  1   1   2  2   
  2   1   3  2   
  3   1   4  am  
  4   1   5  1   
  5   4   6  1   
  6   4   7  1   
  7   5   8  ar  
  8   5   9  ar  
  9   6  10  1   
 10   6  23  1   
 11   6  24  1   
 12   7  11  1   
 13   7  25  1   
 14   7  26  1   
 15   8  12  ar  
 16   8  13  1   
 17   9  14  ar  
 18   9  27  1   
 19  10  15  1   
 20  10  28  1   
 21  10  29  1   
 22  11  15  1   
 23  11  30  1   
 24  11  31  1   
 25  12  16  ar  
 26  12  32  1   
 27  13  33  1   
 28  13  34  1   
 29  13  35  1   
 30  14  16  ar  
 31  14  17  1   
 32  15  36  1   
 33  15  37  1   
 34  16  38  1   
 35  17  18  2   
 36  17  19  am  
 37  19  20  1   
 38  19  39  1   
 39  20  21  1   
 40  20  22  1   
 41  20  40  1   
 42  21  41  1   
 43  21  42  1   
 44  21  43  1   
 45  22  44  1   
 46  22  45  1   
 47  22  46  1   
@<TRIPOS>SUBSTRUCTURE
  1 ****   9 GROUP 4 **** **** 0

# MOE 2024.06 (io_trps.svl 2023.06)
