@<TRIPOS>MOLECULE
NONAME
41 43 1 0 0 
SMALL
USER_CHARGES


@<TRIPOS>ATOM
  1 BR      -1.3250     2.5580    -1.9400 Br    1 <1>  -0.0580 
  2 C       -2.3130     1.2510    -0.9380 C.2   1 <1>   0.0980 
  3 S       -3.8150     0.7130    -1.6520 S.3   1 <1>  -0.0800 
  4 C       -2.0520     0.6630     0.2420 C.2   1 <1>  -0.1500 
  5 C       -4.0890    -0.3570    -0.2750 C.2   1 <1>  -0.1400 
  6 C       -3.0790    -0.2630     0.6180 C.2   1 <1>  -0.1500 
  7 C       -5.3590    -1.1800    -0.2970 C.3   1 <1>   0.5230 
  8 N       -6.5180    -0.2550    -0.3520 N.4   1 <1>  -0.9590 
  9 C       -6.6110     0.6090     0.8840 C.3   1 <1>   0.3430 
 10 C       -7.8160    -0.9790    -0.6030 C.3   1 <1>   0.3430 
 11 C       -7.8070     1.5790     0.8320 C.3   1 <1>   0.2090 
 12 C       -9.0210    -0.0180    -0.6650 C.3   1 <1>   0.2090 
 13 N       -9.0780     0.8460     0.5500 N.pl3 1 <1>  -0.8380 
 14 C      -10.2320     1.6380     0.6410 C.ar  1 <1>   0.1000 
 15 C      -10.5330     2.6930    -0.2400 C.ar  1 <1>   0.0820 
 16 C      -11.1200     1.3500     1.6680 C.ar  1 <1>  -0.1500 
 17 O       -9.6490     2.9700    -1.2510 O.3   1 <1>  -0.3630 
 18 C      -11.7080     3.4200    -0.0650 C.ar  1 <1>  -0.1500 
 19 C      -12.2840     2.0770     1.8340 C.ar  1 <1>  -0.1500 
 20 C       -9.8750     4.0370    -2.1470 C.3   1 <1>   0.0400 
 21 C      -12.5780     3.1130     0.9670 C.ar  1 <1>  -0.1500 
 22 H       -1.1850     0.8420     0.8540 H     1 <1>   0.1500 
 23 H       -2.9930    -0.8090     1.5440 H     1 <1>   0.1500 
 24 H       -5.4140    -1.7980     0.5850 H     1 <1>   0.0800 
 25 H       -5.3510    -1.8190    -1.1650 H     1 <1>   0.0800 
 26 H       -6.3510     0.3820    -1.1430 H     1 <1>   0.4500 
 27 H       -5.7050     1.1810     1.0020 H     1 <1>   0.0800 
 28 H       -6.7260    -0.0150     1.7540 H     1 <1>   0.0800 
 29 H       -7.9970    -1.6840     0.1910 H     1 <1>   0.0800 
 30 H       -7.7610    -1.5270    -1.5290 H     1 <1>   0.0800 
 31 H       -7.6350     2.3240     0.0750 H     1 <1>   0.0800 
 32 H       -7.8980     2.0870     1.7770 H     1 <1>   0.0800 
 33 H       -9.9320    -0.5880    -0.7320 H     1 <1>   0.0800 
 34 H       -8.9510     0.5930    -1.5480 H     1 <1>   0.0800 
 35 H      -10.8920     0.5460     2.3420 H     1 <1>   0.1500 
 36 H      -11.9730     4.2300    -0.7170 H     1 <1>   0.1500 
 37 H      -12.9600     1.8380     2.6370 H     1 <1>   0.1500 
 38 H       -9.0530     4.0770    -2.8390 H     1 <1>   0.0800 
 39 H       -9.9270     4.9570    -1.5910 H     1 <1>   0.0800 
 40 H      -10.7910     3.8580    -2.6820 H     1 <1>   0.0800 
 41 H      -13.4840     3.6790     1.0950 H     1 <1>   0.1500 
@<TRIPOS>BOND
  1   1   2  1   
  2   2   3  1   
  3   2   4  2   
  4   3   5  1   
  5   4   6  1   
  6   4  22  1   
  7   5   6  2   
  8   5   7  1   
  9   6  23  1   
 10   7   8  1   
 11   7  24  1   
 12   7  25  1   
 13   8   9  1   
 14   8  10  1   
 15   8  26  1   
 16   9  11  1   
 17   9  27  1   
 18   9  28  1   
 19  10  12  1   
 20  10  29  1   
 21  10  30  1   
 22  11  13  1   
 23  11  31  1   
 24  11  32  1   
 25  12  13  1   
 26  12  33  1   
 27  12  34  1   
 28  13  14  1   
 29  14  15  ar  
 30  14  16  ar  
 31  15  17  1   
 32  15  18  ar  
 33  16  19  ar  
 34  16  35  1   
 35  17  20  1   
 36  18  21  ar  
 37  18  36  1   
 38  19  21  ar  
 39  19  37  1   
 40  20  38  1   
 41  20  39  1   
 42  20  40  1   
 43  21  41  1   
@<TRIPOS>SUBSTRUCTURE
  1 ****  11 GROUP 4 **** **** 0

# MOE 2024.06 (io_trps.svl 2023.06)
