@<TRIPOS>MOLECULE
NONAME
49 51 1 0 0 
SMALL
USER_CHARGES


@<TRIPOS>ATOM
  1 O        0.3670    -0.0700     0.6710 O.3   1 <1>  -0.3630 
  2 C        0.1110    -1.3750     0.3660 C.ar  1 <1>   0.0820 
  3 C        1.6120     0.5430     0.4130 C.3   1 <1>   0.0400 
  4 C        0.8980    -2.2380    -0.4100 C.ar  1 <1>   0.0820 
  5 C       -1.0730    -1.8540     0.9000 C.ar  1 <1>  -0.1500 
  6 O        2.0610    -1.8690    -0.9940 O.3   1 <1>  -0.5330 
  7 C        0.4930    -3.5540    -0.6230 C.ar  1 <1>   0.0820 
  8 C       -1.4970    -3.1540     0.6730 C.ar  1 <1>  -0.1430 
  9 O        1.3140    -4.3450    -1.3750 O.3   1 <1>  -0.3630 
 10 C       -0.7060    -4.0080    -0.0820 C.ar  1 <1>  -0.1500 
 11 C       -2.8250    -3.6160     1.2410 C.3   1 <1>   0.4860 
 12 C        1.1680    -5.7490    -1.4030 C.3   1 <1>   0.0400 
 13 N       -3.8530    -3.5420     0.1670 N.4   1 <1>  -0.9590 
 14 C       -4.0380    -2.1290    -0.3430 C.3   1 <1>   0.3430 
 15 C       -5.1700    -4.1260     0.6150 C.3   1 <1>   0.3430 
 16 C       -5.1090    -2.0230    -1.4500 C.3   1 <1>   0.2090 
 17 C       -6.2480    -4.0780    -0.4870 C.3   1 <1>   0.2090 
 18 N       -6.3780    -2.7040    -1.0530 N.pl3 1 <1>  -0.8380 
 19 C       -7.4950    -1.9540    -0.6840 C.ar  1 <1>   0.1000 
 20 C       -7.3970    -0.8360     0.1400 C.ar  1 <1>  -0.1500 
 21 C       -8.7520    -2.3320    -1.1390 C.ar  1 <1>  -0.1500 
 22 C       -8.5250    -0.1230     0.5020 C.ar  1 <1>  -0.1500 
 23 C       -9.8830    -1.6230    -0.7780 C.ar  1 <1>  -0.1500 
 24 C       -9.7710    -0.5160     0.0450 C.ar  1 <1>  -0.1500 
 25 H        1.6030     1.5220     0.8550 H     1 <1>   0.0800 
 26 H        1.7470     0.6250    -0.6510 H     1 <1>   0.0800 
 27 H        2.3930    -0.0510     0.8530 H     1 <1>   0.0800 
 28 H       -1.6560    -1.1760     1.4990 H     1 <1>   0.1500 
 29 H        2.4310    -2.6350    -1.4800 H     1 <1>   0.4500 
 30 H       -1.0240    -5.0200    -0.2500 H     1 <1>   0.1500 
 31 H       -3.1060    -2.9880     2.0700 H     1 <1>   0.0800 
 32 H       -2.7280    -4.6290     1.5970 H     1 <1>   0.0800 
 33 H        1.9970    -6.1600    -1.9520 H     1 <1>   0.0800 
 34 H        0.2480    -5.9980    -1.9010 H     1 <1>   0.0800 
 35 H        1.1790    -6.1250    -0.3950 H     1 <1>   0.0800 
 36 H       -3.5070    -4.0940    -0.6270 H     1 <1>   0.4500 
 37 H       -3.1050    -1.7520    -0.7310 H     1 <1>   0.0800 
 38 H       -4.3350    -1.4910     0.4710 H     1 <1>   0.0800 
 39 H       -5.5400    -3.5700     1.4610 H     1 <1>   0.0800 
 40 H       -5.0350    -5.1490     0.9250 H     1 <1>   0.0800 
 41 H       -4.7390    -2.4730    -2.3550 H     1 <1>   0.0800 
 42 H       -5.3040    -0.9860    -1.6660 H     1 <1>   0.0800 
 43 H       -7.1920    -4.3890    -0.0720 H     1 <1>   0.0800 
 44 H       -5.9980    -4.7640    -1.2780 H     1 <1>   0.0800 
 45 H       -6.4420    -0.5180     0.5070 H     1 <1>   0.1500 
 46 H       -8.8400    -3.1850    -1.7860 H     1 <1>   0.1500 
 47 H       -8.4400     0.7400     1.1400 H     1 <1>   0.1500 
 48 H      -10.8500    -1.9280    -1.1390 H     1 <1>   0.1500 
 49 H      -10.6500     0.0390     0.3250 H     1 <1>   0.1500 
@<TRIPOS>BOND
  1   1   2  1   
  2   1   3  1   
  3   2   4  ar  
  4   2   5  ar  
  5   3  25  1   
  6   3  26  1   
  7   3  27  1   
  8   4   6  1   
  9   4   7  ar  
 10   5   8  ar  
 11   5  28  1   
 12   6  29  1   
 13   7   9  1   
 14   7  10  ar  
 15   8  10  ar  
 16   8  11  1   
 17   9  12  1   
 18  10  30  1   
 19  11  13  1   
 20  11  31  1   
 21  11  32  1   
 22  12  33  1   
 23  12  34  1   
 24  12  35  1   
 25  13  14  1   
 26  13  15  1   
 27  13  36  1   
 28  14  16  1   
 29  14  37  1   
 30  14  38  1   
 31  15  17  1   
 32  15  39  1   
 33  15  40  1   
 34  16  18  1   
 35  16  41  1   
 36  16  42  1   
 37  17  18  1   
 38  17  43  1   
 39  17  44  1   
 40  18  19  1   
 41  19  20  ar  
 42  19  21  ar  
 43  20  22  ar  
 44  20  45  1   
 45  21  23  ar  
 46  21  46  1   
 47  22  24  ar  
 48  22  47  1   
 49  23  24  ar  
 50  23  48  1   
 51  24  49  1   
@<TRIPOS>SUBSTRUCTURE
  1 ****  14 GROUP 4 **** **** 0

# MOE 2024.06 (io_trps.svl 2023.06)
