@<TRIPOS>MOLECULE
NONAME
47 48 1 0 0 
SMALL
USER_CHARGES


@<TRIPOS>ATOM
  1 BR      -0.8780    -0.2850     1.4500 Br    1 <1>  -0.1110 
  2 C       -1.9570     1.0710     0.6180 C.ar  1 <1>   0.1110 
  3 C       -3.1050     0.6860    -0.0470 C.ar  1 <1>  -0.1500 
  4 C       -1.5600     2.3900     0.7060 C.ar  1 <1>  -0.1500 
  5 C       -3.8940     1.6610    -0.6430 C.ar  1 <1>  -0.1440 
  6 C       -2.3440     3.3570     0.1020 C.ar  1 <1>  -0.1500 
  7 C       -3.5030     2.9940    -0.5690 C.ar  1 <1>  -0.1500 
  8 C       -5.1720     1.2750    -1.3620 C.3   1 <1>   0.4870 
  9 N       -6.1960     0.9180    -0.3440 N.4   1 <1>  -0.9590 
 10 C       -7.3880     0.2820    -0.9920 C.3   1 <1>   0.3430 
 11 C       -6.5770     2.1010     0.4860 C.3   1 <1>   0.3430 
 12 C       -8.4250    -0.1660     0.0460 C.3   1 <1>  -0.0190 
 13 C       -7.5740     1.6760     1.5660 C.3   1 <1>  -0.1600 
 14 C       -9.6350    -0.7140    -0.7020 C.2   1 <1>   0.5690 
 15 C       -8.8180     1.0090     0.9620 C.3   1 <1>  -0.1600 
 16 O       -9.8510    -0.2380    -1.7930 O.2   1 <1>  -0.5700 
 17 N      -10.4310    -1.6980    -0.1700 N.am  1 <1>  -0.6600 
 18 C      -10.2560    -2.3220     1.1700 C.3   1 <1>   0.1400 
 19 C      -11.6110    -2.1970    -0.9330 C.3   1 <1>   0.1400 
 20 C       -9.4200    -3.5930     1.0370 C.3   1 <1>  -0.2400 
 21 C      -12.8480    -1.3900    -0.5450 C.3   1 <1>  -0.2400 
 22 H       -3.3550    -0.3600    -0.0890 H     1 <1>   0.1500 
 23 H       -0.6580     2.6520     1.2320 H     1 <1>   0.1500 
 24 H       -2.0490     4.3930     0.1540 H     1 <1>   0.1500 
 25 H       -4.0910     3.7680    -1.0340 H     1 <1>   0.1500 
 26 H       -4.9760     0.4310    -2.0030 H     1 <1>   0.0800 
 27 H       -5.5190     2.0940    -1.9710 H     1 <1>   0.0800 
 28 H       -5.7580     0.2380     0.2880 H     1 <1>   0.4500 
 29 H       -7.0850    -0.5720    -1.5760 H     1 <1>   0.0800 
 30 H       -7.8530     0.9890    -1.6610 H     1 <1>   0.0800 
 31 H       -7.0270     2.8560    -0.1390 H     1 <1>   0.0800 
 32 H       -5.7020     2.5240     0.9530 H     1 <1>   0.0800 
 33 H       -7.9860    -0.9530     0.6270 H     1 <1>   0.0800 
 34 H       -7.8740     2.5460     2.1240 H     1 <1>   0.0800 
 35 H       -7.0910     1.0050     2.2560 H     1 <1>   0.0800 
 36 H       -9.4670     0.6650     1.7500 H     1 <1>   0.0800 
 37 H       -9.3690     1.7370     0.3870 H     1 <1>   0.0800 
 38 H      -11.2200    -2.5650     1.5850 H     1 <1>   0.0800 
 39 H       -9.7800    -1.6370     1.8490 H     1 <1>   0.0800 
 40 H      -11.7700    -3.2410    -0.7250 H     1 <1>   0.0800 
 41 H      -11.4340    -2.0970    -1.9910 H     1 <1>   0.0800 
 42 H       -9.9200    -4.3060     0.4060 H     1 <1>   0.0800 
 43 H       -9.2870    -4.0400     2.0060 H     1 <1>   0.0800 
 44 H       -8.4520    -3.3750     0.6260 H     1 <1>   0.0800 
 45 H      -13.0650    -1.5000     0.5020 H     1 <1>   0.0800 
 46 H      -13.6950    -1.7400    -1.1070 H     1 <1>   0.0800 
 47 H      -12.6970    -0.3500    -0.7750 H     1 <1>   0.0800 
@<TRIPOS>BOND
  1   1   2  1   
  2   2   3  ar  
  3   2   4  ar  
  4   3   5  ar  
  5   3  22  1   
  6   4   6  ar  
  7   4  23  1   
  8   5   7  ar  
  9   5   8  1   
 10   6   7  ar  
 11   6  24  1   
 12   7  25  1   
 13   8   9  1   
 14   8  26  1   
 15   8  27  1   
 16   9  10  1   
 17   9  11  1   
 18   9  28  1   
 19  10  12  1   
 20  10  29  1   
 21  10  30  1   
 22  11  13  1   
 23  11  31  1   
 24  11  32  1   
 25  12  14  1   
 26  12  15  1   
 27  12  33  1   
 28  13  15  1   
 29  13  34  1   
 30  13  35  1   
 31  14  16  2   
 32  14  17  am  
 33  15  36  1   
 34  15  37  1   
 35  17  18  1   
 36  17  19  1   
 37  18  20  1   
 38  18  38  1   
 39  18  39  1   
 40  19  21  1   
 41  19  40  1   
 42  19  41  1   
 43  20  42  1   
 44  20  43  1   
 45  20  44  1   
 46  21  45  1   
 47  21  46  1   
 48  21  47  1   
@<TRIPOS>SUBSTRUCTURE
  1 ****   9 GROUP 4 **** **** 0

# MOE 2024.06 (io_trps.svl 2023.06)
