@<TRIPOS>MOLECULE
NONAME
39 40 1 0 0 
SMALL
USER_CHARGES


@<TRIPOS>ATOM
  1 O       -0.4840     1.7160    -2.0020 O.2   1 <1>  -0.5700 
  2 C       -0.5670     1.7080    -0.7970 C.2   1 <1>   0.6590 
  3 O        0.2710     0.9800    -0.0580 O.3   1 <1>  -0.4300 
  4 C       -1.6200     2.5490    -0.0320 C.3   1 <1>   0.2040 
  5 C        1.3040     0.1960    -0.6140 C.3   1 <1>   0.1200 
  6 C       -2.8220     1.6360     0.3160 C.ar  1 <1>  -0.1440 
  7 C       -1.0280     3.1310     1.2770 C.3   1 <1>  -0.1600 
  8 C       -2.0310     3.7790    -0.8830 C.3   1 <1>  -0.1600 
  9 C        2.5360     1.0770    -0.8080 C.3   1 <1>  -0.2400 
 10 C       -2.6310     0.5590     1.1770 C.ar  1 <1>  -0.1500 
 11 C       -4.1020     1.8290    -0.2030 C.ar  1 <1>  -0.1500 
 12 C        0.0900     4.1400     0.9920 C.3   1 <1>   0.1200 
 13 C       -0.8620     4.7530    -1.0690 C.3   1 <1>   0.1200 
 14 C       -3.6740    -0.2830     1.5160 C.ar  1 <1>  -0.1500 
 15 C       -5.1490     0.9880     0.1340 C.ar  1 <1>  -0.1500 
 16 O       -0.4080     5.1570     0.1830 O.3   1 <1>  -0.5600 
 17 C       -4.9410    -0.0770     1.0010 C.ar  1 <1>   0.0820 
 18 O       -5.9090    -0.9460     1.3840 O.3   1 <1>  -0.3630 
 19 C       -7.2300    -0.8270     0.9040 C.3   1 <1>   0.0400 
 20 H        0.9690    -0.2280    -1.5470 H     1 <1>   0.0800 
 21 H        1.5160    -0.6020     0.0770 H     1 <1>   0.0800 
 22 H       -0.6340     2.3530     1.9050 H     1 <1>   0.0800 
 23 H       -1.8040     3.6260     1.8340 H     1 <1>   0.0800 
 24 H       -2.8290     4.3140    -0.4000 H     1 <1>   0.0800 
 25 H       -2.3780     3.4640    -1.8510 H     1 <1>   0.0800 
 26 H        2.3250     1.8660    -1.5090 H     1 <1>   0.0800 
 27 H        3.3440     0.4860    -1.2000 H     1 <1>   0.0800 
 28 H        2.8450     1.4990     0.1310 H     1 <1>   0.0800 
 29 H       -1.6630     0.3550     1.5970 H     1 <1>   0.1500 
 30 H       -4.3190     2.6320    -0.8820 H     1 <1>   0.1500 
 31 H        0.9290     3.6820     0.4950 H     1 <1>   0.0800 
 32 H        0.4320     4.5900     1.9080 H     1 <1>   0.0800 
 33 H       -1.1860     5.6320    -1.5990 H     1 <1>   0.0800 
 34 H       -0.0440     4.3050    -1.6090 H     1 <1>   0.0800 
 35 H       -3.5120    -1.1100     2.1840 H     1 <1>   0.1500 
 36 H       -6.1160     1.1780    -0.2900 H     1 <1>   0.1500 
 37 H       -7.8140    -1.6200     1.3360 H     1 <1>   0.0800 
 38 H       -7.2210    -0.9220    -0.1680 H     1 <1>   0.0800 
 39 H       -7.6260     0.1260     1.2050 H     1 <1>   0.0800 
@<TRIPOS>BOND
  1   1   2  2   
  2   2   3  1   
  3   2   4  1   
  4   3   5  1   
  5   4   6  1   
  6   4   7  1   
  7   4   8  1   
  8   5   9  1   
  9   5  20  1   
 10   5  21  1   
 11   6  10  ar  
 12   6  11  ar  
 13   7  12  1   
 14   7  22  1   
 15   7  23  1   
 16   8  13  1   
 17   8  24  1   
 18   8  25  1   
 19   9  26  1   
 20   9  27  1   
 21   9  28  1   
 22  10  14  ar  
 23  10  29  1   
 24  11  15  ar  
 25  11  30  1   
 26  12  16  1   
 27  12  31  1   
 28  12  32  1   
 29  13  16  1   
 30  13  33  1   
 31  13  34  1   
 32  14  17  ar  
 33  14  35  1   
 34  15  17  ar  
 35  15  36  1   
 36  17  18  1   
 37  18  19  1   
 38  19  37  1   
 39  19  38  1   
 40  19  39  1   
@<TRIPOS>SUBSTRUCTURE
  1 ****   6 GROUP 4 **** **** 0

# MOE 2024.06 (io_trps.svl 2023.06)
