@<TRIPOS>MOLECULE
NONAME
48 50 1 0 0 
SMALL
USER_CHARGES


@<TRIPOS>ATOM
  1 O        0.5610     0.2450    -0.5200 O.3   1 <1>  -0.5600 
  2 C        0.2270     1.5830    -0.2690 C.3   1 <1>   0.1200 
  3 C        1.4390    -0.3110     0.4210 C.3   1 <1>   0.1200 
  4 C        1.4950     2.4700    -0.2450 C.3   1 <1>   0.3430 
  5 C        2.7670     0.4810     0.4660 C.3   1 <1>   0.3430 
  6 N        2.7360     1.6480    -0.4940 N.4   1 <1>  -0.9590 
  7 C        3.9790     2.4550    -0.6560 C.3   1 <1>   0.4230 
  8 C        5.0800     1.6120    -1.3020 C.3   1 <1>  -0.1600 
  9 C        4.4730     3.0420     0.6710 C.3   1 <1>  -0.1600 
 10 C        6.3450     2.4470    -1.5070 C.3   1 <1>   0.3430 
 11 C        5.7470     3.8620     0.4550 C.3   1 <1>   0.3430 
 12 N        6.7970     3.0260    -0.2060 N.4   1 <1>  -0.9590 
 13 C        8.0610     3.8100    -0.4330 C.3   1 <1>   0.3430 
 14 C        8.7850     4.1480     0.8720 C.3   1 <1>  -0.0170 
 15 C       10.0890     4.8360     0.5220 C.ar  1 <1>  -0.1430 
 16 C       10.1380     6.2160     0.3880 C.ar  1 <1>  -0.1500 
 17 C       11.2400     4.0900     0.3180 C.ar  1 <1>  -0.1500 
 18 C       11.3250     6.8410     0.0470 C.ar  1 <1>  -0.1500 
 19 C       12.4260     4.7160    -0.0230 C.ar  1 <1>  -0.1500 
 20 C       12.4690     6.0920    -0.1610 C.ar  1 <1>  -0.1500 
 21 H       -0.3010     1.6400     0.6680 H     1 <1>   0.0800 
 22 H       -0.4400     1.9070    -1.0500 H     1 <1>   0.0800 
 23 H        1.6230    -1.3330     0.1360 H     1 <1>   0.0800 
 24 H        0.9580    -0.3140     1.3850 H     1 <1>   0.0800 
 25 H        1.5570     2.9620     0.7110 H     1 <1>   0.0800 
 26 H        1.3950     3.2330    -1.0000 H     1 <1>   0.0800 
 27 H        3.5730    -0.1880     0.2170 H     1 <1>   0.0800 
 28 H        2.9290     0.8290     1.4730 H     1 <1>   0.0800 
 29 H        2.5180     1.1930    -1.3980 H     1 <1>   0.4500 
 30 H        3.7610     3.2750    -1.3240 H     1 <1>   0.0800 
 31 H        4.7500     1.2610    -2.2640 H     1 <1>   0.0800 
 32 H        5.3250     0.7580    -0.6970 H     1 <1>   0.0800 
 33 H        4.6810     2.2670     1.3860 H     1 <1>   0.0800 
 34 H        3.7240     3.6920     1.0870 H     1 <1>   0.0800 
 35 H        6.1470     3.2410    -2.2100 H     1 <1>   0.0800 
 36 H        7.1240     1.8240    -1.9210 H     1 <1>   0.0800 
 37 H        6.1060     4.2200     1.4080 H     1 <1>   0.0800 
 38 H        5.5270     4.7210    -0.1600 H     1 <1>   0.0800 
 39 H        7.0510     2.2490     0.4220 H     1 <1>   0.4500 
 40 H        7.8440     4.7230    -0.9640 H     1 <1>   0.0800 
 41 H        8.7380     3.2330    -1.0440 H     1 <1>   0.0800 
 42 H        8.9980     3.2530     1.4290 H     1 <1>   0.0800 
 43 H        8.1970     4.8070     1.4850 H     1 <1>   0.0800 
 44 H        9.2640     6.8220     0.5490 H     1 <1>   0.1500 
 45 H       11.2330     3.0190     0.4250 H     1 <1>   0.1500 
 46 H       11.3620     7.9130    -0.0560 H     1 <1>   0.1500 
 47 H       13.3190     4.1350    -0.1800 H     1 <1>   0.1500 
 48 H       13.3920     6.5790    -0.4250 H     1 <1>   0.1500 
@<TRIPOS>BOND
  1   1   2  1   
  2   1   3  1   
  3   2   4  1   
  4   2  21  1   
  5   2  22  1   
  6   3   5  1   
  7   3  23  1   
  8   3  24  1   
  9   4   6  1   
 10   4  25  1   
 11   4  26  1   
 12   5   6  1   
 13   5  27  1   
 14   5  28  1   
 15   6   7  1   
 16   6  29  1   
 17   7   8  1   
 18   7   9  1   
 19   7  30  1   
 20   8  10  1   
 21   8  31  1   
 22   8  32  1   
 23   9  11  1   
 24   9  33  1   
 25   9  34  1   
 26  10  12  1   
 27  10  35  1   
 28  10  36  1   
 29  11  12  1   
 30  11  37  1   
 31  11  38  1   
 32  12  13  1   
 33  12  39  1   
 34  13  14  1   
 35  13  40  1   
 36  13  41  1   
 37  14  15  1   
 38  14  42  1   
 39  14  43  1   
 40  15  16  ar  
 41  15  17  ar  
 42  16  18  ar  
 43  16  44  1   
 44  17  19  ar  
 45  17  45  1   
 46  18  20  ar  
 47  18  46  1   
 48  19  20  ar  
 49  19  47  1   
 50  20  48  1   
@<TRIPOS>SUBSTRUCTURE
  1 ****  12 GROUP 4 **** **** 0

# MOE 2024.06 (io_trps.svl 2023.06)
