@<TRIPOS>MOLECULE
NONAME
40 41 1 0 0 
SMALL
USER_CHARGES


@<TRIPOS>ATOM
  1 S       -0.4720     0.4440     1.1830 S.o2  1 <1>   1.4470 
  2 O        0.6810    -0.3950     1.4340 O.2   1 <1>  -0.6500 
  3 O       -0.9970     1.2410     2.2710 O.2   1 <1>  -0.6500 
  4 N       -0.0390     1.5440    -0.0330 N.am  1 <1>  -0.8490 
  5 C       -1.8050    -0.5410     0.4170 C.ar  1 <1>  -0.0090 
  6 C        1.2340     2.2020     0.2770 C.3   1 <1>   0.1960 
  7 C       -1.0920     2.5350    -0.2790 C.3   1 <1>   0.1960 
  8 C       -1.6060    -1.3690    -0.6910 C.ar  1 <1>  -0.1440 
  9 C       -3.0910    -0.4610     0.9410 C.ar  1 <1>  -0.1500 
 10 C        1.6850     3.0710    -0.9020 C.3   1 <1>  -0.1600 
 11 C       -0.7300     3.4030    -1.4870 C.3   1 <1>  -0.1600 
 12 C       -2.6690    -2.0800    -1.2260 C.ar  1 <1>  -0.1500 
 13 C       -0.2360    -1.5280    -1.3410 C.3   1 <1>  -0.0970 
 14 C       -4.1790    -1.1540     0.4140 C.ar  1 <1>   0.0860 
 15 C        0.6180     4.1040    -1.2820 C.3   1 <1>  -0.1600 
 16 C       -3.9320    -1.9760    -0.6820 C.ar  1 <1>  -0.1500 
 17 C       -5.5060    -1.0170     0.9920 C.2   1 <1>   0.5440 
 18 O       -5.6430    -0.7390     2.1660 O.2   1 <1>  -0.5700 
 19 N       -6.6250    -1.1770     0.2190 N.am  1 <1>  -0.7300 
 20 C       -8.0270    -1.0680     0.6990 C.3   1 <1>   0.0600 
 21 H        1.9920     1.4600     0.4650 H     1 <1>   0.0800 
 22 H        1.1270     2.8050     1.1650 H     1 <1>   0.0800 
 23 H       -1.2240     3.1580     0.5920 H     1 <1>   0.0800 
 24 H       -2.0250     2.0350    -0.4780 H     1 <1>   0.0800 
 25 H       -3.2660     0.1680     1.7990 H     1 <1>   0.1500 
 26 H        1.8870     2.4300    -1.7430 H     1 <1>   0.0800 
 27 H        2.6000     3.5730    -0.6450 H     1 <1>   0.0800 
 28 H       -1.4990     4.1380    -1.6430 H     1 <1>   0.0800 
 29 H       -0.6880     2.7790    -2.3630 H     1 <1>   0.0800 
 30 H       -2.5150    -2.7250    -2.0740 H     1 <1>   0.1500 
 31 H        0.4610    -1.9570    -0.6420 H     1 <1>   0.0800 
 32 H        0.1400    -0.5760    -1.6690 H     1 <1>   0.0800 
 33 H       -0.2840    -2.1760    -2.1970 H     1 <1>   0.0800 
 34 H        0.9080     4.6200    -2.1820 H     1 <1>   0.0800 
 35 H        0.5280     4.8310    -0.4930 H     1 <1>   0.0800 
 36 H       -4.7340    -2.5500    -1.1110 H     1 <1>   0.1500 
 37 H       -6.5110    -1.3080    -0.7870 H     1 <1>   0.3700 
 38 H       -8.0520    -0.9550     1.7700 H     1 <1>   0.0800 
 39 H       -8.5730    -1.9560     0.4340 H     1 <1>   0.0800 
 40 H       -8.5000    -0.2120     0.2500 H     1 <1>   0.0800 
@<TRIPOS>BOND
  1   1   2  2   
  2   1   3  2   
  3   1   4  am  
  4   1   5  1   
  5   4   6  1   
  6   4   7  1   
  7   5   8  ar  
  8   5   9  ar  
  9   6  10  1   
 10   6  21  1   
 11   6  22  1   
 12   7  11  1   
 13   7  23  1   
 14   7  24  1   
 15   8  12  ar  
 16   8  13  1   
 17   9  14  ar  
 18   9  25  1   
 19  10  15  1   
 20  10  26  1   
 21  10  27  1   
 22  11  15  1   
 23  11  28  1   
 24  11  29  1   
 25  12  16  ar  
 26  12  30  1   
 27  13  31  1   
 28  13  32  1   
 29  13  33  1   
 30  14  16  ar  
 31  14  17  1   
 32  15  34  1   
 33  15  35  1   
 34  16  36  1   
 35  17  18  2   
 36  17  19  am  
 37  19  20  1   
 38  19  37  1   
 39  20  38  1   
 40  20  39  1   
 41  20  40  1   
@<TRIPOS>SUBSTRUCTURE
  1 ****   5 GROUP 4 **** **** 0

# MOE 2024.06 (io_trps.svl 2023.06)
