@<TRIPOS>MOLECULE
NONAME
25 25 1 0 0 
SMALL
USER_CHARGES


@<TRIPOS>ATOM
  1 BR      -0.7450    -1.4580    -0.1540 Br    1 <1>  -0.1110 
  2 C       -1.9200     0.0580     0.0050 C.ar  1 <1>   0.1110 
  3 C       -1.4330     1.2420     0.5300 C.ar  1 <1>   0.1600 
  4 C       -3.2260    -0.0600    -0.4050 C.ar  1 <1>  -0.1500 
  5 N       -2.1760     2.3310     0.6690 N.ar  1 <1>  -0.6200 
  6 C       -4.0310     1.0640    -0.2630 C.ar  1 <1>   0.0860 
  7 C       -3.4350     2.2130     0.2650 C.ar  1 <1>   0.1600 
  8 C       -5.4260     1.0480    -0.6490 C.2   1 <1>   0.5440 
  9 O       -5.8000     0.3450    -1.5650 O.2   1 <1>  -0.5700 
 10 N       -6.3540     1.7980     0.0200 N.am  1 <1>  -0.7300 
 11 C       -7.7890     1.8990    -0.3580 C.3   1 <1>   0.1400 
 12 C       -8.5580     0.6600     0.1030 C.3   1 <1>   0.1200 
 13 O       -9.9210     0.9040    -0.0550 O.3   1 <1>  -0.5600 
 14 C      -10.7250    -0.1910     0.2440 C.3   1 <1>   0.0400 
 15 H       -0.4040     1.2910     0.8420 H     1 <1>   0.1500 
 16 H       -3.6100    -0.9770    -0.8180 H     1 <1>   0.1500 
 17 H       -4.0420     3.0980     0.3540 H     1 <1>   0.1500 
 18 H       -6.1040     2.2600     0.8960 H     1 <1>   0.3700 
 19 H       -7.8720     1.9850    -1.4280 H     1 <1>   0.0800 
 20 H       -8.2140     2.7760     0.0970 H     1 <1>   0.0800 
 21 H       -8.3680     0.4630     1.1440 H     1 <1>   0.0800 
 22 H       -8.2810    -0.1890    -0.4980 H     1 <1>   0.0800 
 23 H      -11.7510     0.0980     0.0990 H     1 <1>   0.0800 
 24 H      -10.5700    -0.4780     1.2690 H     1 <1>   0.0800 
 25 H      -10.4800    -1.0030    -0.4200 H     1 <1>   0.0800 
@<TRIPOS>BOND
  1   1   2  1   
  2   2   3  ar  
  3   2   4  ar  
  4   3   5  ar  
  5   3  15  1   
  6   4   6  ar  
  7   4  16  1   
  8   5   7  ar  
  9   6   7  ar  
 10   6   8  1   
 11   7  17  1   
 12   8   9  2   
 13   8  10  am  
 14  10  11  1   
 15  10  18  1   
 16  11  12  1   
 17  11  19  1   
 18  11  20  1   
 19  12  13  1   
 20  12  21  1   
 21  12  22  1   
 22  13  14  1   
 23  14  23  1   
 24  14  24  1   
 25  14  25  1   
@<TRIPOS>SUBSTRUCTURE
  1 ****   8 GROUP 4 **** **** 0

# MOE 2024.06 (io_trps.svl 2023.06)
