@<TRIPOS>MOLECULE
NONAME
46 48 1 0 0 
SMALL
USER_CHARGES


@<TRIPOS>ATOM
  1 S        0.2440    -0.7130     1.5030 S.o2  1 <1>   1.4470 
  2 O        1.1770    -1.0320     2.5630 O.2   1 <1>  -0.6500 
  3 O       -0.1880     0.6560     1.3250 O.2   1 <1>  -0.6500 
  4 N        0.9690    -1.1950     0.0490 N.am  1 <1>  -0.8490 
  5 C       -1.1960    -1.8130     1.6300 C.ar  1 <1>  -0.0090 
  6 C        0.2130    -0.7620    -1.1400 C.3   1 <1>   0.1960 
  7 C        2.3490    -0.6960    -0.0500 C.3   1 <1>   0.1960 
  8 C       -2.4430    -1.4210     1.1610 C.ar  1 <1>  -0.1500 
  9 C       -1.0790    -3.0870     2.1710 C.ar  1 <1>  -0.1500 
 10 C        0.9200    -1.2030    -2.4350 C.3   1 <1>   0.1200 
 11 C        3.0060    -1.1280    -1.3740 C.3   1 <1>   0.1200 
 12 C       -3.5630    -2.2500     1.2110 C.ar  1 <1>   0.0860 
 13 C       -2.1690    -3.9350     2.2400 C.ar  1 <1>  -0.1500 
 14 O        2.2330    -0.7180    -2.4670 O.3   1 <1>  -0.5600 
 15 C       -4.8420    -1.7970     0.6940 C.2   1 <1>   0.5440 
 16 C       -3.3970    -3.5200     1.7620 C.ar  1 <1>  -0.1500 
 17 O       -4.8870    -1.0490    -0.2620 O.2   1 <1>  -0.5700 
 18 N       -6.0130    -2.1980     1.2710 N.am  1 <1>  -0.7300 
 19 C       -7.3710    -1.7540     0.8420 C.3   1 <1>   0.1400 
 20 C       -7.7660    -2.3290    -0.5270 C.3   1 <1>   0.2000 
 21 O       -9.1180    -2.0960    -0.7500 O.3   1 <1>  -0.5600 
 22 C       -7.6320    -3.8410    -0.6590 C.3   1 <1>  -0.1600 
 23 C       -9.5850    -2.9510    -1.7430 C.3   1 <1>   0.1200 
 24 C       -8.6990    -4.1940    -1.6830 C.3   1 <1>  -0.1600 
 25 H        0.1120     0.3110    -1.1510 H     1 <1>   0.0800 
 26 H       -0.7740    -1.1910    -1.1210 H     1 <1>   0.0800 
 27 H        2.9340    -1.0840     0.7670 H     1 <1>   0.0800 
 28 H        2.3590     0.3800     0.0160 H     1 <1>   0.0800 
 29 H       -2.5580    -0.4360     0.7380 H     1 <1>   0.1500 
 30 H       -0.1200    -3.4170     2.5400 H     1 <1>   0.1500 
 31 H        0.4050    -0.8100    -3.2930 H     1 <1>   0.0800 
 32 H        0.9460    -2.2760    -2.5060 H     1 <1>   0.0800 
 33 H        3.1130    -2.1980    -1.4090 H     1 <1>   0.0800 
 34 H        3.9770    -0.6780    -1.4710 H     1 <1>   0.0800 
 35 H       -2.0560    -4.9200     2.6620 H     1 <1>   0.1500 
 36 H       -4.2340    -4.1950     1.8080 H     1 <1>   0.1500 
 37 H       -5.9840    -2.7360     2.1380 H     1 <1>   0.3700 
 38 H       -7.3870    -0.6790     0.7830 H     1 <1>   0.0800 
 39 H       -8.0910    -2.0700     1.5770 H     1 <1>   0.0800 
 40 H       -7.2190    -1.8300    -1.3090 H     1 <1>   0.0800 
 41 H       -7.8520    -4.3110     0.2830 H     1 <1>   0.0800 
 42 H       -6.6420    -4.1200    -0.9760 H     1 <1>   0.0800 
 43 H       -9.4870    -2.4480    -2.6900 H     1 <1>   0.0800 
 44 H      -10.6190    -3.1750    -1.5460 H     1 <1>   0.0800 
 45 H       -9.2650    -5.0580    -1.3810 H     1 <1>   0.0800 
 46 H       -8.2670    -4.3780    -2.6510 H     1 <1>   0.0800 
@<TRIPOS>BOND
  1   1   2  2   
  2   1   3  2   
  3   1   4  am  
  4   1   5  1   
  5   4   6  1   
  6   4   7  1   
  7   5   8  ar  
  8   5   9  ar  
  9   6  10  1   
 10   6  25  1   
 11   6  26  1   
 12   7  11  1   
 13   7  27  1   
 14   7  28  1   
 15   8  12  ar  
 16   8  29  1   
 17   9  13  ar  
 18   9  30  1   
 19  10  14  1   
 20  10  31  1   
 21  10  32  1   
 22  11  14  1   
 23  11  33  1   
 24  11  34  1   
 25  12  15  1   
 26  12  16  ar  
 27  13  16  ar  
 28  13  35  1   
 29  15  17  2   
 30  15  18  am  
 31  16  36  1   
 32  18  19  1   
 33  18  37  1   
 34  19  20  1   
 35  19  38  1   
 36  19  39  1   
 37  20  21  1   
 38  20  22  1   
 39  20  40  1   
 40  21  23  1   
 41  22  24  1   
 42  22  41  1   
 43  22  42  1   
 44  23  24  1   
 45  23  43  1   
 46  23  44  1   
 47  24  45  1   
 48  24  46  1   
@<TRIPOS>SUBSTRUCTURE
  1 ****   8 GROUP 4 **** **** 0

# MOE 2024.06 (io_trps.svl 2023.06)
