@<TRIPOS>MOLECULE
NONAME
46 47 1 0 0 
SMALL
USER_CHARGES


@<TRIPOS>ATOM
  1 N        0.0000     0.1330     0.2370 N.4   1 <1>  -0.9590 
  2 C       -1.1570    -0.7770    -0.0550 C.3   1 <1>   0.3430 
  3 C       -0.2490     1.4850    -0.3680 C.3   1 <1>   0.3430 
  4 C        1.2890    -0.5070    -0.2140 C.3   1 <1>   0.3430 
  5 C       -2.4310    -0.2130     0.5760 C.3   1 <1>  -0.1600 
  6 C       -1.4990     2.1070     0.2580 C.3   1 <1>  -0.1600 
  7 C        2.5770     0.2390     0.2440 C.3   1 <1>   0.3430 
  8 C       -2.7280     1.2080     0.0820 C.3   1 <1>  -0.1600 
  9 N        3.8570    -0.4390    -0.1730 N.4   1 <1>  -0.9060 
 10 C        5.0750     0.2670     0.2920 C.3   1 <1>   0.4230 
 11 C        5.2620     1.5750    -0.4900 C.3   1 <1>  -0.1600 
 12 C        6.2710    -0.6680     0.0890 C.3   1 <1>  -0.1600 
 13 C        6.5750     2.2670    -0.0980 C.3   1 <1>  -0.1600 
 14 C        7.5840     0.0210     0.4860 C.3   1 <1>  -0.1600 
 15 C        7.7830     1.3350    -0.2840 C.3   1 <1>  -0.0800 
 16 C        9.0680     2.0320     0.1760 C.3   1 <1>  -0.2400 
 17 H       -0.0150     0.2570     1.2620 H     1 <1>   0.4500 
 18 H       -0.9720    -1.7610     0.3470 H     1 <1>   0.0800 
 19 H       -1.2970    -0.8670    -1.1210 H     1 <1>   0.0800 
 20 H       -0.3950     1.3920    -1.4330 H     1 <1>   0.0800 
 21 H        0.5890     2.1400    -0.1940 H     1 <1>   0.0800 
 22 H        1.2840    -0.5690    -1.2900 H     1 <1>   0.0800 
 23 H        1.3240    -1.5110     0.1760 H     1 <1>   0.0800 
 24 H       -2.3380    -0.2190     1.6480 H     1 <1>   0.0800 
 25 H       -3.2610    -0.8530     0.3260 H     1 <1>   0.0800 
 26 H       -1.6910     3.0590    -0.2100 H     1 <1>   0.0800 
 27 H       -1.3270     2.2960     1.3040 H     1 <1>   0.0800 
 28 H        2.5640     0.3200     1.3190 H     1 <1>   0.0800 
 29 H        2.5610     1.2350    -0.1670 H     1 <1>   0.0800 
 30 H       -3.5640     1.6180     0.6270 H     1 <1>   0.0800 
 31 H       -3.0050     1.1760    -0.9590 H     1 <1>   0.0800 
 32 H        3.9450    -0.5180    -1.1960 H     1 <1>   0.4500 
 33 H        3.9210    -1.3950     0.2030 H     1 <1>   0.4500 
 34 H        4.9960     0.4940     1.3440 H     1 <1>   0.0800 
 35 H        4.4570     2.2580    -0.2900 H     1 <1>   0.0800 
 36 H        5.2910     1.3740    -1.5480 H     1 <1>   0.0800 
 37 H        6.3440    -0.9620    -0.9450 H     1 <1>   0.0800 
 38 H        6.1580    -1.5530     0.6910 H     1 <1>   0.0800 
 39 H        6.5240     2.5860     0.9300 H     1 <1>   0.0800 
 40 H        6.7110     3.1490    -0.7030 H     1 <1>   0.0800 
 41 H        8.4100    -0.6400     0.2830 H     1 <1>   0.0800 
 42 H        7.5830     0.2200     1.5450 H     1 <1>   0.0800 
 43 H        7.8870     1.1090    -1.3330 H     1 <1>   0.0800 
 44 H        9.0190     2.2810     1.2220 H     1 <1>   0.0800 
 45 H        9.2240     2.9370    -0.3830 H     1 <1>   0.0800 
 46 H        9.9180     1.3910     0.0180 H     1 <1>   0.0800 
@<TRIPOS>BOND
  1   1   2  1   
  2   1   3  1   
  3   1   4  1   
  4   1  17  1   
  5   2   5  1   
  6   2  18  1   
  7   2  19  1   
  8   3   6  1   
  9   3  20  1   
 10   3  21  1   
 11   4   7  1   
 12   4  22  1   
 13   4  23  1   
 14   5   8  1   
 15   5  24  1   
 16   5  25  1   
 17   6   8  1   
 18   6  26  1   
 19   6  27  1   
 20   7   9  1   
 21   7  28  1   
 22   7  29  1   
 23   8  30  1   
 24   8  31  1   
 25   9  10  1   
 26   9  32  1   
 27   9  33  1   
 28  10  11  1   
 29  10  12  1   
 30  10  34  1   
 31  11  13  1   
 32  11  35  1   
 33  11  36  1   
 34  12  14  1   
 35  12  37  1   
 36  12  38  1   
 37  13  15  1   
 38  13  39  1   
 39  13  40  1   
 40  14  15  1   
 41  14  41  1   
 42  14  42  1   
 43  15  16  1   
 44  15  43  1   
 45  16  44  1   
 46  16  45  1   
 47  16  46  1   
@<TRIPOS>SUBSTRUCTURE
  1 ****   7 GROUP 4 **** **** 0

# MOE 2024.06 (io_trps.svl 2023.06)
