@<TRIPOS>MOLECULE
NONAME
39 41 1 0 0 
SMALL
USER_CHARGES


@<TRIPOS>ATOM
  1 S        0.3890     0.1560     1.3530 S.3   1 <1>  -0.0800 
  2 C        1.6010     1.3760     1.0050 C.ar  1 <1>   0.2970 
  3 C       -0.8530     0.9950     0.3990 C.2   1 <1>  -0.1920 
  4 N        2.8320     1.3050     1.4660 N.ar  1 <1>  -0.5670 
  5 C        1.0710     2.3750     0.2260 C.ar  1 <1>   0.0000 
  6 C       -0.2990     2.1120    -0.1520 C.2   1 <1>  -0.1810 
  7 C       -2.1760     0.4000     0.3570 C.2   1 <1>   1.0320 
  8 C        3.5630     2.3400     1.1140 C.ar  1 <1>   0.4700 
  9 C        1.9550     3.4360    -0.0150 C.ar  1 <1>   0.4100 
 10 C       -1.0510     3.0060    -1.1280 C.3   1 <1>  -0.0590 
 11 O       -3.1540     1.0650    -0.0360 O.co2 1 <1>  -0.9000 
 12 O       -2.3710    -0.7730     0.7180 O.co2 1 <1>  -0.9000 
 13 N        3.2070     3.4110     0.4160 N.ar  1 <1>  -0.6200 
 14 N        1.5730     4.6060    -0.6340 N.pl3 1 <1>  -0.8380 
 15 C        0.7260     5.5320     0.1680 C.3   1 <1>   0.2090 
 16 C        2.5220     5.2880    -1.5620 C.3   1 <1>   0.2090 
 17 C        1.6100     6.5470     0.9220 C.3   1 <1>   0.3430 
 18 C        3.3830     6.3200    -0.8010 C.3   1 <1>   0.3430 
 19 N        2.5540     7.2960     0.0090 N.4   1 <1>  -0.9590 
 20 C        3.4040     8.2270     0.7940 C.3   1 <1>   0.3430 
 21 C        4.0720     9.2280    -0.1420 C.3   1 <1>  -0.2400 
 22 H        4.5870     2.3160     1.4490 H     1 <1>   0.1500 
 23 H       -1.8610     2.4690    -1.5880 H     1 <1>   0.0800 
 24 H       -0.3990     3.3360    -1.9150 H     1 <1>   0.0800 
 25 H       -1.4630     3.8530    -0.6150 H     1 <1>   0.0800 
 26 H        0.1470     4.9690     0.8820 H     1 <1>   0.0800 
 27 H        0.0370     6.0440    -0.4800 H     1 <1>   0.0800 
 28 H        1.9690     5.7730    -2.3480 H     1 <1>   0.0800 
 29 H        3.1650     4.5550    -2.0210 H     1 <1>   0.0800 
 30 H        2.1810     6.0020     1.6560 H     1 <1>   0.0800 
 31 H        0.9760     7.2430     1.4460 H     1 <1>   0.0800 
 32 H        3.9950     6.8520    -1.5090 H     1 <1>   0.0800 
 33 H        4.0390     5.7750    -0.1420 H     1 <1>   0.0800 
 34 H        1.9880     7.8480    -0.6470 H     1 <1>   0.4500 
 35 H        4.1510     7.6760     1.3440 H     1 <1>   0.0800 
 36 H        2.7940     8.7660     1.5010 H     1 <1>   0.0800 
 37 H        4.7660     8.7460    -0.8060 H     1 <1>   0.0800 
 38 H        4.6260     9.9390     0.4450 H     1 <1>   0.0800 
 39 H        3.3380     9.7710    -0.7110 H     1 <1>   0.0800 
@<TRIPOS>BOND
  1   1   2  1   
  2   1   3  1   
  3   2   4  ar  
  4   2   5  ar  
  5   3   6  2   
  6   3   7  1   
  7   4   8  ar  
  8   5   6  1   
  9   5   9  ar  
 10   6  10  1   
 11   7  11  ar  
 12   7  12  ar  
 13   8  13  ar  
 14   8  22  1   
 15   9  13  ar  
 16   9  14  1   
 17  10  23  1   
 18  10  24  1   
 19  10  25  1   
 20  14  15  1   
 21  14  16  1   
 22  15  17  1   
 23  15  26  1   
 24  15  27  1   
 25  16  18  1   
 26  16  28  1   
 27  16  29  1   
 28  17  19  1   
 29  17  30  1   
 30  17  31  1   
 31  18  19  1   
 32  18  32  1   
 33  18  33  1   
 34  19  20  1   
 35  19  34  1   
 36  20  21  1   
 37  20  35  1   
 38  20  36  1   
 39  21  37  1   
 40  21  38  1   
 41  21  39  1   
@<TRIPOS>SUBSTRUCTURE
  1 ****   9 GROUP 4 **** **** 0

# MOE 2024.06 (io_trps.svl 2023.06)
