@<TRIPOS>MOLECULE
NONAME
29 29 1 0 0 
SMALL
USER_CHARGES


@<TRIPOS>ATOM
  1 CL       0.4100    -0.9250    -0.0430 Cl    1 <1>  -0.1770 
  2 C       -0.8050     0.3460    -0.0090 C.ar  1 <1>   0.1770 
  3 C       -2.1330    -0.0560    -0.0020 C.ar  1 <1>   0.1770 
  4 C       -0.4940     1.7150     0.0120 C.ar  1 <1>   0.0830 
  5 CL      -2.5510    -1.7540    -0.0270 Cl    1 <1>  -0.1770 
  6 C       -3.1640     0.8650     0.0250 C.ar  1 <1>  -0.1500 
  7 O        0.7430     2.2920     0.0090 O.3   1 <1>  -0.3630 
  8 C       -1.5410     2.6280     0.0380 C.ar  1 <1>  -0.1500 
  9 C       -2.8630     2.2150     0.0450 C.ar  1 <1>  -0.1500 
 10 C        1.9560     1.5830    -0.0160 C.3   1 <1>   0.1200 
 11 C        3.0930     2.6070    -0.0100 C.3   1 <1>   0.3430 
 12 N        4.4330     1.9440    -0.0360 N.4   1 <1>  -0.9060 
 13 C        5.5370     2.9510    -0.0300 C.3   1 <1>   0.3430 
 14 C        6.9200     2.2880    -0.0560 C.3   1 <1>   0.1200 
 15 O        7.8620     3.2990    -0.0480 O.3   1 <1>  -0.6800 
 16 H       -4.1850     0.5270     0.0300 H     1 <1>   0.1500 
 17 H       -1.3190     3.6810     0.0540 H     1 <1>   0.1500 
 18 H       -3.6570     2.9440     0.0660 H     1 <1>   0.1500 
 19 H        1.9800     0.9950    -0.9170 H     1 <1>   0.0800 
 20 H        1.9980     0.9640     0.8630 H     1 <1>   0.0800 
 21 H        3.0060     3.2150     0.8760 H     1 <1>   0.0800 
 22 H        2.9870     3.2450    -0.8740 H     1 <1>   0.0800 
 23 H        4.5110     1.3560    -0.8770 H     1 <1>   0.4500 
 24 H        4.5290     1.3270     0.7820 H     1 <1>   0.4500 
 25 H        5.4670     3.5620     0.8560 H     1 <1>   0.0800 
 26 H        5.4490     3.5920    -0.8930 H     1 <1>   0.0800 
 27 H        7.0610     1.7090    -0.9530 H     1 <1>   0.0800 
 28 H        7.0800     1.6790     0.8180 H     1 <1>   0.0800 
 29 H        8.7790     2.9480    -0.0640 H     1 <1>   0.4000 
@<TRIPOS>BOND
  1   1   2  1   
  2   2   3  ar  
  3   2   4  ar  
  4   3   5  1   
  5   3   6  ar  
  6   4   7  1   
  7   4   8  ar  
  8   6   9  ar  
  9   6  16  1   
 10   7  10  1   
 11   8   9  ar  
 12   8  17  1   
 13   9  18  1   
 14  10  11  1   
 15  10  19  1   
 16  10  20  1   
 17  11  12  1   
 18  11  21  1   
 19  11  22  1   
 20  12  13  1   
 21  12  23  1   
 22  12  24  1   
 23  13  14  1   
 24  13  25  1   
 25  13  26  1   
 26  14  15  1   
 27  14  27  1   
 28  14  28  1   
 29  15  29  1   
@<TRIPOS>SUBSTRUCTURE
  1 ****  10 GROUP 4 **** **** 0

# MOE 2024.06 (io_trps.svl 2023.06)
