@<TRIPOS>MOLECULE
NONAME
37 38 1 0 0 
SMALL
USER_CHARGES


@<TRIPOS>ATOM
  1 BR       3.3590     1.5100     1.9000 Br    1 <1>  -0.1110 
  2 C        3.8900    -0.1420     1.0720 C.ar  1 <1>   0.1110 
  3 C        3.3810    -1.3280     1.5610 C.ar  1 <1>  -0.1500 
  4 C        4.7680    -0.1040     0.0070 C.ar  1 <1>  -0.1500 
  5 C        3.7700    -2.5130     0.9590 C.ar  1 <1>  -0.1500 
  6 C        5.1440    -1.3000    -0.5810 C.ar  1 <1>  -0.1500 
  7 C        4.6550    -2.5200    -0.1190 C.ar  1 <1>  -0.0090 
  8 S        5.1810    -4.0770    -0.8890 S.o2  1 <1>   1.4470 
  9 O        5.2390    -3.9410    -2.3230 O.2   1 <1>  -0.6500 
 10 O        4.5040    -5.2080    -0.2990 O.2   1 <1>  -0.6500 
 11 N        6.7870    -4.2130    -0.4310 N.am  1 <1>  -0.9140 
 12 C        6.9690    -4.7590     0.9350 C.3   1 <1>   0.2570 
 13 C        8.4290    -4.8010     1.3980 C.2   1 <1>   0.5690 
 14 O        8.7360    -5.5390     2.3030 O.2   1 <1>  -0.5700 
 15 N        9.3340    -4.0040     0.7730 N.am  1 <1>  -0.7300 
 16 C       10.7670    -3.9010     1.0820 C.3   1 <1>   0.2200 
 17 C       11.0960    -2.4470     1.3910 C.3   1 <1>  -0.1600 
 18 C       11.5610    -4.1780    -0.1880 C.3   1 <1>  -0.1600 
 19 C       11.2460    -1.7550     0.0300 C.3   1 <1>  -0.1600 
 20 C       11.5430    -2.8680    -0.9840 C.3   1 <1>  -0.1600 
 21 H        2.6980    -1.3220     2.3920 H     1 <1>   0.1500 
 22 H        5.1450     0.8380    -0.3520 H     1 <1>   0.1500 
 23 H        3.3780    -3.4460     1.3300 H     1 <1>   0.1500 
 24 H        5.8280    -1.2900    -1.4150 H     1 <1>   0.1500 
 25 H        7.1610    -4.8980    -1.0870 H     1 <1>   0.4200 
 26 H        6.5790    -5.7620     0.9840 H     1 <1>   0.0800 
 27 H        6.4240    -4.1560     1.6400 H     1 <1>   0.0800 
 28 H        9.0090    -3.4020     0.0140 H     1 <1>   0.3700 
 29 H       11.0340    -4.5650     1.8890 H     1 <1>   0.0800 
 30 H       12.0420    -2.4150     1.9040 H     1 <1>   0.0800 
 31 H       10.3520    -1.9840     2.0160 H     1 <1>   0.0800 
 32 H       11.1660    -5.0100    -0.7430 H     1 <1>   0.0800 
 33 H       12.5760    -4.4030     0.0900 H     1 <1>   0.0800 
 34 H       12.0360    -1.0240     0.0570 H     1 <1>   0.0800 
 35 H       10.3260    -1.2610    -0.2330 H     1 <1>   0.0800 
 36 H       10.7640    -2.9000    -1.7260 H     1 <1>   0.0800 
 37 H       12.4860    -2.7070    -1.4790 H     1 <1>   0.0800 
@<TRIPOS>BOND
  1   1   2  1   
  2   2   3  ar  
  3   2   4  ar  
  4   3   5  ar  
  5   3  21  1   
  6   4   6  ar  
  7   4  22  1   
  8   5   7  ar  
  9   5  23  1   
 10   6   7  ar  
 11   6  24  1   
 12   7   8  1   
 13   8   9  2   
 14   8  10  2   
 15   8  11  am  
 16  11  12  1   
 17  11  25  1   
 18  12  13  1   
 19  12  26  1   
 20  12  27  1   
 21  13  14  2   
 22  13  15  am  
 23  15  16  1   
 24  15  28  1   
 25  16  17  1   
 26  16  18  1   
 27  16  29  1   
 28  17  19  1   
 29  17  30  1   
 30  17  31  1   
 31  18  20  1   
 32  18  32  1   
 33  18  33  1   
 34  19  20  1   
 35  19  34  1   
 36  19  35  1   
 37  20  36  1   
 38  20  37  1   
@<TRIPOS>SUBSTRUCTURE
  1 ****  11 GROUP 4 **** **** 0

# MOE 2024.06 (io_trps.svl 2023.06)
