@<TRIPOS>MOLECULE
NONAME
49 51 1 0 0 
SMALL
USER_CHARGES


@<TRIPOS>ATOM
  1 N       -0.5920     0.3050     0.0650 N.4   1 <1>  -0.9590 
  2 C        0.3340     1.2850    -0.5560 C.3   1 <1>   0.4230 
  3 C       -1.8020     0.9340     0.6880 C.3   1 <1>   0.3430 
  4 C        0.0140    -0.7030     1.0020 C.3   1 <1>   0.3430 
  5 C        1.3040     0.5670    -1.5030 C.3   1 <1>  -0.1600 
  6 C        1.0960     2.1060     0.4970 C.3   1 <1>  -0.1600 
  7 C       -2.8410    -0.1430     1.0820 C.3   1 <1>   0.1100 
  8 C       -1.0390    -1.7420     1.4640 C.3   1 <1>   0.1100 
  9 C        2.2430     1.5720    -2.1850 C.3   1 <1>  -0.1600 
 10 C        2.0360     3.1150    -0.1790 C.3   1 <1>  -0.1600 
 11 N       -2.3540    -1.5240     0.8220 N.3   1 <1>  -0.8100 
 12 C        2.9980     2.4160    -1.1490 C.3   1 <1>  -0.1600 
 13 C       -3.3410    -2.5470     1.2260 C.3   1 <1>   0.2530 
 14 C       -4.6470    -2.3580     0.4700 C.ar  1 <1>  -0.1430 
 15 C       -5.8160    -2.0430     1.1440 C.ar  1 <1>  -0.1500 
 16 C       -4.6780    -2.4930    -0.9100 C.ar  1 <1>  -0.1500 
 17 C       -6.9980    -1.8610     0.4470 C.ar  1 <1>  -0.1500 
 18 C       -5.8600    -2.3120    -1.6060 C.ar  1 <1>  -0.1500 
 19 C       -7.0270    -1.9940    -0.9310 C.ar  1 <1>  -0.1430 
 20 C       -8.3260    -1.7930    -1.6890 C.3   1 <1>  -0.0970 
 21 H       -1.0000    -0.2820    -0.6780 H     1 <1>   0.4500 
 22 H       -0.2450     1.9720    -1.1530 H     1 <1>   0.0800 
 23 H       -2.2600     1.6200    -0.0050 H     1 <1>   0.0800 
 24 H       -1.5190     1.4910     1.5650 H     1 <1>   0.0800 
 25 H        0.4240    -0.2070     1.8660 H     1 <1>   0.0800 
 26 H        0.8180    -1.2230     0.5110 H     1 <1>   0.0800 
 27 H        0.7510     0.0400    -2.2610 H     1 <1>   0.0800 
 28 H        1.9060    -0.1400    -0.9610 H     1 <1>   0.0800 
 29 H        1.6900     1.4600     1.1180 H     1 <1>   0.0800 
 30 H        0.4060     2.6460     1.1190 H     1 <1>   0.0800 
 31 H       -3.7390     0.0360     0.5130 H     1 <1>   0.0800 
 32 H       -3.0940    -0.0300     2.1220 H     1 <1>   0.0800 
 33 H       -1.1400    -1.6890     2.5350 H     1 <1>   0.0800 
 34 H       -0.6810    -2.7280     1.2210 H     1 <1>   0.0800 
 35 H        1.6740     2.2240    -2.8280 H     1 <1>   0.0800 
 36 H        2.9520     1.0460    -2.8030 H     1 <1>   0.0800 
 37 H        2.6050     3.6400     0.5710 H     1 <1>   0.0800 
 38 H        1.4580     3.8470    -0.7180 H     1 <1>   0.0800 
 39 H        3.5960     3.1550    -1.6560 H     1 <1>   0.0800 
 40 H        3.6710     1.7840    -0.5940 H     1 <1>   0.0800 
 41 H       -3.5170    -2.4910     2.2870 H     1 <1>   0.0800 
 42 H       -2.9550    -3.5270     1.0020 H     1 <1>   0.0800 
 43 H       -5.8180    -1.9370     2.2150 H     1 <1>   0.1500 
 44 H       -3.7770    -2.7390    -1.4440 H     1 <1>   0.1500 
 45 H       -7.8990    -1.6160     0.9830 H     1 <1>   0.1500 
 46 H       -5.8670    -2.4200    -2.6760 H     1 <1>   0.1500 
 47 H       -8.4930    -0.7440    -1.8530 H     1 <1>   0.0800 
 48 H       -9.1510    -2.1940    -1.1280 H     1 <1>   0.0800 
 49 H       -8.2900    -2.2920    -2.6410 H     1 <1>   0.0800 
@<TRIPOS>BOND
  1   1   2  1   
  2   1   3  1   
  3   1   4  1   
  4   1  21  1   
  5   2   5  1   
  6   2   6  1   
  7   2  22  1   
  8   3   7  1   
  9   3  23  1   
 10   3  24  1   
 11   4   8  1   
 12   4  25  1   
 13   4  26  1   
 14   5   9  1   
 15   5  27  1   
 16   5  28  1   
 17   6  10  1   
 18   6  29  1   
 19   6  30  1   
 20   7  11  1   
 21   7  31  1   
 22   7  32  1   
 23   8  11  1   
 24   8  33  1   
 25   8  34  1   
 26   9  12  1   
 27   9  35  1   
 28   9  36  1   
 29  10  12  1   
 30  10  37  1   
 31  10  38  1   
 32  11  13  1   
 33  12  39  1   
 34  12  40  1   
 35  13  14  1   
 36  13  41  1   
 37  13  42  1   
 38  14  15  ar  
 39  14  16  ar  
 40  15  17  ar  
 41  15  43  1   
 42  16  18  ar  
 43  16  44  1   
 44  17  19  ar  
 45  17  45  1   
 46  18  19  ar  
 47  18  46  1   
 48  19  20  1   
 49  20  47  1   
 50  20  48  1   
 51  20  49  1   
@<TRIPOS>SUBSTRUCTURE
  1 ****   7 GROUP 4 **** **** 0

# MOE 2024.06 (io_trps.svl 2023.06)
