@<TRIPOS>MOLECULE
NONAME
52 55 1 0 0 
SMALL
USER_CHARGES


@<TRIPOS>ATOM
  1 BR       0.1740     2.5540     2.4170 Br    1 <1>  -0.1110 
  2 C        1.3980     2.7030     0.9320 C.ar  1 <1>   0.1110 
  3 C        0.9990     3.3320    -0.2390 C.ar  1 <1>   0.0830 
  4 C        2.6650     2.1710     1.0820 C.ar  1 <1>  -0.1500 
  5 O       -0.2360     3.8600    -0.3800 O.3   1 <1>  -0.3630 
  6 C        1.9060     3.4360    -1.2800 C.ar  1 <1>  -0.1500 
  7 C        3.5700     2.2760     0.0340 C.ar  1 <1>  -0.1430 
  8 C       -1.2340     2.9800    -0.8420 C.3   1 <1>   0.0400 
  9 C        3.1810     2.9090    -1.1420 C.ar  1 <1>  -0.1500 
 10 C        4.9780     1.7150     0.1700 C.3   1 <1>   0.2540 
 11 N        5.9750     2.8030     0.1120 N.3   1 <1>  -0.8100 
 12 C        5.8020     3.7850     1.2130 C.3   1 <1>   0.1100 
 13 C        7.3590     2.2770     0.1010 C.3   1 <1>   0.1100 
 14 C        6.8280     4.9420     1.1360 C.3   1 <1>   0.3430 
 15 C        8.4190     3.4060     0.0550 C.3   1 <1>   0.3430 
 16 N        7.7730     4.7590    -0.0170 N.4   1 <1>  -0.9590 
 17 C        8.7630     5.8560    -0.2280 C.3   1 <1>   0.3430 
 18 C        8.0930     7.1820    -0.6330 C.3   1 <1>  -0.0800 
 19 C        9.1960     8.1560    -1.3780 C.3   1 <1>   0.0580 
 20 C        7.4560     8.0710     0.6620 C.3   1 <1>  -0.1600 
 21 C        9.9080     9.6010    -1.1880 C.2   1 <1>  -0.2880 
 22 C        8.6450     8.8330    -0.3750 C.3   1 <1>  -0.1600 
 23 C        8.1710     9.5540     0.6350 C.3   1 <1>   0.0580 
 24 C        9.3700    10.3350    -0.1290 C.2   1 <1>  -0.2880 
 25 H        2.9280     1.6880     2.0050 H     1 <1>   0.1500 
 26 H        1.6120     3.9300    -2.1890 H     1 <1>   0.1500 
 27 H       -2.1580     3.5260    -0.9110 H     1 <1>   0.0800 
 28 H       -1.3380     2.1680    -0.1450 H     1 <1>   0.0800 
 29 H       -0.9510     2.6090    -1.8120 H     1 <1>   0.0800 
 30 H        3.8800     2.9940    -1.9560 H     1 <1>   0.1500 
 31 H        5.1500     1.0260    -0.6400 H     1 <1>   0.0800 
 32 H        5.0740     1.1730     1.0950 H     1 <1>   0.0800 
 33 H        5.8960     3.2910     2.1650 H     1 <1>   0.0800 
 34 H        4.8150     4.2130     1.1710 H     1 <1>   0.0800 
 35 H        7.4910     1.6430    -0.7600 H     1 <1>   0.0800 
 36 H        7.5290     1.6710     0.9760 H     1 <1>   0.0800 
 37 H        7.3770     4.9950     2.0610 H     1 <1>   0.0800 
 38 H        6.2860     5.8650     1.0210 H     1 <1>   0.0800 
 39 H        9.0500     3.2540    -0.8050 H     1 <1>   0.0800 
 40 H        9.0410     3.3430     0.9320 H     1 <1>   0.0800 
 41 H        7.1440     4.6840    -0.8330 H     1 <1>   0.4500 
 42 H        9.4340     5.5670    -1.0210 H     1 <1>   0.0800 
 43 H        9.3520     6.0050     0.6620 H     1 <1>   0.0800 
 44 H        7.3090     6.9590    -1.3420 H     1 <1>   0.0800 
 45 H        8.8060     8.2370    -2.3840 H     1 <1>   0.0800 
 46 H        7.6640     7.5990     1.6090 H     1 <1>   0.0800 
 47 H        6.3850     8.1680     0.5680 H     1 <1>   0.0800 
 48 H       10.7050     9.8790    -1.8590 H     1 <1>   0.1500 
 49 H        7.8100     9.2490    -1.0860 H     1 <1>   0.0800 
 50 H        9.4730     8.3550     0.3770 H     1 <1>   0.0800 
 51 H        7.3350    10.2280     0.4940 H     1 <1>   0.0800 
 52 H        9.6480    11.3180     0.2180 H     1 <1>   0.1500 
@<TRIPOS>BOND
  1   1   2  1   
  2   2   3  ar  
  3   2   4  ar  
  4   3   5  1   
  5   3   6  ar  
  6   4   7  ar  
  7   4  25  1   
  8   5   8  1   
  9   6   9  ar  
 10   6  26  1   
 11   7   9  ar  
 12   7  10  1   
 13   8  27  1   
 14   8  28  1   
 15   8  29  1   
 16   9  30  1   
 17  10  11  1   
 18  10  31  1   
 19  10  32  1   
 20  11  12  1   
 21  11  13  1   
 22  12  14  1   
 23  12  33  1   
 24  12  34  1   
 25  13  15  1   
 26  13  35  1   
 27  13  36  1   
 28  14  16  1   
 29  14  37  1   
 30  14  38  1   
 31  15  16  1   
 32  15  39  1   
 33  15  40  1   
 34  16  17  1   
 35  16  41  1   
 36  17  18  1   
 37  17  42  1   
 38  17  43  1   
 39  18  19  1   
 40  18  20  1   
 41  18  44  1   
 42  19  21  1   
 43  19  22  1   
 44  19  45  1   
 45  20  23  1   
 46  20  46  1   
 47  20  47  1   
 48  21  24  2   
 49  21  48  1   
 50  22  23  1   
 51  22  49  1   
 52  22  50  1   
 53  23  24  1   
 54  23  51  1   
 55  24  52  1   
@<TRIPOS>SUBSTRUCTURE
  1 ****  12 GROUP 4 **** **** 0

# MOE 2024.06 (io_trps.svl 2023.06)
