@<TRIPOS>MOLECULE
NONAME
46 47 1 0 0 
SMALL
USER_CHARGES


@<TRIPOS>ATOM
  1 CL       0.5840     0.2120     0.0160 Cl    1 <1>  -0.1770 
  2 C        2.1240    -0.6280     0.0080 C.ar  1 <1>   0.1770 
  3 C        2.2220    -1.8570    -0.6330 C.ar  1 <1>  -0.1440 
  4 C        3.2140    -0.0470     0.6430 C.ar  1 <1>  -0.1440 
  5 C        3.4430    -2.5140    -0.6350 C.ar  1 <1>  -0.1500 
  6 C        1.0170    -2.4790    -1.3240 C.3   1 <1>  -0.0960 
  7 C        4.4250    -0.7210     0.6290 C.ar  1 <1>  -0.1500 
  8 C        3.0960     1.2990     1.3420 C.3   1 <1>  -0.0960 
  9 C        4.5480    -1.9480    -0.0030 C.ar  1 <1>   0.0830 
 10 O        5.7730    -2.5300     0.0370 O.3   1 <1>  -0.3630 
 11 C        6.0100    -3.7900    -0.5810 C.3   1 <1>   0.1810 
 12 C        7.4560    -4.2390    -0.4060 C.2   1 <1>   0.5690 
 13 O        7.8080    -5.2650    -0.9360 O.2   1 <1>  -0.5700 
 14 N        8.3110    -3.4800     0.3310 N.am  1 <1>  -0.7300 
 15 C        9.7340    -3.7950     0.5990 C.3   1 <1>   0.1400 
 16 C       10.6310    -2.9640    -0.3170 C.3   1 <1>  -0.0170 
 17 C       12.0940    -3.2300    -0.0010 C.ar  1 <1>  -0.1430 
 18 C       12.7330    -4.3330    -0.5460 C.ar  1 <1>  -0.1500 
 19 C       12.8010    -2.3790     0.8350 C.ar  1 <1>  -0.1500 
 20 C       14.0640    -4.5810    -0.2580 C.ar  1 <1>  -0.1500 
 21 C       14.1320    -2.6250     1.1260 C.ar  1 <1>  -0.1500 
 22 C       14.7720    -3.7330     0.5770 C.ar  1 <1>   0.0830 
 23 O       16.0720    -4.0470     0.8100 O.3   1 <1>  -0.3630 
 24 C       16.8830    -3.2440     1.6370 C.3   1 <1>   0.0400 
 25 H        3.5150    -3.4630    -1.1310 H     1 <1>   0.1500 
 26 H        0.2260    -2.6340    -0.6120 H     1 <1>   0.0800 
 27 H        1.2670    -3.4260    -1.7670 H     1 <1>   0.0800 
 28 H        0.6600    -1.8240    -2.0990 H     1 <1>   0.0800 
 29 H        5.2880    -0.3000     1.1110 H     1 <1>   0.1500 
 30 H        2.7950     2.0540     0.6370 H     1 <1>   0.0800 
 31 H        4.0330     1.5930     1.7780 H     1 <1>   0.0800 
 32 H        2.3590     1.2430     2.1240 H     1 <1>   0.0800 
 33 H        5.7940    -3.7010    -1.6290 H     1 <1>   0.0800 
 34 H        5.3600    -4.5170    -0.1300 H     1 <1>   0.0800 
 35 H        7.9440    -2.6130     0.7330 H     1 <1>   0.3700 
 36 H        9.9140    -4.8430     0.4240 H     1 <1>   0.0800 
 37 H        9.9590    -3.5830     1.6290 H     1 <1>   0.0800 
 38 H       10.4170    -1.9190    -0.1860 H     1 <1>   0.0800 
 39 H       10.4330    -3.2250    -1.3420 H     1 <1>   0.0800 
 40 H       12.1980    -5.0030    -1.1970 H     1 <1>   0.1500 
 41 H       12.3180    -1.5200     1.2660 H     1 <1>   0.1500 
 42 H       14.5610    -5.4350    -0.6790 H     1 <1>   0.1500 
 43 H       14.6510    -1.9480     1.7760 H     1 <1>   0.1500 
 44 H       17.8640    -3.6820     1.6690 H     1 <1>   0.0800 
 45 H       16.4590    -3.2220     2.6250 H     1 <1>   0.0800 
 46 H       16.9370    -2.2550     1.2170 H     1 <1>   0.0800 
@<TRIPOS>BOND
  1   1   2  1   
  2   2   3  ar  
  3   2   4  ar  
  4   3   5  ar  
  5   3   6  1   
  6   4   7  ar  
  7   4   8  1   
  8   5   9  ar  
  9   5  25  1   
 10   6  26  1   
 11   6  27  1   
 12   6  28  1   
 13   7   9  ar  
 14   7  29  1   
 15   8  30  1   
 16   8  31  1   
 17   8  32  1   
 18   9  10  1   
 19  10  11  1   
 20  11  12  1   
 21  11  33  1   
 22  11  34  1   
 23  12  13  2   
 24  12  14  am  
 25  14  15  1   
 26  14  35  1   
 27  15  16  1   
 28  15  36  1   
 29  15  37  1   
 30  16  17  1   
 31  16  38  1   
 32  16  39  1   
 33  17  18  ar  
 34  17  19  ar  
 35  18  20  ar  
 36  18  40  1   
 37  19  21  ar  
 38  19  41  1   
 39  20  22  ar  
 40  20  42  1   
 41  21  22  ar  
 42  21  43  1   
 43  22  23  1   
 44  23  24  1   
 45  24  44  1   
 46  24  45  1   
 47  24  46  1   
@<TRIPOS>SUBSTRUCTURE
  1 ****  14 GROUP 4 **** **** 0

# MOE 2024.06 (io_trps.svl 2023.06)
