@<TRIPOS>MOLECULE
NONAME
38 39 1 0 0 
SMALL
USER_CHARGES


@<TRIPOS>ATOM
  1 CL       0.9140     0.4360     1.7300 Cl    1 <1>  -0.1770 
  2 C        1.3340     1.8070     0.7320 C.ar  1 <1>   0.1770 
  3 C        2.6620     2.1430     0.5660 C.ar  1 <1>  -0.1500 
  4 C        0.3250     2.5280     0.1260 C.ar  1 <1>  -0.1500 
  5 C        3.0080     3.2340    -0.2250 C.ar  1 <1>   0.1170 
  6 C        0.6530     3.6130    -0.6700 C.ar  1 <1>  -0.1500 
  7 N        4.3390     3.6340    -0.4420 N.am  1 <1>  -0.5470 
  8 C        1.9890     3.9670    -0.8500 C.ar  1 <1>   0.0830 
  9 C        5.5190     3.3130     0.1550 C.2   1 <1>   0.6900 
 10 O        2.3720     5.0250    -1.6290 O.3   1 <1>  -0.3630 
 11 O        5.5810     2.5620     1.1080 O.2   1 <1>  -0.5700 
 12 N        6.6430     3.8730    -0.3530 N.am  1 <1>  -0.7300 
 13 C        1.4200     5.8580    -2.2550 C.3   1 <1>   0.0400 
 14 C        8.0050     3.6590     0.1610 C.3   1 <1>   0.2200 
 15 C        8.6350     5.0190     0.4750 C.3   1 <1>  -0.1600 
 16 C        8.8180     2.8980    -0.8920 C.3   1 <1>  -0.1600 
 17 C       10.0990     4.8650     0.9150 C.3   1 <1>  -0.1600 
 18 C       10.2820     2.7400    -0.4550 C.3   1 <1>  -0.1600 
 19 C       10.9160     4.1010    -0.1360 C.3   1 <1>  -0.1600 
 20 H        3.4110     1.5500     1.0540 H     1 <1>   0.1500 
 21 H       -0.7000     2.2410     0.2760 H     1 <1>   0.1500 
 22 H       -0.1430     4.1600    -1.1360 H     1 <1>   0.1500 
 23 H        4.4000     4.3980    -1.1110 H     1 <1>   0.3700 
 24 H        6.5850     4.4260    -1.2030 H     1 <1>   0.3700 
 25 H        1.9470     6.6280    -2.7890 H     1 <1>   0.0800 
 26 H        0.7940     6.3030    -1.5000 H     1 <1>   0.0800 
 27 H        0.8380     5.2710    -2.9430 H     1 <1>   0.0800 
 28 H        7.9670     3.0730     1.0660 H     1 <1>   0.0800 
 29 H        8.0760     5.4950     1.2620 H     1 <1>   0.0800 
 30 H        8.5970     5.6460    -0.3990 H     1 <1>   0.0800 
 31 H        8.7880     3.4300    -1.8260 H     1 <1>   0.0800 
 32 H        8.3840     1.9250    -1.0370 H     1 <1>   0.0800 
 33 H       10.1340     4.3320     1.8500 H     1 <1>   0.0800 
 34 H       10.5320     5.8370     1.0740 H     1 <1>   0.0800 
 35 H       10.8420     2.2540    -1.2350 H     1 <1>   0.0800 
 36 H       10.3250     2.1140     0.4210 H     1 <1>   0.0800 
 37 H       11.9200     3.9550     0.2260 H     1 <1>   0.0800 
 38 H       10.9740     4.6870    -1.0370 H     1 <1>   0.0800 
@<TRIPOS>BOND
  1   1   2  1   
  2   2   3  ar  
  3   2   4  ar  
  4   3   5  ar  
  5   3  20  1   
  6   4   6  ar  
  7   4  21  1   
  8   5   7  1   
  9   5   8  ar  
 10   6   8  ar  
 11   6  22  1   
 12   7   9  am  
 13   7  23  1   
 14   8  10  1   
 15   9  11  2   
 16   9  12  am  
 17  10  13  1   
 18  12  14  1   
 19  12  24  1   
 20  13  25  1   
 21  13  26  1   
 22  13  27  1   
 23  14  15  1   
 24  14  16  1   
 25  14  28  1   
 26  15  17  1   
 27  15  29  1   
 28  15  30  1   
 29  16  18  1   
 30  16  31  1   
 31  16  32  1   
 32  17  19  1   
 33  17  33  1   
 34  17  34  1   
 35  18  19  1   
 36  18  35  1   
 37  18  36  1   
 38  19  37  1   
 39  19  38  1   
@<TRIPOS>SUBSTRUCTURE
  1 ****   9 GROUP 4 **** **** 0

# MOE 2024.06 (io_trps.svl 2023.06)
