@<TRIPOS>MOLECULE
NONAME
32 32 1 0 0 
SMALL
USER_CHARGES


@<TRIPOS>ATOM
  1 O       -0.8100     0.4100    -0.7140 O.2   1 <1>  -0.5700 
  2 C       -1.2170     1.4000    -0.1560 C.2   1 <1>   0.5690 
  3 N       -2.4340     1.3870     0.4790 N.am  1 <1>  -0.6600 
  4 C       -0.3730     2.6720    -0.1970 C.3   1 <1>  -0.0990 
  5 C       -3.2610     2.5950     0.7710 C.3   1 <1>   0.1400 
  6 C       -3.1490     0.0950     0.7130 C.3   1 <1>   0.1400 
  7 C        1.1250     2.4300    -0.4530 C.3   1 <1>  -0.2400 
  8 C       -4.5860     2.5410    -0.0220 C.3   1 <1>   0.3430 
  9 C       -4.4470     0.0490    -0.1100 C.3   1 <1>   0.3430 
 10 N       -5.3270     1.2430     0.1690 N.4   1 <1>  -0.9590 
 11 C       -6.5700     1.2100    -0.6320 C.3   1 <1>   0.4810 
 12 C       -7.4540     0.1430    -0.0310 C.2   1 <1>  -0.2880 
 13 C       -8.5230     0.3720     0.7380 C.2   1 <1>  -0.3000 
 14 H       -0.4680     3.1810     0.7450 H     1 <1>   0.0800 
 15 H       -0.7570     3.3100    -0.9700 H     1 <1>   0.0800 
 16 H       -2.7360     3.4940     0.5050 H     1 <1>   0.0800 
 17 H       -3.4680     2.6380     1.8270 H     1 <1>   0.0800 
 18 H       -3.3740    -0.0050     1.7600 H     1 <1>   0.0800 
 19 H       -2.5280    -0.7420     0.4390 H     1 <1>   0.0800 
 20 H        1.5340     1.7860     0.3060 H     1 <1>   0.0800 
 21 H        1.6630     3.3620    -0.4420 H     1 <1>   0.0800 
 22 H        1.2700     1.9610    -1.4110 H     1 <1>   0.0800 
 23 H       -4.3540     2.6700    -1.0670 H     1 <1>   0.0800 
 24 H       -5.2090     3.3670     0.2800 H     1 <1>   0.0800 
 25 H       -4.9740    -0.8610     0.1200 H     1 <1>   0.0800 
 26 H       -4.1820     0.0240    -1.1550 H     1 <1>   0.0800 
 27 H       -5.6300     1.1800     1.1500 H     1 <1>   0.4500 
 28 H       -6.3620     1.0030    -1.6700 H     1 <1>   0.0800 
 29 H       -7.0740     2.1610    -0.5620 H     1 <1>   0.0800 
 30 H       -7.1470    -0.8560    -0.2900 H     1 <1>   0.1500 
 31 H       -9.1430    -0.4090     1.1500 H     1 <1>   0.1500 
 32 H       -8.8860     1.3460     1.0260 H     1 <1>   0.1500 
@<TRIPOS>BOND
  1   1   2  2   
  2   2   3  am  
  3   2   4  1   
  4   3   5  1   
  5   3   6  1   
  6   4   7  1   
  7   4  14  1   
  8   4  15  1   
  9   5   8  1   
 10   5  16  1   
 11   5  17  1   
 12   6   9  1   
 13   6  18  1   
 14   6  19  1   
 15   7  20  1   
 16   7  21  1   
 17   7  22  1   
 18   8  10  1   
 19   8  23  1   
 20   8  24  1   
 21   9  10  1   
 22   9  25  1   
 23   9  26  1   
 24  10  11  1   
 25  10  27  1   
 26  11  12  1   
 27  11  28  1   
 28  11  29  1   
 29  12  13  2   
 30  12  30  1   
 31  13  31  1   
 32  13  32  1   
@<TRIPOS>SUBSTRUCTURE
  1 ****   3 GROUP 4 **** **** 0

# MOE 2024.06 (io_trps.svl 2023.06)
