@<TRIPOS>MOLECULE
NONAME
49 50 1 0 0 
SMALL
USER_CHARGES


@<TRIPOS>ATOM
  1 S       -0.1040     0.7390     0.1440 S.o2  1 <1>   1.4470 
  2 O        0.4900     1.2980    -1.0480 O.2   1 <1>  -0.6500 
  3 O       -0.4370     1.5840     1.2670 O.2   1 <1>  -0.6500 
  4 N        1.0900    -0.2790     0.8410 N.am  1 <1>  -0.7570 
  5 C       -1.4770    -0.3900    -0.2200 C.ar  1 <1>  -0.0090 
  6 C        2.3500    -0.4820     0.2890 C.ar  1 <1>   0.1990 
  7 C       -2.5060     0.0160    -1.0640 C.ar  1 <1>   0.0830 
  8 C       -1.5570    -1.6610     0.3430 C.ar  1 <1>  -0.1500 
  9 C        3.4500     0.1570     0.8680 C.ar  1 <1>  -0.1440 
 10 C        2.5480    -1.3230    -0.8100 C.ar  1 <1>  -0.1440 
 11 O       -2.4380     1.2710    -1.5720 O.3   1 <1>  -0.3630 
 12 C       -3.5600    -0.8460    -1.3550 C.ar  1 <1>  -0.1500 
 13 C       -2.6010    -2.5290     0.0610 C.ar  1 <1>  -0.1430 
 14 C        4.7190    -0.0500     0.3540 C.ar  1 <1>  -0.1500 
 15 C        3.2850     1.0990     2.0560 C.3   1 <1>  -0.0970 
 16 C        3.8260    -1.5120    -1.3090 C.ar  1 <1>  -0.1500 
 17 C        1.3930    -2.0510    -1.4850 C.3   1 <1>  -0.0970 
 18 C       -3.3630     1.7580    -2.5180 C.3   1 <1>   0.0400 
 19 C       -3.6030    -2.1090    -0.7970 C.ar  1 <1>  -0.1500 
 20 C       -2.6610    -3.9240     0.6790 C.3   1 <1>   0.0630 
 21 C        4.9150    -0.8820    -0.7340 C.ar  1 <1>  -0.1430 
 22 C       -2.7850    -3.8400     2.2040 C.3   1 <1>  -0.2400 
 23 C       -1.4370    -4.7550     0.2790 C.3   1 <1>  -0.2400 
 24 C        6.3100    -1.1010    -1.2920 C.3   1 <1>  -0.0970 
 25 H        1.1160    -0.0250     1.8210 H     1 <1>   0.4200 
 26 H       -0.7870    -1.9860     1.0180 H     1 <1>   0.1500 
 27 H       -4.3590    -0.5510    -2.0080 H     1 <1>   0.1500 
 28 H        5.5660     0.4410     0.7990 H     1 <1>   0.1500 
 29 H        2.5780     1.8750     1.8160 H     1 <1>   0.0800 
 30 H        4.2180     1.5680     2.3080 H     1 <1>   0.0800 
 31 H        2.9360     0.5560     2.9150 H     1 <1>   0.0800 
 32 H        3.9810    -2.1560    -2.1560 H     1 <1>   0.1500 
 33 H        0.7370    -1.3420    -1.9570 H     1 <1>   0.0800 
 34 H        0.8420    -2.6190    -0.7600 H     1 <1>   0.0800 
 35 H        1.7500    -2.7290    -2.2390 H     1 <1>   0.0800 
 36 H       -3.0630     2.7540    -2.7930 H     1 <1>   0.0800 
 37 H       -4.3410     1.7820    -2.0710 H     1 <1>   0.0800 
 38 H       -3.3460     1.1210    -3.3840 H     1 <1>   0.0800 
 39 H       -4.4250    -2.7620    -1.0330 H     1 <1>   0.1500 
 40 H       -3.5350    -4.4310     0.3070 H     1 <1>   0.0800 
 41 H       -1.9120    -3.3850     2.6360 H     1 <1>   0.0800 
 42 H       -2.9030    -4.8230     2.6230 H     1 <1>   0.0800 
 43 H       -3.6450    -3.2510     2.4680 H     1 <1>   0.0800 
 44 H       -0.5340    -4.3320     0.6830 H     1 <1>   0.0800 
 45 H       -1.3510    -4.7870    -0.7930 H     1 <1>   0.0800 
 46 H       -1.5350    -5.7610     0.6440 H     1 <1>   0.0800 
 47 H        6.9280    -0.2410    -1.1090 H     1 <1>   0.0800 
 48 H        6.2670    -1.2660    -2.3540 H     1 <1>   0.0800 
 49 H        6.7580    -1.9580    -0.8240 H     1 <1>   0.0800 
@<TRIPOS>BOND
  1   1   2  2   
  2   1   3  2   
  3   1   4  am  
  4   1   5  1   
  5   4   6  1   
  6   4  25  1   
  7   5   7  ar  
  8   5   8  ar  
  9   6   9  ar  
 10   6  10  ar  
 11   7  11  1   
 12   7  12  ar  
 13   8  13  ar  
 14   8  26  1   
 15   9  14  ar  
 16   9  15  1   
 17  10  16  ar  
 18  10  17  1   
 19  11  18  1   
 20  12  19  ar  
 21  12  27  1   
 22  13  19  ar  
 23  13  20  1   
 24  14  21  ar  
 25  14  28  1   
 26  15  29  1   
 27  15  30  1   
 28  15  31  1   
 29  16  21  ar  
 30  16  32  1   
 31  17  33  1   
 32  17  34  1   
 33  17  35  1   
 34  18  36  1   
 35  18  37  1   
 36  18  38  1   
 37  19  39  1   
 38  20  22  1   
 39  20  23  1   
 40  20  40  1   
 41  21  24  1   
 42  22  41  1   
 43  22  42  1   
 44  22  43  1   
 45  23  44  1   
 46  23  45  1   
 47  23  46  1   
 48  24  47  1   
 49  24  48  1   
 50  24  49  1   
@<TRIPOS>SUBSTRUCTURE
  1 ****   4 GROUP 4 **** **** 0

# MOE 2024.06 (io_trps.svl 2023.06)
