@<TRIPOS>MOLECULE
NONAME
28 28 1 0 0 
SMALL
USER_CHARGES


@<TRIPOS>ATOM
  1 BR       0.4780     0.0270     0.0260 Br    1 <1>  -0.1110 
  2 C        0.0280    -1.8440     0.0160 C.ar  1 <1>   0.1110 
  3 C       -1.2990    -2.2070    -0.0950 C.ar  1 <1>  -0.1500 
  4 C        1.0490    -2.7710     0.1170 C.ar  1 <1>  -0.1500 
  5 C       -1.6160    -3.5610    -0.0990 C.ar  1 <1>   0.0830 
  6 C        0.7250    -4.1170     0.1040 C.ar  1 <1>  -0.1500 
  7 O       -2.8890    -4.0240    -0.2130 O.3   1 <1>  -0.2330 
  8 C       -0.6020    -4.5060    -0.0060 C.ar  1 <1>  -0.1500 
  9 C       -3.9970    -3.4590     0.2720 C.2   1 <1>   0.8700 
 10 O       -3.9970    -2.4600     0.9600 O.2   1 <1>  -0.5700 
 11 O       -5.1240    -4.0850    -0.0510 O.3   1 <1>  -0.4300 
 12 C       -6.3750    -3.6100     0.4020 C.3   1 <1>   0.1200 
 13 C       -7.4890    -4.5430    -0.0960 C.3   1 <1>  -0.0800 
 14 C       -8.8590    -4.0020     0.3310 C.3   1 <1>  -0.2400 
 15 C       -7.3120    -5.9750     0.4310 C.3   1 <1>  -0.2400 
 16 H       -2.0520    -1.4450    -0.1790 H     1 <1>   0.1500 
 17 H        2.0710    -2.4450     0.2020 H     1 <1>   0.1500 
 18 H        1.5010    -4.8590     0.1780 H     1 <1>   0.1500 
 19 H       -0.8540    -5.5520    -0.0180 H     1 <1>   0.1500 
 20 H       -6.5140    -2.6130     0.0200 H     1 <1>   0.0800 
 21 H       -6.3560    -3.5790     1.4790 H     1 <1>   0.0800 
 22 H       -7.4570    -4.5600    -1.1730 H     1 <1>   0.0800 
 23 H       -8.9370    -3.9660     1.4040 H     1 <1>   0.0800 
 24 H       -9.6440    -4.6320    -0.0480 H     1 <1>   0.0800 
 25 H       -9.0080    -3.0100    -0.0580 H     1 <1>   0.0800 
 26 H       -7.3210    -5.9880     1.5070 H     1 <1>   0.0800 
 27 H       -6.3790    -6.3880     0.0910 H     1 <1>   0.0800 
 28 H       -8.1060    -6.6060     0.0720 H     1 <1>   0.0800 
@<TRIPOS>BOND
  1   1   2  1   
  2   2   3  ar  
  3   2   4  ar  
  4   3   5  ar  
  5   3  16  1   
  6   4   6  ar  
  7   4  17  1   
  8   5   7  1   
  9   5   8  ar  
 10   6   8  ar  
 11   6  18  1   
 12   7   9  1   
 13   8  19  1   
 14   9  10  2   
 15   9  11  1   
 16  11  12  1   
 17  12  13  1   
 18  12  20  1   
 19  12  21  1   
 20  13  14  1   
 21  13  15  1   
 22  13  22  1   
 23  14  23  1   
 24  14  24  1   
 25  14  25  1   
 26  15  26  1   
 27  15  27  1   
 28  15  28  1   
@<TRIPOS>SUBSTRUCTURE
  1 ****   7 GROUP 4 **** **** 0

# MOE 2024.06 (io_trps.svl 2023.06)
