@<TRIPOS>MOLECULE
NONAME
30 30 1 0 0 
SMALL
USER_CHARGES


@<TRIPOS>ATOM
  1 O       -0.6120    -3.0290    -1.6480 O.2   1 <1>  -0.5700 
  2 C       -0.1870    -2.4080    -0.6990 C.2   1 <1>   0.6900 
  3 N       -0.9560    -1.5740     0.0180 N.am  1 <1>  -0.7300 
  4 N        1.0890    -2.5550    -0.3430 N.am  1 <1>  -0.8000 
  5 C       -2.3110    -1.1840    -0.3830 C.3   1 <1>   0.3640 
  6 C       -2.5230     0.2590     0.0680 C.ar  1 <1>  -0.1440 
  7 C       -3.3240    -2.1650     0.2250 C.3   1 <1>  -0.1600 
  8 C       -2.7150     1.2540    -0.8800 C.ar  1 <1>  -0.1500 
  9 C       -2.5220     0.6020     1.4140 C.ar  1 <1>  -0.1500 
 10 C       -4.7770    -1.8190    -0.1390 C.3   1 <1>  -0.1600 
 11 C       -2.9050     2.5690    -0.4900 C.ar  1 <1>  -0.1500 
 12 C       -2.7120     1.9160     1.8050 C.ar  1 <1>  -0.1500 
 13 C       -5.7500    -2.8500     0.4390 C.3   1 <1>  -0.2400 
 14 C       -2.9040     2.9010     0.8520 C.ar  1 <1>  -0.1500 
 15 H       -0.4930    -0.8660     0.5800 H     1 <1>   0.3700 
 16 H        1.6310    -3.2610    -0.8370 H     1 <1>   0.3700 
 17 H        1.4220    -2.2820     0.5760 H     1 <1>   0.3700 
 18 H       -2.3860    -1.2370    -1.4580 H     1 <1>   0.0800 
 19 H       -3.2180    -2.1790     1.2950 H     1 <1>   0.0800 
 20 H       -3.1000    -3.1500    -0.1460 H     1 <1>   0.0800 
 21 H       -2.7150     1.0110    -1.9280 H     1 <1>   0.1500 
 22 H       -2.3750    -0.1530     2.1660 H     1 <1>   0.1500 
 23 H       -4.8840    -1.7930    -1.2100 H     1 <1>   0.0800 
 24 H       -5.0300    -0.8450     0.2440 H     1 <1>   0.0800 
 25 H       -3.0530     3.3340    -1.2330 H     1 <1>   0.1500 
 26 H       -2.7120     2.1730     2.8500 H     1 <1>   0.1500 
 27 H       -5.5340    -3.8300     0.0510 H     1 <1>   0.0800 
 28 H       -6.7600    -2.5920     0.1740 H     1 <1>   0.0800 
 29 H       -5.6750    -2.8780     1.5120 H     1 <1>   0.0800 
 30 H       -3.0520     3.9230     1.1550 H     1 <1>   0.1500 
@<TRIPOS>BOND
  1   1   2  2   
  2   2   3  am  
  3   2   4  am  
  4   3   5  1   
  5   3  15  1   
  6   4  16  1   
  7   4  17  1   
  8   5   6  1   
  9   5   7  1   
 10   5  18  1   
 11   6   8  ar  
 12   6   9  ar  
 13   7  10  1   
 14   7  19  1   
 15   7  20  1   
 16   8  11  ar  
 17   8  21  1   
 18   9  12  ar  
 19   9  22  1   
 20  10  13  1   
 21  10  23  1   
 22  10  24  1   
 23  11  14  ar  
 24  11  25  1   
 25  12  14  ar  
 26  12  26  1   
 27  13  27  1   
 28  13  28  1   
 29  13  29  1   
 30  14  30  1   
@<TRIPOS>SUBSTRUCTURE
  1 ****   5 GROUP 4 **** **** 0

# MOE 2024.06 (io_trps.svl 2023.06)
