@<TRIPOS>MOLECULE
NONAME
44 46 1 0 0 
SMALL
USER_CHARGES


@<TRIPOS>ATOM
  1 CL       0.8380    -0.1550     1.6210 Cl    1 <1>  -0.1770 
  2 C        2.2330    -0.9350     0.9210 C.ar  1 <1>   0.1770 
  3 C        2.4600    -0.8270    -0.4380 C.ar  1 <1>  -0.1500 
  4 C        3.0920    -1.6470     1.7370 C.ar  1 <1>  -0.1500 
  5 C        3.5680    -1.4470    -0.9910 C.ar  1 <1>  -0.1500 
  6 C        4.1990    -2.2640     1.1790 C.ar  1 <1>  -0.1500 
  7 C        4.4390    -2.1700    -0.1860 C.ar  1 <1>  -0.1430 
  8 C        5.6570    -2.8460    -0.7960 C.3   1 <1>   0.2840 
  9 N        6.7870    -1.9020    -0.7920 N.am  1 <1>  -0.4200 
 10 C        7.6320    -1.7310     0.2540 C.2   1 <1>   0.5690 
 11 C        7.0000    -0.9780    -1.7560 C.2   1 <1>   0.5690 
 12 O        7.5700    -2.3480     1.2920 O.2   1 <1>  -0.5700 
 13 C        8.6260    -0.5880    -0.0330 C.3   1 <1>   0.2510 
 14 O        6.3840    -0.8870    -2.7860 O.2   1 <1>  -0.5700 
 15 C        8.1130    -0.0350    -1.3780 C.3   1 <1>  -0.0990 
 16 N       10.0740    -0.9430    -0.1780 N.3   1 <1>  -0.8100 
 17 C       10.5350    -1.8850     0.8620 C.3   1 <1>   0.1100 
 18 C       10.9040     0.2780    -0.1740 C.3   1 <1>   0.1100 
 19 C       11.9850    -2.2990     0.6000 C.3   1 <1>  -0.1600 
 20 C       12.3580    -0.0700    -0.4940 C.3   1 <1>  -0.1600 
 21 C       12.9160    -1.0780     0.5240 C.3   1 <1>  -0.0190 
 22 C       14.3580    -1.4640     0.2120 C.2   1 <1>   0.5690 
 23 O       15.2360    -1.1630     0.9780 O.2   1 <1>  -0.5700 
 24 N       14.6560    -2.1360    -0.9160 N.am  1 <1>  -0.8000 
 25 H        1.7790    -0.2650    -1.0510 H     1 <1>   0.1500 
 26 H        2.8970    -1.7130     2.7920 H     1 <1>   0.1500 
 27 H        3.7530    -1.3600    -2.0490 H     1 <1>   0.1500 
 28 H        4.8770    -2.8140     1.8120 H     1 <1>   0.1500 
 29 H        5.4460    -3.1480    -1.8080 H     1 <1>   0.0800 
 30 H        5.9190    -3.7230    -0.2300 H     1 <1>   0.0800 
 31 H        8.5090     0.1470     0.7450 H     1 <1>   0.0800 
 32 H        7.7140     0.9550    -1.2620 H     1 <1>   0.0800 
 33 H        8.8620    -0.0500    -2.1470 H     1 <1>   0.0800 
 34 H        9.9380    -2.7800     0.8460 H     1 <1>   0.0800 
 35 H       10.4450    -1.4340     1.8370 H     1 <1>   0.0800 
 36 H       10.8480     0.7560     0.7900 H     1 <1>   0.0800 
 37 H       10.5500     0.9730    -0.9150 H     1 <1>   0.0800 
 38 H       12.0180    -2.8530    -0.3210 H     1 <1>   0.0800 
 39 H       12.3150    -2.9520     1.3890 H     1 <1>   0.0800 
 40 H       12.9530     0.8260    -0.4720 H     1 <1>   0.0800 
 41 H       12.4070    -0.4750    -1.4890 H     1 <1>   0.0800 
 42 H       12.9170    -0.6050     1.4900 H     1 <1>   0.0800 
 43 H       15.6260    -2.3880    -1.1070 H     1 <1>   0.3700 
 44 H       13.9580    -2.4170    -1.6040 H     1 <1>   0.3700 
@<TRIPOS>BOND
  1   1   2  1   
  2   2   3  ar  
  3   2   4  ar  
  4   3   5  ar  
  5   3  25  1   
  6   4   6  ar  
  7   4  26  1   
  8   5   7  ar  
  9   5  27  1   
 10   6   7  ar  
 11   6  28  1   
 12   7   8  1   
 13   8   9  1   
 14   8  29  1   
 15   8  30  1   
 16   9  10  am  
 17   9  11  am  
 18  10  12  2   
 19  10  13  1   
 20  11  14  2   
 21  11  15  1   
 22  13  15  1   
 23  13  16  1   
 24  13  31  1   
 25  15  32  1   
 26  15  33  1   
 27  16  17  1   
 28  16  18  1   
 29  17  19  1   
 30  17  34  1   
 31  17  35  1   
 32  18  20  1   
 33  18  36  1   
 34  18  37  1   
 35  19  21  1   
 36  19  38  1   
 37  19  39  1   
 38  20  21  1   
 39  20  40  1   
 40  20  41  1   
 41  21  22  1   
 42  21  42  1   
 43  22  23  2   
 44  22  24  am  
 45  24  43  1   
 46  24  44  1   
@<TRIPOS>SUBSTRUCTURE
  1 ****  10 GROUP 4 **** **** 0

# MOE 2024.06 (io_trps.svl 2023.06)
