@<TRIPOS>MOLECULE
NONAME
43 44 1 0 0 
SMALL
USER_CHARGES


@<TRIPOS>ATOM
  1 S       -0.1200     0.1190    -0.0870 S.o2  1 <1>   1.3330 
  2 O       -0.5110     0.4700    -1.4350 O.2   1 <1>  -0.6500 
  3 O       -0.1690     1.1160     0.9590 O.2   1 <1>  -0.6500 
  4 N        1.4650    -0.4730    -0.1590 N.am  1 <1>  -0.8490 
  5 C       -1.0560    -1.3130     0.4600 C.3   1 <1>  -0.0550 
  6 C        1.7590    -1.1790    -1.4080 C.3   1 <1>   0.1960 
  7 C        2.4460     0.5990     0.0790 C.3   1 <1>   0.1960 
  8 C       -2.5620    -1.0460     0.6190 C.3   1 <1>  -0.1600 
  9 C        3.0630    -1.9780    -1.2650 C.3   1 <1>  -0.1600 
 10 C        3.8900     0.1590    -0.2210 C.3   1 <1>  -0.1600 
 11 C       -3.3050    -2.3020     1.0860 C.3   1 <1>  -0.2400 
 12 C        4.0390    -1.3720    -0.2330 C.3   1 <1>  -0.0190 
 13 C        5.4780    -1.8150    -0.4850 C.2   1 <1>   0.5690 
 14 O        6.0460    -1.4090    -1.4700 O.2   1 <1>  -0.5700 
 15 N        6.0480    -2.6630     0.4240 N.am  1 <1>  -0.5470 
 16 C        7.3230    -3.2630     0.5060 C.ar  1 <1>   0.1170 
 17 C        7.5940    -4.1550     1.5440 C.ar  1 <1>   0.1900 
 18 C        8.3580    -3.0230    -0.3950 C.ar  1 <1>  -0.1500 
 19 F        6.6490    -4.4100     2.4180 F     1 <1>  -0.1900 
 20 C        8.8110    -4.7880     1.7040 C.ar  1 <1>  -0.1500 
 21 C        9.5880    -3.6480    -0.2540 C.ar  1 <1>  -0.1500 
 22 C        9.8190    -4.5290     0.7910 C.ar  1 <1>  -0.1500 
 23 H       -0.6610    -1.6400     1.4020 H     1 <1>   0.0800 
 24 H       -0.9210    -2.1090    -0.2450 H     1 <1>   0.0800 
 25 H        1.8520    -0.4620    -2.2090 H     1 <1>   0.0800 
 26 H        0.9560    -1.8510    -1.6620 H     1 <1>   0.0800 
 27 H        2.3770     0.8980     1.1120 H     1 <1>   0.0800 
 28 H        2.2050     1.4590    -0.5260 H     1 <1>   0.0800 
 29 H       -2.9680    -0.7170    -0.3230 H     1 <1>   0.0800 
 30 H       -2.7100    -0.2540     1.3360 H     1 <1>   0.0800 
 31 H        3.5310    -2.0200    -2.2340 H     1 <1>   0.0800 
 32 H        2.8320    -2.9890    -0.9810 H     1 <1>   0.0800 
 33 H        4.5520     0.5930     0.5070 H     1 <1>   0.0800 
 34 H        4.1780     0.5490    -1.1820 H     1 <1>   0.0800 
 35 H       -3.1920    -3.0970     0.3710 H     1 <1>   0.0800 
 36 H       -4.3540    -2.0870     1.1920 H     1 <1>   0.0800 
 37 H       -2.9290    -2.6320     2.0380 H     1 <1>   0.0800 
 38 H        3.7430    -1.7220     0.7410 H     1 <1>   0.0800 
 39 H        5.4380    -2.9350     1.1960 H     1 <1>   0.3700 
 40 H        8.2190    -2.3460    -1.2170 H     1 <1>   0.1500 
 41 H        8.9650    -5.4670     2.5230 H     1 <1>   0.1500 
 42 H       10.3710    -3.4460    -0.9650 H     1 <1>   0.1500 
 43 H       10.7780    -5.0090     0.8920 H     1 <1>   0.1500 
@<TRIPOS>BOND
  1   1   2  2   
  2   1   3  2   
  3   1   4  am  
  4   1   5  1   
  5   4   6  1   
  6   4   7  1   
  7   5   8  1   
  8   5  23  1   
  9   5  24  1   
 10   6   9  1   
 11   6  25  1   
 12   6  26  1   
 13   7  10  1   
 14   7  27  1   
 15   7  28  1   
 16   8  11  1   
 17   8  29  1   
 18   8  30  1   
 19   9  12  1   
 20   9  31  1   
 21   9  32  1   
 22  10  12  1   
 23  10  33  1   
 24  10  34  1   
 25  11  35  1   
 26  11  36  1   
 27  11  37  1   
 28  12  13  1   
 29  12  38  1   
 30  13  14  2   
 31  13  15  am  
 32  15  16  1   
 33  15  39  1   
 34  16  17  ar  
 35  16  18  ar  
 36  17  19  1   
 37  17  20  ar  
 38  18  21  ar  
 39  18  40  1   
 40  20  22  ar  
 41  20  41  1   
 42  21  22  ar  
 43  21  42  1   
 44  22  43  1   
@<TRIPOS>SUBSTRUCTURE
  1 ****  12 GROUP 4 **** **** 0

# MOE 2024.06 (io_trps.svl 2023.06)
