@<TRIPOS>MOLECULE
NONAME
58 62 1 0 0 
SMALL
USER_CHARGES


@<TRIPOS>ATOM
  1 O        0.4810    -1.9690     2.3880 O.2   1 <1>  -0.5740 
  2 C        1.0220    -2.7990     1.6870 C.2   1 <1>   0.6870 
  3 N        0.2630    -3.7720     1.0430 N.am  1 <1>  -0.4250 
  4 N        2.4010    -2.7650     1.5200 N.am  1 <1>  -0.4410 
  5 C        0.8450    -4.6790     0.1690 C.2   1 <1>   0.7000 
  6 C       -1.2130    -3.8260     1.2780 C.3   1 <1>   0.1340 
  7 C        2.9730    -3.6740     0.6530 C.2   1 <1>   0.4210 
  8 C        3.2320    -1.7420     2.2220 C.3   1 <1>   0.0530 
  9 O        0.1730    -5.5030    -0.4290 O.2   1 <1>  -0.5740 
 10 C        2.2610    -4.6130    -0.0140 C.2   1 <1>   0.2710 
 11 C       -1.9460    -2.9070     0.2950 C.3   1 <1>   0.1030 
 12 N        4.2930    -3.8070     0.3210 N.pl3 1 <1>  -0.7030 
 13 N        3.1970    -5.3310    -0.7640 N.pl3 1 <1>  -0.7670 
 14 N       -3.4000    -3.0490     0.4390 N.3   1 <1>  -0.8120 
 15 C        4.3830    -4.8230    -0.5250 C.cat 1 <1>   1.0690 
 16 C        3.2630    -6.4890    -1.6700 C.3   1 <1>   0.3490 
 17 C       -3.9160    -4.2510    -0.2530 C.3   1 <1>   0.1030 
 18 C       -4.0980    -1.8580    -0.0830 C.3   1 <1>   0.1030 
 19 N        5.3750    -5.4380    -1.1750 N.pl3 1 <1>  -0.5790 
 20 C        4.7810    -6.5640    -1.9650 C.3   1 <1>   0.1610 
 21 C       -5.4500    -4.3380    -0.1480 C.3   1 <1>   0.1140 
 22 C       -5.6260    -2.0170     0.0180 C.3   1 <1>   0.1140 
 23 C        6.7610    -5.1750    -1.1150 C.ar  1 <1>   0.3060 
 24 O       -6.0460    -3.1750    -0.6460 O.3   1 <1>  -0.5640 
 25 C        7.4280    -4.9150     0.0940 C.ar  1 <1>   0.0760 
 26 C        7.4950    -5.1700    -2.2960 C.ar  1 <1>  -0.1560 
 27 O        6.7080    -4.9280     1.2560 O.3   1 <1>  -0.3680 
 28 C        8.7950    -4.6560     0.0900 C.ar  1 <1>  -0.1560 
 29 C        8.8540    -4.9150    -2.2910 C.ar  1 <1>  -0.1560 
 30 C        7.3520    -5.1060     2.5040 C.3   1 <1>   0.0330 
 31 C        9.5020    -4.6570    -1.0980 C.ar  1 <1>  -0.1560 
 32 H       -1.4380    -3.5140     2.2830 H     1 <1>   0.0730 
 33 H       -1.5590    -4.8370     1.1650 H     1 <1>   0.0730 
 34 H        2.7360    -1.4010     3.1150 H     1 <1>   0.0730 
 35 H        3.3920    -0.8980     1.5730 H     1 <1>   0.0730 
 36 H        4.1810    -2.1600     2.5070 H     1 <1>   0.0730 
 37 H       -1.6600    -3.1310    -0.7190 H     1 <1>   0.0730 
 38 H       -1.6660    -1.8910     0.5190 H     1 <1>   0.0730 
 39 H        5.1150    -3.3500     0.7140 H     1 <1>   0.4450 
 40 H        2.6920    -6.3100    -2.5660 H     1 <1>   0.0730 
 41 H        2.9100    -7.3820    -1.1810 H     1 <1>   0.0730 
 42 H       -3.4910    -5.1360     0.1850 H     1 <1>   0.0730 
 43 H       -3.6420    -4.2250    -1.2930 H     1 <1>   0.0730 
 44 H       -3.8320    -1.6960    -1.1140 H     1 <1>   0.0730 
 45 H       -3.8000    -0.9930     0.4830 H     1 <1>   0.0730 
 46 H        4.9670    -6.4360    -3.0180 H     1 <1>   0.0730 
 47 H        5.1880    -7.5070    -1.6410 H     1 <1>   0.0730 
 48 H       -5.7500    -4.4670     0.8770 H     1 <1>   0.0730 
 49 H       -5.8160    -5.1670    -0.7260 H     1 <1>   0.0730 
 50 H       -6.1190    -1.1790    -0.4400 H     1 <1>   0.0730 
 51 H       -5.9300    -2.0810     1.0480 H     1 <1>   0.0730 
 52 H        7.0130    -5.3590    -3.2360 H     1 <1>   0.1440 
 53 H        9.3350    -4.4470     0.9950 H     1 <1>   0.1440 
 54 H        9.4110    -4.9140    -3.2140 H     1 <1>   0.1440 
 55 H        6.5980    -5.2610     3.2550 H     1 <1>   0.0730 
 56 H        7.9210    -4.2240     2.7380 H     1 <1>   0.0730 
 57 H        7.9920    -5.9700     2.4500 H     1 <1>   0.0730 
 58 H       10.5620    -4.4570    -1.0960 H     1 <1>   0.1440 
@<TRIPOS>BOND
  1   1   2  2   
  2   2   3  am  
  3   2   4  am  
  4   3   5  am  
  5   3   6  1   
  6   4   7  1   
  7   4   8  1   
  8   5   9  2   
  9   5  10  1   
 10   6  11  1   
 11   6  32  1   
 12   6  33  1   
 13   7  10  2   
 14   7  12  1   
 15   8  34  1   
 16   8  35  1   
 17   8  36  1   
 18  10  13  1   
 19  11  14  1   
 20  11  37  1   
 21  11  38  1   
 22  12  15  ar  
 23  12  39  1   
 24  13  15  ar  
 25  13  16  1   
 26  14  17  1   
 27  14  18  1   
 28  15  19  ar  
 29  16  20  1   
 30  16  40  1   
 31  16  41  1   
 32  17  21  1   
 33  17  42  1   
 34  17  43  1   
 35  18  22  1   
 36  18  44  1   
 37  18  45  1   
 38  19  20  1   
 39  19  23  1   
 40  20  46  1   
 41  20  47  1   
 42  21  24  1   
 43  21  48  1   
 44  21  49  1   
 45  22  24  1   
 46  22  50  1   
 47  22  51  1   
 48  23  25  ar  
 49  23  26  ar  
 50  25  27  1   
 51  25  28  ar  
 52  26  29  ar  
 53  26  52  1   
 54  27  30  1   
 55  28  31  ar  
 56  28  53  1   
 57  29  31  ar  
 58  29  54  1   
 59  30  55  1   
 60  30  56  1   
 61  30  57  1   
 62  31  58  1   
@<TRIPOS>SUBSTRUCTURE
  1 ****  10 GROUP 4 **** **** 0

# MOE 2024.06 (io_trps.svl 2023.06)
