@<TRIPOS>MOLECULE
NONAME
48 49 1 0 0 
SMALL
USER_CHARGES


@<TRIPOS>ATOM
  1 O        2.4390    -1.6370    -1.4390 O.2   1 <1>  -0.5700 
  2 C        2.0070    -1.2190    -0.3920 C.2   1 <1>   0.5690 
  3 N        1.9770     0.1030    -0.0920 N.am  1 <1>  -0.7300 
  4 C        1.4760    -2.2250     0.6260 C.3   1 <1>  -0.0190 
  5 C        2.4520     1.1750    -0.9760 C.3   1 <1>   0.2200 
  6 C        2.5790    -3.2230     1.0320 C.3   1 <1>  -0.1600 
  7 C        0.2550    -2.9750     0.0610 C.3   1 <1>  -0.1600 
  8 C        3.5690     1.9240    -0.2590 C.3   1 <1>  -0.2400 
  9 C        1.2760     2.0940    -1.2840 C.3   1 <1>  -0.2400 
 10 C        2.0550    -4.3300     1.9430 C.3   1 <1>   0.3430 
 11 C       -0.2260    -4.0860     0.9910 C.3   1 <1>   0.3430 
 12 N        0.9090    -5.0030     1.2820 N.4   1 <1>  -0.9590 
 13 C        0.4810    -6.2330     1.9950 C.3   1 <1>   0.4860 
 14 C       -0.4610    -7.0110     1.0960 C.ar  1 <1>  -0.1440 
 15 C       -0.0380    -7.4430    -0.1590 C.ar  1 <1>   0.0820 
 16 C       -1.7480    -7.2940     1.5270 C.ar  1 <1>  -0.1500 
 17 O        1.2320    -7.1330    -0.5380 O.3   1 <1>  -0.3620 
 18 C       -0.9170    -8.1540    -0.9720 C.ar  1 <1>  -0.1500 
 19 C       -2.6160    -8.0000     0.7130 C.ar  1 <1>  -0.1500 
 20 C        1.7800    -7.6270    -1.7440 C.3   1 <1>   0.0400 
 21 C       -2.2000    -8.4290    -0.5340 C.ar  1 <1>  -0.1500 
 22 H        1.6070     0.4330     0.7970 H     1 <1>   0.3700 
 23 H        1.1670    -1.6860     1.5050 H     1 <1>   0.0800 
 24 H        2.8320     0.7560    -1.8960 H     1 <1>   0.0800 
 25 H        3.3700    -2.6950     1.5350 H     1 <1>   0.0800 
 26 H        3.0080    -3.6720     0.1520 H     1 <1>   0.0800 
 27 H        0.5000    -3.4050    -0.8960 H     1 <1>   0.0800 
 28 H       -0.5490    -2.2780    -0.1020 H     1 <1>   0.0800 
 29 H        3.2160     2.3580     0.6590 H     1 <1>   0.0800 
 30 H        3.9400     2.7120    -0.8890 H     1 <1>   0.0800 
 31 H        4.3830     1.2530    -0.0490 H     1 <1>   0.0800 
 32 H        0.8820     2.5320    -0.3840 H     1 <1>   0.0800 
 33 H        0.5000     1.5420    -1.7840 H     1 <1>   0.0800 
 34 H        1.5950     2.8860    -1.9370 H     1 <1>   0.0800 
 35 H        1.7400    -3.9100     2.8840 H     1 <1>   0.0800 
 36 H        2.8440    -5.0410     2.1310 H     1 <1>   0.0800 
 37 H       -1.0270    -4.6280     0.5130 H     1 <1>   0.0800 
 38 H       -0.6000    -3.6610     1.9080 H     1 <1>   0.0800 
 39 H        1.2340    -5.3680     0.3680 H     1 <1>   0.4500 
 40 H       -0.0080    -5.9810     2.9210 H     1 <1>   0.0800 
 41 H        1.3380    -6.8490     2.2120 H     1 <1>   0.0800 
 42 H       -2.0930    -6.9750     2.4960 H     1 <1>   0.1500 
 43 H       -0.6290    -8.5020    -1.9460 H     1 <1>   0.1500 
 44 H       -3.6160    -8.2210     1.0480 H     1 <1>   0.1500 
 45 H        1.2180    -7.2350    -2.5740 H     1 <1>   0.0800 
 46 H        1.7440    -8.7030    -1.7320 H     1 <1>   0.0800 
 47 H        2.8030    -7.3000    -1.8130 H     1 <1>   0.0800 
 48 H       -2.8780    -8.9800    -1.1650 H     1 <1>   0.1500 
@<TRIPOS>BOND
  1   1   2  2   
  2   2   3  am  
  3   2   4  1   
  4   3   5  1   
  5   3  22  1   
  6   4   6  1   
  7   4   7  1   
  8   4  23  1   
  9   5   8  1   
 10   5   9  1   
 11   5  24  1   
 12   6  10  1   
 13   6  25  1   
 14   6  26  1   
 15   7  11  1   
 16   7  27  1   
 17   7  28  1   
 18   8  29  1   
 19   8  30  1   
 20   8  31  1   
 21   9  32  1   
 22   9  33  1   
 23   9  34  1   
 24  10  12  1   
 25  10  35  1   
 26  10  36  1   
 27  11  12  1   
 28  11  37  1   
 29  11  38  1   
 30  12  13  1   
 31  12  39  1   
 32  13  14  1   
 33  13  40  1   
 34  13  41  1   
 35  14  15  ar  
 36  14  16  ar  
 37  15  17  1   
 38  15  18  ar  
 39  16  19  ar  
 40  16  42  1   
 41  17  20  1   
 42  18  21  ar  
 43  18  43  1   
 44  19  21  ar  
 45  19  44  1   
 46  20  45  1   
 47  20  46  1   
 48  20  47  1   
 49  21  48  1   
@<TRIPOS>SUBSTRUCTURE
  1 ****   7 GROUP 4 **** **** 0

# MOE 2024.06 (io_trps.svl 2023.06)
