@<TRIPOS>MOLECULE
NONAME
46 47 1 0 0 
SMALL
USER_CHARGES


@<TRIPOS>ATOM
  1 CL       0.7120    -3.5940    -2.3070 Cl    1 <1>  -0.1770 
  2 C        1.6350    -2.7210    -1.1030 C.ar  1 <1>   0.1770 
  3 C        1.0440    -2.3600     0.1130 C.ar  1 <1>   0.1990 
  4 C        2.9500    -2.4090    -1.4010 C.ar  1 <1>  -0.1500 
  5 N       -0.2830    -2.6590     0.4330 N.am  1 <1>  -0.6930 
  6 C        1.8280    -1.6770     1.0370 C.ar  1 <1>  -0.1500 
  7 C        3.7130    -1.7210    -0.4720 C.ar  1 <1>  -0.1500 
  8 S       -0.6450    -4.0590     1.3820 S.o2  1 <1>   1.3330 
  9 C       -1.4140    -1.6960     0.2020 C.3   1 <1>   0.3370 
 10 C        3.1400    -1.3650     0.7360 C.ar  1 <1>   0.1770 
 11 O        0.5890    -4.4680     2.0060 O.2   1 <1>  -0.6500 
 12 O       -1.7850    -3.7230     2.2000 O.2   1 <1>  -0.6500 
 13 C       -1.1040    -5.2960     0.1850 C.3   1 <1>  -0.1350 
 14 C       -2.6510    -2.3470    -0.4750 C.2   1 <1>   0.5690 
 15 C       -0.9550    -0.4770    -0.6160 C.3   1 <1>  -0.2400 
 16 CL       4.0990    -0.4970     1.9070 Cl    1 <1>  -0.1770 
 17 O       -2.4770    -2.8490    -1.5650 O.2   1 <1>  -0.5700 
 18 N       -3.9070    -2.3580     0.0970 N.am  1 <1>  -0.6600 
 19 C       -4.2480    -1.9930     1.5040 C.3   1 <1>   0.1400 
 20 C       -5.0980    -2.8070    -0.6790 C.3   1 <1>   0.1400 
 21 C       -5.2630    -0.8470     1.5000 C.3   1 <1>  -0.1600 
 22 C       -6.1370    -1.6820    -0.7140 C.3   1 <1>  -0.1600 
 23 C       -6.5230    -1.2180     0.7010 C.3   1 <1>  -0.0800 
 24 C       -7.4930    -0.0340     0.6360 C.3   1 <1>  -0.2400 
 25 H        3.3680    -2.7030    -2.3480 H     1 <1>   0.1500 
 26 H        1.4150    -1.3980     1.9880 H     1 <1>   0.1500 
 27 H        4.7380    -1.4640    -0.6760 H     1 <1>   0.1500 
 28 H       -1.6960    -1.3190     1.1630 H     1 <1>   0.0800 
 29 H       -0.3060    -5.4540    -0.5110 H     1 <1>   0.0800 
 30 H       -1.9800    -4.9990    -0.3560 H     1 <1>   0.0800 
 31 H       -1.3120    -6.2230     0.6810 H     1 <1>   0.0800 
 32 H       -0.6110    -0.7860    -1.5870 H     1 <1>   0.0800 
 33 H       -0.1790     0.0630    -0.1050 H     1 <1>   0.0800 
 34 H       -1.7870     0.1900    -0.7560 H     1 <1>   0.0800 
 35 H       -3.3860    -1.7090     2.0760 H     1 <1>   0.0800 
 36 H       -4.6770    -2.8540     1.9880 H     1 <1>   0.0800 
 37 H       -5.5160    -3.6810    -0.2090 H     1 <1>   0.0800 
 38 H       -4.8270    -3.0710    -1.6880 H     1 <1>   0.0800 
 39 H       -4.8000     0.0270     1.0760 H     1 <1>   0.0800 
 40 H       -5.5350    -0.6160     2.5150 H     1 <1>   0.0800 
 41 H       -7.0130    -2.0300    -1.2320 H     1 <1>   0.0800 
 42 H       -5.7310    -0.8580    -1.2750 H     1 <1>   0.0800 
 43 H       -7.0160    -2.0350     1.2030 H     1 <1>   0.0800 
 44 H       -7.0370     0.8050     0.1390 H     1 <1>   0.0800 
 45 H       -7.7790     0.2690     1.6280 H     1 <1>   0.0800 
 46 H       -8.3820    -0.3090     0.0980 H     1 <1>   0.0800 
@<TRIPOS>BOND
  1   1   2  1   
  2   2   3  ar  
  3   2   4  ar  
  4   3   5  1   
  5   3   6  ar  
  6   4   7  ar  
  7   4  25  1   
  8   5   8  am  
  9   5   9  1   
 10   6  10  ar  
 11   6  26  1   
 12   7  10  ar  
 13   7  27  1   
 14   8  11  2   
 15   8  12  2   
 16   8  13  1   
 17   9  14  1   
 18   9  15  1   
 19   9  28  1   
 20  10  16  1   
 21  13  29  1   
 22  13  30  1   
 23  13  31  1   
 24  14  17  2   
 25  14  18  am  
 26  15  32  1   
 27  15  33  1   
 28  15  34  1   
 29  18  19  1   
 30  18  20  1   
 31  19  21  1   
 32  19  35  1   
 33  19  36  1   
 34  20  22  1   
 35  20  37  1   
 36  20  38  1   
 37  21  23  1   
 38  21  39  1   
 39  21  40  1   
 40  22  23  1   
 41  22  41  1   
 42  22  42  1   
 43  23  24  1   
 44  23  43  1   
 45  24  44  1   
 46  24  45  1   
 47  24  46  1   
@<TRIPOS>SUBSTRUCTURE
  1 ****   9 GROUP 4 **** **** 0

# MOE 2024.06 (io_trps.svl 2023.06)
