@<TRIPOS>MOLECULE
NONAME
38 39 1 0 0 
SMALL
USER_CHARGES


@<TRIPOS>ATOM
  1 CL      -0.1600    -0.2600     1.1970 Cl    1 <1>  -0.1770 
  2 C       -1.1920     0.9360     0.4320 C.ar  1 <1>   0.1770 
  3 C       -0.7230     2.1070    -0.1850 C.ar  1 <1>   0.0830 
  4 C       -2.5460     0.6510     0.4700 C.ar  1 <1>  -0.1500 
  5 O        0.5680     2.5300    -0.3060 O.3   1 <1>  -0.3630 
  6 C       -1.6570     2.9630    -0.7510 C.ar  1 <1>  -0.1500 
  7 C       -3.4590     1.5200    -0.1020 C.ar  1 <1>  -0.1500 
  8 C        1.6770     1.8310     0.1940 C.3   1 <1>   0.1200 
  9 C       -3.0110     2.6780    -0.7130 C.ar  1 <1>  -0.1500 
 10 C        2.9230     2.6460    -0.1450 C.3   1 <1>  -0.1600 
 11 C        4.1730     1.9440     0.3810 C.3   1 <1>   0.3430 
 12 N        5.4000     2.6750    -0.0420 N.4   1 <1>  -0.9590 
 13 C        6.6070     1.8140     0.1290 C.3   1 <1>   0.3430 
 14 C        5.5600     3.9810     0.6690 C.3   1 <1>   0.3430 
 15 C        7.8330     2.5200    -0.4520 C.3   1 <1>  -0.1600 
 16 C        6.7650     4.7340     0.1020 C.3   1 <1>  -0.1600 
 17 C        8.0490     3.8990     0.1840 C.3   1 <1>  -0.1600 
 18 H       -2.8850    -0.2510     0.9470 H     1 <1>   0.1500 
 19 H       -1.3170     3.8650    -1.2280 H     1 <1>   0.1500 
 20 H       -4.5120     1.2980    -0.0710 H     1 <1>   0.1500 
 21 H        1.7080     0.8650    -0.2800 H     1 <1>   0.0800 
 22 H        1.5590     1.7340     1.2600 H     1 <1>   0.0800 
 23 H       -3.7170     3.3580    -1.1590 H     1 <1>   0.1500 
 24 H        2.8200     3.6170     0.3050 H     1 <1>   0.0800 
 25 H        2.9840     2.7460    -1.2140 H     1 <1>   0.0800 
 26 H        4.1980     0.9420    -0.0160 H     1 <1>   0.0800 
 27 H        4.1340     1.8770     1.4570 H     1 <1>   0.0800 
 28 H        5.3190     2.8840    -1.0460 H     1 <1>   0.4500 
 29 H        6.4650     0.8720    -0.3770 H     1 <1>   0.0800 
 30 H        6.7700     1.6160     1.1760 H     1 <1>   0.0800 
 31 H        5.7080     3.8080     1.7230 H     1 <1>   0.0800 
 32 H        4.6760     4.5860     0.5450 H     1 <1>   0.0800 
 33 H        7.7170     2.6210    -1.5180 H     1 <1>   0.0800 
 34 H        8.7040     1.9110    -0.2810 H     1 <1>   0.0800 
 35 H        6.9000     5.6480     0.6550 H     1 <1>   0.0800 
 36 H        6.5670     5.0060    -0.9210 H     1 <1>   0.0800 
 37 H        8.8530     4.4130    -0.3170 H     1 <1>   0.0800 
 38 H        8.3330     3.7780     1.2170 H     1 <1>   0.0800 
@<TRIPOS>BOND
  1   1   2  1   
  2   2   3  ar  
  3   2   4  ar  
  4   3   5  1   
  5   3   6  ar  
  6   4   7  ar  
  7   4  18  1   
  8   5   8  1   
  9   6   9  ar  
 10   6  19  1   
 11   7   9  ar  
 12   7  20  1   
 13   8  10  1   
 14   8  21  1   
 15   8  22  1   
 16   9  23  1   
 17  10  11  1   
 18  10  24  1   
 19  10  25  1   
 20  11  12  1   
 21  11  26  1   
 22  11  27  1   
 23  12  13  1   
 24  12  14  1   
 25  12  28  1   
 26  13  15  1   
 27  13  29  1   
 28  13  30  1   
 29  14  16  1   
 30  14  31  1   
 31  14  32  1   
 32  15  17  1   
 33  15  33  1   
 34  15  34  1   
 35  16  17  1   
 36  16  35  1   
 37  16  36  1   
 38  17  37  1   
 39  17  38  1   
@<TRIPOS>SUBSTRUCTURE
  1 ****   8 GROUP 4 **** **** 0

# MOE 2024.06 (io_trps.svl 2023.06)
