@<TRIPOS>MOLECULE
NONAME
48 50 1 0 0 
SMALL
USER_CHARGES


@<TRIPOS>ATOM
  1 O       -1.8110     1.0100    -0.7600 O.3   1 <1>  -0.3630 
  2 C       -1.2910     1.8480     0.1770 C.ar  1 <1>   0.0830 
  3 C       -0.9770     0.3800    -1.7150 C.3   1 <1>   0.0400 
  4 C       -2.1210     2.2400     1.2250 C.ar  1 <1>  -0.1440 
  5 C        0.0150     2.3270     0.1220 C.ar  1 <1>  -0.1500 
  6 C       -1.6420     3.0990     2.2030 C.ar  1 <1>  -0.1500 
  7 C       -3.5470     1.7310     1.2990 C.3   1 <1>   0.4870 
  8 C        0.4830     3.1850     1.1000 C.ar  1 <1>  -0.1500 
  9 C       -0.3440     3.5700     2.1400 C.ar  1 <1>  -0.1500 
 10 N       -4.2640     2.1750     0.0800 N.4   1 <1>  -0.9590 
 11 C       -4.3630     3.6770    -0.0090 C.3   1 <1>   0.3430 
 12 C       -5.6040     1.5110    -0.0810 C.3   1 <1>   0.3430 
 13 C       -5.0760     4.1490    -1.2940 C.3   1 <1>   0.2090 
 14 C       -6.3300     1.9510    -1.3700 C.3   1 <1>   0.2090 
 15 N       -6.3730     3.4380    -1.5090 N.pl3 1 <1>  -0.8380 
 16 C       -7.5270     4.0800    -1.0720 C.ar  1 <1>   0.1000 
 17 C       -7.8200     4.2170     0.2790 C.ar  1 <1>  -0.1500 
 18 C       -8.4160     4.5980    -2.0030 C.ar  1 <1>  -0.1500 
 19 C       -8.9730     4.8550     0.6980 C.ar  1 <1>   0.0830 
 20 C       -9.5730     5.2390    -1.5960 C.ar  1 <1>  -0.1500 
 21 O       -9.1660     4.9350     2.0400 O.3   1 <1>  -0.3630 
 22 C       -9.8560     5.3700    -0.2470 C.ar  1 <1>  -0.1500 
 23 C      -10.3110     5.5650     2.5720 C.3   1 <1>   0.0400 
 24 H       -0.5630     1.1270    -2.3690 H     1 <1>   0.0800 
 25 H       -1.5730    -0.3100    -2.2850 H     1 <1>   0.0800 
 26 H       -0.1960    -0.1540    -1.2020 H     1 <1>   0.0800 
 27 H        0.6850     2.0500    -0.6710 H     1 <1>   0.1500 
 28 H       -2.2660     3.4090     3.0250 H     1 <1>   0.1500 
 29 H       -4.0350     2.1080     2.1820 H     1 <1>   0.0800 
 30 H       -3.5290     0.6540     1.3450 H     1 <1>   0.0800 
 31 H        1.4950     3.5530     1.0550 H     1 <1>   0.1500 
 32 H        0.0300     4.2360     2.9010 H     1 <1>   0.1500 
 33 H       -3.6480     1.8680    -0.6910 H     1 <1>   0.4500 
 34 H       -3.3780     4.1120     0.0220 H     1 <1>   0.0800 
 35 H       -4.9140     4.0530     0.8360 H     1 <1>   0.0800 
 36 H       -6.2330     1.7610     0.7570 H     1 <1>   0.0800 
 37 H       -5.4840     0.4410    -0.0970 H     1 <1>   0.0800 
 38 H       -4.4380     3.9800    -2.1440 H     1 <1>   0.0800 
 39 H       -5.2560     5.2090    -1.2310 H     1 <1>   0.0800 
 40 H       -7.3370     1.5660    -1.3610 H     1 <1>   0.0800 
 41 H       -5.8330     1.5340    -2.2280 H     1 <1>   0.0800 
 42 H       -7.1570     3.8300     1.0220 H     1 <1>   0.1500 
 43 H       -8.1930     4.4940    -3.0490 H     1 <1>   0.1500 
 44 H      -10.2530     5.6360    -2.3300 H     1 <1>   0.1500 
 45 H      -10.7600     5.8720     0.0430 H     1 <1>   0.1500 
 46 H      -10.2550     5.5110     3.6450 H     1 <1>   0.0800 
 47 H      -11.1880     5.0470     2.2260 H     1 <1>   0.0800 
 48 H      -10.3230     6.5940     2.2590 H     1 <1>   0.0800 
@<TRIPOS>BOND
  1   1   2  1   
  2   1   3  1   
  3   2   4  ar  
  4   2   5  ar  
  5   3  24  1   
  6   3  25  1   
  7   3  26  1   
  8   4   6  ar  
  9   4   7  1   
 10   5   8  ar  
 11   5  27  1   
 12   6   9  ar  
 13   6  28  1   
 14   7  10  1   
 15   7  29  1   
 16   7  30  1   
 17   8   9  ar  
 18   8  31  1   
 19   9  32  1   
 20  10  11  1   
 21  10  12  1   
 22  10  33  1   
 23  11  13  1   
 24  11  34  1   
 25  11  35  1   
 26  12  14  1   
 27  12  36  1   
 28  12  37  1   
 29  13  15  1   
 30  13  38  1   
 31  13  39  1   
 32  14  15  1   
 33  14  40  1   
 34  14  41  1   
 35  15  16  1   
 36  16  17  ar  
 37  16  18  ar  
 38  17  19  ar  
 39  17  42  1   
 40  18  20  ar  
 41  18  43  1   
 42  19  21  1   
 43  19  22  ar  
 44  20  22  ar  
 45  20  44  1   
 46  21  23  1   
 47  22  45  1   
 48  23  46  1   
 49  23  47  1   
 50  23  48  1   
@<TRIPOS>SUBSTRUCTURE
  1 ****  11 GROUP 4 **** **** 0

# MOE 2024.06 (io_trps.svl 2023.06)
