@<TRIPOS>MOLECULE
NONAME
37 37 1 0 0 
SMALL
USER_CHARGES


@<TRIPOS>ATOM
  1 S        0.2540     0.3450    -0.2370 S.3   1 <1>  -0.2860 
  2 C       -1.2550    -0.5950    -0.4910 C.2   1 <1>   0.2420 
  3 C        1.4610    -0.5320    -1.3400 C.3   1 <1>   0.1310 
  4 N       -1.3200    -1.6290    -1.2520 N.2   1 <1>  -0.3380 
  5 N       -2.4100    -0.2870     0.0960 N.pl3 1 <1>   0.0480 
  6 C        2.8420     0.0740    -1.1960 C.2   1 <1>   0.6590 
  7 N       -2.5870    -2.0470    -1.1820 N.2   1 <1>  -0.3380 
  8 C       -3.2200    -1.2460    -0.3850 C.2   1 <1>   0.0060 
  9 C       -2.6830     0.8210     1.0340 C.3   1 <1>   0.2340 
 10 O        3.3450     0.7200    -2.0790 O.2   1 <1>  -0.5700 
 11 O        3.4700    -0.1650    -0.0510 O.3   1 <1>  -0.4300 
 12 C       -4.7050    -1.3800    -0.0440 C.3   1 <1>   0.1000 
 13 C       -3.3470     1.9830     0.3110 C.2   1 <1>  -0.2880 
 14 C        4.7580     0.3480     0.2010 C.3   1 <1>   0.1200 
 15 C       -4.9940    -2.7520     0.5740 C.3   1 <1>  -0.2400 
 16 C       -5.5580    -1.1690    -1.2990 C.3   1 <1>  -0.2400 
 17 C       -2.8420     3.2170     0.2160 C.2   1 <1>  -0.3000 
 18 C        5.1880    -0.1160     1.5890 C.3   1 <1>  -0.2400 
 19 H        1.1030    -0.4310    -2.3470 H     1 <1>   0.0800 
 20 H        1.4690    -1.5660    -1.0510 H     1 <1>   0.0800 
 21 H       -1.7580     1.1440     1.4790 H     1 <1>   0.0800 
 22 H       -3.3190     0.4630     1.8230 H     1 <1>   0.0800 
 23 H       -4.9830    -0.6300     0.6740 H     1 <1>   0.0800 
 24 H       -4.2890     1.7130    -0.1360 H     1 <1>   0.1500 
 25 H        4.7120     1.4230     0.1480 H     1 <1>   0.0800 
 26 H        5.4270    -0.0240    -0.5560 H     1 <1>   0.0800 
 27 H       -4.7590    -3.5340    -0.1270 H     1 <1>   0.0800 
 28 H       -6.0310    -2.8320     0.8460 H     1 <1>   0.0800 
 29 H       -4.3940    -2.8940     1.4550 H     1 <1>   0.0800 
 30 H       -5.3290    -1.9210    -2.0350 H     1 <1>   0.0800 
 31 H       -5.3530    -0.2050    -1.7280 H     1 <1>   0.0800 
 32 H       -6.6040    -1.2270    -1.0590 H     1 <1>   0.0800 
 33 H       -3.3280     4.0250    -0.3030 H     1 <1>   0.1500 
 34 H       -1.9020     3.5270     0.6420 H     1 <1>   0.1500 
 35 H        4.5030     0.2530     2.3320 H     1 <1>   0.0800 
 36 H        6.1700     0.2640     1.8100 H     1 <1>   0.0800 
 37 H        5.2190    -1.1900     1.6290 H     1 <1>   0.0800 
@<TRIPOS>BOND
  1   1   2  1   
  2   1   3  1   
  3   2   4  2   
  4   2   5  1   
  5   3   6  1   
  6   3  19  1   
  7   3  20  1   
  8   4   7  1   
  9   5   8  1   
 10   5   9  1   
 11   6  10  2   
 12   6  11  1   
 13   7   8  2   
 14   8  12  1   
 15   9  13  1   
 16   9  21  1   
 17   9  22  1   
 18  11  14  1   
 19  12  15  1   
 20  12  16  1   
 21  12  23  1   
 22  13  17  2   
 23  13  24  1   
 24  14  18  1   
 25  14  25  1   
 26  14  26  1   
 27  15  27  1   
 28  15  28  1   
 29  15  29  1   
 30  16  30  1   
 31  16  31  1   
 32  16  32  1   
 33  17  33  1   
 34  17  34  1   
 35  18  35  1   
 36  18  36  1   
 37  18  37  1   
@<TRIPOS>SUBSTRUCTURE
  1 ****   2 GROUP 4 **** **** 0

# MOE 2024.06 (io_trps.svl 2023.06)
