@<TRIPOS>MOLECULE
NONAME
43 44 1 0 0 
SMALL
USER_CHARGES


@<TRIPOS>ATOM
  1 BR       1.2040    -0.2000    -0.9870 Br    1 <1>  -0.1110 
  2 C        2.8080    -1.2590    -1.0790 C.ar  1 <1>   0.1110 
  3 C        3.9390    -0.8040    -0.4310 C.ar  1 <1>  -0.1500 
  4 C        2.7790    -2.4440    -1.7900 C.ar  1 <1>  -0.1500 
  5 C        5.0980    -1.5740    -0.4970 C.ar  1 <1>   0.0830 
  6 C        3.9340    -3.2030    -1.8530 C.ar  1 <1>  -0.1500 
  7 O        6.2730    -1.2360     0.0960 O.3   1 <1>  -0.3630 
  8 C        5.0830    -2.7670    -1.2100 C.ar  1 <1>  -0.1500 
  9 C        6.4090    -0.1130     0.9640 C.3   1 <1>   0.2610 
 10 C        7.8840     0.3290     1.0390 C.2   1 <1>   0.5690 
 11 C        5.8180    -0.4530     2.3430 C.3   1 <1>  -0.2400 
 12 O        8.1140     1.4890     0.7850 O.2   1 <1>  -0.5700 
 13 N        8.9280    -0.5250     1.3410 N.am  1 <1>  -0.6600 
 14 C        8.8450    -2.0140     1.3900 C.3   1 <1>   0.1400 
 15 C       10.3400    -0.0470     1.2470 C.3   1 <1>   0.1400 
 16 C        9.4560    -2.5950     0.1000 C.3   1 <1>   0.3430 
 17 C       10.9760    -0.5990    -0.0420 C.3   1 <1>   0.3430 
 18 N       10.8650    -2.1050    -0.1350 N.4   1 <1>  -0.9590 
 19 C       11.3970    -2.6150    -1.4160 C.3   1 <1>   0.4810 
 20 C       12.9010    -2.4970    -1.3490 C.2   1 <1>  -0.2880 
 21 C       13.7450    -3.5140    -1.1430 C.2   1 <1>  -0.3000 
 22 H        3.8830     0.1270     0.0990 H     1 <1>   0.1500 
 23 H        1.8760    -2.7610    -2.2800 H     1 <1>   0.1500 
 24 H        3.9370    -4.1310    -2.4000 H     1 <1>   0.1500 
 25 H        5.9750    -3.3610    -1.2620 H     1 <1>   0.1500 
 26 H        5.8690     0.7080     0.5290 H     1 <1>   0.0800 
 27 H        6.3500    -1.2630     2.8050 H     1 <1>   0.0800 
 28 H        4.7790    -0.7150     2.2600 H     1 <1>   0.0800 
 29 H        5.8950     0.4070     2.9840 H     1 <1>   0.0800 
 30 H        7.8320    -2.3530     1.4950 H     1 <1>   0.0800 
 31 H        9.3880    -2.3740     2.2470 H     1 <1>   0.0800 
 32 H       10.8940    -0.3800     2.1070 H     1 <1>   0.0800 
 33 H       10.3840     1.0290     1.2340 H     1 <1>   0.0800 
 34 H        8.8270    -2.3020    -0.7260 H     1 <1>   0.0800 
 35 H        9.4460    -3.6710     0.1580 H     1 <1>   0.0800 
 36 H       12.0110    -0.3030    -0.0760 H     1 <1>   0.0800 
 37 H       10.4740    -0.1450    -0.8810 H     1 <1>   0.0800 
 38 H       11.4730    -2.5030     0.5930 H     1 <1>   0.4500 
 39 H       11.0010    -2.0610    -2.2530 H     1 <1>   0.0800 
 40 H       11.1330    -3.6540    -1.5330 H     1 <1>   0.0800 
 41 H       13.2540    -1.4900    -1.4960 H     1 <1>   0.1500 
 42 H       14.8180    -3.4030    -1.1060 H     1 <1>   0.1500 
 43 H       13.4570    -4.5430    -0.9980 H     1 <1>   0.1500 
@<TRIPOS>BOND
  1   1   2  1   
  2   2   3  ar  
  3   2   4  ar  
  4   3   5  ar  
  5   3  22  1   
  6   4   6  ar  
  7   4  23  1   
  8   5   7  1   
  9   5   8  ar  
 10   6   8  ar  
 11   6  24  1   
 12   7   9  1   
 13   8  25  1   
 14   9  10  1   
 15   9  11  1   
 16   9  26  1   
 17  10  12  2   
 18  10  13  am  
 19  11  27  1   
 20  11  28  1   
 21  11  29  1   
 22  13  14  1   
 23  13  15  1   
 24  14  16  1   
 25  14  30  1   
 26  14  31  1   
 27  15  17  1   
 28  15  32  1   
 29  15  33  1   
 30  16  18  1   
 31  16  34  1   
 32  16  35  1   
 33  17  18  1   
 34  17  36  1   
 35  17  37  1   
 36  18  19  1   
 37  18  38  1   
 38  19  20  1   
 39  19  39  1   
 40  19  40  1   
 41  20  21  2   
 42  20  41  1   
 43  21  42  1   
 44  21  43  1   
@<TRIPOS>SUBSTRUCTURE
  1 ****   7 GROUP 4 **** **** 0

# MOE 2024.06 (io_trps.svl 2023.06)
