@<TRIPOS>MOLECULE
NONAME
28 27 1 0 0 
SMALL
USER_CHARGES


@<TRIPOS>ATOM
  1 F        0.2070     0.3380     1.0880 F     1 <1>  -0.3400 
  2 C        0.6120     0.6120    -0.1460 C.3   1 <1>   1.0200 
  3 F       -0.4360     0.4240    -0.9350 F     1 <1>  -0.3400 
  4 F        1.4670    -0.3520    -0.4580 F     1 <1>  -0.3400 
  5 C        1.2630     1.9980    -0.2750 C.3   1 <1>   0.2200 
  6 N        2.5520     2.1580     0.5420 N.am  1 <1>  -0.7300 
  7 C        0.2020     3.0710     0.0160 C.3   1 <1>   1.0200 
  8 C        3.7430     2.4870     0.0070 C.2   1 <1>   0.7800 
  9 F       -0.2820     3.0080     1.2500 F     1 <1>  -0.3400 
 10 F        0.7050     4.2930    -0.1020 F     1 <1>  -0.3400 
 11 F       -0.8420     3.0390    -0.7990 F     1 <1>  -0.3400 
 12 O        3.8860     2.6560    -1.1840 O.2   1 <1>  -0.5700 
 13 O        4.7500     2.6180     0.8620 O.3   1 <1>  -0.4300 
 14 C        6.0440     2.9970     0.4380 C.3   1 <1>   0.1200 
 15 C        6.1140     4.5240     0.3400 C.3   1 <1>  -0.1600 
 16 C        7.5200     4.9870    -0.0620 C.3   1 <1>  -0.1600 
 17 C        7.5870     6.5140    -0.1610 C.3   1 <1>  -0.2400 
 18 H        1.5140     2.1080    -1.3130 H     1 <1>   0.0800 
 19 H        2.5110     2.0480     1.5590 H     1 <1>   0.3700 
 20 H        6.2600     2.5290    -0.5090 H     1 <1>   0.0800 
 21 H        6.7430     2.6370     1.1730 H     1 <1>   0.0800 
 22 H        5.8570     4.9500     1.2940 H     1 <1>   0.0800 
 23 H        5.4070     4.8660    -0.3950 H     1 <1>   0.0800 
 24 H        7.7820     4.5610    -1.0160 H     1 <1>   0.0800 
 25 H        8.2380     4.6480     0.6650 H     1 <1>   0.0800 
 26 H        6.8920     6.8740    -0.8990 H     1 <1>   0.0800 
 27 H        8.5780     6.8210    -0.4460 H     1 <1>   0.0800 
 28 H        7.3490     6.9630     0.7880 H     1 <1>   0.0800 
@<TRIPOS>BOND
  1   1   2  1   
  2   2   3  1   
  3   2   4  1   
  4   2   5  1   
  5   5   6  1   
  6   5   7  1   
  7   5  18  1   
  8   6   8  am  
  9   6  19  1   
 10   7   9  1   
 11   7  10  1   
 12   7  11  1   
 13   8  12  2   
 14   8  13  1   
 15  13  14  1   
 16  14  15  1   
 17  14  20  1   
 18  14  21  1   
 19  15  16  1   
 20  15  22  1   
 21  15  23  1   
 22  16  17  1   
 23  16  24  1   
 24  16  25  1   
 25  17  26  1   
 26  17  27  1   
 27  17  28  1   
@<TRIPOS>SUBSTRUCTURE
  1 ****   6 GROUP 4 **** **** 0

# MOE 2024.06 (io_trps.svl 2023.06)
