@<TRIPOS>MOLECULE
NONAME
50 52 1 0 0 
SMALL
USER_CHARGES


@<TRIPOS>ATOM
  1 O       -0.2530     0.6740    -1.4490 O.2   1 <1>  -0.5700 
  2 C       -0.1770     1.8740    -1.3180 C.2   1 <1>   0.5690 
  3 N       -1.2840     2.6760    -1.4170 N.am  1 <1>  -0.6600 
  4 C        1.1890     2.4860    -1.0400 C.3   1 <1>  -0.0990 
  5 C       -1.3080     4.1660    -1.2360 C.3   1 <1>   0.1400 
  6 C       -2.6420     2.1020    -1.6840 C.3   1 <1>   0.1400 
  7 C        2.3500     1.4690    -1.0400 C.3   1 <1>  -0.0990 
  8 C       -2.3400     4.5890    -0.1760 C.3   1 <1>   0.2090 
  9 C       -3.6600     2.5390    -0.6160 C.3   1 <1>   0.2090 
 10 C        3.7050     2.1050    -0.7650 C.2   1 <1>   0.5690 
 11 N       -3.6910     4.0240    -0.4750 N.pl3 1 <1>  -0.8380 
 12 O        3.8700     3.2780    -0.9890 O.2   1 <1>  -0.5700 
 13 N        4.7330     1.3780    -0.2550 N.am  1 <1>  -0.5470 
 14 C       -4.7740     4.5540     0.1990 C.ar  1 <1>   0.4100 
 15 C        4.8310     0.0220     0.0760 C.ar  1 <1>   0.1170 
 16 N       -4.5680     4.9980     1.4340 N.ar  1 <1>  -0.6200 
 17 C       -6.0180     4.5910    -0.4270 C.ar  1 <1>  -0.1500 
 18 C        5.3580    -0.3440     1.3070 C.ar  1 <1>  -0.1500 
 19 C        4.4340    -0.9800    -0.8020 C.ar  1 <1>  -0.1500 
 20 C       -5.6280     5.4850     2.0570 C.ar  1 <1>   0.1600 
 21 C       -7.1120     5.1010     0.2320 C.ar  1 <1>  -0.1500 
 22 C        5.4730    -1.6760     1.6610 C.ar  1 <1>  -0.1500 
 23 C        4.5450    -2.3130    -0.4490 C.ar  1 <1>  -0.1500 
 24 C       -6.9000     5.5600     1.5160 C.ar  1 <1>  -0.1500 
 25 C        5.0630    -2.6690     0.7860 C.ar  1 <1>  -0.1440 
 26 C        5.1840    -4.1320     1.1700 C.3   1 <1>  -0.0970 
 27 H        1.1560     2.9720    -0.0820 H     1 <1>   0.0800 
 28 H        1.3820     3.2290    -1.7920 H     1 <1>   0.0800 
 29 H       -1.5710     4.6260    -2.1730 H     1 <1>   0.0800 
 30 H       -0.3450     4.5410    -0.9460 H     1 <1>   0.0800 
 31 H       -2.6020     1.0270    -1.7070 H     1 <1>   0.0800 
 32 H       -2.9810     2.4390    -2.6480 H     1 <1>   0.0800 
 33 H        2.3910     0.9860    -1.9980 H     1 <1>   0.0800 
 34 H        2.1550     0.7210    -0.2930 H     1 <1>   0.0800 
 35 H       -2.4040     5.6630    -0.1460 H     1 <1>   0.0800 
 36 H       -2.0180     4.2490     0.7930 H     1 <1>   0.0800 
 37 H       -3.3930     2.0980     0.3290 H     1 <1>   0.0800 
 38 H       -4.6370     2.1790    -0.8860 H     1 <1>   0.0800 
 39 H        5.5490     1.9520    -0.0410 H     1 <1>   0.3700 
 40 H       -6.1000     4.2220    -1.4300 H     1 <1>   0.1500 
 41 H        5.6760     0.4180     1.9960 H     1 <1>   0.1500 
 42 H        4.0430    -0.7220    -1.7680 H     1 <1>   0.1500 
 43 H       -5.4740     5.8470     3.0590 H     1 <1>   0.1500 
 44 H       -8.0830     5.1420    -0.2280 H     1 <1>   0.1500 
 45 H        5.8820    -1.9380     2.6210 H     1 <1>   0.1500 
 46 H        4.2280    -3.0730    -1.1410 H     1 <1>   0.1500 
 47 H       -7.7100     5.9710     2.0900 H     1 <1>   0.1500 
 48 H        5.1550    -4.2470     2.2390 H     1 <1>   0.0800 
 49 H        6.1140    -4.5280     0.8030 H     1 <1>   0.0800 
 50 H        4.3740    -4.6990     0.7470 H     1 <1>   0.0800 
@<TRIPOS>BOND
  1   1   2  2   
  2   2   3  am  
  3   2   4  1   
  4   3   5  1   
  5   3   6  1   
  6   4   7  1   
  7   4  27  1   
  8   4  28  1   
  9   5   8  1   
 10   5  29  1   
 11   5  30  1   
 12   6   9  1   
 13   6  31  1   
 14   6  32  1   
 15   7  10  1   
 16   7  33  1   
 17   7  34  1   
 18   8  11  1   
 19   8  35  1   
 20   8  36  1   
 21   9  11  1   
 22   9  37  1   
 23   9  38  1   
 24  10  12  2   
 25  10  13  am  
 26  11  14  1   
 27  13  15  1   
 28  13  39  1   
 29  14  16  ar  
 30  14  17  ar  
 31  15  18  ar  
 32  15  19  ar  
 33  16  20  ar  
 34  17  21  ar  
 35  17  40  1   
 36  18  22  ar  
 37  18  41  1   
 38  19  23  ar  
 39  19  42  1   
 40  20  24  ar  
 41  20  43  1   
 42  21  24  ar  
 43  21  44  1   
 44  22  25  ar  
 45  22  45  1   
 46  23  25  ar  
 47  23  46  1   
 48  24  47  1   
 49  25  26  1   
 50  26  48  1   
 51  26  49  1   
 52  26  50  1   
@<TRIPOS>SUBSTRUCTURE
  1 ****   2 GROUP 4 **** **** 0

# MOE 2024.06 (io_trps.svl 2023.06)
