@<TRIPOS>MOLECULE
NONAME
53 55 1 0 0 
SMALL
USER_CHARGES


@<TRIPOS>ATOM
  1 O        0.3220     0.6890    -0.9960 O.2   1 <1>  -0.5700 
  2 C        0.9260     1.6680    -0.6070 C.2   1 <1>   0.6900 
  3 N        0.2550     2.6660     0.0930 N.am  1 <1>  -0.4200 
  4 N        2.2860     1.7840    -0.8550 N.am  1 <1>  -0.4360 
  5 C        0.9330     3.7630     0.6090 C.2   1 <1>   0.7030 
  6 C       -1.2180     2.5220     0.3150 C.3   1 <1>   0.0600 
  7 C        2.9500     2.8770    -0.3320 C.2   1 <1>   0.4260 
  8 C        3.0230     0.7440    -1.6320 C.3   1 <1>   0.0600 
  9 O        0.3360     4.6280     1.2280 O.2   1 <1>  -0.5700 
 10 C        2.3480     3.8520     0.3910 C.2   1 <1>   0.2770 
 11 N        4.2660     3.1800    -0.4310 N.pl3 1 <1>  -0.7000 
 12 N        3.3490     4.7610     0.7490 N.pl3 1 <1>  -0.7640 
 13 C        4.4840     4.3210     0.2110 C.cat 1 <1>   0.6560 
 14 C        3.1270     6.0120     1.5380 C.3   1 <1>   0.3540 
 15 C        5.8870     4.9460     0.2640 C.3   1 <1>   0.2540 
 16 C        2.9530     7.2300     0.6200 C.3   1 <1>   0.1200 
 17 N        6.9490     3.9210     0.0590 N.3   1 <1>  -0.8100 
 18 O        4.0770     7.3620    -0.2020 O.3   1 <1>  -0.5600 
 19 C        7.1960     3.1420     1.2870 C.3   1 <1>   0.1100 
 20 C        8.1950     4.5390    -0.4250 C.3   1 <1>   0.1100 
 21 C        4.0120     8.4490    -1.0710 C.3   1 <1>   0.0400 
 22 C        8.1730     2.0020     0.9910 C.3   1 <1>  -0.1600 
 23 C        9.2110     3.4480    -0.7770 C.3   1 <1>  -0.1600 
 24 C        9.4960     2.5390     0.4270 C.3   1 <1>  -0.0800 
 25 C       10.4290     1.3890     0.0340 C.3   1 <1>  -0.2400 
 26 H       -1.3940     1.8600     1.1450 H     1 <1>   0.0800 
 27 H       -1.6870     2.1100    -0.5630 H     1 <1>   0.0800 
 28 H       -1.6750     3.4740     0.5230 H     1 <1>   0.0800 
 29 H        2.3410     0.1530    -2.2200 H     1 <1>   0.0800 
 30 H        3.5480     0.0910    -0.9570 H     1 <1>   0.0800 
 31 H        3.7260     1.2080    -2.3010 H     1 <1>   0.0800 
 32 H        5.0360     2.6760    -0.8820 H     1 <1>   0.4500 
 33 H        3.9650     6.1850     2.1910 H     1 <1>   0.0800 
 34 H        2.2550     5.9060     2.1600 H     1 <1>   0.0800 
 35 H        6.0350     5.4570     1.1990 H     1 <1>   0.0800 
 36 H        5.9400     5.6750    -0.5250 H     1 <1>   0.0800 
 37 H        2.8500     8.1240     1.2110 H     1 <1>   0.0800 
 38 H        2.0790     7.1070     0.0040 H     1 <1>   0.0800 
 39 H        6.2750     2.7230     1.6550 H     1 <1>   0.0800 
 40 H        7.6070     3.7800     2.0530 H     1 <1>   0.0800 
 41 H        8.6040     5.1910     0.3290 H     1 <1>   0.0800 
 42 H        7.9960     5.1230    -1.3090 H     1 <1>   0.0800 
 43 H        4.9120     8.4670    -1.6590 H     1 <1>   0.0800 
 44 H        3.9360     9.3600    -0.5010 H     1 <1>   0.0800 
 45 H        3.1590     8.3400    -1.7200 H     1 <1>   0.0800 
 46 H        7.7190     1.3270     0.2870 H     1 <1>   0.0800 
 47 H        8.3630     1.4550     1.8970 H     1 <1>   0.0800 
 48 H       10.1260     3.9110    -1.1040 H     1 <1>   0.0800 
 49 H        8.8260     2.8670    -1.5960 H     1 <1>   0.0800 
 50 H        9.9810     3.1250     1.1910 H     1 <1>   0.0800 
 51 H        9.9810     0.7800    -0.7320 H     1 <1>   0.0800 
 52 H       10.6370     0.7690     0.8880 H     1 <1>   0.0800 
 53 H       11.3610     1.7760    -0.3370 H     1 <1>   0.0800 
@<TRIPOS>BOND
  1   1   2  2   
  2   2   3  am  
  3   2   4  am  
  4   3   5  am  
  5   3   6  1   
  6   4   7  1   
  7   4   8  1   
  8   5   9  2   
  9   5  10  1   
 10   6  26  1   
 11   6  27  1   
 12   6  28  1   
 13   7  10  2   
 14   7  11  1   
 15   8  29  1   
 16   8  30  1   
 17   8  31  1   
 18  10  12  1   
 19  11  13  ar  
 20  11  32  1   
 21  12  13  ar  
 22  12  14  1   
 23  13  15  1   
 24  14  16  1   
 25  14  33  1   
 26  14  34  1   
 27  15  17  1   
 28  15  35  1   
 29  15  36  1   
 30  16  18  1   
 31  16  37  1   
 32  16  38  1   
 33  17  19  1   
 34  17  20  1   
 35  18  21  1   
 36  19  22  1   
 37  19  39  1   
 38  19  40  1   
 39  20  23  1   
 40  20  41  1   
 41  20  42  1   
 42  21  43  1   
 43  21  44  1   
 44  21  45  1   
 45  22  24  1   
 46  22  46  1   
 47  22  47  1   
 48  23  24  1   
 49  23  48  1   
 50  23  49  1   
 51  24  25  1   
 52  24  50  1   
 53  25  51  1   
 54  25  52  1   
 55  25  53  1   
@<TRIPOS>SUBSTRUCTURE
  1 ****  13 GROUP 4 **** **** 0

# MOE 2024.06 (io_trps.svl 2023.06)
