@<TRIPOS>MOLECULE
NONAME
51 53 1 0 0 
SMALL
USER_CHARGES


@<TRIPOS>ATOM
  1 O        0.5370     1.1440    -2.7460 O.2   1 <1>  -0.5700 
  2 C        1.3010     1.3440    -1.8210 C.2   1 <1>   0.6900 
  3 N        2.2730     0.4290    -1.5130 N.am  1 <1>  -0.4200 
  4 N        1.2000     2.4900    -1.0810 N.am  1 <1>  -0.4200 
  5 C        3.3040     0.7090    -0.6520 C.2   1 <1>   0.5690 
  6 C        2.0730    -0.9690    -1.9830 C.3   1 <1>   0.2840 
  7 C        2.2180     2.9510    -0.2890 C.2   1 <1>   0.5690 
  8 C       -0.1350     3.1290    -0.9610 C.3   1 <1>   0.2840 
  9 O        4.0840    -0.1570    -0.3290 O.2   1 <1>  -0.5700 
 10 C        3.5010     2.1300    -0.0930 C.3   1 <1>   0.1220 
 11 C        1.0140    -1.6430    -1.1210 C.ar  1 <1>  -0.1440 
 12 O        2.1420     4.0350     0.2440 O.2   1 <1>  -0.5700 
 13 C       -0.8370     2.5360     0.2510 C.ar  1 <1>  -0.1440 
 14 C        4.6340     2.8680    -0.8680 C.3   1 <1>  -0.1600 
 15 C        3.8360     2.0610     1.4290 C.3   1 <1>  -0.1600 
 16 C       -0.2840    -1.7880    -1.5890 C.ar  1 <1>  -0.1500 
 17 C        1.3360    -2.1100     0.1440 C.ar  1 <1>  -0.1500 
 18 C       -0.8470     3.2170     1.4590 C.ar  1 <1>  -0.1500 
 19 C       -1.4530     1.2960     0.1660 C.ar  1 <1>  -0.1500 
 20 C        6.0380     2.2400    -0.8120 C.3   1 <1>  -0.2400 
 21 C        2.7200     1.4420     2.2910 C.3   1 <1>  -0.2400 
 22 C       -1.2480    -2.3930    -0.8010 C.ar  1 <1>  -0.1500 
 23 C        0.3720    -2.7120     0.9340 C.ar  1 <1>  -0.1500 
 24 C       -1.4660     2.6670     2.5680 C.ar  1 <1>  -0.1500 
 25 C       -2.0680     0.7420     1.2750 C.ar  1 <1>  -0.1500 
 26 C       -0.9200    -2.8550     0.4610 C.ar  1 <1>  -0.1500 
 27 C       -2.0770     1.4290     2.4760 C.ar  1 <1>  -0.1500 
 28 H        2.9910    -1.5260    -1.9300 H     1 <1>   0.0800 
 29 H        1.7640    -0.9660    -3.0140 H     1 <1>   0.0800 
 30 H       -0.7250     2.9590    -1.8450 H     1 <1>   0.0800 
 31 H       -0.0280     4.1940    -0.8470 H     1 <1>   0.0800 
 32 H        4.7100     3.8740    -0.4890 H     1 <1>   0.0800 
 33 H        4.3470     2.9470    -1.9030 H     1 <1>   0.0800 
 34 H        4.0380     3.0540     1.7940 H     1 <1>   0.0800 
 35 H        4.7290     1.4800     1.5790 H     1 <1>   0.0800 
 36 H       -0.5510    -1.4240    -2.5670 H     1 <1>   0.1500 
 37 H        2.3400    -2.0040     0.5220 H     1 <1>   0.1500 
 38 H       -0.3630     4.1760     1.5440 H     1 <1>   0.1500 
 39 H       -1.4500     0.7490    -0.7620 H     1 <1>   0.1500 
 40 H        6.4030     2.1890     0.1980 H     1 <1>   0.0800 
 41 H        6.7250     2.8420    -1.3810 H     1 <1>   0.0800 
 42 H        6.0400     1.2500    -1.2320 H     1 <1>   0.0800 
 43 H        1.8150     2.0230     2.2370 H     1 <1>   0.0800 
 44 H        3.0330     1.4130     3.3190 H     1 <1>   0.0800 
 45 H        2.5030     0.4340     1.9810 H     1 <1>   0.0800 
 46 H       -2.2520    -2.5020    -1.1710 H     1 <1>   0.1500 
 47 H        0.6290    -3.0700     1.9150 H     1 <1>   0.1500 
 48 H       -1.4690     3.2010     3.5020 H     1 <1>   0.1500 
 49 H       -2.5350    -0.2240     1.2010 H     1 <1>   0.1500 
 50 H       -1.6690    -3.3250     1.0750 H     1 <1>   0.1500 
 51 H       -2.5550     0.9980     3.3380 H     1 <1>   0.1500 
@<TRIPOS>BOND
  1   1   2  2   
  2   2   3  am  
  3   2   4  am  
  4   3   5  am  
  5   3   6  1   
  6   4   7  am  
  7   4   8  1   
  8   5   9  2   
  9   5  10  1   
 10   6  11  1   
 11   6  28  1   
 12   6  29  1   
 13   7  10  1   
 14   7  12  2   
 15   8  13  1   
 16   8  30  1   
 17   8  31  1   
 18  10  14  1   
 19  10  15  1   
 20  11  16  ar  
 21  11  17  ar  
 22  13  18  ar  
 23  13  19  ar  
 24  14  20  1   
 25  14  32  1   
 26  14  33  1   
 27  15  21  1   
 28  15  34  1   
 29  15  35  1   
 30  16  22  ar  
 31  16  36  1   
 32  17  23  ar  
 33  17  37  1   
 34  18  24  ar  
 35  18  38  1   
 36  19  25  ar  
 37  19  39  1   
 38  20  40  1   
 39  20  41  1   
 40  20  42  1   
 41  21  43  1   
 42  21  44  1   
 43  21  45  1   
 44  22  26  ar  
 45  22  46  1   
 46  23  26  ar  
 47  23  47  1   
 48  24  27  ar  
 49  24  48  1   
 50  25  27  ar  
 51  25  49  1   
 52  26  50  1   
 53  27  51  1   
@<TRIPOS>SUBSTRUCTURE
  1 ****   2 GROUP 4 **** **** 0

# MOE 2024.06 (io_trps.svl 2023.06)
