@<TRIPOS>MOLECULE
NONAME
24 23 1 0 0 
SMALL
USER_CHARGES


@<TRIPOS>ATOM
  1 O        0.9510    -0.5130     1.4330 O.2   1 <1>  -0.5700 
  2 C        1.5660    -0.8290     0.4310 C.2   1 <1>   0.6160 
  3 N        2.6400    -0.0370     0.1690 N.am  1 <1>  -0.8000 
  4 C        1.1890    -1.9430    -0.3980 C.2   1 <1>   0.0790 
  5 C        2.0390    -2.1800    -1.5150 C.1   1 <1>   0.4920 
  6 C        0.1140    -2.7620    -0.2130 C.2   1 <1>  -0.0500 
  7 N        2.7470    -2.3360    -2.3960 N.1   1 <1>  -0.5570 
  8 N       -0.8110    -2.6690     0.7940 N.pl3 1 <1>  -0.8690 
  9 C       -2.0520    -3.4670     0.8880 C.3   1 <1>   0.2090 
 10 C       -3.1700    -2.7370     0.1530 C.3   1 <1>  -0.1600 
 11 C       -4.4800    -3.5410     0.1920 C.3   1 <1>  -0.2660 
 12 C       -5.5850    -2.8590    -0.5790 C.2   1 <1>   0.9060 
 13 O       -5.7960    -3.2150    -1.7410 O.co2 1 <1>  -0.9000 
 14 O       -6.2350    -1.9760    -0.0140 O.co2 1 <1>  -0.9000 
 15 H        2.8450     0.7290     0.8120 H     1 <1>   0.3700 
 16 H        3.2790    -0.1610    -0.6190 H     1 <1>   0.3700 
 17 H       -0.0610    -3.5630    -0.9160 H     1 <1>   0.1500 
 18 H       -0.7470    -1.8810     1.4640 H     1 <1>   0.4000 
 19 H       -1.8940    -4.4340     0.4430 H     1 <1>   0.0800 
 20 H       -2.3140    -3.6030     1.9240 H     1 <1>   0.0800 
 21 H       -3.3380    -1.7740     0.6050 H     1 <1>   0.0800 
 22 H       -2.8880    -2.5860    -0.8750 H     1 <1>   0.0800 
 23 H       -4.8150    -3.6600     1.2040 H     1 <1>   0.0800 
 24 H       -4.3350    -4.5130    -0.2400 H     1 <1>   0.0800 
@<TRIPOS>BOND
  1   1   2  2   
  2   2   3  am  
  3   2   4  1   
  4   3  15  1   
  5   3  16  1   
  6   4   5  1   
  7   4   6  2   
  8   5   7  3   
  9   6   8  1   
 10   6  17  1   
 11   8   9  1   
 12   8  18  1   
 13   9  10  1   
 14   9  19  1   
 15   9  20  1   
 16  10  11  1   
 17  10  21  1   
 18  10  22  1   
 19  11  12  1   
 20  11  23  1   
 21  11  24  1   
 22  12  13  ar  
 23  12  14  ar  
@<TRIPOS>SUBSTRUCTURE
  1 ****   8 GROUP 4 **** **** 0

# MOE 2024.06 (io_trps.svl 2023.06)
