@<TRIPOS>MOLECULE
NONAME
32 33 1 0 0 
SMALL
USER_CHARGES


@<TRIPOS>ATOM
  1 O        0.9880    -0.2210    -1.4770 O.2   1 <1>  -0.5700 
  2 C        1.9000     0.1390    -0.7620 C.2   1 <1>   0.5690 
  3 N        2.1120     1.3900    -0.2490 N.am  1 <1>  -0.1110 
  4 C        2.9980    -0.8190    -0.2990 C.3   1 <1>   0.3500 
  5 N        1.2280     2.5470    -0.5450 N.3   1 <1>  -0.5490 
  6 C        3.2230     1.3920     0.5570 C.2   1 <1>   0.5690 
  7 N        2.4790    -2.0280     0.4080 N.pl3 1 <1>  -0.8690 
  8 C        3.8480     0.0240     0.6540 C.3   1 <1>  -0.0990 
  9 C        2.0310     3.6220    -1.1880 C.3   1 <1>   0.0300 
 10 C        0.6340     3.0350     0.7280 C.3   1 <1>   0.0300 
 11 O        3.7070     2.3360     1.1380 O.2   1 <1>  -0.5700 
 12 C        3.1680    -3.2100     0.1850 C.ar  1 <1>   0.1000 
 13 C        4.4350    -3.4140     0.7170 C.ar  1 <1>  -0.1500 
 14 C        2.5950    -4.2150    -0.5850 C.ar  1 <1>  -0.1500 
 15 C        5.1210    -4.5910     0.4760 C.ar  1 <1>  -0.1500 
 16 C        3.2770    -5.3930    -0.8280 C.ar  1 <1>  -0.1500 
 17 C        4.5430    -5.5820    -0.2990 C.ar  1 <1>  -0.1500 
 18 H        3.5770    -1.1160    -1.1580 H     1 <1>   0.0800 
 19 H        1.4790    -2.1280     0.1780 H     1 <1>   0.4000 
 20 H        4.8710     0.0610     0.3320 H     1 <1>   0.0800 
 21 H        3.7850    -0.3290     1.6670 H     1 <1>   0.0800 
 22 H        2.5730     3.2200    -2.0260 H     1 <1>   0.0800 
 23 H        2.7270     4.0520    -0.4890 H     1 <1>   0.0800 
 24 H        1.3720     4.3940    -1.5450 H     1 <1>   0.0800 
 25 H        0.1580     2.2190     1.2430 H     1 <1>   0.0800 
 26 H       -0.1080     3.7830     0.5120 H     1 <1>   0.0800 
 27 H        1.3890     3.4630     1.3650 H     1 <1>   0.0800 
 28 H        4.8780    -2.6520     1.3290 H     1 <1>   0.1500 
 29 H        1.6130    -4.0710    -0.9980 H     1 <1>   0.1500 
 30 H        6.1020    -4.7390     0.8930 H     1 <1>   0.1500 
 31 H        2.8250    -6.1630    -1.4270 H     1 <1>   0.1500 
 32 H        5.0750    -6.4990    -0.4870 H     1 <1>   0.1500 
@<TRIPOS>BOND
  1   1   2  2   
  2   2   3  am  
  3   2   4  1   
  4   3   5  1   
  5   3   6  am  
  6   4   7  1   
  7   4   8  1   
  8   4  18  1   
  9   5   9  1   
 10   5  10  1   
 11   6   8  1   
 12   6  11  2   
 13   7  12  1   
 14   7  19  1   
 15   8  20  1   
 16   8  21  1   
 17   9  22  1   
 18   9  23  1   
 19   9  24  1   
 20  10  25  1   
 21  10  26  1   
 22  10  27  1   
 23  12  13  ar  
 24  12  14  ar  
 25  13  15  ar  
 26  13  28  1   
 27  14  16  ar  
 28  14  29  1   
 29  15  17  ar  
 30  15  30  1   
 31  16  17  ar  
 32  16  31  1   
 33  17  32  1   
@<TRIPOS>SUBSTRUCTURE
  1 ****   4 GROUP 4 **** **** 0

# MOE 2024.06 (io_trps.svl 2023.06)
