@<TRIPOS>MOLECULE
NONAME
32 33 1 0 0 
SMALL
USER_CHARGES


@<TRIPOS>ATOM
  1 CL       0.1820    -0.6570    -1.4580 Cl    1 <1>  -0.1770 
  2 C       -0.9210     0.4080    -0.6120 C.ar  1 <1>   0.1770 
  3 C       -0.5370     1.7090    -0.3120 C.ar  1 <1>   0.0830 
  4 C       -2.1660    -0.0740    -0.2450 C.ar  1 <1>  -0.1500 
  5 O        0.6730     2.1860    -0.6940 O.3   1 <1>  -0.3630 
  6 C       -1.4340     2.5210     0.3700 C.ar  1 <1>   0.1770 
  7 C       -3.0490     0.7520     0.4340 C.ar  1 <1>  -0.1500 
  8 C        1.7530     1.9160     0.1640 C.3   1 <1>   0.1200 
  9 CL      -0.9830     4.1600     0.7860 Cl    1 <1>  -0.1770 
 10 C       -2.6820     2.0540     0.7430 C.ar  1 <1>  -0.1500 
 11 C        3.0160     2.4550    -0.5120 C.3   1 <1>   0.3430 
 12 N        4.2610     2.1470     0.2630 N.4   1 <1>  -0.9590 
 13 C        5.4570     2.8080    -0.3150 C.3   1 <1>   0.3430 
 14 C        4.5950     0.7000     0.3210 C.3   1 <1>   0.3430 
 15 C        6.6330     2.0350     0.2650 C.3   1 <1>  -0.1600 
 16 C        6.0780     0.6650     0.6650 C.3   1 <1>  -0.1600 
 17 H       -2.4410    -1.0850    -0.4910 H     1 <1>   0.1500 
 18 H       -4.0210     0.3830     0.7210 H     1 <1>   0.1500 
 19 H        1.8090     0.8510     0.3060 H     1 <1>   0.0800 
 20 H        1.5690     2.4140     1.1000 H     1 <1>   0.0800 
 21 H       -3.3590     2.7030     1.2710 H     1 <1>   0.1500 
 22 H        2.9130     3.5230    -0.6170 H     1 <1>   0.0800 
 23 H        3.0910     2.0250    -1.4980 H     1 <1>   0.0800 
 24 H        4.1650     2.4890     1.2290 H     1 <1>   0.4500 
 25 H        5.5000     3.8550    -0.0590 H     1 <1>   0.0800 
 26 H        5.4520     2.7010    -1.3880 H     1 <1>   0.0800 
 27 H        4.4410     0.2500    -0.6470 H     1 <1>   0.0800 
 28 H        4.0030     0.1780     1.0570 H     1 <1>   0.0800 
 29 H        7.0190     2.5510     1.1280 H     1 <1>   0.0800 
 30 H        7.4230     1.9510    -0.4620 H     1 <1>   0.0800 
 31 H        6.5660    -0.1340     0.1340 H     1 <1>   0.0800 
 32 H        6.2050     0.5010     1.7210 H     1 <1>   0.0800 
@<TRIPOS>BOND
  1   1   2  1   
  2   2   3  ar  
  3   2   4  ar  
  4   3   5  1   
  5   3   6  ar  
  6   4   7  ar  
  7   4  17  1   
  8   5   8  1   
  9   6   9  1   
 10   6  10  ar  
 11   7  10  ar  
 12   7  18  1   
 13   8  11  1   
 14   8  19  1   
 15   8  20  1   
 16  10  21  1   
 17  11  12  1   
 18  11  22  1   
 19  11  23  1   
 20  12  13  1   
 21  12  14  1   
 22  12  24  1   
 23  13  15  1   
 24  13  25  1   
 25  13  26  1   
 26  14  16  1   
 27  14  27  1   
 28  14  28  1   
 29  15  16  1   
 30  15  29  1   
 31  15  30  1   
 32  16  31  1   
 33  16  32  1   
@<TRIPOS>SUBSTRUCTURE
  1 ****   8 GROUP 4 **** **** 0

# MOE 2024.06 (io_trps.svl 2023.06)
