@<TRIPOS>MOLECULE
NONAME
46 47 1 0 0 
SMALL
USER_CHARGES


@<TRIPOS>ATOM
  1 F       -1.7400     0.3400    -1.2290 F     1 <1>  -0.3400 
  2 C       -0.6640     1.1060    -1.0620 C.3   1 <1>   1.0200 
  3 F        0.2830     0.3000    -0.5820 F     1 <1>  -0.3400 
  4 F       -0.2440     1.4390    -2.2790 F     1 <1>  -0.3400 
  5 C       -0.8960     2.3430    -0.1190 C.3   1 <1>   0.6610 
  6 N       -1.2990     1.9980     1.2590 N.am  1 <1>  -0.7300 
  7 N        0.3110     3.2200     0.0610 N.am  1 <1>  -0.7300 
  8 C       -2.1670     3.0300    -0.6350 C.2   1 <1>   0.5690 
  9 C       -2.5450     2.4610     1.4800 C.2   1 <1>   0.6900 
 10 C        0.2910     4.5310     0.4060 C.2   1 <1>   0.5690 
 11 O       -2.3000     3.4680    -1.7550 O.2   1 <1>  -0.5700 
 12 N       -3.1080     3.0370     0.3640 N.am  1 <1>  -0.2370 
 13 O       -3.0650     2.3720     2.5690 O.2   1 <1>  -0.5700 
 14 O       -0.7360     5.0470     0.7710 O.2   1 <1>  -0.5700 
 15 C        1.5900     5.3730     0.3460 C.3   1 <1>   0.0610 
 16 C       -4.3720     3.6600     0.3140 C.ar  1 <1>   0.1170 
 17 C        1.3880     6.5690    -0.6020 C.3   1 <1>  -0.2400 
 18 C        2.8060     4.5670    -0.1620 C.3   1 <1>  -0.2400 
 19 C        1.9290     5.9080     1.7490 C.3   1 <1>  -0.2400 
 20 C       -4.5070     4.9560    -0.1690 C.ar  1 <1>  -0.1500 
 21 C       -5.5100     2.9930     0.7460 C.ar  1 <1>  -0.1500 
 22 C       -5.7450     5.5770    -0.2330 C.ar  1 <1>  -0.1440 
 23 C       -6.7480     3.6040     0.6870 C.ar  1 <1>  -0.1500 
 24 C       -6.8770     4.8950     0.1980 C.ar  1 <1>  -0.1440 
 25 C       -5.8290     6.9970    -0.7740 C.3   1 <1>  -0.0970 
 26 C       -8.2580     5.5330     0.1490 C.3   1 <1>  -0.0970 
 27 H       -0.6170     2.1020     2.0080 H     1 <1>   0.3700 
 28 H        1.1900     2.8190    -0.2690 H     1 <1>   0.3700 
 29 H        1.1470     6.2270    -1.5930 H     1 <1>   0.0800 
 30 H        2.2750     7.1760    -0.6530 H     1 <1>   0.0800 
 31 H        0.5760     7.1860    -0.2570 H     1 <1>   0.0800 
 32 H        2.6310     4.1990    -1.1580 H     1 <1>   0.0800 
 33 H        3.0150     3.7370     0.4890 H     1 <1>   0.0800 
 34 H        3.6820     5.1910    -0.1910 H     1 <1>   0.0800 
 35 H        1.1200     6.5130     2.1220 H     1 <1>   0.0800 
 36 H        2.8190     6.5110     1.7260 H     1 <1>   0.0800 
 37 H        2.0810     5.0940     2.4350 H     1 <1>   0.0800 
 38 H       -3.6270     5.4810    -0.4970 H     1 <1>   0.1500 
 39 H       -5.4270     1.9940     1.1350 H     1 <1>   0.1500 
 40 H       -7.6140     3.0640     1.0290 H     1 <1>   0.1500 
 41 H       -4.8580     7.3570    -1.0650 H     1 <1>   0.0800 
 42 H       -6.2200     7.6560    -0.0200 H     1 <1>   0.0800 
 43 H       -6.4710     7.0260    -1.6360 H     1 <1>   0.0800 
 44 H       -8.5090     5.7870    -0.8640 H     1 <1>   0.0800 
 45 H       -8.2720     6.4240     0.7500 H     1 <1>   0.0800 
 46 H       -9.0070     4.8600     0.5250 H     1 <1>   0.0800 
@<TRIPOS>BOND
  1   1   2  1   
  2   2   3  1   
  3   2   4  1   
  4   2   5  1   
  5   5   6  1   
  6   5   7  1   
  7   5   8  1   
  8   6   9  am  
  9   6  27  1   
 10   7  10  am  
 11   7  28  1   
 12   8  11  2   
 13   8  12  am  
 14   9  12  am  
 15   9  13  2   
 16  10  14  2   
 17  10  15  1   
 18  12  16  1   
 19  15  17  1   
 20  15  18  1   
 21  15  19  1   
 22  16  20  ar  
 23  16  21  ar  
 24  17  29  1   
 25  17  30  1   
 26  17  31  1   
 27  18  32  1   
 28  18  33  1   
 29  18  34  1   
 30  19  35  1   
 31  19  36  1   
 32  19  37  1   
 33  20  22  ar  
 34  20  38  1   
 35  21  23  ar  
 36  21  39  1   
 37  22  24  ar  
 38  22  25  1   
 39  23  24  ar  
 40  23  40  1   
 41  24  26  1   
 42  25  41  1   
 43  25  42  1   
 44  25  43  1   
 45  26  44  1   
 46  26  45  1   
 47  26  46  1   
@<TRIPOS>SUBSTRUCTURE
  1 ****   8 GROUP 4 **** **** 0

# MOE 2024.06 (io_trps.svl 2023.06)
