@<TRIPOS>MOLECULE
NONAME
39 40 1 0 0 
SMALL
USER_CHARGES


@<TRIPOS>ATOM
  1 O        3.0110     0.3340     2.8310 O.2   1 <1>  -0.5200 
  2 N        2.3740    -0.0370     1.8330 N.pl3 1 <1>   0.8000 
  3 O        1.1790    -0.3530     1.9140 O.2   1 <1>  -0.5200 
  4 C        3.0680    -0.1950     0.5380 C.3   1 <1>   0.4800 
  5 N        2.4830     0.8720    -0.3040 N.pl3 1 <1>   0.8000 
  6 C        4.5920     0.0390     0.6960 C.3   1 <1>   0.1400 
  7 C        2.8730    -1.6370    -0.0270 C.3   1 <1>  -0.1600 
  8 O        1.6980     0.5810    -1.2190 O.2   1 <1>  -0.5200 
  9 O        2.7870     2.0520    -0.0700 O.2   1 <1>  -0.5200 
 10 N        5.3790    -0.2950    -0.5340 N.am  1 <1>  -0.6600 
 11 C        3.6100    -1.8650    -1.3660 C.3   1 <1>  -0.0990 
 12 C        4.9980    -1.2500    -1.4420 C.2   1 <1>   0.5690 
 13 C        6.7080     0.3800    -0.6630 C.3   1 <1>   0.1400 
 14 O        5.7300    -1.6260    -2.3210 O.2   1 <1>  -0.5700 
 15 C        7.7830    -0.3990     0.0960 C.3   1 <1>   0.1200 
 16 O        8.9940     0.3290     0.0470 O.3   1 <1>  -0.4300 
 17 C       10.0710    -0.0640     0.7360 C.2   1 <1>   0.6340 
 18 O        9.9770    -1.0450     1.4440 O.2   1 <1>  -0.5700 
 19 C       11.2930     0.7090     0.6010 C.ar  1 <1>   0.0860 
 20 C       12.4320     0.3860     1.3430 C.ar  1 <1>  -0.1500 
 21 C       11.3900     1.8020    -0.2660 C.ar  1 <1>  -0.1500 
 22 C       13.6040     1.1120     1.2300 C.ar  1 <1>  -0.1500 
 23 C       12.5580     2.5320    -0.3840 C.ar  1 <1>  -0.1500 
 24 C       13.6690     2.1880     0.3650 C.ar  1 <1>  -0.1500 
 25 H        4.9620    -0.5890     1.4890 H     1 <1>   0.0800 
 26 H        4.7820     1.0610     0.9810 H     1 <1>   0.0800 
 27 H        1.8260    -1.8570    -0.1570 H     1 <1>   0.0800 
 28 H        3.2650    -2.3390     0.6890 H     1 <1>   0.0800 
 29 H        3.0350    -1.4520    -2.1760 H     1 <1>   0.0800 
 30 H        3.6950    -2.9210    -1.5510 H     1 <1>   0.0800 
 31 H        6.6440     1.3830    -0.2790 H     1 <1>   0.0800 
 32 H        6.9840     0.4340    -1.7030 H     1 <1>   0.0800 
 33 H        7.9490    -1.3600    -0.3600 H     1 <1>   0.0800 
 34 H        7.5060    -0.5210     1.1290 H     1 <1>   0.0800 
 35 H       12.3940    -0.4510     2.0200 H     1 <1>   0.1500 
 36 H       10.5380     2.0860    -0.8590 H     1 <1>   0.1500 
 37 H       14.4650     0.8390     1.8150 H     1 <1>   0.1500 
 38 H       12.6060     3.3690    -1.0590 H     1 <1>   0.1500 
 39 H       14.5800     2.7550     0.2750 H     1 <1>   0.1500 
@<TRIPOS>BOND
  1   1   2  2   
  2   2   3  2   
  3   2   4  1   
  4   4   5  1   
  5   4   6  1   
  6   4   7  1   
  7   5   8  2   
  8   5   9  2   
  9   6  10  1   
 10   6  25  1   
 11   6  26  1   
 12   7  11  1   
 13   7  27  1   
 14   7  28  1   
 15  10  12  am  
 16  10  13  1   
 17  11  12  1   
 18  11  29  1   
 19  11  30  1   
 20  12  14  2   
 21  13  15  1   
 22  13  31  1   
 23  13  32  1   
 24  15  16  1   
 25  15  33  1   
 26  15  34  1   
 27  16  17  1   
 28  17  18  2   
 29  17  19  1   
 30  19  20  ar  
 31  19  21  ar  
 32  20  22  ar  
 33  20  35  1   
 34  21  23  ar  
 35  21  36  1   
 36  22  24  ar  
 37  22  37  1   
 38  23  24  ar  
 39  23  38  1   
 40  24  39  1   
@<TRIPOS>SUBSTRUCTURE
  1 ****  13 GROUP 4 **** **** 0

# MOE 2024.06 (io_trps.svl 2023.06)
