@<TRIPOS>MOLECULE
NONAME
54 56 1 0 0 
SMALL
USER_CHARGES


@<TRIPOS>ATOM
  1 F        3.6120     1.0670     1.9680 F     1 <1>  -0.3400 
  2 C        2.7940     0.3850     1.1680 C.3   1 <1>   1.1640 
  3 F        1.7630     0.0400     1.9320 F     1 <1>  -0.3400 
  4 F        2.3000     1.2570     0.2960 F     1 <1>  -0.3400 
  5 C        3.4880    -0.8380     0.5180 C.ar  1 <1>  -0.1440 
  6 C        4.2980    -0.7560    -0.6250 C.ar  1 <1>  -0.1440 
  7 C        3.3110    -2.0890     1.1090 C.ar  1 <1>  -0.1500 
  8 C        4.8820    -1.9050    -1.1410 C.ar  1 <1>  -0.1500 
  9 C        4.5990     0.5540    -1.3530 C.3   1 <1>   0.2540 
 10 C        3.9010    -3.2240     0.5880 C.ar  1 <1>  -0.1500 
 11 C        4.6870    -3.1340    -0.5410 C.ar  1 <1>  -0.1500 
 12 N        5.2250     1.5140    -0.4310 N.3   1 <1>  -0.8100 
 13 C        5.3010     2.8730    -0.9960 C.3   1 <1>   0.1100 
 14 C        6.5280     1.0610     0.0970 C.3   1 <1>   0.1100 
 15 C        5.8140     3.8760     0.0570 C.3   1 <1>   0.3430 
 16 C        7.0430     2.0350     1.1740 C.3   1 <1>   0.3430 
 17 N        7.1290     3.4420     0.6530 N.4   1 <1>  -0.9590 
 18 C        7.5910     4.3900     1.6980 C.3   1 <1>   0.4860 
 19 C        7.9360     5.7010     1.0240 C.ar  1 <1>  -0.1430 
 20 C        9.1470     5.8600     0.3630 C.ar  1 <1>  -0.1500 
 21 C        7.0330     6.7530     1.0530 C.ar  1 <1>  -0.1500 
 22 C        9.4410     7.0610    -0.2780 C.ar  1 <1>   0.0830 
 23 C        7.3160     7.9470     0.4130 C.ar  1 <1>   0.0830 
 24 O       10.5980     7.2920    -0.9450 O.3   1 <1>  -0.3630 
 25 C        8.5240     8.0960    -0.2560 C.ar  1 <1>  -0.1500 
 26 O        6.3650     8.9100     0.4840 O.3   1 <1>  -0.3630 
 27 C       11.7010     6.4170    -0.8570 C.3   1 <1>   0.0400 
 28 C        6.5800    10.1890    -0.0730 C.3   1 <1>   0.0400 
 29 H        2.7040    -2.2000     1.9930 H     1 <1>   0.1500 
 30 H        5.4990    -1.8590    -2.0220 H     1 <1>   0.1500 
 31 H        3.6790     0.9590    -1.7400 H     1 <1>   0.0800 
 32 H        5.2530     0.3800    -2.1910 H     1 <1>   0.0800 
 33 H        3.7460    -4.1790     1.0620 H     1 <1>   0.1500 
 34 H        5.1450    -4.0170    -0.9520 H     1 <1>   0.1500 
 35 H        4.3180     3.1820    -1.3110 H     1 <1>   0.0800 
 36 H        5.9450     2.8830    -1.8580 H     1 <1>   0.0800 
 37 H        7.2450     0.9770    -0.7010 H     1 <1>   0.0800 
 38 H        6.4200     0.0890     0.5500 H     1 <1>   0.0800 
 39 H        5.0730     3.9550     0.8340 H     1 <1>   0.0800 
 40 H        5.9190     4.8460    -0.4030 H     1 <1>   0.0800 
 41 H        8.0100     1.7060     1.5160 H     1 <1>   0.0800 
 42 H        6.3620     1.9980     2.0090 H     1 <1>   0.0800 
 43 H        7.8190     3.4690    -0.1060 H     1 <1>   0.4500 
 44 H        8.4680     4.0030     2.1920 H     1 <1>   0.0800 
 45 H        6.8200     4.5410     2.4360 H     1 <1>   0.0800 
 46 H        9.8580     5.0560     0.3470 H     1 <1>   0.1500 
 47 H        6.0920     6.6720     1.5690 H     1 <1>   0.1500 
 48 H        8.7800     9.0060    -0.7650 H     1 <1>   0.1500 
 49 H       12.5220     6.8620    -1.3900 H     1 <1>   0.0800 
 50 H       11.4420     5.4770    -1.3110 H     1 <1>   0.0800 
 51 H       11.9670     6.2900     0.1780 H     1 <1>   0.0800 
 52 H        5.7130    10.7920     0.1260 H     1 <1>   0.0800 
 53 H        6.7200    10.0900    -1.1350 H     1 <1>   0.0800 
 54 H        7.4450    10.6320     0.3890 H     1 <1>   0.0800 
@<TRIPOS>BOND
  1   1   2  1   
  2   2   3  1   
  3   2   4  1   
  4   2   5  1   
  5   5   6  ar  
  6   5   7  ar  
  7   6   8  ar  
  8   6   9  1   
  9   7  10  ar  
 10   7  29  1   
 11   8  11  ar  
 12   8  30  1   
 13   9  12  1   
 14   9  31  1   
 15   9  32  1   
 16  10  11  ar  
 17  10  33  1   
 18  11  34  1   
 19  12  13  1   
 20  12  14  1   
 21  13  15  1   
 22  13  35  1   
 23  13  36  1   
 24  14  16  1   
 25  14  37  1   
 26  14  38  1   
 27  15  17  1   
 28  15  39  1   
 29  15  40  1   
 30  16  17  1   
 31  16  41  1   
 32  16  42  1   
 33  17  18  1   
 34  17  43  1   
 35  18  19  1   
 36  18  44  1   
 37  18  45  1   
 38  19  20  ar  
 39  19  21  ar  
 40  20  22  ar  
 41  20  46  1   
 42  21  23  ar  
 43  21  47  1   
 44  22  24  1   
 45  22  25  ar  
 46  23  25  ar  
 47  23  26  1   
 48  24  27  1   
 49  25  48  1   
 50  26  28  1   
 51  27  49  1   
 52  27  50  1   
 53  27  51  1   
 54  28  52  1   
 55  28  53  1   
 56  28  54  1   
@<TRIPOS>SUBSTRUCTURE
  1 ****  15 GROUP 4 **** **** 0

# MOE 2024.06 (io_trps.svl 2023.06)
