@<TRIPOS>MOLECULE
NONAME
48 49 1 0 0 
SMALL
USER_CHARGES


@<TRIPOS>ATOM
  1 O       -0.3390    -1.2010     2.1070 O.2   1 <1>  -0.5700 
  2 C        0.7590    -1.5970     1.7630 C.2   1 <1>   0.5440 
  3 N        1.7320    -0.6490     1.7030 N.am  1 <1>  -0.7300 
  4 C        0.9850    -2.9870     1.4100 C.ar  1 <1>   0.0860 
  5 C        2.9290    -0.6460     0.8290 C.3   1 <1>   0.1400 
  6 C        0.0680    -3.6960     0.6150 C.ar  1 <1>   0.1170 
  7 C        2.1310    -3.6510     1.8550 C.ar  1 <1>  -0.1500 
  8 C        2.8140     0.4620    -0.2290 C.3   1 <1>  -0.0800 
  9 N       -1.1100    -3.0570     0.2010 N.am  1 <1>  -0.5470 
 10 C        0.3410    -5.0200     0.2760 C.ar  1 <1>  -0.1500 
 11 C        2.3870    -4.9630     1.5120 C.ar  1 <1>  -0.1500 
 12 C        4.0130     0.3980    -1.1850 C.3   1 <1>  -0.2400 
 13 C        2.7340     1.8630     0.3990 C.3   1 <1>  -0.2400 
 14 C       -2.0370    -3.3240    -0.7650 C.2   1 <1>   0.5690 
 15 C        1.4890    -5.6490     0.7150 C.ar  1 <1>  -0.1500 
 16 O       -1.9720    -4.2540    -1.5280 O.2   1 <1>  -0.5700 
 17 C       -3.2110    -2.3760    -0.8680 C.3   1 <1>  -0.0990 
 18 C       -4.2580    -2.6710     0.2110 C.3   1 <1>  -0.0170 
 19 C       -5.3650    -1.6310     0.1630 C.ar  1 <1>  -0.1430 
 20 C       -6.4570    -1.8080    -0.6720 C.ar  1 <1>  -0.1500 
 21 C       -5.2870    -0.4930     0.9510 C.ar  1 <1>  -0.1500 
 22 C       -7.4610    -0.8570    -0.7200 C.ar  1 <1>  -0.1500 
 23 C       -6.2910     0.4590     0.9040 C.ar  1 <1>  -0.1500 
 24 C       -7.3780     0.2780     0.0680 C.ar  1 <1>  -0.1500 
 25 H        1.4400     0.2770     2.0220 H     1 <1>   0.3700 
 26 H        3.0260    -1.5980     0.3350 H     1 <1>   0.0800 
 27 H        3.8060    -0.4890     1.4330 H     1 <1>   0.0800 
 28 H        2.8290    -3.1240     2.4820 H     1 <1>   0.1500 
 29 H        1.9220     0.2870    -0.8070 H     1 <1>   0.0800 
 30 H       -1.2960    -2.2020     0.7440 H     1 <1>   0.3700 
 31 H       -0.3510    -5.5730    -0.3320 H     1 <1>   0.1500 
 32 H        3.2790    -5.4550     1.8620 H     1 <1>   0.1500 
 33 H        4.9330     0.5680    -0.6540 H     1 <1>   0.0800 
 34 H        3.9180     1.1450    -1.9530 H     1 <1>   0.0800 
 35 H        4.0620    -0.5660    -1.6600 H     1 <1>   0.0800 
 36 H        3.5920     2.0510     1.0210 H     1 <1>   0.0800 
 37 H        1.8450     1.9660     0.9950 H     1 <1>   0.0800 
 38 H        2.7000     2.6140    -0.3720 H     1 <1>   0.0800 
 39 H        1.6810    -6.6720     0.4410 H     1 <1>   0.1500 
 40 H       -3.6580    -2.4760    -1.8410 H     1 <1>   0.0800 
 41 H       -2.8580    -1.3660    -0.7700 H     1 <1>   0.0800 
 42 H       -3.8000    -2.6600     1.1840 H     1 <1>   0.0800 
 43 H       -4.6710    -3.6530     0.0560 H     1 <1>   0.0800 
 44 H       -6.5280    -2.6860    -1.2900 H     1 <1>   0.1500 
 45 H       -4.4450    -0.3420     1.6040 H     1 <1>   0.1500 
 46 H       -8.3060    -0.9990    -1.3710 H     1 <1>   0.1500 
 47 H       -6.2240     1.3400     1.5180 H     1 <1>   0.1500 
 48 H       -8.1580     1.0170     0.0310 H     1 <1>   0.1500 
@<TRIPOS>BOND
  1   1   2  2   
  2   2   3  am  
  3   2   4  1   
  4   3   5  1   
  5   3  25  1   
  6   4   6  ar  
  7   4   7  ar  
  8   5   8  1   
  9   5  26  1   
 10   5  27  1   
 11   6   9  1   
 12   6  10  ar  
 13   7  11  ar  
 14   7  28  1   
 15   8  12  1   
 16   8  13  1   
 17   8  29  1   
 18   9  14  am  
 19   9  30  1   
 20  10  15  ar  
 21  10  31  1   
 22  11  15  ar  
 23  11  32  1   
 24  12  33  1   
 25  12  34  1   
 26  12  35  1   
 27  13  36  1   
 28  13  37  1   
 29  13  38  1   
 30  14  16  2   
 31  14  17  1   
 32  15  39  1   
 33  17  18  1   
 34  17  40  1   
 35  17  41  1   
 36  18  19  1   
 37  18  42  1   
 38  18  43  1   
 39  19  20  ar  
 40  19  21  ar  
 41  20  22  ar  
 42  20  44  1   
 43  21  23  ar  
 44  21  45  1   
 45  22  24  ar  
 46  22  46  1   
 47  23  24  ar  
 48  23  47  1   
 49  24  48  1   
@<TRIPOS>SUBSTRUCTURE
  1 ****   9 GROUP 4 **** **** 0

# MOE 2024.06 (io_trps.svl 2023.06)
