@<TRIPOS>MOLECULE
NONAME
43 44 1 0 0 
SMALL
USER_CHARGES


@<TRIPOS>ATOM
  1 O        0.3050     0.5750    -1.0030 O.2   1 <1>  -0.5700 
  2 C        0.1010     1.6410    -0.4480 C.2   1 <1>   0.4140 
  3 C        1.1200     2.4760     0.0970 C.3   1 <1>  -0.6750 
  4 C       -1.3700     2.0090    -0.3720 C.3   1 <1>  -0.0990 
  5 C        0.6920     3.5980     0.8690 C.2   1 <1>   0.4140 
  6 C        2.4700     2.1170    -0.1830 C.2   1 <1>  -0.2850 
  7 C       -1.6070     3.5170    -0.2500 C.3   1 <1>   0.0000 
  8 O        1.4050     4.3050     1.5560 O.2   1 <1>  -0.5700 
  9 C       -0.7700     4.0100     0.9340 C.3   1 <1>  -0.0990 
 10 C        3.7210     2.6450     0.0890 C.2   1 <1>   0.1140 
 11 C       -1.1980     4.2420    -1.5460 C.3   1 <1>  -0.2400 
 12 C       -3.0970     3.7910     0.0130 C.3   1 <1>  -0.2400 
 13 N        3.9250     3.8060     0.8150 N.pl3 1 <1>  -0.6000 
 14 C        5.0170     2.1950    -0.2840 C.2   1 <1>   0.5410 
 15 C        5.2370     4.0760     0.9100 C.2   1 <1>  -0.0380 
 16 O        5.2990     1.2120    -0.9910 O.2   1 <1>  -0.5700 
 17 C        5.9570     3.1130     0.2510 C.2   1 <1>   0.0290 
 18 C        5.7000     5.2940     1.6840 C.3   1 <1>  -0.1020 
 19 C        7.3640     2.9950     0.0770 C.2   1 <1>   0.7060 
 20 O        7.9860     1.9490     0.1220 O.2   1 <1>  -0.5700 
 21 O        8.0530     4.1280    -0.1250 O.3   1 <1>  -0.4300 
 22 C        9.4530     4.1140    -0.2830 C.3   1 <1>   0.1200 
 23 C       10.9780     4.0330    -0.3560 C.3   1 <1>  -0.2400 
 24 H       -1.7810     1.4970     0.4770 H     1 <1>   0.0800 
 25 H       -1.8630     1.6360    -1.2510 H     1 <1>   0.0800 
 26 H        2.5620     1.2130    -0.7630 H     1 <1>   0.1500 
 27 H       -0.8230     5.0810     0.9890 H     1 <1>   0.0800 
 28 H       -1.1660     3.6170     1.8520 H     1 <1>   0.0800 
 29 H       -0.1560     4.0800    -1.7640 H     1 <1>   0.0800 
 30 H       -1.3580     5.3010    -1.4530 H     1 <1>   0.0800 
 31 H       -1.7720     3.8780    -2.3790 H     1 <1>   0.0800 
 32 H       -3.4200     3.2970     0.9120 H     1 <1>   0.0800 
 33 H       -3.6940     3.4300    -0.8060 H     1 <1>   0.0800 
 34 H       -3.2700     4.8460     0.1230 H     1 <1>   0.0800 
 35 H        3.0800     4.2690     1.2030 H     1 <1>   0.4000 
 36 H        5.3860     6.1860     1.1730 H     1 <1>   0.0800 
 37 H        5.2580     5.2850     2.6650 H     1 <1>   0.0800 
 38 H        6.7680     5.3080     1.7900 H     1 <1>   0.0800 
 39 H        9.3790     3.7410    -1.2920 H     1 <1>   0.0800 
 40 H        9.4980     5.1880    -0.3220 H     1 <1>   0.0800 
 41 H       11.3520     4.5680    -1.2120 H     1 <1>   0.0800 
 42 H       11.2880     3.0050    -0.4330 H     1 <1>   0.0800 
 43 H       11.4170     4.4530     0.5310 H     1 <1>   0.0800 
@<TRIPOS>BOND
  1   1   2  2   
  2   2   3  1   
  3   2   4  1   
  4   3   5  1   
  5   3   6  1   
  6   4   7  1   
  7   4  24  1   
  8   4  25  1   
  9   5   8  2   
 10   5   9  1   
 11   6  10  2   
 12   6  26  1   
 13   7   9  1   
 14   7  11  1   
 15   7  12  1   
 16   9  27  1   
 17   9  28  1   
 18  10  13  1   
 19  10  14  1   
 20  11  29  1   
 21  11  30  1   
 22  11  31  1   
 23  12  32  1   
 24  12  33  1   
 25  12  34  1   
 26  13  15  1   
 27  13  35  1   
 28  14  16  2   
 29  14  17  1   
 30  15  17  2   
 31  15  18  1   
 32  17  19  1   
 33  18  36  1   
 34  18  37  1   
 35  18  38  1   
 36  19  20  2   
 37  19  21  1   
 38  21  22  1   
 39  22  23  1   
 40  22  39  1   
 41  22  40  1   
 42  23  41  1   
 43  23  42  1   
 44  23  43  1   
@<TRIPOS>SUBSTRUCTURE
  1 ****  10 GROUP 4 **** **** 0

# MOE 2024.06 (io_trps.svl 2023.06)
