@<TRIPOS>MOLECULE
NONAME
50 52 1 0 0 
SMALL
USER_CHARGES


@<TRIPOS>ATOM
  1 O        2.8990     5.6250    -1.3820 O.2   1 <1>  -0.5700 
  2 C        2.6990     6.8160    -1.3910 C.2   1 <1>   0.5690 
  3 N        3.5950     7.7420    -0.9380 N.am  1 <1>  -0.5470 
  4 C        1.3390     7.3160    -1.8860 C.3   1 <1>   0.1710 
  5 C        4.8540     7.5390    -0.3500 C.ar  1 <1>   0.1170 
  6 N        0.4030     7.7160    -0.7920 N.3   1 <1>  -0.8100 
  7 C        5.0690     7.9970     0.9530 C.ar  1 <1>  -0.1430 
  8 C        5.9020     6.9200    -1.0370 C.ar  1 <1>  -0.1430 
  9 C       -0.9010     8.1540    -1.3320 C.3   1 <1>   0.1100 
 10 C        0.2250     6.5960     0.1750 C.3   1 <1>   0.1100 
 11 C        6.3040     7.8220     1.5530 C.ar  1 <1>  -0.1500 
 12 C        3.9630     8.6850     1.7440 C.3   1 <1>  -0.0970 
 13 C        7.1270     6.7520    -0.4140 C.ar  1 <1>  -0.1500 
 14 C        5.7560     6.4210    -2.4690 C.3   1 <1>  -0.0970 
 15 C       -1.8080     8.7170    -0.2060 C.3   1 <1>   0.4230 
 16 C       -1.0630     6.6910     1.0280 C.3   1 <1>   0.3430 
 17 C        7.3380     7.2000     0.8780 C.ar  1 <1>  -0.1440 
 18 N       -1.5690     8.1000     1.1390 N.4   1 <1>  -0.9590 
 19 C       -3.2980     8.5300    -0.4410 C.3   1 <1>  -0.1600 
 20 C        8.6860     7.0060     1.5460 C.3   1 <1>  -0.0970 
 21 C       -2.8330     8.1900     1.9250 C.3   1 <1>   0.3430 
 22 C       -3.9030     8.6810     0.9520 C.3   1 <1>  -0.1600 
 23 H        3.2320     8.6870    -0.8350 H     1 <1>   0.3700 
 24 H        0.8950     6.5310    -2.4740 H     1 <1>   0.0800 
 25 H        1.5080     8.1550    -2.5360 H     1 <1>   0.0800 
 26 H       -1.3870     7.3240    -1.8170 H     1 <1>   0.0800 
 27 H       -0.7540     8.9220    -2.0730 H     1 <1>   0.0800 
 28 H        1.0770     6.5720     0.8340 H     1 <1>   0.0800 
 29 H        0.2090     5.6530    -0.3480 H     1 <1>   0.0800 
 30 H        6.4690     8.1700     2.5570 H     1 <1>   0.1500 
 31 H        3.0890     8.0600     1.7720 H     1 <1>   0.0800 
 32 H        3.7140     9.6250     1.2860 H     1 <1>   0.0800 
 33 H        4.2740     8.8720     2.7560 H     1 <1>   0.0800 
 34 H        7.9300     6.2650    -0.9380 H     1 <1>   0.1500 
 35 H        5.1650     7.1040    -3.0510 H     1 <1>   0.0800 
 36 H        5.2790     5.4570    -2.4700 H     1 <1>   0.0800 
 37 H        6.7160     6.3260    -2.9420 H     1 <1>   0.0800 
 38 H       -1.6170     9.7750    -0.1250 H     1 <1>   0.0800 
 39 H       -0.8690     6.2830     2.0070 H     1 <1>   0.0800 
 40 H       -1.8200     6.0810     0.5650 H     1 <1>   0.0800 
 41 H       -0.8150     8.6480     1.5720 H     1 <1>   0.4500 
 42 H       -3.4940     7.5430    -0.8230 H     1 <1>   0.0800 
 43 H       -3.6870     9.2570    -1.1340 H     1 <1>   0.0800 
 44 H        8.8690     7.7880     2.2610 H     1 <1>   0.0800 
 45 H        9.4740     7.0230     0.8150 H     1 <1>   0.0800 
 46 H        8.7050     6.0590     2.0550 H     1 <1>   0.0800 
 47 H       -2.7270     8.8810     2.7460 H     1 <1>   0.0800 
 48 H       -3.1020     7.2210     2.3130 H     1 <1>   0.0800 
 49 H       -4.8180     8.1250     1.0600 H     1 <1>   0.0800 
 50 H       -4.1090     9.7180     1.1560 H     1 <1>   0.0800 
@<TRIPOS>BOND
  1   1   2  2   
  2   2   3  am  
  3   2   4  1   
  4   3   5  1   
  5   3  23  1   
  6   4   6  1   
  7   4  24  1   
  8   4  25  1   
  9   5   7  ar  
 10   5   8  ar  
 11   6   9  1   
 12   6  10  1   
 13   7  11  ar  
 14   7  12  1   
 15   8  13  ar  
 16   8  14  1   
 17   9  15  1   
 18   9  26  1   
 19   9  27  1   
 20  10  16  1   
 21  10  28  1   
 22  10  29  1   
 23  11  17  ar  
 24  11  30  1   
 25  12  31  1   
 26  12  32  1   
 27  12  33  1   
 28  13  17  ar  
 29  13  34  1   
 30  14  35  1   
 31  14  36  1   
 32  14  37  1   
 33  15  18  1   
 34  15  19  1   
 35  15  38  1   
 36  16  18  1   
 37  16  39  1   
 38  16  40  1   
 39  17  20  1   
 40  18  21  1   
 41  18  41  1   
 42  19  22  1   
 43  19  42  1   
 44  19  43  1   
 45  20  44  1   
 46  20  45  1   
 47  20  46  1   
 48  21  22  1   
 49  21  47  1   
 50  21  48  1   
 51  22  49  1   
 52  22  50  1   
@<TRIPOS>SUBSTRUCTURE
  1 ****   2 GROUP 4 **** **** 0

# MOE 2024.06 (io_trps.svl 2023.06)
