@<TRIPOS>MOLECULE
NONAME
42 43 1 0 0 
SMALL
USER_CHARGES


@<TRIPOS>ATOM
  1 O        0.3710    -0.9680    -1.6130 O.2   1 <1>  -0.5700 
  2 C        0.8710    -1.2480    -0.5420 C.2   1 <1>   0.6340 
  3 O        0.0700    -1.6490     0.4530 O.3   1 <1>  -0.4300 
  4 C        2.2950    -1.1700    -0.2820 C.ar  1 <1>   0.0860 
  5 C       -1.3300    -1.7540     0.2850 C.3   1 <1>   0.0400 
  6 C        3.1910    -0.7690    -1.2760 C.ar  1 <1>  -0.1500 
  7 C        2.8450    -1.4850     0.9640 C.ar  1 <1>  -0.1500 
  8 C        4.5500    -0.6880    -1.0430 C.ar  1 <1>  -0.1500 
  9 C        4.2050    -1.4060     1.1990 C.ar  1 <1>  -0.1500 
 10 C        5.0860    -1.0080     0.2000 C.ar  1 <1>   0.1170 
 11 N        6.4510    -0.9350     0.4970 N.am  1 <1>  -0.5470 
 12 C        7.5540    -0.9110    -0.3170 C.2   1 <1>   0.5690 
 13 O        7.4930    -0.9940    -1.5190 O.2   1 <1>  -0.5700 
 14 C        8.9190    -0.7750     0.3610 C.3   1 <1>  -0.0190 
 15 C        9.2500     0.7040     0.6350 C.3   1 <1>  -0.1600 
 16 C       10.0580    -1.4250    -0.4510 C.3   1 <1>  -0.1600 
 17 C       10.6170     0.8650     1.3070 C.3   1 <1>   0.1400 
 18 C       11.4150    -1.2480     0.2340 C.3   1 <1>   0.1400 
 19 N       11.6610     0.2000     0.4790 N.am  1 <1>  -0.6600 
 20 C       12.7240     0.9140    -0.0150 C.2   1 <1>   0.5690 
 21 O       12.8900     2.0820     0.2390 O.2   1 <1>  -0.5700 
 22 C       13.7470     0.2560    -0.9120 C.3   1 <1>  -0.1790 
 23 H       -1.7610    -2.0920     1.2100 H     1 <1>   0.0800 
 24 H       -1.5340    -2.4610    -0.5010 H     1 <1>   0.0800 
 25 H       -1.7230    -0.7860     0.0230 H     1 <1>   0.0800 
 26 H        2.8090    -0.5160    -2.2510 H     1 <1>   0.1500 
 27 H        2.1950    -1.7990     1.7620 H     1 <1>   0.1500 
 28 H        5.1950    -0.3680    -1.8420 H     1 <1>   0.1500 
 29 H        4.5840    -1.6610     2.1720 H     1 <1>   0.1500 
 30 H        6.6610    -0.9170     1.4920 H     1 <1>   0.3700 
 31 H        8.8660    -1.2870     1.3050 H     1 <1>   0.0800 
 32 H        8.4960     1.1420     1.2640 H     1 <1>   0.0800 
 33 H        9.2570     1.2510    -0.2930 H     1 <1>   0.0800 
 34 H       10.1080    -0.9820    -1.4310 H     1 <1>   0.0800 
 35 H        9.8570    -2.4740    -0.5810 H     1 <1>   0.0800 
 36 H       10.6080     0.4150     2.2850 H     1 <1>   0.0800 
 37 H       10.8350     1.9130     1.4270 H     1 <1>   0.0800 
 38 H       12.1840    -1.6790    -0.3810 H     1 <1>   0.0800 
 39 H       11.4190    -1.7660     1.1780 H     1 <1>   0.0800 
 40 H       14.2430    -0.5340    -0.3810 H     1 <1>   0.0800 
 41 H       14.4800     0.9800    -1.2160 H     1 <1>   0.0800 
 42 H       13.2650    -0.1340    -1.7890 H     1 <1>   0.0800 
@<TRIPOS>BOND
  1   1   2  2   
  2   2   3  1   
  3   2   4  1   
  4   3   5  1   
  5   4   6  ar  
  6   4   7  ar  
  7   5  23  1   
  8   5  24  1   
  9   5  25  1   
 10   6   8  ar  
 11   6  26  1   
 12   7   9  ar  
 13   7  27  1   
 14   8  10  ar  
 15   8  28  1   
 16   9  10  ar  
 17   9  29  1   
 18  10  11  1   
 19  11  12  am  
 20  11  30  1   
 21  12  13  2   
 22  12  14  1   
 23  14  15  1   
 24  14  16  1   
 25  14  31  1   
 26  15  17  1   
 27  15  32  1   
 28  15  33  1   
 29  16  18  1   
 30  16  34  1   
 31  16  35  1   
 32  17  19  1   
 33  17  36  1   
 34  17  37  1   
 35  18  19  1   
 36  18  38  1   
 37  18  39  1   
 38  19  20  am  
 39  20  21  2   
 40  20  22  1   
 41  22  40  1   
 42  22  41  1   
 43  22  42  1   
@<TRIPOS>SUBSTRUCTURE
  1 ****  11 GROUP 4 **** **** 0

# MOE 2024.06 (io_trps.svl 2023.06)
