@<TRIPOS>MOLECULE
NONAME
37 38 1 0 0 
SMALL
USER_CHARGES


@<TRIPOS>ATOM
  1 O       -0.5830    -4.5290    -0.8370 O.2   1 <1>  -0.5700 
  2 C       -0.1200    -3.4560    -0.5210 C.2   1 <1>   0.5690 
  3 N        1.1660    -3.3980    -0.0170 N.am  1 <1>  -0.6600 
  4 C       -0.9980    -2.1970    -0.7390 C.3   1 <1>   0.2610 
  5 C        1.8460    -4.6370     0.4750 C.3   1 <1>   0.1400 
  6 C        1.9540    -2.1370     0.1540 C.3   1 <1>   0.1400 
  7 O       -0.8020    -1.1980     0.2380 O.3   1 <1>  -0.5600 
  8 C       -2.5030    -2.4580    -0.7290 C.3   1 <1>  -0.1600 
  9 C        3.2680    -4.7560    -0.0940 C.3   1 <1>   0.3430 
 10 C        3.3960    -2.2930    -0.3680 C.3   1 <1>   0.3430 
 11 C       -1.9890    -0.5330     0.5560 C.3   1 <1>   0.1200 
 12 C       -3.0720    -1.1090    -0.3460 C.3   1 <1>  -0.1600 
 13 N        4.0810    -3.5200     0.1720 N.4   1 <1>  -0.9590 
 14 C        5.4610    -3.6640    -0.3360 C.3   1 <1>   0.4810 
 15 C        6.3000    -2.6110     0.3510 C.2   1 <1>  -0.2880 
 16 C        7.1560    -2.8420     1.3520 C.2   1 <1>  -0.3000 
 17 H       -0.7310    -1.7590    -1.6830 H     1 <1>   0.0800 
 18 H        1.2880    -5.5150     0.1970 H     1 <1>   0.0800 
 19 H        1.8850    -4.6110     1.5500 H     1 <1>   0.0800 
 20 H        1.9650    -1.8650     1.1960 H     1 <1>   0.0800 
 21 H        1.4980    -1.3290    -0.3890 H     1 <1>   0.0800 
 22 H       -2.7380    -3.1890     0.0250 H     1 <1>   0.0800 
 23 H       -2.8570    -2.8090    -1.6820 H     1 <1>   0.0800 
 24 H        3.1940    -4.9240    -1.1570 H     1 <1>   0.0800 
 25 H        3.7490    -5.6150     0.3450 H     1 <1>   0.0800 
 26 H        3.9560    -1.4110    -0.1030 H     1 <1>   0.0800 
 27 H        3.3590    -2.3470    -1.4440 H     1 <1>   0.0800 
 28 H       -1.8550     0.5250     0.4060 H     1 <1>   0.0800 
 29 H       -2.2070    -0.7320     1.5920 H     1 <1>   0.0800 
 30 H       -4.0190    -1.1860     0.1580 H     1 <1>   0.0800 
 31 H       -3.1820    -0.4840    -1.2160 H     1 <1>   0.0800 
 32 H        4.1670    -3.4030     1.1910 H     1 <1>   0.4500 
 33 H        5.4990    -3.5500    -1.4080 H     1 <1>   0.0800 
 34 H        5.8440    -4.6380    -0.0780 H     1 <1>   0.0800 
 35 H        6.1540    -1.6240    -0.0520 H     1 <1>   0.1500 
 36 H        7.7490    -2.0730     1.8230 H     1 <1>   0.1500 
 37 H        7.3520    -3.8060     1.7930 H     1 <1>   0.1500 
@<TRIPOS>BOND
  1   1   2  2   
  2   2   3  am  
  3   2   4  1   
  4   3   5  1   
  5   3   6  1   
  6   4   7  1   
  7   4   8  1   
  8   4  17  1   
  9   5   9  1   
 10   5  18  1   
 11   5  19  1   
 12   6  10  1   
 13   6  20  1   
 14   6  21  1   
 15   7  11  1   
 16   8  12  1   
 17   8  22  1   
 18   8  23  1   
 19   9  13  1   
 20   9  24  1   
 21   9  25  1   
 22  10  13  1   
 23  10  26  1   
 24  10  27  1   
 25  11  12  1   
 26  11  28  1   
 27  11  29  1   
 28  12  30  1   
 29  12  31  1   
 30  13  14  1   
 31  13  32  1   
 32  14  15  1   
 33  14  33  1   
 34  14  34  1   
 35  15  16  2   
 36  15  35  1   
 37  16  36  1   
 38  16  37  1   
@<TRIPOS>SUBSTRUCTURE
  1 ****   3 GROUP 4 **** **** 0

# MOE 2024.06 (io_trps.svl 2023.06)
