@<TRIPOS>MOLECULE
NONAME
50 53 1 0 0 
SMALL
USER_CHARGES


@<TRIPOS>ATOM
  1 O       -2.1550     0.4230     1.6300 O.3   1 <1>  -0.3630 
  2 C       -2.4810     0.9850     0.4420 C.ar  1 <1>   0.0830 
  3 C       -1.5990    -0.8750     1.6120 C.3   1 <1>   0.1200 
  4 C       -1.6830     1.9800    -0.1250 C.ar  1 <1>   0.0820 
  5 C       -3.6480     0.5780    -0.1840 C.ar  1 <1>  -0.1500 
  6 C       -0.1180    -0.7980     1.2420 C.3   1 <1>  -0.2400 
  7 O       -0.5550     2.3580     0.5390 O.3   1 <1>  -0.3620 
  8 C       -2.0700     2.5410    -1.3390 C.ar  1 <1>  -0.1500 
  9 C       -4.0380     1.1550    -1.3830 C.ar  1 <1>  -0.1440 
 10 C        0.3380     3.3130     0.0120 C.3   1 <1>   0.0400 
 11 C       -3.2370     2.1300    -1.9610 C.ar  1 <1>  -0.1500 
 12 C       -5.3390     0.7420    -2.0430 C.3   1 <1>   0.4860 
 13 N       -6.4680     1.1870    -1.1870 N.4   1 <1>  -0.9590 
 14 C       -7.7780     0.6680    -1.6680 C.3   1 <1>   0.5230 
 15 C       -6.4850     2.6790    -0.9640 C.3   1 <1>   0.3430 
 16 C       -8.8340     1.1860    -0.7210 C.2   1 <1>  -0.3320 
 17 C       -7.4120     3.0550     0.2040 C.3   1 <1>   0.0210 
 18 N      -10.0970     0.6740    -0.5760 N.pl3 1 <1>   0.0330 
 19 C       -8.6820     2.2390     0.1120 C.2   1 <1>  -0.1810 
 20 C      -10.7440     1.4170     0.3790 C.ar  1 <1>  -0.1520 
 21 C       -9.8800     2.4090     0.8340 C.ar  1 <1>   0.0000 
 22 C      -12.0380     1.3030     0.8940 C.ar  1 <1>  -0.1500 
 23 C      -10.3090     3.3030     1.8210 C.ar  1 <1>  -0.1500 
 24 C      -12.4470     2.1890     1.8640 C.ar  1 <1>  -0.1500 
 25 C      -11.5830     3.1880     2.3270 C.ar  1 <1>  -0.1500 
 26 H       -2.1450    -1.4850     0.9140 H     1 <1>   0.0800 
 27 H       -1.7110    -1.2840     2.6010 H     1 <1>   0.0800 
 28 H       -4.2360    -0.1850     0.2930 H     1 <1>   0.1500 
 29 H        0.0010    -0.4360     0.2370 H     1 <1>   0.0800 
 30 H        0.3250    -1.7740     1.3070 H     1 <1>   0.0800 
 31 H        0.3960    -0.1410     1.9210 H     1 <1>   0.0800 
 32 H       -1.4740     3.2990    -1.8110 H     1 <1>   0.1500 
 33 H        1.1520     3.4240     0.7040 H     1 <1>   0.0800 
 34 H       -0.1770     4.2510    -0.0970 H     1 <1>   0.0800 
 35 H        0.7090     2.9610    -0.9340 H     1 <1>   0.0800 
 36 H       -3.5080     2.5850    -2.8990 H     1 <1>   0.1500 
 37 H       -5.3550    -0.3310    -2.1540 H     1 <1>   0.0800 
 38 H       -5.4130     1.1900    -3.0210 H     1 <1>   0.0800 
 39 H       -6.3350     0.7790    -0.2540 H     1 <1>   0.4500 
 40 H       -7.7740    -0.4100    -1.6600 H     1 <1>   0.0800 
 41 H       -7.9820     1.0150    -2.6690 H     1 <1>   0.0800 
 42 H       -6.8340     3.1690    -1.8580 H     1 <1>   0.0800 
 43 H       -5.4930     3.0410    -0.7460 H     1 <1>   0.0800 
 44 H       -7.6430     4.1040     0.1580 H     1 <1>   0.0800 
 45 H       -6.9240     2.8590     1.1420 H     1 <1>   0.0800 
 46 H      -10.5290    -0.1170    -1.0670 H     1 <1>   0.2700 
 47 H      -12.6990     0.5350     0.5360 H     1 <1>   0.1500 
 48 H       -9.6400     4.0670     2.1720 H     1 <1>   0.1500 
 49 H      -13.4380     2.1230     2.2770 H     1 <1>   0.1500 
 50 H      -11.9300     3.8670     3.0870 H     1 <1>   0.1500 
@<TRIPOS>BOND
  1   1   2  1   
  2   1   3  1   
  3   2   4  ar  
  4   2   5  ar  
  5   3   6  1   
  6   3  26  1   
  7   3  27  1   
  8   4   7  1   
  9   4   8  ar  
 10   5   9  ar  
 11   5  28  1   
 12   6  29  1   
 13   6  30  1   
 14   6  31  1   
 15   7  10  1   
 16   8  11  ar  
 17   8  32  1   
 18   9  11  ar  
 19   9  12  1   
 20  10  33  1   
 21  10  34  1   
 22  10  35  1   
 23  11  36  1   
 24  12  13  1   
 25  12  37  1   
 26  12  38  1   
 27  13  14  1   
 28  13  15  1   
 29  13  39  1   
 30  14  16  1   
 31  14  40  1   
 32  14  41  1   
 33  15  17  1   
 34  15  42  1   
 35  15  43  1   
 36  16  18  1   
 37  16  19  2   
 38  17  19  1   
 39  17  44  1   
 40  17  45  1   
 41  18  20  1   
 42  18  46  1   
 43  19  21  1   
 44  20  21  ar  
 45  20  22  ar  
 46  21  23  ar  
 47  22  24  ar  
 48  22  47  1   
 49  23  25  ar  
 50  23  48  1   
 51  24  25  ar  
 52  24  49  1   
 53  25  50  1   
@<TRIPOS>SUBSTRUCTURE
  1 ****  13 GROUP 4 **** **** 0

# MOE 2024.06 (io_trps.svl 2023.06)
