@<TRIPOS>MOLECULE
NONAME
37 38 1 0 0 
SMALL
USER_CHARGES


@<TRIPOS>ATOM
  1 S       -1.6240    -0.0010     1.4750 S.3   1 <1>  -0.0800 
  2 C       -1.8620     0.7910    -0.0770 C.2   1 <1>  -0.1400 
  3 C       -0.1430     0.8960     1.7540 C.2   1 <1>  -0.1100 
  4 C       -0.8640     1.6610    -0.3220 C.2   1 <1>  -0.1500 
  5 C       -3.0940     0.3920    -0.8560 C.3   1 <1>   0.5230 
  6 C        0.1130     1.7200     0.7220 C.2   1 <1>  -0.1500 
  7 N       -4.2870     0.7180    -0.0110 N.4   1 <1>  -0.9590 
  8 C       -5.5280    -0.0450    -0.3700 C.3   1 <1>   0.4230 
  9 C       -4.4460     2.2150     0.0100 C.3   1 <1>   0.2630 
 10 C       -6.7090     0.4030     0.5080 C.3   1 <1>  -0.1600 
 11 C       -5.2960    -1.5540    -0.1840 C.3   1 <1>  -0.1600 
 12 C       -7.9630    -0.4360     0.2610 C.3   1 <1>   0.3430 
 13 C       -6.5710    -2.3680    -0.4180 C.3   1 <1>   0.3430 
 14 N       -7.6600    -1.8780     0.4700 N.4   1 <1>  -0.9590 
 15 C       -8.9000    -2.7020     0.2740 C.3   1 <1>   0.2630 
 16 H        0.3900     0.7090     2.6710 H     1 <1>   0.1500 
 17 H       -0.7500     2.2790    -1.1980 H     1 <1>   0.1500 
 18 H       -3.0340    -0.6620    -1.0600 H     1 <1>   0.0800 
 19 H       -3.1320     0.9240    -1.7930 H     1 <1>   0.0800 
 20 H        0.9650     2.3770     0.6490 H     1 <1>   0.1500 
 21 H       -3.9910     0.4440     0.9390 H     1 <1>   0.4500 
 22 H       -5.7760     0.1470    -1.4030 H     1 <1>   0.0800 
 23 H       -4.7530     2.5780    -0.9580 H     1 <1>   0.0800 
 24 H       -3.5120     2.6880     0.2720 H     1 <1>   0.0800 
 25 H       -5.1800     2.5110     0.7410 H     1 <1>   0.0800 
 26 H       -6.9700     1.4220     0.2870 H     1 <1>   0.0800 
 27 H       -6.4490     0.3400     1.5500 H     1 <1>   0.0800 
 28 H       -4.9330    -1.7600     0.8080 H     1 <1>   0.0800 
 29 H       -4.5680    -1.9130    -0.8880 H     1 <1>   0.0800 
 30 H       -8.3150    -0.2800    -0.7470 H     1 <1>   0.0800 
 31 H       -8.7440    -0.1230     0.9380 H     1 <1>   0.0800 
 32 H       -6.3750    -3.4100    -0.2170 H     1 <1>   0.0800 
 33 H       -6.8760    -2.2800    -1.4500 H     1 <1>   0.0800 
 34 H       -7.3700    -2.0140     1.4520 H     1 <1>   0.4500 
 35 H       -9.2620    -2.6070    -0.7370 H     1 <1>   0.0800 
 36 H       -9.6770    -2.3790     0.9480 H     1 <1>   0.0800 
 37 H       -8.6950    -3.7430     0.4680 H     1 <1>   0.0800 
@<TRIPOS>BOND
  1   1   2  1   
  2   1   3  1   
  3   2   4  2   
  4   2   5  1   
  5   3   6  2   
  6   3  16  1   
  7   4   6  1   
  8   4  17  1   
  9   5   7  1   
 10   5  18  1   
 11   5  19  1   
 12   6  20  1   
 13   7   8  1   
 14   7   9  1   
 15   7  21  1   
 16   8  10  1   
 17   8  11  1   
 18   8  22  1   
 19   9  23  1   
 20   9  24  1   
 21   9  25  1   
 22  10  12  1   
 23  10  26  1   
 24  10  27  1   
 25  11  13  1   
 26  11  28  1   
 27  11  29  1   
 28  12  14  1   
 29  12  30  1   
 30  12  31  1   
 31  13  14  1   
 32  13  32  1   
 33  13  33  1   
 34  14  15  1   
 35  14  34  1   
 36  15  35  1   
 37  15  36  1   
 38  15  37  1   
@<TRIPOS>SUBSTRUCTURE
  1 ****   7 GROUP 4 **** **** 0

# MOE 2024.06 (io_trps.svl 2023.06)
