@<TRIPOS>MOLECULE
NONAME
37 38 1 0 0 
SMALL
USER_CHARGES


@<TRIPOS>ATOM
  1 O       -0.9580    -0.2120    -0.2800 O.2   1 <1>  -0.5700 
  2 C       -1.2550    -1.3730    -0.1510 C.2   1 <1>   0.5690 
  3 N       -0.4330    -2.4350    -0.3080 N.am  1 <1>  -0.6600 
  4 C       -2.6390    -1.8230     0.2170 C.3   1 <1>  -0.0990 
  5 C       -1.1200    -3.7170    -0.0800 C.3   1 <1>   0.1400 
  6 C        0.9850    -2.3880    -0.7370 C.3   1 <1>   0.0600 
  7 C       -2.4380    -3.3050     0.5990 C.3   1 <1>  -0.0190 
  8 C       -3.6080    -4.2180     0.2580 C.2   1 <1>   0.5690 
  9 O       -3.3760    -5.3190    -0.1760 O.2   1 <1>  -0.5700 
 10 N       -4.8720    -3.7420     0.4800 N.am  1 <1>  -0.5470 
 11 C       -6.1350    -4.3160     0.2650 C.ar  1 <1>   0.1170 
 12 C       -7.2370    -3.4740     0.2020 C.ar  1 <1>  -0.1500 
 13 C       -6.3440    -5.6850     0.1260 C.ar  1 <1>  -0.1500 
 14 C       -8.5130    -3.9680     0.0010 C.ar  1 <1>   0.0820 
 15 C       -7.6150    -6.1920    -0.0760 C.ar  1 <1>  -0.1500 
 16 O       -9.5160    -3.0570    -0.0460 O.3   1 <1>  -0.3630 
 17 C       -8.7030    -5.3400    -0.1400 C.ar  1 <1>  -0.1500 
 18 C      -10.8510    -3.4490    -0.2670 C.3   1 <1>   0.1200 
 19 C      -11.7170    -2.1940    -0.2750 C.3   1 <1>  -0.2400 
 20 H       -3.2650    -1.7160    -0.6510 H     1 <1>   0.0800 
 21 H       -3.0230    -1.2390     1.0330 H     1 <1>   0.0800 
 22 H       -0.5380    -4.3660     0.5520 H     1 <1>   0.0800 
 23 H       -1.2970    -4.1950    -1.0300 H     1 <1>   0.0800 
 24 H        1.2920    -1.3650    -0.8780 H     1 <1>   0.0800 
 25 H        1.1030    -2.9190    -1.6650 H     1 <1>   0.0800 
 26 H        1.6090    -2.8380     0.0150 H     1 <1>   0.0800 
 27 H       -2.2780    -3.3650     1.6610 H     1 <1>   0.0800 
 28 H       -4.9160    -2.7830     0.8180 H     1 <1>   0.3700 
 29 H       -7.1150    -2.4120     0.3050 H     1 <1>   0.1500 
 30 H       -5.5150    -6.3670     0.1770 H     1 <1>   0.1500 
 31 H       -7.7550    -7.2540    -0.1840 H     1 <1>   0.1500 
 32 H       -9.6780    -5.7590    -0.2980 H     1 <1>   0.1500 
 33 H      -11.1480    -4.1120     0.5270 H     1 <1>   0.0800 
 34 H      -10.9040    -3.9540    -1.2170 H     1 <1>   0.0800 
 35 H      -11.6440    -1.6890     0.6720 H     1 <1>   0.0800 
 36 H      -12.7440    -2.4610    -0.4430 H     1 <1>   0.0800 
 37 H      -11.4010    -1.5320    -1.0610 H     1 <1>   0.0800 
@<TRIPOS>BOND
  1   1   2  2   
  2   2   3  am  
  3   2   4  1   
  4   3   5  1   
  5   3   6  1   
  6   4   7  1   
  7   4  20  1   
  8   4  21  1   
  9   5   7  1   
 10   5  22  1   
 11   5  23  1   
 12   6  24  1   
 13   6  25  1   
 14   6  26  1   
 15   7   8  1   
 16   7  27  1   
 17   8   9  2   
 18   8  10  am  
 19  10  11  1   
 20  10  28  1   
 21  11  12  ar  
 22  11  13  ar  
 23  12  14  ar  
 24  12  29  1   
 25  13  15  ar  
 26  13  30  1   
 27  14  16  1   
 28  14  17  ar  
 29  15  17  ar  
 30  15  31  1   
 31  16  18  1   
 32  17  32  1   
 33  18  19  1   
 34  18  33  1   
 35  18  34  1   
 36  19  35  1   
 37  19  36  1   
 38  19  37  1   
@<TRIPOS>SUBSTRUCTURE
  1 ****  10 GROUP 4 **** **** 0

# MOE 2024.06 (io_trps.svl 2023.06)
