@<TRIPOS>MOLECULE
NONAME
28 28 1 0 0 
SMALL
USER_CHARGES


@<TRIPOS>ATOM
  1 F        0.3180    -1.1080    -2.2440 F     1 <1>  -0.1900 
  2 C       -0.3700    -1.6150    -1.2590 C.ar  1 <1>   0.1900 
  3 C        0.2410    -2.5250    -0.4010 C.ar  1 <1>   0.0860 
  4 C       -1.6850    -1.2050    -1.1210 C.ar  1 <1>  -0.1500 
  5 C       -0.5670    -3.0040     0.6260 C.ar  1 <1>   0.1900 
  6 C        1.6070    -2.9450    -0.5700 C.2   1 <1>   0.5440 
  7 C       -2.4510    -1.7130    -0.0840 C.ar  1 <1>  -0.1500 
  8 F       -0.0680    -3.8490     1.4860 F     1 <1>  -0.1900 
  9 C       -1.8860    -2.6210     0.7990 C.ar  1 <1>  -0.1500 
 10 O        1.8370    -3.9060    -1.2800 O.2   1 <1>  -0.5700 
 11 N        2.6550    -2.2840     0.0430 N.am  1 <1>  -0.6600 
 12 C        4.0630    -2.6890    -0.2230 C.3   1 <1>   0.1400 
 13 C        2.4570    -1.2670     1.1110 C.3   1 <1>   0.1400 
 14 C        4.5480    -2.0660    -1.5310 C.3   1 <1>  -0.2400 
 15 C        2.5420     0.1390     0.5240 C.3   1 <1>  -0.2400 
 16 H       -2.1010    -0.5000    -1.8190 H     1 <1>   0.1500 
 17 H       -3.4770    -1.4050     0.0360 H     1 <1>   0.1500 
 18 H       -2.4610    -3.0290     1.6120 H     1 <1>   0.1500 
 19 H        4.1180    -3.7630    -0.2950 H     1 <1>   0.0800 
 20 H        4.7000    -2.3800     0.5880 H     1 <1>   0.0800 
 21 H        3.2060    -1.3920     1.8750 H     1 <1>   0.0800 
 22 H        1.4990    -1.4040     1.5800 H     1 <1>   0.0800 
 23 H        3.9300    -2.3980    -2.3460 H     1 <1>   0.0800 
 24 H        5.5580    -2.3740    -1.7250 H     1 <1>   0.0800 
 25 H        4.5200    -0.9940    -1.4780 H     1 <1>   0.0800 
 26 H        3.5330     0.3330     0.1570 H     1 <1>   0.0800 
 27 H        2.3190     0.8630     1.2860 H     1 <1>   0.0800 
 28 H        1.8350     0.2560    -0.2780 H     1 <1>   0.0800 
@<TRIPOS>BOND
  1   1   2  1   
  2   2   3  ar  
  3   2   4  ar  
  4   3   5  ar  
  5   3   6  1   
  6   4   7  ar  
  7   4  16  1   
  8   5   8  1   
  9   5   9  ar  
 10   6  10  2   
 11   6  11  am  
 12   7   9  ar  
 13   7  17  1   
 14   9  18  1   
 15  11  12  1   
 16  11  13  1   
 17  12  14  1   
 18  12  19  1   
 19  12  20  1   
 20  13  15  1   
 21  13  21  1   
 22  13  22  1   
 23  14  23  1   
 24  14  24  1   
 25  14  25  1   
 26  15  26  1   
 27  15  27  1   
 28  15  28  1   
@<TRIPOS>SUBSTRUCTURE
  1 ****   3 GROUP 4 **** **** 0

# MOE 2024.06 (io_trps.svl 2023.06)
