@<TRIPOS>MOLECULE
NONAME
46 48 1 0 0 
SMALL
USER_CHARGES


@<TRIPOS>ATOM
  1 N        2.3600    -0.0880     2.4120 N.1   1 <1>  -0.5570 
  2 C        2.5120     0.6790     1.5800 C.1   1 <1>   0.4840 
  3 C        2.7250     1.6240     0.5260 C.ar  1 <1>   0.0730 
  4 C        1.8120     2.6730     0.3450 C.ar  1 <1>   0.4100 
  5 C        3.8100     1.5380    -0.3330 C.ar  1 <1>  -0.1440 
  6 N        1.9120     3.6010    -0.6030 N.ar  1 <1>  -0.6200 
  7 N        0.7070     2.8190     1.1630 N.pl3 1 <1>  -0.8380 
  8 C        3.9100     2.5040    -1.3140 C.ar  1 <1>  -0.1500 
  9 C        4.8610     0.4380    -0.2240 C.3   1 <1>  -0.0970 
 10 C        2.9520     3.4980    -1.4080 C.ar  1 <1>   0.1670 
 11 C        0.6850     4.0260     2.0420 C.3   1 <1>   0.2090 
 12 C       -0.6130     2.4870     0.5510 C.3   1 <1>   0.2090 
 13 C        3.0670     4.5550    -2.4870 C.3   1 <1>  -0.0970 
 14 C        0.0640     5.2390     1.3130 C.3   1 <1>   0.3430 
 15 C       -1.2170     3.7120    -0.1680 C.3   1 <1>   0.3430 
 16 N       -1.2880     4.9340     0.7190 N.4   1 <1>  -0.9590 
 17 C       -1.8290     6.1020    -0.0230 C.3   1 <1>   0.4860 
 18 C       -3.2480     5.7840    -0.4490 C.ar  1 <1>  -0.1430 
 19 C       -3.5260     5.4720    -1.7730 C.ar  1 <1>  -0.1500 
 20 C       -4.2780     5.7920     0.4820 C.ar  1 <1>  -0.1500 
 21 C       -4.8170     5.1590    -2.1580 C.ar  1 <1>  -0.1500 
 22 C       -5.5690     5.4780     0.0940 C.ar  1 <1>  -0.1500 
 23 C       -5.8380     5.1590    -1.2250 C.ar  1 <1>  -0.1500 
 24 H        4.7330     2.4840    -2.0070 H     1 <1>   0.1500 
 25 H        4.4030    -0.5280    -0.3440 H     1 <1>   0.0800 
 26 H        5.3390     0.4750     0.7400 H     1 <1>   0.0800 
 27 H        5.6170     0.5490    -0.9800 H     1 <1>   0.0800 
 28 H        1.6920     4.2700     2.3380 H     1 <1>   0.0800 
 29 H        0.1270     3.8060     2.9350 H     1 <1>   0.0800 
 30 H       -1.2860     2.1380     1.3150 H     1 <1>   0.0800 
 31 H       -0.4880     1.6880    -0.1610 H     1 <1>   0.0800 
 32 H        2.1970     4.5270    -3.1160 H     1 <1>   0.0800 
 33 H        3.9370     4.3950    -3.0970 H     1 <1>   0.0800 
 34 H        3.1400     5.5280    -2.0350 H     1 <1>   0.0800 
 35 H        0.7420     5.5300     0.5270 H     1 <1>   0.0800 
 36 H       -0.0130     6.0620     2.0050 H     1 <1>   0.0800 
 37 H       -2.2030     3.4580    -0.5240 H     1 <1>   0.0800 
 38 H       -0.6020     3.9270    -1.0260 H     1 <1>   0.0800 
 39 H       -1.9480     4.7190     1.4740 H     1 <1>   0.4500 
 40 H       -1.2210     6.3070    -0.8900 H     1 <1>   0.0800 
 41 H       -1.8340     6.9760     0.6070 H     1 <1>   0.0800 
 42 H       -2.7490     5.4710    -2.5190 H     1 <1>   0.1500 
 43 H       -4.0980     6.0460     1.5120 H     1 <1>   0.1500 
 44 H       -5.0340     4.9170    -3.1860 H     1 <1>   0.1500 
 45 H       -6.3700     5.4850     0.8140 H     1 <1>   0.1500 
 46 H       -6.8430     4.9160    -1.5260 H     1 <1>   0.1500 
@<TRIPOS>BOND
  1   1   2  3   
  2   2   3  1   
  3   3   4  ar  
  4   3   5  ar  
  5   4   6  ar  
  6   4   7  1   
  7   5   8  ar  
  8   5   9  1   
  9   6  10  ar  
 10   7  11  1   
 11   7  12  1   
 12   8  10  ar  
 13   8  24  1   
 14   9  25  1   
 15   9  26  1   
 16   9  27  1   
 17  10  13  1   
 18  11  14  1   
 19  11  28  1   
 20  11  29  1   
 21  12  15  1   
 22  12  30  1   
 23  12  31  1   
 24  13  32  1   
 25  13  33  1   
 26  13  34  1   
 27  14  16  1   
 28  14  35  1   
 29  14  36  1   
 30  15  16  1   
 31  15  37  1   
 32  15  38  1   
 33  16  17  1   
 34  16  39  1   
 35  17  18  1   
 36  17  40  1   
 37  17  41  1   
 38  18  19  ar  
 39  18  20  ar  
 40  19  21  ar  
 41  19  42  1   
 42  20  22  ar  
 43  20  43  1   
 44  21  23  ar  
 45  21  44  1   
 46  22  23  ar  
 47  22  45  1   
 48  23  46  1   
@<TRIPOS>SUBSTRUCTURE
  1 ****  15 GROUP 4 **** **** 0

# MOE 2024.06 (io_trps.svl 2023.06)
