@<TRIPOS>MOLECULE
NONAME
34 35 1 0 0 
SMALL
USER_CHARGES


@<TRIPOS>ATOM
  1 O       -0.7410     0.7130     1.7980 O.3   1 <1>  -0.5320 
  2 C       -1.6050     1.1720     0.8790 C.ar  1 <1>   0.0830 
  3 C       -1.2570     2.2520     0.0610 C.ar  1 <1>   0.0000 
  4 C       -2.8420     0.5560     0.7690 C.ar  1 <1>  -0.1500 
  5 C        0.0270     2.9030     0.1530 C.ar  1 <1>   0.6200 
  6 C       -2.2060     2.6920    -0.8630 C.ar  1 <1>  -0.1500 
  7 C       -3.7610     1.0100    -0.1590 C.ar  1 <1>  -0.1500 
  8 N        0.0810     4.0660     0.7610 N.ar  1 <1>  -0.6200 
  9 N        1.0640     2.3100    -0.4140 N.ar  1 <1>  -0.6200 
 10 C       -3.4410     2.0820    -0.9750 C.ar  1 <1>  -0.1500 
 11 C        1.2680     4.6010     0.8070 C.ar  1 <1>   0.7200 
 12 C        2.1950     2.9490    -0.2940 C.ar  1 <1>   0.4770 
 13 N        2.3650     4.0940     0.3000 N.ar  1 <1>  -0.6200 
 14 N        1.3300     5.7890     1.4440 N.pl3 1 <1>  -0.8690 
 15 C        3.4220     2.2940    -0.9030 C.3   1 <1>  -0.0170 
 16 C        2.5370     6.6040     1.7300 C.3   1 <1>   0.1290 
 17 C        4.0990     1.3310     0.0860 C.3   1 <1>  -0.1600 
 18 C        5.3390     0.6690    -0.5270 C.3   1 <1>  -0.2400 
 19 H       -1.0730    -0.0430     2.3110 H     1 <1>   0.4500 
 20 H       -3.0950    -0.2740     1.4020 H     1 <1>   0.1500 
 21 H       -1.9620     3.5250    -1.4990 H     1 <1>   0.1500 
 22 H       -4.7230     0.5350    -0.2470 H     1 <1>   0.1500 
 23 H       -4.1550     2.4390    -1.6970 H     1 <1>   0.1500 
 24 H        0.4450     6.0910     1.8500 H     1 <1>   0.4000 
 25 H        4.1170     3.0600    -1.1970 H     1 <1>   0.0800 
 26 H        3.1270     1.7580    -1.7870 H     1 <1>   0.0800 
 27 H        3.3980     6.2040     1.2240 H     1 <1>   0.0800 
 28 H        2.7280     6.6080     2.7890 H     1 <1>   0.0800 
 29 H        2.3780     7.6140     1.3950 H     1 <1>   0.0800 
 30 H        3.3940     0.5710     0.3770 H     1 <1>   0.0800 
 31 H        4.3830     1.8750     0.9710 H     1 <1>   0.0800 
 32 H        5.0690     0.1020    -1.4010 H     1 <1>   0.0800 
 33 H        5.7890     0.0020     0.1870 H     1 <1>   0.0800 
 34 H        6.0650     1.4130    -0.8050 H     1 <1>   0.0800 
@<TRIPOS>BOND
  1   1   2  1   
  2   1  19  1   
  3   2   3  ar  
  4   2   4  ar  
  5   3   5  1   
  6   3   6  ar  
  7   4   7  ar  
  8   4  20  1   
  9   5   8  ar  
 10   5   9  ar  
 11   6  10  ar  
 12   6  21  1   
 13   7  10  ar  
 14   7  22  1   
 15   8  11  ar  
 16   9  12  ar  
 17  10  23  1   
 18  11  13  ar  
 19  11  14  1   
 20  12  13  ar  
 21  12  15  1   
 22  14  16  1   
 23  14  24  1   
 24  15  17  1   
 25  15  25  1   
 26  15  26  1   
 27  16  27  1   
 28  16  28  1   
 29  16  29  1   
 30  17  18  1   
 31  17  30  1   
 32  17  31  1   
 33  18  32  1   
 34  18  33  1   
 35  18  34  1   
@<TRIPOS>SUBSTRUCTURE
  1 ****   5 GROUP 4 **** **** 0

# MOE 2024.06 (io_trps.svl 2023.06)
