@<TRIPOS>MOLECULE
NONAME
49 50 1 0 0 
SMALL
USER_CHARGES


@<TRIPOS>ATOM
  1 CL       0.6300     0.0270     2.4980 Cl    1 <1>  -0.1770 
  2 C        1.6550     0.7380     1.2690 C.ar  1 <1>   0.1770 
  3 C        1.1130     1.4350     0.1870 C.ar  1 <1>   0.0830 
  4 C        3.0170     0.5680     1.3970 C.ar  1 <1>  -0.1500 
  5 O       -0.2090     1.6420     0.0060 O.3   1 <1>  -0.3630 
  6 C        1.9710     1.9390    -0.7700 C.ar  1 <1>  -0.1500 
  7 C        3.9060     1.0790     0.4410 C.ar  1 <1>   0.0280 
  8 C       -0.9590     2.2820     1.0330 C.3   1 <1>   0.1810 
  9 C        3.3410     1.7680    -0.6430 C.ar  1 <1>   0.0830 
 10 C        5.3410     0.9480     0.4980 C.2   1 <1>  -0.1670 
 11 C       -2.0070     3.2270     0.4500 C.2   1 <1>   0.5690 
 12 O        4.1270     2.2940    -1.6000 O.3   1 <1>  -0.2330 
 13 C        6.0930     1.5200    -0.4840 C.2   1 <1>  -0.1240 
 14 C        5.9130     0.1580     1.6780 C.3   1 <1>  -0.1020 
 15 O       -1.9440     4.3870     0.7890 O.2   1 <1>  -0.5700 
 16 N       -2.9910     2.7780    -0.4060 N.am  1 <1>  -0.6600 
 17 C        5.4550     2.2110    -1.5780 C.2   1 <1>   0.7060 
 18 C        7.6280     1.4950    -0.5300 C.3   1 <1>  -0.0220 
 19 C       -3.9710     3.7150    -1.0250 C.3   1 <1>   0.0600 
 20 C       -3.1330     1.3650    -0.8570 C.3   1 <1>   0.0600 
 21 O        6.0550     2.7210    -2.5020 O.2   1 <1>  -0.5700 
 22 C        8.1410     0.3830    -1.4580 C.3   1 <1>  -0.0990 
 23 C        9.6620     0.3170    -1.4570 C.2   1 <1>   0.6590 
 24 O       10.2890     0.9290    -2.2760 O.2   1 <1>  -0.5700 
 25 O       10.2980    -0.3950    -0.5320 O.3   1 <1>  -0.4300 
 26 C        9.7260    -1.3680     0.3070 C.3   1 <1>   0.1200 
 27 C       10.8400    -1.9620     1.1620 C.3   1 <1>  -0.2400 
 28 H        3.3740     0.0290     2.2530 H     1 <1>   0.1500 
 29 H        1.5730     2.4710    -1.6150 H     1 <1>   0.1500 
 30 H       -0.2860     2.8440     1.6540 H     1 <1>   0.0800 
 31 H       -1.4430     1.5270     1.6220 H     1 <1>   0.0800 
 32 H        5.7070     0.6760     2.5980 H     1 <1>   0.0800 
 33 H        6.9700     0.0040     1.6180 H     1 <1>   0.0800 
 34 H        5.4600    -0.8170     1.7200 H     1 <1>   0.0800 
 35 H        8.0500     1.3820     0.4490 H     1 <1>   0.0800 
 36 H        7.9930     2.4430    -0.8920 H     1 <1>   0.0800 
 37 H       -3.7820     4.7290    -0.7180 H     1 <1>   0.0800 
 38 H       -4.9680     3.4470    -0.7260 H     1 <1>   0.0800 
 39 H       -3.8950     3.6640    -2.0970 H     1 <1>   0.0800 
 40 H       -4.1740     1.1070    -0.9340 H     1 <1>   0.0800 
 41 H       -2.6690     0.6870    -0.1630 H     1 <1>   0.0800 
 42 H       -2.6680     1.2470    -1.8200 H     1 <1>   0.0800 
 43 H        7.8250     0.5970    -2.4640 H     1 <1>   0.0800 
 44 H        7.7160    -0.5630    -1.1870 H     1 <1>   0.0800 
 45 H        9.2740    -2.1280    -0.3070 H     1 <1>   0.0800 
 46 H        8.9850    -0.8980     0.9290 H     1 <1>   0.0800 
 47 H       11.5860    -2.4160     0.5330 H     1 <1>   0.0800 
 48 H       10.4390    -2.7140     1.8160 H     1 <1>   0.0800 
 49 H       11.2980    -1.1940     1.7600 H     1 <1>   0.0800 
@<TRIPOS>BOND
  1   1   2  1   
  2   2   3  ar  
  3   2   4  ar  
  4   3   5  1   
  5   3   6  ar  
  6   4   7  ar  
  7   4  28  1   
  8   5   8  1   
  9   6   9  ar  
 10   6  29  1   
 11   7   9  ar  
 12   7  10  1   
 13   8  11  1   
 14   8  30  1   
 15   8  31  1   
 16   9  12  1   
 17  10  13  2   
 18  10  14  1   
 19  11  15  2   
 20  11  16  am  
 21  12  17  1   
 22  13  17  1   
 23  13  18  1   
 24  14  32  1   
 25  14  33  1   
 26  14  34  1   
 27  16  19  1   
 28  16  20  1   
 29  17  21  2   
 30  18  22  1   
 31  18  35  1   
 32  18  36  1   
 33  19  37  1   
 34  19  38  1   
 35  19  39  1   
 36  20  40  1   
 37  20  41  1   
 38  20  42  1   
 39  22  23  1   
 40  22  43  1   
 41  22  44  1   
 42  23  24  2   
 43  23  25  1   
 44  25  26  1   
 45  26  27  1   
 46  26  45  1   
 47  26  46  1   
 48  27  47  1   
 49  27  48  1   
 50  27  49  1   
@<TRIPOS>SUBSTRUCTURE
  1 ****   7 GROUP 4 **** **** 0

# MOE 2024.06 (io_trps.svl 2023.06)
