@<TRIPOS>MOLECULE
NONAME
32 33 1 0 0 
SMALL
USER_CHARGES


@<TRIPOS>ATOM
  1 O       -1.0310     0.2390    -1.1590 O.2   1 <1>  -0.5700 
  2 C       -2.0800    -0.0160    -0.6250 C.2   1 <1>   0.5690 
  3 N       -2.4730    -1.2500    -0.2860 N.am  1 <1>  -0.7300 
  4 C       -3.1510     0.9820    -0.3180 C.3   1 <1>   0.0420 
  5 C       -3.8260    -1.2930     0.2800 C.3   1 <1>   0.1400 
  6 C       -2.5460     2.1820     0.3660 C.2   1 <1>   0.6590 
  7 C       -4.1470     0.1900     0.5670 C.3   1 <1>   0.0630 
  8 O       -2.1270     2.1400     1.4950 O.2   1 <1>  -0.5700 
  9 O       -2.5370     3.3050    -0.3440 O.3   1 <1>  -0.4300 
 10 C       -5.6260     0.5560     0.3750 C.ar  1 <1>  -0.1440 
 11 C       -1.9890     4.5010     0.1700 C.3   1 <1>   0.0400 
 12 C       -6.6210    -0.3670     0.6720 C.ar  1 <1>  -0.1500 
 13 C       -6.0130     1.8170    -0.0670 C.ar  1 <1>  -0.1500 
 14 C       -7.9580    -0.0510     0.5070 C.ar  1 <1>  -0.1500 
 15 C       -7.3500     2.1320    -0.2330 C.ar  1 <1>  -0.1500 
 16 C       -8.3310     1.1990     0.0480 C.ar  1 <1>  -0.1430 
 17 C       -9.7980     1.5470    -0.1330 C.3   1 <1>  -0.0970 
 18 H       -1.9020    -2.0800    -0.4690 H     1 <1>   0.3700 
 19 H       -3.6000     1.2640    -1.2500 H     1 <1>   0.0800 
 20 H       -3.8510    -1.8820     1.1810 H     1 <1>   0.0800 
 21 H       -4.5010    -1.7030    -0.4530 H     1 <1>   0.0800 
 22 H       -3.9090     0.3570     1.6030 H     1 <1>   0.0800 
 23 H       -0.9500     4.3350     0.4000 H     1 <1>   0.0800 
 24 H       -2.5260     4.7760     1.0610 H     1 <1>   0.0800 
 25 H       -2.0850     5.2690    -0.5760 H     1 <1>   0.0800 
 26 H       -6.3770    -1.3460     1.0440 H     1 <1>   0.1500 
 27 H       -5.2900     2.5820    -0.2860 H     1 <1>   0.1500 
 28 H       -8.7100    -0.7840     0.7410 H     1 <1>   0.1500 
 29 H       -7.6230     3.1130    -0.5790 H     1 <1>   0.1500 
 30 H      -10.3650     0.6680    -0.3830 H     1 <1>   0.0800 
 31 H       -9.9190     2.2640    -0.9250 H     1 <1>   0.0800 
 32 H      -10.1870     1.9650     0.7770 H     1 <1>   0.0800 
@<TRIPOS>BOND
  1   1   2  2   
  2   2   3  am  
  3   2   4  1   
  4   3   5  1   
  5   3  18  1   
  6   4   6  1   
  7   4   7  1   
  8   4  19  1   
  9   5   7  1   
 10   5  20  1   
 11   5  21  1   
 12   6   8  2   
 13   6   9  1   
 14   7  10  1   
 15   7  22  1   
 16   9  11  1   
 17  10  12  ar  
 18  10  13  ar  
 19  11  23  1   
 20  11  24  1   
 21  11  25  1   
 22  12  14  ar  
 23  12  26  1   
 24  13  15  ar  
 25  13  27  1   
 26  14  16  ar  
 27  14  28  1   
 28  15  16  ar  
 29  15  29  1   
 30  16  17  1   
 31  17  30  1   
 32  17  31  1   
 33  17  32  1   
@<TRIPOS>SUBSTRUCTURE
  1 ****   7 GROUP 4 **** **** 0

# MOE 2024.06 (io_trps.svl 2023.06)
