@<TRIPOS>MOLECULE
NONAME
31 31 1 0 0 
SMALL
USER_CHARGES


@<TRIPOS>ATOM
  1 S        0.4130    -0.3990     1.2010 S.o2  1 <1>   1.4470 
  2 O        1.1940    -1.4890     1.7430 O.2   1 <1>  -0.6500 
  3 O        0.4060     0.8880     1.8530 O.2   1 <1>  -0.6500 
  4 N        1.0180    -0.0650    -0.3280 N.am  1 <1>  -0.9140 
  5 C       -1.2810    -0.9540     0.8600 C.ar  1 <1>  -0.0090 
  6 C        2.4770    -0.0570    -0.3850 C.3   1 <1>   0.1160 
  7 C       -2.3060    -0.0460     0.6430 C.ar  1 <1>  -0.1500 
  8 C       -1.5910    -2.3030     0.7760 C.ar  1 <1>  -0.1500 
  9 C       -3.6210    -0.4190     0.3480 C.ar  1 <1>   0.0860 
 10 C       -2.8760    -2.7220     0.4930 C.ar  1 <1>  -0.1500 
 11 C       -3.8960    -1.7970     0.2760 C.ar  1 <1>   0.0830 
 12 C       -4.6090     0.6310     0.1310 C.2   1 <1>   0.5440 
 13 O       -5.1570    -2.2100    -0.0120 O.3   1 <1>  -0.3630 
 14 O       -4.2500     1.7630    -0.1400 O.2   1 <1>  -0.5700 
 15 N       -5.9520     0.3990     0.2350 N.am  1 <1>  -0.7300 
 16 C       -5.5040    -3.5640    -0.2130 C.3   1 <1>   0.0400 
 17 C       -7.0400     1.3900     0.0400 C.3   1 <1>   0.0600 
 18 H        0.7000     0.8880    -0.5040 H     1 <1>   0.4200 
 19 H        2.8600    -1.0430    -0.1770 H     1 <1>   0.0800 
 20 H        2.8770     0.6320     0.3410 H     1 <1>   0.0800 
 21 H        2.8020     0.2370    -1.3680 H     1 <1>   0.0800 
 22 H       -2.0760     1.0050     0.7080 H     1 <1>   0.1500 
 23 H       -0.8140    -3.0330     0.9350 H     1 <1>   0.1500 
 24 H       -3.0580    -3.7790     0.4450 H     1 <1>   0.1500 
 25 H       -6.2330    -0.5830     0.3350 H     1 <1>   0.3700 
 26 H       -6.5470    -3.6070    -0.4740 H     1 <1>   0.0800 
 27 H       -5.3350    -4.1090     0.6990 H     1 <1>   0.0800 
 28 H       -4.9120    -3.9620    -1.0170 H     1 <1>   0.0800 
 29 H       -6.6320     2.3830    -0.0440 H     1 <1>   0.0800 
 30 H       -7.7130     1.3600     0.8780 H     1 <1>   0.0800 
 31 H       -7.5810     1.1600    -0.8610 H     1 <1>   0.0800 
@<TRIPOS>BOND
  1   1   2  2   
  2   1   3  2   
  3   1   4  am  
  4   1   5  1   
  5   4   6  1   
  6   4  18  1   
  7   5   7  ar  
  8   5   8  ar  
  9   6  19  1   
 10   6  20  1   
 11   6  21  1   
 12   7   9  ar  
 13   7  22  1   
 14   8  10  ar  
 15   8  23  1   
 16   9  11  ar  
 17   9  12  1   
 18  10  11  ar  
 19  10  24  1   
 20  11  13  1   
 21  12  14  2   
 22  12  15  am  
 23  13  16  1   
 24  15  17  1   
 25  15  25  1   
 26  16  26  1   
 27  16  27  1   
 28  16  28  1   
 29  17  29  1   
 30  17  30  1   
 31  17  31  1   
@<TRIPOS>SUBSTRUCTURE
  1 ****   7 GROUP 4 **** **** 0

# MOE 2024.06 (io_trps.svl 2023.06)
