@<TRIPOS>MOLECULE
NONAME
40 42 1 0 0 
SMALL
USER_CHARGES


@<TRIPOS>ATOM
  1 CL      -0.0960    -1.1670     0.2960 Cl    1 <1>  -0.1770 
  2 C       -0.5230     0.4310    -0.2700 C.ar  1 <1>   0.1770 
  3 C        0.4590     1.3820    -0.5120 C.ar  1 <1>  -0.1440 
  4 C       -1.8630     0.7090    -0.4740 C.ar  1 <1>  -0.1500 
  5 C        0.0700     2.6300    -0.9790 C.ar  1 <1>  -0.1500 
  6 C        1.9310     1.0770    -0.2820 C.3   1 <1>   0.2140 
  7 C       -2.2380     1.9590    -0.9340 C.ar  1 <1>  -0.1500 
  8 C       -1.2690     2.9170    -1.1860 C.ar  1 <1>  -0.1500 
  9 S        2.3090     1.2470     1.4920 S.3   1 <1>  -0.4600 
 10 C        1.8700     2.9850     1.8690 C.3   1 <1>   0.1310 
 11 C        2.6960     3.9480     1.0290 C.2   1 <1>   0.5690 
 12 O        2.1600     4.9130     0.5400 O.2   1 <1>  -0.5700 
 13 N        4.0100     3.6750     0.8330 N.am  1 <1>  -0.7300 
 14 C        4.9310     4.4400    -0.0250 C.3   1 <1>   0.2200 
 15 C        5.3260     3.6650    -1.3010 C.3   1 <1>  -0.0800 
 16 C        6.2810     4.6630     0.6740 C.3   1 <1>  -0.1600 
 17 C        6.6470     4.3380    -1.6430 C.3   1 <1>  -0.1600 
 18 C        5.8170     2.2420    -0.9620 C.3   1 <1>  -0.1600 
 19 C        7.2920     4.0310    -0.3000 C.3   1 <1>  -0.0800 
 20 C        7.1460     2.5020    -0.2310 C.3   1 <1>  -0.1600 
 21 H       -2.6000    -0.0480    -0.2750 H     1 <1>   0.1500 
 22 H        0.8050     3.3920    -1.1820 H     1 <1>   0.1500 
 23 H        2.5660     1.7620    -0.8150 H     1 <1>   0.0800 
 24 H        2.1770     0.0690    -0.5640 H     1 <1>   0.0800 
 25 H       -3.2770     2.1870    -1.0950 H     1 <1>   0.1500 
 26 H       -1.5570     3.8910    -1.5430 H     1 <1>   0.1500 
 27 H        2.0610     3.1430     2.9130 H     1 <1>   0.0800 
 28 H        0.8210     3.1080     1.6700 H     1 <1>   0.0800 
 29 H        4.3910     2.8030     1.2060 H     1 <1>   0.3700 
 30 H        4.4930     5.3890    -0.2900 H     1 <1>   0.0800 
 31 H        4.5850     3.7130    -2.0800 H     1 <1>   0.0800 
 32 H        6.3280     4.2160     1.6510 H     1 <1>   0.0800 
 33 H        6.4680     5.7180     0.7590 H     1 <1>   0.0800 
 34 H        6.5460     5.3950    -1.8260 H     1 <1>   0.0800 
 35 H        7.1570     3.8680    -2.4670 H     1 <1>   0.0800 
 36 H        6.0010     1.6950    -1.8710 H     1 <1>   0.0800 
 37 H        5.1250     1.6800    -0.3620 H     1 <1>   0.0800 
 38 H        8.3020     4.3850    -0.1790 H     1 <1>   0.0800 
 39 H        7.9570     2.0250    -0.7550 H     1 <1>   0.0800 
 40 H        7.1260     2.1470     0.7840 H     1 <1>   0.0800 
@<TRIPOS>BOND
  1   1   2  1   
  2   2   3  ar  
  3   2   4  ar  
  4   3   5  ar  
  5   3   6  1   
  6   4   7  ar  
  7   4  21  1   
  8   5   8  ar  
  9   5  22  1   
 10   6   9  1   
 11   6  23  1   
 12   6  24  1   
 13   7   8  ar  
 14   7  25  1   
 15   8  26  1   
 16   9  10  1   
 17  10  11  1   
 18  10  27  1   
 19  10  28  1   
 20  11  12  2   
 21  11  13  am  
 22  13  14  1   
 23  13  29  1   
 24  14  15  1   
 25  14  16  1   
 26  14  30  1   
 27  15  17  1   
 28  15  18  1   
 29  15  31  1   
 30  16  19  1   
 31  16  32  1   
 32  16  33  1   
 33  17  19  1   
 34  17  34  1   
 35  17  35  1   
 36  18  20  1   
 37  18  36  1   
 38  18  37  1   
 39  19  20  1   
 40  19  38  1   
 41  20  39  1   
 42  20  40  1   
@<TRIPOS>SUBSTRUCTURE
  1 ****   6 GROUP 4 **** **** 0

# MOE 2024.06 (io_trps.svl 2023.06)
