@<TRIPOS>MOLECULE
NONAME
48 48 1 0 0 
SMALL
USER_CHARGES


@<TRIPOS>ATOM
  1 N        0.3130     0.1910     0.6620 N.4   1 <1>  -0.9590 
  2 C        1.7410     0.5560     1.0120 C.3   1 <1>   0.3430 
  3 C       -0.0410    -1.2620     0.7500 C.3   1 <1>   0.2630 
  4 C       -0.1630     0.7740    -0.6370 C.3   1 <1>   0.2630 
  5 C        2.9440    -0.1970     0.3480 C.3   1 <1>   0.0000 
  6 C        4.1930     0.6900     0.6180 C.3   1 <1>   0.3430 
  7 C        3.1660    -1.5810     1.0030 C.3   1 <1>  -0.2400 
  8 C        2.7710    -0.3860    -1.1760 C.3   1 <1>  -0.2400 
  9 N        5.4580     0.1140     0.0650 N.4   1 <1>  -0.9060 
 10 C        6.6620     0.9340     0.3160 C.3   1 <1>   0.4230 
 11 C        6.6780     2.1230    -0.6570 C.3   1 <1>  -0.1600 
 12 C        7.8730     0.0020     0.1920 C.3   1 <1>  -0.1600 
 13 C        7.6790     3.2020    -0.2180 C.3   1 <1>  -0.1600 
 14 C        9.2370     0.6810     0.3980 C.3   1 <1>  -0.1600 
 15 C        9.1100     3.0040    -0.7420 C.3   1 <1>  -0.1600 
 16 C        9.6410     1.5640    -0.7910 C.3   1 <1>  -0.1600 
 17 H       -0.2700     0.6490     1.3840 H     1 <1>   0.4500 
 18 H        1.8530     0.4500     2.0800 H     1 <1>   0.0800 
 19 H        1.8580     1.6070     0.8010 H     1 <1>   0.0800 
 20 H        0.4510    -1.8190    -0.0300 H     1 <1>   0.0800 
 21 H       -1.1050    -1.3950     0.6400 H     1 <1>   0.0800 
 22 H        0.2550    -1.6650     1.7050 H     1 <1>   0.0800 
 23 H        0.3270     0.3060    -1.4730 H     1 <1>   0.0800 
 24 H        0.0330     1.8340    -0.6700 H     1 <1>   0.0800 
 25 H       -1.2260     0.6240    -0.7440 H     1 <1>   0.0800 
 26 H        4.3070     0.8220     1.6830 H     1 <1>   0.0800 
 27 H        4.0290     1.6630     0.1840 H     1 <1>   0.0800 
 28 H        3.2780    -1.4910     2.0710 H     1 <1>   0.0800 
 29 H        4.0430    -2.0680     0.6150 H     1 <1>   0.0800 
 30 H        2.3510    -2.2520     0.8120 H     1 <1>   0.0800 
 31 H        2.6320     0.5600    -1.6720 H     1 <1>   0.0800 
 32 H        1.9250    -1.0130    -1.3940 H     1 <1>   0.0800 
 33 H        3.6240    -0.8710    -1.6160 H     1 <1>   0.0800 
 34 H        5.3840    -0.0260    -0.9500 H     1 <1>   0.4500 
 35 H        5.6250    -0.8130     0.4730 H     1 <1>   0.4500 
 36 H        6.6320     1.3120     1.3260 H     1 <1>   0.0800 
 37 H        5.7120     2.5930    -0.6660 H     1 <1>   0.0800 
 38 H        6.8990     1.8030    -1.6600 H     1 <1>   0.0800 
 39 H        7.8730    -0.4790    -0.7720 H     1 <1>   0.0800 
 40 H        7.7880    -0.7650     0.9420 H     1 <1>   0.0800 
 41 H        7.7010     3.2680     0.8570 H     1 <1>   0.0800 
 42 H        7.3390     4.1610    -0.5750 H     1 <1>   0.0800 
 43 H        9.9780    -0.0960     0.4890 H     1 <1>   0.0800 
 44 H        9.2610     1.2460     1.3150 H     1 <1>   0.0800 
 45 H        9.7700     3.5930    -0.1270 H     1 <1>   0.0800 
 46 H        9.1750     3.4120    -1.7370 H     1 <1>   0.0800 
 47 H        9.3370     1.0970    -1.7130 H     1 <1>   0.0800 
 48 H       10.7170     1.6190    -0.8230 H     1 <1>   0.0800 
@<TRIPOS>BOND
  1   1   2  1   
  2   1   3  1   
  3   1   4  1   
  4   1  17  1   
  5   2   5  1   
  6   2  18  1   
  7   2  19  1   
  8   3  20  1   
  9   3  21  1   
 10   3  22  1   
 11   4  23  1   
 12   4  24  1   
 13   4  25  1   
 14   5   6  1   
 15   5   7  1   
 16   5   8  1   
 17   6   9  1   
 18   6  26  1   
 19   6  27  1   
 20   7  28  1   
 21   7  29  1   
 22   7  30  1   
 23   8  31  1   
 24   8  32  1   
 25   8  33  1   
 26   9  10  1   
 27   9  34  1   
 28   9  35  1   
 29  10  11  1   
 30  10  12  1   
 31  10  36  1   
 32  11  13  1   
 33  11  37  1   
 34  11  38  1   
 35  12  14  1   
 36  12  39  1   
 37  12  40  1   
 38  13  15  1   
 39  13  41  1   
 40  13  42  1   
 41  14  16  1   
 42  14  43  1   
 43  14  44  1   
 44  15  16  1   
 45  15  45  1   
 46  15  46  1   
 47  16  47  1   
 48  16  48  1   
@<TRIPOS>SUBSTRUCTURE
  1 ****   9 GROUP 4 **** **** 0

# MOE 2024.06 (io_trps.svl 2023.06)
