@<TRIPOS>MOLECULE
NONAME
34 35 1 0 0 
SMALL
USER_CHARGES


@<TRIPOS>ATOM
  1 O        0.3480    -0.0170    -0.1040 O.2   1 <1>  -0.5700 
  2 C        0.8200     1.0840     0.1210 C.2   1 <1>   0.7160 
  3 N       -0.0060     2.1810     0.1430 N.am  1 <1>  -0.5470 
  4 C        2.2410     1.2830     0.3760 C.2   1 <1>   0.2030 
  5 C       -1.3640     2.3660     0.0380 C.ar  1 <1>   0.4270 
  6 N        3.2410     0.5680    -0.1070 N.2   1 <1>  -0.7070 
  7 C        2.7480     2.3070     1.1920 C.2   1 <1>  -0.1500 
  8 N       -1.6890     3.6490     0.0480 N.ar  1 <1>  -0.6200 
  9 C       -2.3040     1.3400    -0.0570 C.ar  1 <1>  -0.1500 
 10 N        4.3590     1.1140     0.3830 N.pl3 1 <1>   0.3140 
 11 C        4.0860     2.1690     1.1710 C.2   1 <1>  -0.3020 
 12 C       -2.9770     3.9290    -0.0450 C.ar  1 <1>   0.1670 
 13 C       -3.6440     1.6370    -0.1530 C.ar  1 <1>  -0.1430 
 14 C        5.6970     0.5710     0.0710 C.3   1 <1>   0.0960 
 15 C       -3.9760     2.9760    -0.1470 C.ar  1 <1>  -0.1500 
 16 C       -3.3320     5.4010    -0.0370 C.3   1 <1>  -0.0970 
 17 C       -4.7070     0.5590    -0.2620 C.3   1 <1>  -0.0970 
 18 C        6.4220     1.4400    -0.9660 C.3   1 <1>  -0.2400 
 19 H        0.4690     3.0750     0.1930 H     1 <1>   0.3700 
 20 H        2.1680     3.0390     1.7250 H     1 <1>   0.1500 
 21 H       -1.9890     0.3160    -0.0550 H     1 <1>   0.1500 
 22 H        4.8480     2.7460     1.6630 H     1 <1>   0.1500 
 23 H        5.5720    -0.4270    -0.3110 H     1 <1>   0.0800 
 24 H        6.2650     0.5210     0.9810 H     1 <1>   0.0800 
 25 H       -5.0060     3.2730    -0.2200 H     1 <1>   0.1500 
 26 H       -2.9870     5.8480     0.8770 H     1 <1>   0.0800 
 27 H       -4.3930     5.5460    -0.1160 H     1 <1>   0.0800 
 28 H       -2.8510     5.8900    -0.8640 H     1 <1>   0.0800 
 29 H       -4.2600    -0.4190    -0.2640 H     1 <1>   0.0800 
 30 H       -5.2630     0.6830    -1.1740 H     1 <1>   0.0800 
 31 H       -5.3830     0.6250     0.5720 H     1 <1>   0.0800 
 32 H        5.8480     1.4810    -1.8750 H     1 <1>   0.0800 
 33 H        7.3840     1.0150    -1.1880 H     1 <1>   0.0800 
 34 H        6.5650     2.4370    -0.5890 H     1 <1>   0.0800 
@<TRIPOS>BOND
  1   1   2  2   
  2   2   3  am  
  3   2   4  1   
  4   3   5  1   
  5   3  19  1   
  6   4   6  2   
  7   4   7  1   
  8   5   8  ar  
  9   5   9  ar  
 10   6  10  1   
 11   7  11  2   
 12   7  20  1   
 13   8  12  ar  
 14   9  13  ar  
 15   9  21  1   
 16  10  11  1   
 17  10  14  1   
 18  11  22  1   
 19  12  15  ar  
 20  12  16  1   
 21  13  15  ar  
 22  13  17  1   
 23  14  18  1   
 24  14  23  1   
 25  14  24  1   
 26  15  25  1   
 27  16  26  1   
 28  16  27  1   
 29  16  28  1   
 30  17  29  1   
 31  17  30  1   
 32  17  31  1   
 33  18  32  1   
 34  18  33  1   
 35  18  34  1   
@<TRIPOS>SUBSTRUCTURE
  1 ****   3 GROUP 4 **** **** 0

# MOE 2024.06 (io_trps.svl 2023.06)
