@<TRIPOS>MOLECULE
NONAME
53 55 1 0 0 
SMALL
USER_CHARGES


@<TRIPOS>ATOM
  1 F       -0.4910     0.8500    -0.6530 F     1 <1>  -0.1900 
  2 C       -1.2760     1.8070    -0.2390 C.ar  1 <1>   0.1900 
  3 C       -1.2190     3.0350    -0.8670 C.ar  1 <1>  -0.1500 
  4 C       -2.1360     1.5560     0.8120 C.ar  1 <1>  -0.1500 
  5 C       -2.0560     4.0470    -0.4270 C.ar  1 <1>  -0.1500 
  6 C       -2.9700     2.5730     1.2450 C.ar  1 <1>  -0.1500 
  7 C       -2.9380     3.8190     0.6250 C.ar  1 <1>  -0.1430 
  8 C       -3.8640     4.9250     1.0960 C.3   1 <1>   0.4870 
  9 N       -4.9610     5.0840     0.1040 N.4   1 <1>  -0.9590 
 10 C       -5.8140     6.2840     0.4020 C.3   1 <1>   0.3430 
 11 C       -5.8020     3.8390    -0.0030 C.3   1 <1>   0.3430 
 12 C       -6.9760     6.4250    -0.6050 C.3   1 <1>   0.1100 
 13 C       -6.9640     4.0190    -1.0000 C.3   1 <1>   0.1100 
 14 N       -7.7970     5.1980    -0.6650 N.3   1 <1>  -0.8100 
 15 C       -8.9160     5.3590    -1.6500 C.3   1 <1>   0.1710 
 16 C       -9.9580     4.2370    -1.6290 C.2   1 <1>   0.5690 
 17 O      -10.4570     3.8950    -2.6720 O.2   1 <1>  -0.5700 
 18 N      -10.2590     3.6860    -0.4160 N.am  1 <1>  -0.5470 
 19 C      -11.2430     2.7490    -0.0620 C.ar  1 <1>   0.1170 
 20 C      -11.2720     1.4570    -0.5990 C.ar  1 <1>  -0.1430 
 21 C      -12.2050     3.1160     0.8840 C.ar  1 <1>  -0.1430 
 22 C      -12.2540     0.5670    -0.1970 C.ar  1 <1>  -0.1500 
 23 C      -10.2520     0.9700    -1.6210 C.3   1 <1>  -0.0970 
 24 C      -13.1750     2.2090     1.2760 C.ar  1 <1>  -0.1500 
 25 C      -12.2220     4.5130     1.4970 C.3   1 <1>  -0.0970 
 26 C      -13.2020     0.9380     0.7370 C.ar  1 <1>  -0.1500 
 27 H       -0.5280     3.1890    -1.6780 H     1 <1>   0.1500 
 28 H       -2.1430     0.5860     1.2770 H     1 <1>   0.1500 
 29 H       -2.0020     5.0080    -0.9120 H     1 <1>   0.1500 
 30 H       -3.6360     2.3790     2.0710 H     1 <1>   0.1500 
 31 H       -3.3050     5.8420     1.1830 H     1 <1>   0.0800 
 32 H       -4.2690     4.6790     2.0650 H     1 <1>   0.0800 
 33 H       -4.5190     5.2180    -0.8130 H     1 <1>   0.4500 
 34 H       -5.2140     7.1790     0.3760 H     1 <1>   0.0800 
 35 H       -6.2350     6.1940     1.3900 H     1 <1>   0.0800 
 36 H       -6.2170     3.5960     0.9610 H     1 <1>   0.0800 
 37 H       -5.1920     3.0090    -0.3210 H     1 <1>   0.0800 
 38 H       -6.5810     6.6540    -1.5810 H     1 <1>   0.0800 
 39 H       -7.5970     7.2510    -0.3000 H     1 <1>   0.0800 
 40 H       -7.5710     3.1290    -0.9750 H     1 <1>   0.0800 
 41 H       -6.5700     4.1150    -1.9980 H     1 <1>   0.0800 
 42 H       -8.5180     5.4290    -2.6480 H     1 <1>   0.0800 
 43 H       -9.4410     6.2750    -1.4450 H     1 <1>   0.0800 
 44 H       -9.7860     4.1340     0.3670 H     1 <1>   0.3700 
 45 H      -12.2890    -0.4250    -0.6110 H     1 <1>   0.1500 
 46 H       -9.2770     1.3630    -1.4040 H     1 <1>   0.0800 
 47 H      -10.5480     1.2880    -2.6050 H     1 <1>   0.0800 
 48 H      -10.1880    -0.1030    -1.6160 H     1 <1>   0.0800 
 49 H      -13.9200     2.4850     2.0010 H     1 <1>   0.1500 
 50 H      -12.2830     5.2530     0.7180 H     1 <1>   0.0800 
 51 H      -11.3310     4.6760     2.0740 H     1 <1>   0.0800 
 52 H      -13.0720     4.6390     2.1440 H     1 <1>   0.0800 
 53 H      -13.9610     0.2390     1.0410 H     1 <1>   0.1500 
@<TRIPOS>BOND
  1   1   2  1   
  2   2   3  ar  
  3   2   4  ar  
  4   3   5  ar  
  5   3  27  1   
  6   4   6  ar  
  7   4  28  1   
  8   5   7  ar  
  9   5  29  1   
 10   6   7  ar  
 11   6  30  1   
 12   7   8  1   
 13   8   9  1   
 14   8  31  1   
 15   8  32  1   
 16   9  10  1   
 17   9  11  1   
 18   9  33  1   
 19  10  12  1   
 20  10  34  1   
 21  10  35  1   
 22  11  13  1   
 23  11  36  1   
 24  11  37  1   
 25  12  14  1   
 26  12  38  1   
 27  12  39  1   
 28  13  14  1   
 29  13  40  1   
 30  13  41  1   
 31  14  15  1   
 32  15  16  1   
 33  15  42  1   
 34  15  43  1   
 35  16  17  2   
 36  16  18  am  
 37  18  19  1   
 38  18  44  1   
 39  19  20  ar  
 40  19  21  ar  
 41  20  22  ar  
 42  20  23  1   
 43  21  24  ar  
 44  21  25  1   
 45  22  26  ar  
 46  22  45  1   
 47  23  46  1   
 48  23  47  1   
 49  23  48  1   
 50  24  26  ar  
 51  24  49  1   
 52  25  50  1   
 53  25  51  1   
 54  25  52  1   
 55  26  53  1   
@<TRIPOS>SUBSTRUCTURE
  1 ****  13 GROUP 4 **** **** 0

# MOE 2024.06 (io_trps.svl 2023.06)
