@<TRIPOS>MOLECULE
NONAME
34 34 1 0 0 
SMALL
USER_CHARGES


@<TRIPOS>ATOM
  1 O        0.5600     2.4970     1.8230 O.2   1 <1>  -0.5700 
  2 C        0.0240     2.3240     0.7440 C.2   1 <1>   0.5440 
  3 N        0.7270     1.6660    -0.2250 N.am  1 <1>  -0.7300 
  4 C       -1.3170     2.8180     0.4950 C.ar  1 <1>   0.0860 
  5 C        2.1050     1.1580    -0.1080 C.3   1 <1>   0.1400 
  6 C       -2.2090     2.2270    -0.4160 C.ar  1 <1>   0.0830 
  7 C       -1.7740     3.9490     1.1740 C.ar  1 <1>  -0.1500 
  8 C        2.8130     1.3660    -1.4410 C.3   1 <1>  -0.2400 
  9 O       -1.8870     1.1080    -1.0990 O.3   1 <1>  -0.3630 
 10 C       -3.4640     2.7640    -0.6570 C.ar  1 <1>  -0.1500 
 11 C       -3.0240     4.4900     0.9430 C.ar  1 <1>   0.0830 
 12 C       -2.0820    -0.1130    -0.4180 C.3   1 <1>   0.0400 
 13 C       -3.8930     3.8980     0.0210 C.ar  1 <1>   0.0830 
 14 O       -3.3670     5.5920     1.6570 O.3   1 <1>  -0.3630 
 15 O       -5.1240     4.4450    -0.1700 O.3   1 <1>  -0.3630 
 16 C       -3.4800     6.7980     0.9370 C.3   1 <1>   0.0400 
 17 C       -6.0850     3.8490    -1.0130 C.3   1 <1>   0.0400 
 18 H        0.2260     1.4350    -1.0890 H     1 <1>   0.3700 
 19 H        2.0780     0.1110     0.1430 H     1 <1>   0.0800 
 20 H        2.6250     1.6860     0.6740 H     1 <1>   0.0800 
 21 H       -1.1320     4.4210     1.8970 H     1 <1>   0.1500 
 22 H        2.3130     0.8240    -2.2230 H     1 <1>   0.0800 
 23 H        3.8250     1.0080    -1.3710 H     1 <1>   0.0800 
 24 H        2.8390     2.4130    -1.6860 H     1 <1>   0.0800 
 25 H       -4.0880     2.2730    -1.3770 H     1 <1>   0.1500 
 26 H       -1.8080    -0.9160    -1.0790 H     1 <1>   0.0800 
 27 H       -3.1190    -0.1990    -0.1450 H     1 <1>   0.0800 
 28 H       -1.4610    -0.1310     0.4610 H     1 <1>   0.0800 
 29 H       -3.6160     7.5980     1.6420 H     1 <1>   0.0800 
 30 H       -4.3310     6.7430     0.2820 H     1 <1>   0.0800 
 31 H       -2.5780     6.9530     0.3710 H     1 <1>   0.0800 
 32 H       -6.9800     4.4430    -0.9700 H     1 <1>   0.0800 
 33 H       -6.2910     2.8540    -0.6580 H     1 <1>   0.0800 
 34 H       -5.7060     3.8310    -2.0190 H     1 <1>   0.0800 
@<TRIPOS>BOND
  1   1   2  2   
  2   2   3  am  
  3   2   4  1   
  4   3   5  1   
  5   3  18  1   
  6   4   6  ar  
  7   4   7  ar  
  8   5   8  1   
  9   5  19  1   
 10   5  20  1   
 11   6   9  1   
 12   6  10  ar  
 13   7  11  ar  
 14   7  21  1   
 15   8  22  1   
 16   8  23  1   
 17   8  24  1   
 18   9  12  1   
 19  10  13  ar  
 20  10  25  1   
 21  11  13  ar  
 22  11  14  1   
 23  12  26  1   
 24  12  27  1   
 25  12  28  1   
 26  13  15  1   
 27  14  16  1   
 28  15  17  1   
 29  16  29  1   
 30  16  30  1   
 31  16  31  1   
 32  17  32  1   
 33  17  33  1   
 34  17  34  1   
@<TRIPOS>SUBSTRUCTURE
  1 ****   4 GROUP 4 **** **** 0

# MOE 2024.06 (io_trps.svl 2023.06)
