@<TRIPOS>MOLECULE
NONAME
39 40 1 0 0 
SMALL
USER_CHARGES


@<TRIPOS>ATOM
  1 CL      -0.2620     0.3750     0.3400 Cl    1 <1>  -0.1770 
  2 C       -1.9940     0.2450     0.1860 C.ar  1 <1>   0.1770 
  3 C       -2.5620    -0.9820    -0.0970 C.ar  1 <1>  -0.1500 
  4 C       -2.7790     1.3700     0.3480 C.ar  1 <1>  -0.1500 
  5 C       -3.9380    -1.0790    -0.2190 C.ar  1 <1>  -0.1500 
  6 C       -4.1530     1.2590     0.2250 C.ar  1 <1>  -0.1500 
  7 C       -4.7650     0.0360    -0.0610 C.ar  1 <1>   0.0530 
  8 C       -6.2020    -0.0740    -0.1900 C.2   1 <1>   0.0870 
  9 O       -6.9750     0.9900    -0.0060 O.3   1 <1>  -0.2800 
 10 C       -6.9990    -1.1360    -0.4860 C.2   1 <1>  -0.1500 
 11 C       -8.2340     0.6440    -0.1740 C.2   1 <1>  -0.0400 
 12 C       -8.3150    -0.6700    -0.4770 C.2   1 <1>  -0.1500 
 13 C       -9.3000     1.7100    -0.0110 C.3   1 <1>   0.2900 
 14 N      -10.6360     1.0980     0.0190 N.3   1 <1>  -0.9000 
 15 C      -11.6960     2.0730     0.2700 C.3   1 <1>   0.1100 
 16 C      -13.0670     1.4190     0.0210 C.3   1 <1>   0.3430 
 17 N      -14.2120     2.3720     0.2030 N.4   1 <1>  -0.9590 
 18 C      -15.5050     1.6200     0.2140 C.3   1 <1>   0.2630 
 19 C      -14.2390     3.4240    -0.8640 C.3   1 <1>   0.2630 
 20 H       -1.9320    -1.8440    -0.2200 H     1 <1>   0.1500 
 21 H       -2.3190     2.3160     0.5680 H     1 <1>   0.1500 
 22 H       -4.3740    -2.0360    -0.4390 H     1 <1>   0.1500 
 23 H       -4.7630     2.1360     0.3510 H     1 <1>   0.1500 
 24 H       -6.7110    -2.1490    -0.6950 H     1 <1>   0.1500 
 25 H       -9.1910    -1.2590    -0.6800 H     1 <1>   0.1500 
 26 H       -9.2280     2.4070    -0.8290 H     1 <1>   0.0800 
 27 H       -9.1190     2.2380     0.9100 H     1 <1>   0.0800 
 28 H      -10.6040     0.3870     0.7630 H     1 <1>   0.3600 
 29 H      -11.5670     2.9020    -0.4030 H     1 <1>   0.0800 
 30 H      -11.6270     2.4240     1.2860 H     1 <1>   0.0800 
 31 H      -13.1750     0.5950     0.7070 H     1 <1>   0.0800 
 32 H      -13.0820     1.0230    -0.9820 H     1 <1>   0.0800 
 33 H      -14.1050     2.8340     1.1200 H     1 <1>   0.4500 
 34 H      -15.6540     1.1160    -0.7280 H     1 <1>   0.0800 
 35 H      -16.3300     2.2950     0.3770 H     1 <1>   0.0800 
 36 H      -15.5040     0.8840     1.0020 H     1 <1>   0.0800 
 37 H      -14.3250     2.9680    -1.8370 H     1 <1>   0.0800 
 38 H      -13.3360     4.0120    -0.8390 H     1 <1>   0.0800 
 39 H      -15.0790     4.0840    -0.7180 H     1 <1>   0.0800 
@<TRIPOS>BOND
  1   1   2  1   
  2   2   3  ar  
  3   2   4  ar  
  4   3   5  ar  
  5   3  20  1   
  6   4   6  ar  
  7   4  21  1   
  8   5   7  ar  
  9   5  22  1   
 10   6   7  ar  
 11   6  23  1   
 12   7   8  1   
 13   8   9  1   
 14   8  10  2   
 15   9  11  1   
 16  10  12  1   
 17  10  24  1   
 18  11  12  2   
 19  11  13  1   
 20  12  25  1   
 21  13  14  1   
 22  13  26  1   
 23  13  27  1   
 24  14  15  1   
 25  14  28  1   
 26  15  16  1   
 27  15  29  1   
 28  15  30  1   
 29  16  17  1   
 30  16  31  1   
 31  16  32  1   
 32  17  18  1   
 33  17  19  1   
 34  17  33  1   
 35  18  34  1   
 36  18  35  1   
 37  18  36  1   
 38  19  37  1   
 39  19  38  1   
 40  19  39  1   
@<TRIPOS>SUBSTRUCTURE
  1 ****  11 GROUP 4 **** **** 0

# MOE 2024.06 (io_trps.svl 2023.06)
