@<TRIPOS>MOLECULE
NONAME
39 41 1 0 0 
SMALL
USER_CHARGES


@<TRIPOS>ATOM
  1 S        0.3670    -0.7130     2.0260 S.3   1 <1>  -0.2860 
  2 C       -0.7580     0.4820     1.2870 C.2   1 <1>   0.2420 
  3 C        1.7210     0.3090     2.7890 C.3   1 <1>   0.1310 
  4 N       -0.6320     1.7570     1.3970 N.2   1 <1>  -0.3380 
  5 N       -1.8110     0.1010     0.5510 N.pl3 1 <1>   0.3260 
  6 C        3.0190     0.1340     2.0130 C.2   1 <1>   0.5690 
  7 N       -1.6410     2.2830     0.6980 N.2   1 <1>  -0.3380 
  8 C       -2.2530    -1.2020     0.2030 C.ar  1 <1>  -0.0230 
  9 C       -2.3240     1.3000     0.2120 C.2   1 <1>   0.0060 
 10 O        3.8410    -0.6300     2.4650 O.2   1 <1>  -0.5700 
 11 N        3.2580     0.8310     0.8580 N.am  1 <1>  -0.6600 
 12 C       -2.0640    -1.6850    -1.0910 C.ar  1 <1>  -0.1500 
 13 C       -2.8770    -2.0080     1.1530 C.ar  1 <1>  -0.1500 
 14 C       -3.5670     1.4700    -0.6410 C.3   1 <1>  -0.0600 
 15 C        2.3550     1.8090     0.2110 C.3   1 <1>   0.1400 
 16 C        4.5050     0.6660     0.0830 C.3   1 <1>   0.1400 
 17 C       -2.4960    -2.9540    -1.4370 C.ar  1 <1>  -0.1500 
 18 C       -3.3130    -3.2790     0.8180 C.ar  1 <1>  -0.1500 
 19 C        3.2060     2.4630    -0.8710 C.3   1 <1>  -0.1600 
 20 C        4.2550     1.4130    -1.2230 C.3   1 <1>  -0.1600 
 21 C       -3.1140    -3.7280    -0.4730 C.ar  1 <1>   0.1900 
 22 F       -3.5240    -4.9250    -0.7950 F     1 <1>  -0.1900 
 23 H        1.8470    -0.0500     3.7930 H     1 <1>   0.0800 
 24 H        1.4150     1.3360     2.8140 H     1 <1>   0.0800 
 25 H       -1.5750    -1.0710    -1.8290 H     1 <1>   0.1500 
 26 H       -3.0210    -1.6450     2.1570 H     1 <1>   0.1500 
 27 H       -4.3980     0.9580    -0.1910 H     1 <1>   0.0800 
 28 H       -3.4000     1.0740    -1.6260 H     1 <1>   0.0800 
 29 H       -3.8130     2.5140    -0.7280 H     1 <1>   0.0800 
 30 H        1.9890     2.5370     0.9140 H     1 <1>   0.0800 
 31 H        1.5290     1.2840    -0.2380 H     1 <1>   0.0800 
 32 H        4.7170    -0.3770    -0.0850 H     1 <1>   0.0800 
 33 H        5.3170     1.1150     0.6290 H     1 <1>   0.0800 
 34 H       -2.3570    -3.3420    -2.4300 H     1 <1>   0.1500 
 35 H       -3.7950    -3.9140     1.5400 H     1 <1>   0.1500 
 36 H        3.6840     3.3350    -0.4580 H     1 <1>   0.0800 
 37 H        2.6150     2.7570    -1.7200 H     1 <1>   0.0800 
 38 H        3.8560     0.7240    -1.9460 H     1 <1>   0.0800 
 39 H        5.1590     1.8470    -1.6130 H     1 <1>   0.0800 
@<TRIPOS>BOND
  1   1   2  1   
  2   1   3  1   
  3   2   4  2   
  4   2   5  1   
  5   3   6  1   
  6   3  23  1   
  7   3  24  1   
  8   4   7  1   
  9   5   8  1   
 10   5   9  1   
 11   6  10  2   
 12   6  11  am  
 13   7   9  2   
 14   8  12  ar  
 15   8  13  ar  
 16   9  14  1   
 17  11  15  1   
 18  11  16  1   
 19  12  17  ar  
 20  12  25  1   
 21  13  18  ar  
 22  13  26  1   
 23  14  27  1   
 24  14  28  1   
 25  14  29  1   
 26  15  19  1   
 27  15  30  1   
 28  15  31  1   
 29  16  20  1   
 30  16  32  1   
 31  16  33  1   
 32  17  21  ar  
 33  17  34  1   
 34  18  21  ar  
 35  18  35  1   
 36  19  20  1   
 37  19  36  1   
 38  19  37  1   
 39  20  38  1   
 40  20  39  1   
 41  21  22  1   
@<TRIPOS>SUBSTRUCTURE
  1 ****   2 GROUP 4 **** **** 0

# MOE 2024.06 (io_trps.svl 2023.06)
