@<TRIPOS>MOLECULE
NONAME
38 39 1 0 0 
SMALL
USER_CHARGES


@<TRIPOS>ATOM
  1 O        0.2240     0.4050     0.3720 O.3   1 <1>  -0.5600 
  2 C        1.1870    -0.6090     0.4920 C.3   1 <1>   0.2000 
  3 C        0.4780     1.4430    -0.5400 C.3   1 <1>   0.2000 
  4 C        2.5470    -0.0160     0.9470 C.3   1 <1>   0.3430 
  5 C        1.2710    -1.3990    -0.8210 C.3   1 <1>  -0.2400 
  6 C        1.9680     1.8730    -0.5240 C.3   1 <1>   0.3430 
  7 C       -0.4430     2.5920    -0.1360 C.3   1 <1>  -0.2400 
  8 N        2.6280     1.4780     0.7660 N.4   1 <1>  -0.9590 
  9 C        3.9980     2.0130     1.0030 C.3   1 <1>   0.4230 
 10 C        3.9990     3.5440     0.9900 C.3   1 <1>  -0.1600 
 11 C        4.9950     1.5780    -0.0840 C.3   1 <1>  -0.1600 
 12 C        4.5910     3.9600    -0.3580 C.3   1 <1>  -0.0800 
 13 C        5.5970     2.8580    -0.6720 C.3   1 <1>  -0.1600 
 14 C        5.2270     5.3530    -0.3230 C.3   1 <1>  -0.2400 
 15 H        0.8330    -1.2780     1.2580 H     1 <1>   0.0800 
 16 H        0.2050     1.1040    -1.5260 H     1 <1>   0.0800 
 17 H        3.3320    -0.4990     0.3900 H     1 <1>   0.0800 
 18 H        2.6980    -0.2600     1.9850 H     1 <1>   0.0800 
 19 H        1.6930    -0.8180    -1.6190 H     1 <1>   0.0800 
 20 H        0.2890    -1.7350    -1.1050 H     1 <1>   0.0800 
 21 H        1.8870    -2.2690    -0.6810 H     1 <1>   0.0800 
 22 H        2.0230     2.9390    -0.6680 H     1 <1>   0.0800 
 23 H        2.4750     1.4070    -1.3520 H     1 <1>   0.0800 
 24 H       -0.2180     2.9340     0.8590 H     1 <1>   0.0800 
 25 H       -1.4680     2.2640    -0.1680 H     1 <1>   0.0800 
 26 H       -0.3360     3.4170    -0.8180 H     1 <1>   0.0800 
 27 H        2.0100     1.8630     1.4940 H     1 <1>   0.4500 
 28 H        4.3480     1.6780     1.9670 H     1 <1>   0.0800 
 29 H        4.6610     3.8750     1.7720 H     1 <1>   0.0800 
 30 H        3.0310     3.9780     1.1660 H     1 <1>   0.0800 
 31 H        4.5250     1.0110    -0.8660 H     1 <1>   0.0800 
 32 H        5.7770     0.9780     0.3480 H     1 <1>   0.0800 
 33 H        3.8210     3.9520    -1.1110 H     1 <1>   0.0800 
 34 H        5.7810     2.7730    -1.7300 H     1 <1>   0.0800 
 35 H        6.5330     3.0680    -0.1790 H     1 <1>   0.0800 
 36 H        6.0120     5.4020     0.4110 H     1 <1>   0.0800 
 37 H        4.4870     6.0960    -0.0820 H     1 <1>   0.0800 
 38 H        5.6460     5.5930    -1.2840 H     1 <1>   0.0800 
@<TRIPOS>BOND
  1   1   2  1   
  2   1   3  1   
  3   2   4  1   
  4   2   5  1   
  5   2  15  1   
  6   3   6  1   
  7   3   7  1   
  8   3  16  1   
  9   4   8  1   
 10   4  17  1   
 11   4  18  1   
 12   5  19  1   
 13   5  20  1   
 14   5  21  1   
 15   6   8  1   
 16   6  22  1   
 17   6  23  1   
 18   7  24  1   
 19   7  25  1   
 20   7  26  1   
 21   8   9  1   
 22   8  27  1   
 23   9  10  1   
 24   9  11  1   
 25   9  28  1   
 26  10  12  1   
 27  10  29  1   
 28  10  30  1   
 29  11  13  1   
 30  11  31  1   
 31  11  32  1   
 32  12  13  1   
 33  12  14  1   
 34  12  33  1   
 35  13  34  1   
 36  13  35  1   
 37  14  36  1   
 38  14  37  1   
 39  14  38  1   
@<TRIPOS>SUBSTRUCTURE
  1 ****   8 GROUP 4 **** **** 0

# MOE 2024.06 (io_trps.svl 2023.06)
