@<TRIPOS>MOLECULE
NONAME
37 39 1 0 0 
SMALL
USER_CHARGES


@<TRIPOS>ATOM
  1 O       -0.5570     0.3810    -0.7530 O.2   1 <1>  -0.5700 
  2 C       -1.7240     0.2390    -0.4680 C.2   1 <1>   0.5950 
  3 C       -2.4230    -1.0070    -0.3220 C.2   1 <1>  -0.0860 
  4 C       -2.4890     1.5320    -0.2660 C.3   1 <1>  -0.1790 
  5 C       -1.9820    -2.3290    -0.2500 C.2   1 <1>  -0.0680 
  6 C       -3.8330    -1.0930    -0.2450 C.2   1 <1>  -0.1500 
  7 N       -0.7000    -2.8750    -0.2460 N.pl3 1 <1>  -0.8220 
  8 N       -3.0640    -3.1370    -0.1650 N.pl3 1 <1>   0.0330 
  9 C       -4.2140    -2.3940    -0.1540 C.2   1 <1>  -0.2050 
 10 C       -0.4180    -4.3310    -0.2640 C.3   1 <1>   0.2090 
 11 C        0.5070    -2.1230     0.1710 C.3   1 <1>   0.2090 
 12 C       -5.5270    -2.9760    -0.0540 C.ar  1 <1>   0.0530 
 13 C        1.0880    -4.4450    -0.0660 C.3   1 <1>  -0.1600 
 14 C        1.4680    -3.1810     0.6960 C.3   1 <1>  -0.1600 
 15 C       -5.8480    -4.1680    -0.7010 C.ar  1 <1>  -0.1500 
 16 C       -6.5230    -2.3580     0.6990 C.ar  1 <1>  -0.1500 
 17 C       -7.1100    -4.7250    -0.5940 C.ar  1 <1>  -0.1500 
 18 C       -7.7870    -2.9090     0.8090 C.ar  1 <1>  -0.1500 
 19 C       -8.0820    -4.0960     0.1630 C.ar  1 <1>  -0.1500 
 20 H       -3.0500     1.4890     0.6490 H     1 <1>   0.0800 
 21 H       -3.1530     1.6910    -1.0940 H     1 <1>   0.0800 
 22 H       -1.8040     2.3580    -0.2090 H     1 <1>   0.0800 
 23 H       -4.5090    -0.2580    -0.2690 H     1 <1>   0.1500 
 24 H       -3.0220    -4.1520    -0.0840 H     1 <1>   0.2700 
 25 H       -0.7250    -4.7670    -1.1990 H     1 <1>   0.0800 
 26 H       -0.9330    -4.8030     0.5540 H     1 <1>   0.0800 
 27 H        0.2710    -1.3950     0.9270 H     1 <1>   0.0800 
 28 H        0.9280    -1.6340    -0.6910 H     1 <1>   0.0800 
 29 H        1.5650    -4.4460    -1.0310 H     1 <1>   0.0800 
 30 H        1.3570    -5.3420     0.4620 H     1 <1>   0.0800 
 31 H        1.2920    -3.3170     1.7480 H     1 <1>   0.0800 
 32 H        2.4930    -2.8970     0.5410 H     1 <1>   0.0800 
 33 H       -5.1050    -4.6580    -1.3020 H     1 <1>   0.1500 
 34 H       -6.2970    -1.4390     1.2070 H     1 <1>   0.1500 
 35 H       -7.3380    -5.6460    -1.1010 H     1 <1>   0.1500 
 36 H       -8.5400    -2.4160     1.3980 H     1 <1>   0.1500 
 37 H       -9.0650    -4.5270     0.2470 H     1 <1>   0.1500 
@<TRIPOS>BOND
  1   1   2  2   
  2   2   3  1   
  3   2   4  1   
  4   3   5  2   
  5   3   6  1   
  6   4  20  1   
  7   4  21  1   
  8   4  22  1   
  9   5   7  1   
 10   5   8  1   
 11   6   9  2   
 12   6  23  1   
 13   7  10  1   
 14   7  11  1   
 15   8   9  1   
 16   8  24  1   
 17   9  12  1   
 18  10  13  1   
 19  10  25  1   
 20  10  26  1   
 21  11  14  1   
 22  11  27  1   
 23  11  28  1   
 24  12  15  ar  
 25  12  16  ar  
 26  13  14  1   
 27  13  29  1   
 28  13  30  1   
 29  14  31  1   
 30  14  32  1   
 31  15  17  ar  
 32  15  33  1   
 33  16  18  ar  
 34  16  34  1   
 35  17  19  ar  
 36  17  35  1   
 37  18  19  ar  
 38  18  36  1   
 39  19  37  1   
@<TRIPOS>SUBSTRUCTURE
  1 ****   8 GROUP 4 **** **** 0

# MOE 2024.06 (io_trps.svl 2023.06)
