@<TRIPOS>MOLECULE
NONAME
50 52 1 0 0 
SMALL
USER_CHARGES


@<TRIPOS>ATOM
  1 O       -5.7240     7.3570    -0.0620 O.3   1 <1>  -0.3630 
  2 C       -6.9860     7.8290    -0.2280 C.ar  1 <1>   0.0830 
  3 C       -4.5860     8.1650    -0.2230 C.3   1 <1>   0.1200 
  4 C       -8.0320     6.8980    -0.2190 C.ar  1 <1>   0.0000 
  5 C       -7.2580     9.1840    -0.4070 C.ar  1 <1>  -0.1500 
  6 C       -3.3640     7.2550    -0.0860 C.3   1 <1>  -0.1600 
  7 C       -7.8050     5.4800    -0.0350 C.ar  1 <1>   0.0000 
  8 C       -9.3320     7.3620    -0.3970 C.ar  1 <1>  -0.1500 
  9 C       -8.5590     9.6190    -0.5820 C.ar  1 <1>  -0.1500 
 10 C       -2.0470     8.0250    -0.2630 C.3   1 <1>  -0.1600 
 11 C       -8.0880     4.5740    -1.0540 C.ar  1 <1>  -0.1500 
 12 C       -7.3110     4.9790     1.1650 C.ar  1 <1>  -0.1500 
 13 C       -9.5970     8.7060    -0.5770 C.ar  1 <1>  -0.1500 
 14 C       -0.8560     7.0720    -0.1370 C.3   1 <1>   0.3430 
 15 C       -7.8860     3.2170    -0.8800 C.ar  1 <1>  -0.1500 
 16 C       -7.1070     3.6230     1.3460 C.ar  1 <1>  -0.1500 
 17 N        0.4220     7.7830    -0.4140 N.4   1 <1>  -0.9590 
 18 C       -7.3960     2.7380     0.3220 C.ar  1 <1>  -0.1500 
 19 C        1.5370     6.7940    -0.6350 C.3   1 <1>   0.3430 
 20 C        0.7960     8.7480     0.6830 C.3   1 <1>   0.3430 
 21 C        2.8870     7.4980    -0.8950 C.3   1 <1>   0.1100 
 22 C        2.1550     9.4290     0.4110 C.3   1 <1>   0.1100 
 23 N        3.2160     8.4350     0.1900 N.3   1 <1>  -0.9000 
 24 H       -4.5980     8.9220     0.5420 H     1 <1>   0.0800 
 25 H       -4.6270     8.6150    -1.2000 H     1 <1>   0.0800 
 26 H       -6.4740     9.9160    -0.4120 H     1 <1>   0.1500 
 27 H       -3.4350     6.4800    -0.8300 H     1 <1>   0.0800 
 28 H       -3.3900     6.7950     0.8880 H     1 <1>   0.0800 
 29 H      -10.1420     6.6560    -0.3890 H     1 <1>   0.1500 
 30 H       -8.7650    10.6660    -0.7210 H     1 <1>   0.1500 
 31 H       -1.9930     8.7920     0.4890 H     1 <1>   0.0800 
 32 H       -2.0420     8.4850    -1.2360 H     1 <1>   0.0800 
 33 H       -8.4660     4.9430    -1.9900 H     1 <1>   0.1500 
 34 H       -7.0850     5.6670     1.9600 H     1 <1>   0.1500 
 35 H      -10.6110     9.0430    -0.7130 H     1 <1>   0.1500 
 36 H       -0.9820     6.2690    -0.8470 H     1 <1>   0.0800 
 37 H       -0.8330     6.6410     0.8520 H     1 <1>   0.0800 
 38 H       -8.1110     2.5320    -1.6790 H     1 <1>   0.1500 
 39 H       -6.7240     3.2570     2.2820 H     1 <1>   0.1500 
 40 H        0.3190     8.3220    -1.2820 H     1 <1>   0.4500 
 41 H       -7.2390     1.6830     0.4600 H     1 <1>   0.1500 
 42 H        1.3050     6.1560    -1.4720 H     1 <1>   0.0800 
 43 H        1.6470     6.1710     0.2380 H     1 <1>   0.0800 
 44 H        0.8660     8.2200     1.6210 H     1 <1>   0.0800 
 45 H        0.0380     9.5060     0.7850 H     1 <1>   0.0800 
 46 H        2.8510     8.0220    -1.8350 H     1 <1>   0.0800 
 47 H        3.6640     6.7550    -0.9610 H     1 <1>   0.0800 
 48 H        2.4190    10.0370     1.2600 H     1 <1>   0.0800 
 49 H        2.0740    10.0770    -0.4450 H     1 <1>   0.0800 
 50 H        4.1090     8.9130    -0.0170 H     1 <1>   0.3600 
@<TRIPOS>BOND
  1   1   2  1   
  2   1   3  1   
  3   2   4  ar  
  4   2   5  ar  
  5   3   6  1   
  6   3  24  1   
  7   3  25  1   
  8   4   7  1   
  9   4   8  ar  
 10   5   9  ar  
 11   5  26  1   
 12   6  10  1   
 13   6  27  1   
 14   6  28  1   
 15   7  11  ar  
 16   7  12  ar  
 17   8  13  ar  
 18   8  29  1   
 19   9  13  ar  
 20   9  30  1   
 21  10  14  1   
 22  10  31  1   
 23  10  32  1   
 24  11  15  ar  
 25  11  33  1   
 26  12  16  ar  
 27  12  34  1   
 28  13  35  1   
 29  14  17  1   
 30  14  36  1   
 31  14  37  1   
 32  15  18  ar  
 33  15  38  1   
 34  16  18  ar  
 35  16  39  1   
 36  17  19  1   
 37  17  20  1   
 38  17  40  1   
 39  18  41  1   
 40  19  21  1   
 41  19  42  1   
 42  19  43  1   
 43  20  22  1   
 44  20  44  1   
 45  20  45  1   
 46  21  23  1   
 47  21  46  1   
 48  21  47  1   
 49  22  23  1   
 50  22  48  1   
 51  22  49  1   
 52  23  50  1   
@<TRIPOS>SUBSTRUCTURE
  1 ****   6 GROUP 4 **** **** 0

# MOE 2024.06 (io_trps.svl 2023.06)
