@<TRIPOS>MOLECULE
NONAME
36 37 1 0 0 
SMALL
USER_CHARGES


@<TRIPOS>ATOM
  1 BR      -0.1690    -0.3890    -0.9530 Br    1 <1>  -0.1110 
  2 C       -2.0760    -0.1410    -0.8620 C.ar  1 <1>   0.1110 
  3 C       -2.8980    -1.0680    -1.4730 C.ar  1 <1>  -0.1500 
  4 C       -2.5720     0.9590    -0.1870 C.ar  1 <1>  -0.1500 
  5 C       -4.2680    -0.8830    -1.4010 C.ar  1 <1>  -0.1500 
  6 C       -3.9440     1.1360    -0.1210 C.ar  1 <1>  -0.1500 
  7 C       -4.7960     0.2110    -0.7270 C.ar  1 <1>   0.0830 
  8 O       -6.1470     0.3060    -0.7020 O.3   1 <1>  -0.3630 
  9 C       -6.8040     1.2890     0.0850 C.3   1 <1>   0.1810 
 10 C       -8.3200     1.1080     0.0520 C.2   1 <1>   0.5690 
 11 O       -8.9600     2.0110    -0.4410 O.2   1 <1>  -0.5700 
 12 N       -8.9360    -0.0050     0.5840 N.am  1 <1>  -0.6600 
 13 C       -8.2100    -1.1160     1.2700 C.3   1 <1>   0.1400 
 14 C      -10.4080    -0.1670     0.4490 C.3   1 <1>   0.1400 
 15 C       -8.6510    -2.5150     0.8140 C.3   1 <1>  -0.1600 
 16 C      -10.7380    -0.7910    -0.9130 C.3   1 <1>  -0.1600 
 17 C       -8.9420    -2.6430    -0.6910 C.3   1 <1>  -0.1600 
 18 C      -10.3950    -2.2840    -1.0410 C.3   1 <1>  -0.1600 
 19 H       -2.4760    -1.9110    -1.9910 H     1 <1>   0.1500 
 20 H       -1.8970     1.6590     0.2720 H     1 <1>   0.1500 
 21 H       -4.9370    -1.5840    -1.8670 H     1 <1>   0.1500 
 22 H       -4.3260     1.9950     0.3980 H     1 <1>   0.1500 
 23 H       -6.5540     2.2550    -0.3120 H     1 <1>   0.0800 
 24 H       -6.4570     1.2100     1.0980 H     1 <1>   0.0800 
 25 H       -8.3630    -1.0260     2.3320 H     1 <1>   0.0800 
 26 H       -7.1550    -1.0340     1.0920 H     1 <1>   0.0800 
 27 H      -10.8780     0.8000     0.5150 H     1 <1>   0.0800 
 28 H      -10.7960    -0.7730     1.2490 H     1 <1>   0.0800 
 29 H       -9.5100    -2.8230     1.3820 H     1 <1>   0.0800 
 30 H       -7.8590    -3.1960     1.0690 H     1 <1>   0.0800 
 31 H      -10.2310    -0.2340    -1.6820 H     1 <1>   0.0800 
 32 H      -11.7930    -0.6750    -1.0860 H     1 <1>   0.0800 
 33 H       -8.7800    -3.6680    -0.9780 H     1 <1>   0.0800 
 34 H       -8.2560    -2.0370    -1.2610 H     1 <1>   0.0800 
 35 H      -10.5820    -2.5810    -2.0590 H     1 <1>   0.0800 
 36 H      -11.0610    -2.8560    -0.4180 H     1 <1>   0.0800 
@<TRIPOS>BOND
  1   1   2  1   
  2   2   3  ar  
  3   2   4  ar  
  4   3   5  ar  
  5   3  19  1   
  6   4   6  ar  
  7   4  20  1   
  8   5   7  ar  
  9   5  21  1   
 10   6   7  ar  
 11   6  22  1   
 12   7   8  1   
 13   8   9  1   
 14   9  10  1   
 15   9  23  1   
 16   9  24  1   
 17  10  11  2   
 18  10  12  am  
 19  12  13  1   
 20  12  14  1   
 21  13  15  1   
 22  13  25  1   
 23  13  26  1   
 24  14  16  1   
 25  14  27  1   
 26  14  28  1   
 27  15  17  1   
 28  15  29  1   
 29  15  30  1   
 30  16  18  1   
 31  16  31  1   
 32  16  32  1   
 33  17  18  1   
 34  17  33  1   
 35  17  34  1   
 36  18  35  1   
 37  18  36  1   
@<TRIPOS>SUBSTRUCTURE
  1 ****   8 GROUP 4 **** **** 0

# MOE 2024.06 (io_trps.svl 2023.06)
