@<TRIPOS>MOLECULE
NONAME
38 40 1 0 0 
SMALL
USER_CHARGES


@<TRIPOS>ATOM
  1 O        0.2320     1.3750    -1.1120 O.2   1 <1>  -0.5700 
  2 C        1.3790     1.6410    -0.8380 C.2   1 <1>   0.6900 
  3 N        2.0600     0.8960     0.0660 N.am  1 <1>  -0.5390 
  4 N        1.9990     2.6860    -1.4060 N.am  1 <1>  -0.7300 
  5 C        3.3500     1.1570     0.4810 C.2   1 <1>  -0.0290 
  6 C        3.3190     3.1850    -0.9770 C.3   1 <1>   0.5020 
  7 C        4.0190     2.2500     0.0170 C.2   1 <1>  -0.1240 
  8 C        3.8870     0.1190     1.4560 C.3   1 <1>  -0.1020 
  9 C        3.1060     4.5720    -0.3760 C.ar  1 <1>  -0.1440 
 10 C        5.3420     2.6860     0.3530 C.2   1 <1>   0.7060 
 11 C        3.6890     5.6860    -0.9670 C.ar  1 <1>  -0.1500 
 12 C        2.3360     4.7360     0.7700 C.ar  1 <1>  -0.1500 
 13 O        5.9210     2.3760     1.3750 O.2   1 <1>  -0.5700 
 14 O        5.9830     3.4840    -0.5120 O.3   1 <1>  -0.4300 
 15 C        3.5070     6.9430    -0.4200 C.ar  1 <1>   0.0830 
 16 C        2.1450     5.9940     1.3180 C.ar  1 <1>  -0.1500 
 17 C        7.2640     4.0140    -0.2290 C.3   1 <1>   0.0400 
 18 O        4.1090     8.0060    -1.0120 O.3   1 <1>  -0.3630 
 19 C        2.7230     7.1010     0.7230 C.ar  1 <1>   0.0830 
 20 C        4.1670     9.2060    -0.2630 C.3   1 <1>   0.1200 
 21 O        2.5090     8.3260     1.2660 O.3   1 <1>  -0.3630 
 22 C        2.8370     9.4450     0.4650 C.3   1 <1>   0.1200 
 23 H        1.5270     0.1080     0.4300 H     1 <1>   0.3700 
 24 H        1.4150     3.3390    -1.9240 H     1 <1>   0.3700 
 25 H        3.9270     3.2670    -1.8620 H     1 <1>   0.0800 
 26 H        3.4510     0.2730     2.4270 H     1 <1>   0.0800 
 27 H        4.9540     0.1610     1.5510 H     1 <1>   0.0800 
 28 H        3.6360    -0.8710     1.1180 H     1 <1>   0.0800 
 29 H        4.2950     5.5930    -1.8500 H     1 <1>   0.1500 
 30 H        1.8780     3.8820     1.2410 H     1 <1>   0.1500 
 31 H        1.5470     6.1220     2.2030 H     1 <1>   0.1500 
 32 H        7.5700     4.6290    -1.0570 H     1 <1>   0.0800 
 33 H        7.9560     3.2020    -0.0930 H     1 <1>   0.0800 
 34 H        7.2040     4.6060     0.6680 H     1 <1>   0.0800 
 35 H        4.3820    10.0110    -0.9420 H     1 <1>   0.0800 
 36 H        4.9700     9.1180     0.4470 H     1 <1>   0.0800 
 37 H        2.0430     9.5910    -0.2460 H     1 <1>   0.0800 
 38 H        2.9000    10.3050     1.1060 H     1 <1>   0.0800 
@<TRIPOS>BOND
  1   1   2  2   
  2   2   3  am  
  3   2   4  am  
  4   3   5  1   
  5   3  23  1   
  6   4   6  1   
  7   4  24  1   
  8   5   7  2   
  9   5   8  1   
 10   6   7  1   
 11   6   9  1   
 12   6  25  1   
 13   7  10  1   
 14   8  26  1   
 15   8  27  1   
 16   8  28  1   
 17   9  11  ar  
 18   9  12  ar  
 19  10  13  2   
 20  10  14  1   
 21  11  15  ar  
 22  11  29  1   
 23  12  16  ar  
 24  12  30  1   
 25  14  17  1   
 26  15  18  1   
 27  15  19  ar  
 28  16  19  ar  
 29  16  31  1   
 30  17  32  1   
 31  17  33  1   
 32  17  34  1   
 33  18  20  1   
 34  19  21  1   
 35  20  22  1   
 36  20  35  1   
 37  20  36  1   
 38  21  22  1   
 39  22  37  1   
 40  22  38  1   
@<TRIPOS>SUBSTRUCTURE
  1 ****   9 GROUP 4 **** **** 0

# MOE 2024.06 (io_trps.svl 2023.06)
