@<TRIPOS>MOLECULE
NONAME
54 56 1 0 0 
SMALL
USER_CHARGES


@<TRIPOS>ATOM
  1 O        2.2270    -2.9730     2.7690 O.2   1 <1>  -0.5700 
  2 C        1.5300    -2.8840     1.7910 C.2   1 <1>   0.5690 
  3 N        1.8960    -2.2520     0.6370 N.am  1 <1>  -0.5470 
  4 C        0.1640    -3.5230     1.8230 C.3   1 <1>  -0.1790 
  5 C        3.0680    -1.5520     0.3120 C.ar  1 <1>   0.1170 
  6 C        3.8780    -0.9490     1.2680 C.ar  1 <1>  -0.1500 
  7 C        3.4330    -1.4380    -1.0240 C.ar  1 <1>  -0.1500 
  8 C        5.0190    -0.2600     0.8990 C.ar  1 <1>  -0.1500 
  9 C        4.5740    -0.7500    -1.3960 C.ar  1 <1>  -0.1500 
 10 C        5.3790    -0.1560    -0.4360 C.ar  1 <1>  -0.1440 
 11 C        6.6420     0.5950    -0.8340 C.3   1 <1>   0.2530 
 12 N        7.8330     0.0200    -0.1740 N.3   1 <1>  -0.8100 
 13 C        9.0440     0.8130    -0.4490 C.3   1 <1>   0.1100 
 14 C        8.0280    -1.4090    -0.5080 C.3   1 <1>   0.1100 
 15 C       10.2610     0.2500     0.3140 C.3   1 <1>   0.3430 
 16 C        9.2340    -1.9990     0.2470 C.3   1 <1>   0.3430 
 17 N       10.4920    -1.2030     0.0080 N.4   1 <1>  -0.9590 
 18 C       11.6290    -1.7490     0.7820 C.3   1 <1>   0.4810 
 19 C       11.8970    -3.1480     0.2810 C.2   1 <1>  -0.2880 
 20 C       11.6840    -4.2700     0.9910 C.2   1 <1>  -0.1780 
 21 C       11.9070    -5.6370     0.5750 C.ar  1 <1>   0.0280 
 22 C       11.3460    -6.6840     1.3020 C.ar  1 <1>  -0.1500 
 23 C       12.6720    -5.9660    -0.5430 C.ar  1 <1>  -0.1500 
 24 C       11.5320    -8.0030     0.9280 C.ar  1 <1>  -0.1500 
 25 C       12.8620    -7.2830    -0.9230 C.ar  1 <1>  -0.1500 
 26 C       12.2900    -8.3050    -0.1880 C.ar  1 <1>  -0.1500 
 27 H        1.2250    -2.3270    -0.1230 H     1 <1>   0.3700 
 28 H        0.1110    -4.3070     1.0920 H     1 <1>   0.0800 
 29 H       -0.5890    -2.7850     1.6200 H     1 <1>   0.0800 
 30 H       -0.0160    -3.9430     2.7960 H     1 <1>   0.0800 
 31 H        3.6170    -1.0120     2.3090 H     1 <1>   0.1500 
 32 H        2.8220    -1.8930    -1.7820 H     1 <1>   0.1500 
 33 H        5.6320     0.1970     1.6570 H     1 <1>   0.1500 
 34 H        4.8300    -0.6790    -2.4390 H     1 <1>   0.1500 
 35 H        6.5300     1.6240    -0.5370 H     1 <1>   0.0800 
 36 H        6.7660     0.5670    -1.9040 H     1 <1>   0.0800 
 37 H        9.2490     0.8230    -1.5060 H     1 <1>   0.0800 
 38 H        8.8800     1.8300    -0.1330 H     1 <1>   0.0800 
 39 H        7.1530    -1.9710    -0.2240 H     1 <1>   0.0800 
 40 H        8.1640    -1.5280    -1.5690 H     1 <1>   0.0800 
 41 H       10.0780     0.3720     1.3700 H     1 <1>   0.0800 
 42 H       11.1360     0.8250     0.0580 H     1 <1>   0.0800 
 43 H        9.3770    -3.0210    -0.0630 H     1 <1>   0.0800 
 44 H        9.0010    -2.0040     1.2990 H     1 <1>   0.0800 
 45 H       10.7170    -1.2920    -0.9890 H     1 <1>   0.4500 
 46 H       12.5090    -1.1390     0.6480 H     1 <1>   0.0800 
 47 H       11.3830    -1.7730     1.8320 H     1 <1>   0.0800 
 48 H       12.2810    -3.1600    -0.7230 H     1 <1>   0.1500 
 49 H       11.3000    -4.2000     1.9950 H     1 <1>   0.1500 
 50 H       10.7530    -6.4730     2.1740 H     1 <1>   0.1500 
 51 H       13.1370    -5.1940    -1.1260 H     1 <1>   0.1500 
 52 H       11.0880    -8.7970     1.5040 H     1 <1>   0.1500 
 53 H       13.4570    -7.5160    -1.7890 H     1 <1>   0.1500 
 54 H       12.4370    -9.3300    -0.4820 H     1 <1>   0.1500 
@<TRIPOS>BOND
  1   1   2  2   
  2   2   3  am  
  3   2   4  1   
  4   3   5  1   
  5   3  27  1   
  6   4  28  1   
  7   4  29  1   
  8   4  30  1   
  9   5   6  ar  
 10   5   7  ar  
 11   6   8  ar  
 12   6  31  1   
 13   7   9  ar  
 14   7  32  1   
 15   8  10  ar  
 16   8  33  1   
 17   9  10  ar  
 18   9  34  1   
 19  10  11  1   
 20  11  12  1   
 21  11  35  1   
 22  11  36  1   
 23  12  13  1   
 24  12  14  1   
 25  13  15  1   
 26  13  37  1   
 27  13  38  1   
 28  14  16  1   
 29  14  39  1   
 30  14  40  1   
 31  15  17  1   
 32  15  41  1   
 33  15  42  1   
 34  16  17  1   
 35  16  43  1   
 36  16  44  1   
 37  17  18  1   
 38  17  45  1   
 39  18  19  1   
 40  18  46  1   
 41  18  47  1   
 42  19  20  2   
 43  19  48  1   
 44  20  21  1   
 45  20  49  1   
 46  21  22  ar  
 47  21  23  ar  
 48  22  24  ar  
 49  22  50  1   
 50  23  25  ar  
 51  23  51  1   
 52  24  26  ar  
 53  24  52  1   
 54  25  26  ar  
 55  25  53  1   
 56  26  54  1   
@<TRIPOS>SUBSTRUCTURE
  1 ****  14 GROUP 4 **** **** 0

# MOE 2024.06 (io_trps.svl 2023.06)
