@<TRIPOS>MOLECULE
NONAME
47 49 1 0 0 
SMALL
USER_CHARGES


@<TRIPOS>ATOM
  1 S        0.1170     0.4710    -1.2170 S.o2  1 <1>   1.4470 
  2 O        0.8270     1.6330    -1.7060 O.2   1 <1>  -0.6500 
  3 O       -0.2830    -0.5580    -2.1530 O.2   1 <1>  -0.6500 
  4 N        1.1040    -0.2760    -0.0590 N.am  1 <1>  -0.8490 
  5 C       -1.3120     1.0260    -0.2450 C.ar  1 <1>  -0.0090 
  6 C        2.4630    -0.4740    -0.5720 C.3   1 <1>   0.1960 
  7 C        0.5350    -1.5430     0.4180 C.3   1 <1>   0.1960 
  8 C       -2.5040     0.3150    -0.2470 C.ar  1 <1>  -0.1500 
  9 C       -1.2340     2.1620     0.5510 C.ar  1 <1>  -0.1500 
 10 C        3.3790    -1.0070     0.5350 C.3   1 <1>  -0.1600 
 11 C        1.3780    -2.1050     1.5670 C.3   1 <1>  -0.1600 
 12 C       -3.6060     0.7020     0.5100 C.ar  1 <1>   0.0860 
 13 C       -2.3100     2.5730     1.3180 C.ar  1 <1>  -0.1500 
 14 C        2.8360    -2.3060     1.1390 C.3   1 <1>  -0.1600 
 15 C       -4.8300    -0.0760     0.4840 C.2   1 <1>   0.5440 
 16 C       -3.4840     1.8440     1.2970 C.ar  1 <1>  -0.1500 
 17 O       -4.7760    -1.2590     0.7610 O.2   1 <1>  -0.5700 
 18 N       -6.0430     0.4860     0.1470 N.am  1 <1>  -0.6600 
 19 C       -7.3270    -0.2340     0.3720 C.3   1 <1>   0.1400 
 20 C       -6.1890     1.7770    -0.5810 C.3   1 <1>   0.1400 
 21 C       -8.2900     0.6710     1.1500 C.3   1 <1>  -0.1600 
 22 C       -7.1310     2.7010     0.1960 C.3   1 <1>  -0.1600 
 23 C       -8.4860     2.0280     0.4580 C.3   1 <1>  -0.1600 
 24 H        2.8610     0.4650    -0.9230 H     1 <1>   0.0800 
 25 H        2.4430    -1.1610    -1.4020 H     1 <1>   0.0800 
 26 H        0.4970    -2.2580    -0.3890 H     1 <1>   0.0800 
 27 H       -0.4690    -1.3840     0.7730 H     1 <1>   0.0800 
 28 H       -2.5900    -0.5730    -0.8510 H     1 <1>   0.1500 
 29 H       -0.3160     2.7280     0.5720 H     1 <1>   0.1500 
 30 H        3.4650    -0.2570     1.3010 H     1 <1>   0.0800 
 31 H        4.3620    -1.1780     0.1320 H     1 <1>   0.0800 
 32 H        0.9620    -3.0430     1.8890 H     1 <1>   0.0800 
 33 H        1.3310    -1.4220     2.3970 H     1 <1>   0.0800 
 34 H       -2.2290     3.4550     1.9310 H     1 <1>   0.1500 
 35 H        3.4330    -2.5970     1.9870 H     1 <1>   0.0800 
 36 H        2.8890    -3.0920     0.4050 H     1 <1>   0.0800 
 37 H       -4.3200     2.1540     1.9000 H     1 <1>   0.1500 
 38 H       -7.1620    -1.1420     0.9280 H     1 <1>   0.0800 
 39 H       -7.7540    -0.4970    -0.5800 H     1 <1>   0.0800 
 40 H       -6.6010     1.5790    -1.5550 H     1 <1>   0.0800 
 41 H       -5.2360     2.2560    -0.7200 H     1 <1>   0.0800 
 42 H       -7.8970     0.8200     2.1410 H     1 <1>   0.0800 
 43 H       -9.2390     0.1740     1.2480 H     1 <1>   0.0800 
 44 H       -7.2810     3.6080    -0.3630 H     1 <1>   0.0800 
 45 H       -6.6700     2.9660     1.1320 H     1 <1>   0.0800 
 46 H       -9.0980     2.6650     1.0740 H     1 <1>   0.0800 
 47 H       -8.9970     1.8790    -0.4780 H     1 <1>   0.0800 
@<TRIPOS>BOND
  1   1   2  2   
  2   1   3  2   
  3   1   4  am  
  4   1   5  1   
  5   4   6  1   
  6   4   7  1   
  7   5   8  ar  
  8   5   9  ar  
  9   6  10  1   
 10   6  24  1   
 11   6  25  1   
 12   7  11  1   
 13   7  26  1   
 14   7  27  1   
 15   8  12  ar  
 16   8  28  1   
 17   9  13  ar  
 18   9  29  1   
 19  10  14  1   
 20  10  30  1   
 21  10  31  1   
 22  11  14  1   
 23  11  32  1   
 24  11  33  1   
 25  12  15  1   
 26  12  16  ar  
 27  13  16  ar  
 28  13  34  1   
 29  14  35  1   
 30  14  36  1   
 31  15  17  2   
 32  15  18  am  
 33  16  37  1   
 34  18  19  1   
 35  18  20  1   
 36  19  21  1   
 37  19  38  1   
 38  19  39  1   
 39  20  22  1   
 40  20  40  1   
 41  20  41  1   
 42  21  23  1   
 43  21  42  1   
 44  21  43  1   
 45  22  23  1   
 46  22  44  1   
 47  22  45  1   
 48  23  46  1   
 49  23  47  1   
@<TRIPOS>SUBSTRUCTURE
  1 ****   8 GROUP 4 **** **** 0

# MOE 2024.06 (io_trps.svl 2023.06)
