@<TRIPOS>MOLECULE
NONAME
35 36 1 0 0 
SMALL
USER_CHARGES


@<TRIPOS>ATOM
  1 F        1.9410    -2.1860    -2.0510 F     1 <1>  -0.1900 
  2 C        1.0900    -2.4890    -1.1100 C.ar  1 <1>   0.1900 
  3 C        1.4010    -2.1930     0.2150 C.ar  1 <1>   0.0860 
  4 C       -0.0910    -3.0990    -1.4880 C.ar  1 <1>  -0.1500 
  5 C        2.6470    -1.5690     0.5950 C.2   1 <1>   0.5440 
  6 C        0.4450    -2.5320     1.1720 C.ar  1 <1>  -0.1500 
  7 C       -1.0160    -3.4310    -0.5140 C.ar  1 <1>  -0.1500 
  8 O        2.6550    -0.3710     0.8070 O.2   1 <1>  -0.5700 
  9 N        3.8110    -2.3000     0.7570 N.am  1 <1>  -0.6600 
 10 C       -0.7460    -3.1440     0.8150 C.ar  1 <1>  -0.1500 
 11 C        3.8500    -3.7860     0.6200 C.3   1 <1>   0.1400 
 12 C        5.1030    -1.6190     1.0730 C.3   1 <1>   0.1400 
 13 C        4.3820    -4.2000    -0.7600 C.3   1 <1>  -0.1600 
 14 C        5.9590    -1.4570    -0.1920 C.3   1 <1>  -0.1600 
 15 C        5.8400    -4.6960    -0.7820 C.3   1 <1>  -0.1600 
 16 C        7.1190    -2.4600    -0.3480 C.3   1 <1>  -0.1600 
 17 C        6.8650    -3.9210     0.0630 C.3   1 <1>  -0.1600 
 18 H       -0.2800    -3.3060    -2.5260 H     1 <1>   0.1500 
 19 H        0.6450    -2.3050     2.2050 H     1 <1>   0.1500 
 20 H       -1.9430    -3.9060    -0.7870 H     1 <1>   0.1500 
 21 H       -1.4680    -3.3960     1.5740 H     1 <1>   0.1500 
 22 H        2.8580    -4.1840     0.7400 H     1 <1>   0.0800 
 23 H        4.4440    -4.2110     1.4090 H     1 <1>   0.0800 
 24 H        5.6300    -2.1570     1.8390 H     1 <1>   0.0800 
 25 H        4.9000    -0.6400     1.4720 H     1 <1>   0.0800 
 26 H        4.2590    -3.3930    -1.4590 H     1 <1>   0.0800 
 27 H        3.7670    -5.0050    -1.1230 H     1 <1>   0.0800 
 28 H        6.3930    -0.4730    -0.1650 H     1 <1>   0.0800 
 29 H        5.3270    -1.4740    -1.0620 H     1 <1>   0.0800 
 30 H        6.1760    -4.7200    -1.8050 H     1 <1>   0.0800 
 31 H        5.8440    -5.7140    -0.4320 H     1 <1>   0.0800 
 32 H        7.9370    -2.1020     0.2550 H     1 <1>   0.0800 
 33 H        7.4560    -2.4360    -1.3700 H     1 <1>   0.0800 
 34 H        7.8040    -4.4400    -0.0310 H     1 <1>   0.0800 
 35 H        6.6080    -3.9750     1.1040 H     1 <1>   0.0800 
@<TRIPOS>BOND
  1   1   2  1   
  2   2   3  ar  
  3   2   4  ar  
  4   3   5  1   
  5   3   6  ar  
  6   4   7  ar  
  7   4  18  1   
  8   5   8  2   
  9   5   9  am  
 10   6  10  ar  
 11   6  19  1   
 12   7  10  ar  
 13   7  20  1   
 14   9  11  1   
 15   9  12  1   
 16  10  21  1   
 17  11  13  1   
 18  11  22  1   
 19  11  23  1   
 20  12  14  1   
 21  12  24  1   
 22  12  25  1   
 23  13  15  1   
 24  13  26  1   
 25  13  27  1   
 26  14  16  1   
 27  14  28  1   
 28  14  29  1   
 29  15  17  1   
 30  15  30  1   
 31  15  31  1   
 32  16  17  1   
 33  16  32  1   
 34  16  33  1   
 35  17  34  1   
 36  17  35  1   
@<TRIPOS>SUBSTRUCTURE
  1 ****   9 GROUP 4 **** **** 0

# MOE 2024.06 (io_trps.svl 2023.06)
