@<TRIPOS>MOLECULE
NONAME
35 35 1 0 0 
SMALL
USER_CHARGES


@<TRIPOS>ATOM
  1 S        0.8420     0.5520     1.3490 S.3   1 <1>  -0.4600 
  2 C       -0.1260     1.0590    -0.0930 C.3   1 <1>   0.0700 
  3 C        0.3300    -1.1660     1.6200 C.3   1 <1>  -0.0100 
  4 C       -1.4600     1.6120     0.4210 C.3   1 <1>  -0.1600 
  5 C       -2.3630     2.0880    -0.7270 C.3   1 <1>   0.2810 
  6 N       -3.5260     2.8080    -0.1120 N.am  1 <1>  -0.7300 
  7 C       -2.6630     0.9330    -1.7210 C.2   1 <1>   0.6590 
  8 C       -4.5180     3.4130    -0.8290 C.2   1 <1>   0.5440 
  9 O       -2.0380     0.8640    -2.7480 O.2   1 <1>  -0.5700 
 10 O       -3.4880    -0.0660    -1.4010 O.3   1 <1>  -0.4300 
 11 O       -4.5320     3.2460    -2.0300 O.2   1 <1>  -0.5700 
 12 C       -5.5230     4.2370    -0.1780 C.ar  1 <1>   0.0860 
 13 C       -4.6190     0.0230    -0.5640 C.3   1 <1>   0.0400 
 14 C       -6.1910     5.2370    -0.8930 C.ar  1 <1>  -0.1500 
 15 C       -5.8630     4.0640     1.1700 C.ar  1 <1>  -0.1500 
 16 C       -7.1460     6.0420    -0.2970 C.ar  1 <1>  -0.1500 
 17 C       -6.8150     4.8600     1.7830 C.ar  1 <1>  -0.1500 
 18 C       -7.4410     5.8390     1.0360 C.ar  1 <1>   0.1900 
 19 F       -8.3380     6.5920     1.6080 F     1 <1>  -0.1900 
 20 H       -0.2440     0.1950    -0.7250 H     1 <1>   0.0800 
 21 H        0.4450     1.8130    -0.6070 H     1 <1>   0.0800 
 22 H       -0.7280    -1.1760     1.8100 H     1 <1>   0.0800 
 23 H        0.8750    -1.5400     2.4680 H     1 <1>   0.0800 
 24 H        0.5700    -1.7280     0.7340 H     1 <1>   0.0800 
 25 H       -1.2470     2.4380     1.0760 H     1 <1>   0.0800 
 26 H       -1.9650     0.8440     0.9790 H     1 <1>   0.0800 
 27 H       -1.8120     2.8220    -1.2900 H     1 <1>   0.0800 
 28 H       -3.3780     3.1060     0.8520 H     1 <1>   0.3700 
 29 H       -5.1020    -0.9380    -0.5530 H     1 <1>   0.0800 
 30 H       -5.2910     0.7590    -0.9690 H     1 <1>   0.0800 
 31 H       -4.3100     0.2870     0.4300 H     1 <1>   0.0800 
 32 H       -5.9520     5.3820    -1.9340 H     1 <1>   0.1500 
 33 H       -5.3850     3.2940     1.7480 H     1 <1>   0.1500 
 34 H       -7.6550     6.8100    -0.8510 H     1 <1>   0.1500 
 35 H       -7.0760     4.7290     2.8180 H     1 <1>   0.1500 
@<TRIPOS>BOND
  1   1   2  1   
  2   1   3  1   
  3   2   4  1   
  4   2  20  1   
  5   2  21  1   
  6   3  22  1   
  7   3  23  1   
  8   3  24  1   
  9   4   5  1   
 10   4  25  1   
 11   4  26  1   
 12   5   6  1   
 13   5   7  1   
 14   5  27  1   
 15   6   8  am  
 16   6  28  1   
 17   7   9  2   
 18   7  10  1   
 19   8  11  2   
 20   8  12  1   
 21  10  13  1   
 22  12  14  ar  
 23  12  15  ar  
 24  13  29  1   
 25  13  30  1   
 26  13  31  1   
 27  14  16  ar  
 28  14  32  1   
 29  15  17  ar  
 30  15  33  1   
 31  16  18  ar  
 32  16  34  1   
 33  17  18  ar  
 34  17  35  1   
 35  18  19  1   
@<TRIPOS>SUBSTRUCTURE
  1 ****   6 GROUP 4 **** **** 0

# MOE 2024.06 (io_trps.svl 2023.06)
