@<TRIPOS>MOLECULE
NONAME
43 44 1 0 0 
SMALL
USER_CHARGES


@<TRIPOS>ATOM
  1 O       -0.6320     1.7560     2.3280 O.2   1 <1>  -0.5700 
  2 C       -0.5260     2.7180     1.5970 C.2   1 <1>   0.5690 
  3 N        0.2090     2.6380     0.4300 N.am  1 <1>  -0.6600 
  4 C       -1.2480     3.9960     2.0780 C.3   1 <1>   0.2610 
  5 C        0.3700     3.7290    -0.5730 C.3   1 <1>   0.1400 
  6 C        0.8640     1.3620     0.0220 C.3   1 <1>   0.1400 
  7 O       -2.0490     4.6040     1.0730 O.3   1 <1>  -0.3630 
  8 C       -0.2830     5.0630     2.6110 C.3   1 <1>  -0.2400 
  9 C        1.8580     3.9870    -0.8280 C.3   1 <1>  -0.1600 
 10 C        2.3570     1.5980    -0.2230 C.3   1 <1>  -0.1600 
 11 C       -3.1160     3.9730     0.5150 C.ar  1 <1>   0.0820 
 12 C        2.5910     2.7080    -1.2590 C.3   1 <1>  -0.0800 
 13 C       -3.6320     2.7600     0.9650 C.ar  1 <1>  -0.1500 
 14 C       -3.7040     4.6010    -0.5700 C.ar  1 <1>  -0.1500 
 15 C        4.0890     2.9750    -1.4370 C.3   1 <1>  -0.2400 
 16 C       -4.7190     2.1870     0.3270 C.ar  1 <1>  -0.1500 
 17 C       -4.7910     4.0290    -1.2070 C.ar  1 <1>  -0.1500 
 18 C       -5.3050     2.8200    -0.7660 C.ar  1 <1>   0.0820 
 19 O       -6.3700     2.3240    -1.4480 O.3   1 <1>  -0.3630 
 20 C       -6.9560     1.0940    -1.0840 C.3   1 <1>   0.0400 
 21 H       -1.9100     3.7250     2.8800 H     1 <1>   0.0800 
 22 H       -0.0880     4.6420    -0.2460 H     1 <1>   0.0800 
 23 H       -0.1120     3.4310    -1.4890 H     1 <1>   0.0800 
 24 H        0.3960     1.0030    -0.8790 H     1 <1>   0.0800 
 25 H        0.7430     0.6070     0.7800 H     1 <1>   0.0800 
 26 H        0.3960     5.3840     1.8440 H     1 <1>   0.0800 
 27 H        0.2920     4.6500     3.4210 H     1 <1>   0.0800 
 28 H       -0.8360     5.9070     2.9790 H     1 <1>   0.0800 
 29 H        2.2990     4.3780     0.0730 H     1 <1>   0.0800 
 30 H        1.9570     4.7360    -1.5930 H     1 <1>   0.0800 
 31 H        2.8040     0.6810    -0.5650 H     1 <1>   0.0800 
 32 H        2.8200     1.8600     0.7130 H     1 <1>   0.0800 
 33 H        2.1870     2.3840    -2.2040 H     1 <1>   0.0800 
 34 H       -3.2080     2.2440     1.8060 H     1 <1>   0.1500 
 35 H       -3.3080     5.5390    -0.9130 H     1 <1>   0.1500 
 36 H        4.5290     3.3000    -0.5110 H     1 <1>   0.0800 
 37 H        4.2460     3.7380    -2.1790 H     1 <1>   0.0800 
 38 H        4.5920     2.0810    -1.7600 H     1 <1>   0.0800 
 39 H       -5.0920     1.2500     0.6950 H     1 <1>   0.1500 
 40 H       -5.2480     4.5150    -2.0490 H     1 <1>   0.1500 
 41 H       -7.7700     0.9000    -1.7590 H     1 <1>   0.0800 
 42 H       -7.3260     1.1680    -0.0770 H     1 <1>   0.0800 
 43 H       -6.2170     0.3170    -1.1700 H     1 <1>   0.0800 
@<TRIPOS>BOND
  1   1   2  2   
  2   2   3  am  
  3   2   4  1   
  4   3   5  1   
  5   3   6  1   
  6   4   7  1   
  7   4   8  1   
  8   4  21  1   
  9   5   9  1   
 10   5  22  1   
 11   5  23  1   
 12   6  10  1   
 13   6  24  1   
 14   6  25  1   
 15   7  11  1   
 16   8  26  1   
 17   8  27  1   
 18   8  28  1   
 19   9  12  1   
 20   9  29  1   
 21   9  30  1   
 22  10  12  1   
 23  10  31  1   
 24  10  32  1   
 25  11  13  ar  
 26  11  14  ar  
 27  12  15  1   
 28  12  33  1   
 29  13  16  ar  
 30  13  34  1   
 31  14  17  ar  
 32  14  35  1   
 33  15  36  1   
 34  15  37  1   
 35  15  38  1   
 36  16  18  ar  
 37  16  39  1   
 38  17  18  ar  
 39  17  40  1   
 40  18  19  1   
 41  19  20  1   
 42  20  41  1   
 43  20  42  1   
 44  20  43  1   
@<TRIPOS>SUBSTRUCTURE
  1 ****   2 GROUP 4 **** **** 0

# MOE 2024.06 (io_trps.svl 2023.06)
