@<TRIPOS>MOLECULE
NONAME
44 45 1 0 0 
SMALL
USER_CHARGES


@<TRIPOS>ATOM
  1 O        0.4580    -1.3370     0.6170 O.3   1 <1>  -0.3630 
  2 C       -0.8960    -1.4010     0.5000 C.ar  1 <1>   0.0830 
  3 C        1.2290    -0.4680    -0.1710 C.3   1 <1>   0.1200 
  4 C       -1.5700    -2.2980     1.3230 C.ar  1 <1>  -0.1440 
  5 C       -1.6170    -0.6130    -0.3960 C.ar  1 <1>  -0.1500 
  6 C        2.6880    -0.6700     0.2350 C.3   1 <1>  -0.1600 
  7 C       -2.9490    -2.3960     1.2410 C.ar  1 <1>  -0.1500 
  8 C       -0.8100    -3.1720     2.3120 C.3   1 <1>  -0.0970 
  9 C       -2.9950    -0.7180    -0.4750 C.ar  1 <1>  -0.1430 
 10 C        3.6070     0.2450    -0.5710 C.3   1 <1>   0.3430 
 11 C       -3.6580    -1.6110     0.3490 C.ar  1 <1>  -0.1500 
 12 C       -3.7800     0.1420    -1.4500 C.3   1 <1>  -0.0970 
 13 N        5.0330    -0.0340    -0.2450 N.4   1 <1>  -0.9590 
 14 C        5.4070     0.4320     1.1260 C.3   1 <1>   0.3430 
 15 C        5.9330     0.5540    -1.2810 C.3   1 <1>   0.3430 
 16 C        6.8410     0.0030     1.4440 C.3   1 <1>  -0.1600 
 17 C        7.3780     0.1260    -1.0150 C.3   1 <1>  -0.1600 
 18 C        7.8350     0.5180     0.3950 C.3   1 <1>  -0.1600 
 19 H        0.9030     0.5400     0.0240 H     1 <1>   0.0800 
 20 H        1.0700    -0.7230    -1.2050 H     1 <1>   0.0800 
 21 H       -1.1250     0.0870    -1.0410 H     1 <1>   0.1500 
 22 H        2.9500    -1.6980     0.0550 H     1 <1>   0.0800 
 23 H        2.7720    -0.4550     1.2850 H     1 <1>   0.0800 
 24 H       -3.4820    -3.0850     1.8720 H     1 <1>   0.1500 
 25 H       -0.1060    -3.7900     1.7840 H     1 <1>   0.0800 
 26 H       -1.4790    -3.8070     2.8620 H     1 <1>   0.0800 
 27 H       -0.2750    -2.5520     3.0080 H     1 <1>   0.0800 
 28 H        3.3750     1.2780    -0.3640 H     1 <1>   0.0800 
 29 H        3.4370     0.0650    -1.6210 H     1 <1>   0.0800 
 30 H       -4.7290    -1.7010     0.3010 H     1 <1>   0.1500 
 31 H       -3.1840     0.3720    -2.3150 H     1 <1>   0.0800 
 32 H       -4.0700     1.0600    -0.9730 H     1 <1>   0.0800 
 33 H       -4.6650    -0.3750    -1.7770 H     1 <1>   0.0800 
 34 H        5.1740    -1.0530    -0.2680 H     1 <1>   0.4500 
 35 H        4.7420     0.0080     1.8610 H     1 <1>   0.0800 
 36 H        5.3330     1.5060     1.1810 H     1 <1>   0.0800 
 37 H        5.8680     1.6300    -1.2550 H     1 <1>   0.0800 
 38 H        5.6370     0.2190    -2.2630 H     1 <1>   0.0800 
 39 H        6.8890    -1.0700     1.5010 H     1 <1>   0.0800 
 40 H        7.1160     0.3870     2.4120 H     1 <1>   0.0800 
 41 H        8.0220     0.5930    -1.7400 H     1 <1>   0.0800 
 42 H        7.4660    -0.9390    -1.1480 H     1 <1>   0.0800 
 43 H        8.8150     0.1120     0.5890 H     1 <1>   0.0800 
 44 H        7.9070     1.5910     0.4640 H     1 <1>   0.0800 
@<TRIPOS>BOND
  1   1   2  1   
  2   1   3  1   
  3   2   4  ar  
  4   2   5  ar  
  5   3   6  1   
  6   3  19  1   
  7   3  20  1   
  8   4   7  ar  
  9   4   8  1   
 10   5   9  ar  
 11   5  21  1   
 12   6  10  1   
 13   6  22  1   
 14   6  23  1   
 15   7  11  ar  
 16   7  24  1   
 17   8  25  1   
 18   8  26  1   
 19   8  27  1   
 20   9  11  ar  
 21   9  12  1   
 22  10  13  1   
 23  10  28  1   
 24  10  29  1   
 25  11  30  1   
 26  12  31  1   
 27  12  32  1   
 28  12  33  1   
 29  13  14  1   
 30  13  15  1   
 31  13  34  1   
 32  14  16  1   
 33  14  35  1   
 34  14  36  1   
 35  15  17  1   
 36  15  37  1   
 37  15  38  1   
 38  16  18  1   
 39  16  39  1   
 40  16  40  1   
 41  17  18  1   
 42  17  41  1   
 43  17  42  1   
 44  18  43  1   
 45  18  44  1   
@<TRIPOS>SUBSTRUCTURE
  1 ****   3 GROUP 4 **** **** 0

# MOE 2024.06 (io_trps.svl 2023.06)
