@<TRIPOS>MOLECULE
NONAME
59 61 1 0 0 
SMALL
USER_CHARGES


@<TRIPOS>ATOM
  1 O       -0.1520    -0.8730     1.2250 O.2   1 <1>  -0.5700 
  2 C       -0.9350    -1.7570     0.9410 C.2   1 <1>   0.6900 
  3 N       -0.5240    -2.8180     0.1410 N.am  1 <1>  -0.4200 
  4 N       -2.2380    -1.7040     1.4150 N.am  1 <1>  -0.4360 
  5 C       -1.3930    -3.8500    -0.1900 C.2   1 <1>   0.7030 
  6 C        0.8930    -2.8470    -0.3410 C.3   1 <1>   0.0600 
  7 C       -3.1020    -2.7210     1.0560 C.2   1 <1>   0.4260 
  8 C       -2.7000    -0.5770     2.2790 C.3   1 <1>   0.0600 
  9 O       -1.0110    -4.7870    -0.8710 O.2   1 <1>  -0.5700 
 10 C       -2.7450    -3.7780     0.2870 C.2   1 <1>   0.2770 
 11 N       -4.4110    -2.8570     1.3810 N.pl3 1 <1>  -0.7000 
 12 N       -3.8880    -4.5760     0.1530 N.pl3 1 <1>  -0.7640 
 13 C       -4.8630    -3.9780     0.8320 C.cat 1 <1>   0.6560 
 14 C       -3.9270    -5.8450    -0.6230 C.3   1 <1>   0.3540 
 15 C       -6.3160    -4.4460     1.0030 C.3   1 <1>   0.2540 
 16 C       -3.4490    -6.9960     0.2660 C.3   1 <1>  -0.1600 
 17 N       -7.2800    -3.3130     1.1300 N.3   1 <1>  -0.8100 
 18 C       -3.5680    -8.3710    -0.4150 C.3   1 <1>  -0.0800 
 19 C       -7.4350    -2.5430    -0.1310 C.3   1 <1>   0.1100 
 20 C       -8.6230    -3.8100     1.5160 C.3   1 <1>   0.1100 
 21 C       -3.1830    -9.4720     0.5800 C.3   1 <1>  -0.2400 
 22 C       -2.6760    -8.4770    -1.6590 C.3   1 <1>  -0.2400 
 23 C       -8.1530    -3.3160    -1.2730 C.3   1 <1>   0.2000 
 24 C       -9.4100    -4.5050     0.3670 C.3   1 <1>   0.2000 
 25 O       -8.6770    -4.5350    -0.8290 O.3   1 <1>  -0.5600 
 26 C       -7.2110    -3.6470    -2.4300 C.3   1 <1>  -0.2400 
 27 C      -10.7770    -3.8680     0.1010 C.3   1 <1>  -0.2400 
 28 H        1.2070    -1.8580    -0.6280 H     1 <1>   0.0800 
 29 H        1.0020    -3.4940    -1.1940 H     1 <1>   0.0800 
 30 H        1.5350    -3.1980     0.4490 H     1 <1>   0.0800 
 31 H       -1.8620    -0.0640     2.7200 H     1 <1>   0.0800 
 32 H       -3.3200    -0.9480     3.0760 H     1 <1>   0.0800 
 33 H       -3.2590     0.1280     1.6880 H     1 <1>   0.0800 
 34 H       -5.0140    -2.2310     1.9230 H     1 <1>   0.4500 
 35 H       -3.2980    -5.7550    -1.4920 H     1 <1>   0.0800 
 36 H       -4.9300    -6.0420    -0.9630 H     1 <1>   0.0800 
 37 H       -6.3570    -5.0380     1.8990 H     1 <1>   0.0800 
 38 H       -6.5840    -5.0850     0.1830 H     1 <1>   0.0800 
 39 H       -4.0390    -7.0070     1.1650 H     1 <1>   0.0800 
 40 H       -2.4210    -6.8280     0.5390 H     1 <1>   0.0800 
 41 H       -4.5920    -8.5350    -0.7100 H     1 <1>   0.0800 
 42 H       -6.4810    -2.1840    -0.4740 H     1 <1>   0.0800 
 43 H       -8.0220    -1.6660     0.0820 H     1 <1>   0.0800 
 44 H       -9.2030    -2.9730     1.8700 H     1 <1>   0.0800 
 45 H       -8.5420    -4.4860     2.3490 H     1 <1>   0.0800 
 46 H       -2.1620    -9.3580     0.9000 H     1 <1>   0.0800 
 47 H       -3.2890   -10.4410     0.1240 H     1 <1>   0.0800 
 48 H       -3.8200    -9.4410     1.4470 H     1 <1>   0.0800 
 49 H       -1.6510    -8.2620    -1.4130 H     1 <1>   0.0800 
 50 H       -2.9950    -7.8000    -2.4310 H     1 <1>   0.0800 
 51 H       -2.7220    -9.4730    -2.0650 H     1 <1>   0.0800 
 52 H       -8.9660    -2.7220    -1.6540 H     1 <1>   0.0800 
 53 H       -9.5740    -5.5330     0.6430 H     1 <1>   0.0800 
 54 H       -6.3930    -4.2540    -2.0950 H     1 <1>   0.0800 
 55 H       -6.8200    -2.7410    -2.8580 H     1 <1>   0.0800 
 56 H       -7.7530    -4.1730    -3.1960 H     1 <1>   0.0800 
 57 H      -10.6850    -2.8190    -0.1140 H     1 <1>   0.0800 
 58 H      -11.4030    -3.9790     0.9670 H     1 <1>   0.0800 
 59 H      -11.2560    -4.3630    -0.7250 H     1 <1>   0.0800 
@<TRIPOS>BOND
  1   1   2  2   
  2   2   3  am  
  3   2   4  am  
  4   3   5  am  
  5   3   6  1   
  6   4   7  1   
  7   4   8  1   
  8   5   9  2   
  9   5  10  1   
 10   6  28  1   
 11   6  29  1   
 12   6  30  1   
 13   7  10  2   
 14   7  11  1   
 15   8  31  1   
 16   8  32  1   
 17   8  33  1   
 18  10  12  1   
 19  11  13  ar  
 20  11  34  1   
 21  12  13  ar  
 22  12  14  1   
 23  13  15  1   
 24  14  16  1   
 25  14  35  1   
 26  14  36  1   
 27  15  17  1   
 28  15  37  1   
 29  15  38  1   
 30  16  18  1   
 31  16  39  1   
 32  16  40  1   
 33  17  19  1   
 34  17  20  1   
 35  18  21  1   
 36  18  22  1   
 37  18  41  1   
 38  19  23  1   
 39  19  42  1   
 40  19  43  1   
 41  20  24  1   
 42  20  44  1   
 43  20  45  1   
 44  21  46  1   
 45  21  47  1   
 46  21  48  1   
 47  22  49  1   
 48  22  50  1   
 49  22  51  1   
 50  23  25  1   
 51  23  26  1   
 52  23  52  1   
 53  24  25  1   
 54  24  27  1   
 55  24  53  1   
 56  26  54  1   
 57  26  55  1   
 58  26  56  1   
 59  27  57  1   
 60  27  58  1   
 61  27  59  1   
@<TRIPOS>SUBSTRUCTURE
  1 ****  12 GROUP 4 **** **** 0

# MOE 2024.06 (io_trps.svl 2023.06)
