@<TRIPOS>MOLECULE
NONAME
48 51 1 0 0 
SMALL
USER_CHARGES


@<TRIPOS>ATOM
  1 O       -0.2470     1.0180    -1.8360 O.2   1 <1>  -0.5700 
  2 C       -0.8440     1.6970    -1.0330 C.2   1 <1>   0.5690 
  3 N       -1.9910     1.2370    -0.4700 N.am  1 <1>  -0.7300 
  4 C       -0.2920     3.0880    -0.6530 C.3   1 <1>   0.0610 
  5 C       -2.6280    -0.0450    -0.8020 C.3   1 <1>   0.2840 
  6 C        1.0960     2.9340     0.0140 C.3   1 <1>  -0.1600 
  7 C       -1.2170     3.8540     0.3330 C.3   1 <1>  -0.1600 
  8 C       -0.1290     3.9550    -1.9260 C.3   1 <1>  -0.1600 
  9 C       -4.1100     0.0840    -0.5090 C.ar  1 <1>  -0.1440 
 10 C        1.7040     4.3060     0.3710 C.3   1 <1>   0.0000 
 11 C       -0.6360     5.2360     0.6920 C.3   1 <1>   0.0000 
 12 C        0.4640     5.3330    -1.5820 C.3   1 <1>  -0.0800 
 13 C       -4.6770    -0.4120     0.6480 C.ar  1 <1>  -0.1500 
 14 C       -4.9680     0.7170    -1.3870 C.ar  1 <1>  -0.1500 
 15 C        0.7500     5.0380     1.3370 C.3   1 <1>  -0.1600 
 16 C        1.8400     5.1390    -0.9200 C.3   1 <1>  -0.1600 
 17 C        3.0780     4.1200     1.0260 C.3   1 <1>  -0.2400 
 18 C       -0.4730     6.0590    -0.6020 C.3   1 <1>  -0.1600 
 19 C       -1.5710     5.9650     1.6650 C.3   1 <1>  -0.2400 
 20 C       -6.0360    -0.2560     0.8650 C.ar  1 <1>   0.1600 
 21 C       -6.3130     0.8190    -1.0750 C.ar  1 <1>   0.1600 
 22 N       -6.8660     0.3490     0.0310 N.ar  1 <1>  -0.6200 
 23 H       -2.5100     1.8170     0.1880 H     1 <1>   0.3700 
 24 H       -2.1890    -0.8270    -0.2080 H     1 <1>   0.0800 
 25 H       -2.4690    -0.2760    -1.8430 H     1 <1>   0.0800 
 26 H        1.7570     2.4120    -0.6570 H     1 <1>   0.0800 
 27 H        1.0010     2.3350     0.9020 H     1 <1>   0.0800 
 28 H       -1.3370     3.2800     1.2350 H     1 <1>   0.0800 
 29 H       -2.1880     3.9840    -0.1120 H     1 <1>   0.0800 
 30 H       -1.0840     4.0800    -2.4050 H     1 <1>   0.0800 
 31 H        0.5190     3.4530    -2.6250 H     1 <1>   0.0800 
 32 H        0.5740     5.9160    -2.4810 H     1 <1>   0.0800 
 33 H       -4.0760    -0.9160     1.3830 H     1 <1>   0.1500 
 34 H       -4.5990     1.1310    -2.3080 H     1 <1>   0.1500 
 35 H        0.6510     4.4710     2.2450 H     1 <1>   0.0800 
 36 H        1.1670     5.9960     1.5960 H     1 <1>   0.0800 
 37 H        2.5030     4.6420    -1.6080 H     1 <1>   0.0800 
 38 H        2.2680     6.1000    -0.6930 H     1 <1>   0.0800 
 39 H        2.9900     3.5390     1.9260 H     1 <1>   0.0800 
 40 H        3.5090     5.0730     1.2750 H     1 <1>   0.0800 
 41 H        3.7470     3.6090     0.3560 H     1 <1>   0.0800 
 42 H       -0.0670     7.0280    -0.3700 H     1 <1>   0.0800 
 43 H       -1.4320     6.2100    -1.0660 H     1 <1>   0.0800 
 44 H       -1.6900     5.3980     2.5710 H     1 <1>   0.0800 
 45 H       -2.5410     6.1070     1.2210 H     1 <1>   0.0800 
 46 H       -1.1700     6.9300     1.9180 H     1 <1>   0.0800 
 47 H       -6.4630    -0.6490     1.7720 H     1 <1>   0.1500 
 48 H       -6.9680     1.3150    -1.7710 H     1 <1>   0.1500 
@<TRIPOS>BOND
  1   1   2  2   
  2   2   3  am  
  3   2   4  1   
  4   3   5  1   
  5   3  23  1   
  6   4   6  1   
  7   4   7  1   
  8   4   8  1   
  9   5   9  1   
 10   5  24  1   
 11   5  25  1   
 12   6  10  1   
 13   6  26  1   
 14   6  27  1   
 15   7  11  1   
 16   7  28  1   
 17   7  29  1   
 18   8  12  1   
 19   8  30  1   
 20   8  31  1   
 21   9  13  ar  
 22   9  14  ar  
 23  10  15  1   
 24  10  16  1   
 25  10  17  1   
 26  11  15  1   
 27  11  18  1   
 28  11  19  1   
 29  12  16  1   
 30  12  18  1   
 31  12  32  1   
 32  13  20  ar  
 33  13  33  1   
 34  14  21  ar  
 35  14  34  1   
 36  15  35  1   
 37  15  36  1   
 38  16  37  1   
 39  16  38  1   
 40  17  39  1   
 41  17  40  1   
 42  17  41  1   
 43  18  42  1   
 44  18  43  1   
 45  19  44  1   
 46  19  45  1   
 47  19  46  1   
 48  20  22  ar  
 49  20  47  1   
 50  21  22  ar  
 51  21  48  1   
@<TRIPOS>SUBSTRUCTURE
  1 ****   7 GROUP 4 **** **** 0

# MOE 2024.06 (io_trps.svl 2023.06)
