@<TRIPOS>MOLECULE
NONAME
53 55 1 0 0 
SMALL
USER_CHARGES


@<TRIPOS>ATOM
  1 S       -0.8210     0.2260    -2.1310 S.o2  1 <1>   1.4470 
  2 O       -1.6890     0.5050    -3.2500 O.2   1 <1>  -0.6500 
  3 O       -0.0270    -0.9790    -2.1420 O.2   1 <1>  -0.6500 
  4 N        0.3010     1.5210    -2.1600 N.am  1 <1>  -0.7570 
  5 C       -1.7320     0.5040    -0.5750 C.ar  1 <1>  -0.0090 
  6 C        1.3120     1.6360    -1.2260 C.ar  1 <1>   0.1990 
  7 C       -1.4070    -0.0850     0.6510 C.ar  1 <1>  -0.1440 
  8 C       -2.8060     1.3860    -0.6000 C.ar  1 <1>  -0.1500 
  9 C        2.5540     1.0590    -1.4510 C.ar  1 <1>  -0.1500 
 10 C        1.0940     2.3220    -0.0390 C.ar  1 <1>  -0.1500 
 11 C       -2.1570     0.2030     1.7810 C.ar  1 <1>  -0.1500 
 12 C       -0.2360    -1.0490     0.8090 C.3   1 <1>  -0.0970 
 13 C       -3.5800     1.6830     0.5180 C.ar  1 <1>   0.0860 
 14 C        3.5580     1.1640    -0.5050 C.ar  1 <1>  -0.1500 
 15 C        2.0970     2.4260     0.9080 C.ar  1 <1>  -0.1500 
 16 C       -3.2270     1.0730     1.7160 C.ar  1 <1>  -0.1500 
 17 C       -4.7120     2.5870     0.4240 C.2   1 <1>   0.5440 
 18 C        3.3360     1.8480     0.6790 C.ar  1 <1>  -0.1430 
 19 O       -4.6710     3.5590    -0.3040 O.2   1 <1>  -0.5700 
 20 N       -5.8920     2.3400     1.0880 N.am  1 <1>  -0.6600 
 21 C        4.4370     1.9600     1.7180 C.3   1 <1>  -0.0970 
 22 C       -6.8650     3.4560     1.2740 C.3   1 <1>   0.1400 
 23 C       -6.5500     1.0100     0.9430 C.3   1 <1>   0.1400 
 24 C       -7.8240     3.5080     0.0710 C.3   1 <1>   0.3430 
 25 C       -7.5430     1.0440    -0.2400 C.3   1 <1>   0.3430 
 26 N       -8.5270     2.1860    -0.1430 N.4   1 <1>  -0.9590 
 27 C       -9.3910     2.2480    -1.3610 C.3   1 <1>   0.2630 
 28 H        0.5760     1.6560    -3.1270 H     1 <1>   0.4200 
 29 H       -3.0580     1.8700    -1.5300 H     1 <1>   0.1500 
 30 H        2.7310     0.5180    -2.3630 H     1 <1>   0.1500 
 31 H        0.1360     2.7760     0.1390 H     1 <1>   0.1500 
 32 H       -1.9080    -0.2490     2.7260 H     1 <1>   0.1500 
 33 H        0.6730    -0.6080     0.4410 H     1 <1>   0.0800 
 34 H       -0.4260    -1.9580     0.2650 H     1 <1>   0.0800 
 35 H       -0.0770    -1.3060     1.8410 H     1 <1>   0.0800 
 36 H        4.5150     0.7070    -0.6930 H     1 <1>   0.1500 
 37 H        1.9090     2.9610     1.8230 H     1 <1>   0.1500 
 38 H       -3.7910     1.2880     2.6070 H     1 <1>   0.1500 
 39 H        4.3870     1.1240     2.3920 H     1 <1>   0.0800 
 40 H        4.3320     2.8690     2.2830 H     1 <1>   0.0800 
 41 H        5.4020     1.9660     1.2440 H     1 <1>   0.0800 
 42 H       -6.3360     4.3920     1.3510 H     1 <1>   0.0800 
 43 H       -7.4140     3.3150     2.1880 H     1 <1>   0.0800 
 44 H       -7.0660     0.7620     1.8540 H     1 <1>   0.0800 
 45 H       -5.8140     0.2450     0.7650 H     1 <1>   0.0800 
 46 H       -7.2450     3.7600    -0.8040 H     1 <1>   0.0800 
 47 H       -8.5470     4.2910     0.2270 H     1 <1>   0.0800 
 48 H       -8.0730     0.1070    -0.2850 H     1 <1>   0.0800 
 49 H       -6.9730     1.1420    -1.1500 H     1 <1>   0.0800 
 50 H       -9.1250     2.0180     0.6780 H     1 <1>   0.4500 
 51 H       -8.7900     2.4350    -2.2370 H     1 <1>   0.0800 
 52 H      -10.1160     3.0400    -1.2670 H     1 <1>   0.0800 
 53 H       -9.9170     1.3160    -1.4960 H     1 <1>   0.0800 
@<TRIPOS>BOND
  1   1   2  2   
  2   1   3  2   
  3   1   4  am  
  4   1   5  1   
  5   4   6  1   
  6   4  28  1   
  7   5   7  ar  
  8   5   8  ar  
  9   6   9  ar  
 10   6  10  ar  
 11   7  11  ar  
 12   7  12  1   
 13   8  13  ar  
 14   8  29  1   
 15   9  14  ar  
 16   9  30  1   
 17  10  15  ar  
 18  10  31  1   
 19  11  16  ar  
 20  11  32  1   
 21  12  33  1   
 22  12  34  1   
 23  12  35  1   
 24  13  16  ar  
 25  13  17  1   
 26  14  18  ar  
 27  14  36  1   
 28  15  18  ar  
 29  15  37  1   
 30  16  38  1   
 31  17  19  2   
 32  17  20  am  
 33  18  21  1   
 34  20  22  1   
 35  20  23  1   
 36  21  39  1   
 37  21  40  1   
 38  21  41  1   
 39  22  24  1   
 40  22  42  1   
 41  22  43  1   
 42  23  25  1   
 43  23  44  1   
 44  23  45  1   
 45  24  26  1   
 46  24  46  1   
 47  24  47  1   
 48  25  26  1   
 49  25  48  1   
 50  25  49  1   
 51  26  27  1   
 52  26  50  1   
 53  27  51  1   
 54  27  52  1   
 55  27  53  1   
@<TRIPOS>SUBSTRUCTURE
  1 ****   8 GROUP 4 **** **** 0

# MOE 2024.06 (io_trps.svl 2023.06)
