@<TRIPOS>MOLECULE
NONAME
31 33 1 0 0 
SMALL
USER_CHARGES


@<TRIPOS>ATOM
  1 N        0.3920     0.3830     0.2390 N.ar  1 <1>  -0.6200 
  2 C        1.2990     0.9540    -0.5050 C.ar  1 <1>   0.4100 
  3 C       -0.8270     0.9680     0.1780 C.ar  1 <1>   0.3100 
  4 N        2.5620     0.3880    -0.4880 N.pl3 1 <1>  -0.8380 
  5 C        1.0230     2.1030    -1.3170 C.ar  1 <1>   0.1670 
  6 C       -1.0940     2.1030    -0.6270 C.ar  1 <1>   0.3100 
  7 C       -1.8740     0.4310     0.9430 C.ar  1 <1>  -0.1500 
  8 C        2.7240    -0.8990    -1.2060 C.3   1 <1>   0.2090 
  9 C        3.2650     0.3210     0.8170 C.3   1 <1>   0.2090 
 10 N       -0.1330     2.6810    -1.3950 N.ar  1 <1>  -0.6200 
 11 C        2.1460     2.7020    -2.1470 C.3   1 <1>  -0.0960 
 12 C       -2.3870     2.6440    -0.6300 C.ar  1 <1>  -0.1500 
 13 C       -3.1320     0.9790     0.9230 C.ar  1 <1>  -0.1500 
 14 C        3.7740    -1.6740    -0.4210 C.3   1 <1>  -0.1600 
 15 C        3.6460    -1.1410     1.0000 C.3   1 <1>  -0.1600 
 16 C       -3.3910     2.0970     0.1280 C.ar  1 <1>  -0.1500 
 17 H       -1.6550    -0.4290     1.5490 H     1 <1>   0.1500 
 18 H        3.0380    -0.7300    -2.2210 H     1 <1>   0.0800 
 19 H        1.7890    -1.4350    -1.2040 H     1 <1>   0.0800 
 20 H        2.6390     0.6660     1.6240 H     1 <1>   0.0800 
 21 H        4.1480     0.9340     0.7660 H     1 <1>   0.0800 
 22 H        2.4940     1.9780    -2.8590 H     1 <1>   0.0800 
 23 H        2.9600     2.9820    -1.5050 H     1 <1>   0.0800 
 24 H        1.8040     3.5740    -2.6750 H     1 <1>   0.0800 
 25 H       -2.5650     3.5040    -1.2490 H     1 <1>   0.1500 
 26 H       -3.9260     0.5560     1.5150 H     1 <1>   0.1500 
 27 H        4.7470    -1.4410    -0.8150 H     1 <1>   0.0800 
 28 H        3.6120    -2.7350    -0.4780 H     1 <1>   0.0800 
 29 H        2.8430    -1.6440     1.5080 H     1 <1>   0.0800 
 30 H        4.5520    -1.2520     1.5680 H     1 <1>   0.0800 
 31 H       -4.3820     2.5210     0.1180 H     1 <1>   0.1500 
@<TRIPOS>BOND
  1   1   2  ar  
  2   1   3  ar  
  3   2   4  1   
  4   2   5  ar  
  5   3   6  ar  
  6   3   7  ar  
  7   4   8  1   
  8   4   9  1   
  9   5  10  ar  
 10   5  11  1   
 11   6  10  ar  
 12   6  12  ar  
 13   7  13  ar  
 14   7  17  1   
 15   8  14  1   
 16   8  18  1   
 17   8  19  1   
 18   9  15  1   
 19   9  20  1   
 20   9  21  1   
 21  11  22  1   
 22  11  23  1   
 23  11  24  1   
 24  12  16  ar  
 25  12  25  1   
 26  13  16  ar  
 27  13  26  1   
 28  14  15  1   
 29  14  27  1   
 30  14  28  1   
 31  15  29  1   
 32  15  30  1   
 33  16  31  1   
@<TRIPOS>SUBSTRUCTURE
  1 ****   1 GROUP 4 **** **** 0

# MOE 2024.06 (io_trps.svl 2023.06)
