@<TRIPOS>MOLECULE
NONAME
41 43 1 0 0 
SMALL
USER_CHARGES


@<TRIPOS>ATOM
  1 S       -0.2200    -0.6880    -0.2110 S.3   1 <1>  -0.0800 
  2 C        1.1550     0.4030    -0.1630 C.2   1 <1>   0.1660 
  3 C       -1.3340     0.6710    -0.2270 C.2   1 <1>  -0.1400 
  4 N        2.4240    -0.0500    -0.1400 N.2   1 <1>  -0.5760 
  5 C        0.7540     1.7050    -0.1580 C.2   1 <1>  -0.0860 
  6 C       -0.6790     1.8420    -0.1840 C.2   1 <1>  -0.1810 
  7 C       -2.8270     0.4410    -0.2810 C.3   1 <1>   0.0200 
  8 C        3.3510     0.8610    -0.1120 C.2   1 <1>   0.4490 
  9 C        1.7890     2.6750    -0.1310 C.2   1 <1>   0.7160 
 10 C       -1.4270     3.1670    -0.1750 C.3   1 <1>   0.0210 
 11 C       -3.5300     1.7700    -0.6130 C.3   1 <1>  -0.1600 
 12 N        3.1050     2.2240    -0.1050 N.am  1 <1>  -0.1110 
 13 C        4.8170     0.4140    -0.0830 C.3   1 <1>  -0.0990 
 14 O        1.5670     3.8880    -0.1330 O.2   1 <1>  -0.5700 
 15 C       -2.9220     2.9610     0.1630 C.3   1 <1>  -0.0800 
 16 N        4.2100     3.2040    -0.0700 N.3   1 <1>  -0.7290 
 17 C        5.0470    -1.1120    -0.1260 C.3   1 <1>  -0.1600 
 18 C       -3.7190     4.2430    -0.1070 C.3   1 <1>  -0.2400 
 19 C        6.5330    -1.5000    -0.1890 C.3   1 <1>  -0.1600 
 20 C        7.3080    -1.1220     1.0780 C.3   1 <1>  -0.2400 
 21 H       -3.1570     0.0750     0.6750 H     1 <1>   0.0800 
 22 H       -3.0620    -0.2950    -1.0300 H     1 <1>   0.0800 
 23 H       -1.3230     3.6230    -1.1440 H     1 <1>   0.0800 
 24 H       -0.9910     3.8270     0.5540 H     1 <1>   0.0800 
 25 H       -4.5790     1.6780    -0.3910 H     1 <1>   0.0800 
 26 H       -3.4310     1.9580    -1.6680 H     1 <1>   0.0800 
 27 H        5.2580     0.8100     0.8120 H     1 <1>   0.0800 
 28 H        5.3190     0.8580    -0.9230 H     1 <1>   0.0800 
 29 H       -2.9930     2.7380     1.2150 H     1 <1>   0.0800 
 30 H        4.0460     3.8050     0.7490 H     1 <1>   0.3600 
 31 H        4.0770     3.8280    -0.8780 H     1 <1>   0.3600 
 32 H        4.5570    -1.5110    -0.9980 H     1 <1>   0.0800 
 33 H        4.5920    -1.5690     0.7370 H     1 <1>   0.0800 
 34 H       -3.6880     4.4970    -1.1520 H     1 <1>   0.0800 
 35 H       -3.3090     5.0630     0.4570 H     1 <1>   0.0800 
 36 H       -4.7460     4.1140     0.1850 H     1 <1>   0.0800 
 37 H        6.9940    -1.0380    -1.0450 H     1 <1>   0.0800 
 38 H        6.5990    -2.5670    -0.3240 H     1 <1>   0.0800 
 39 H        7.3660    -0.0550     1.1920 H     1 <1>   0.0800 
 40 H        8.3110    -1.5070     1.0200 H     1 <1>   0.0800 
 41 H        6.8330    -1.5410     1.9480 H     1 <1>   0.0800 
@<TRIPOS>BOND
  1   1   2  1   
  2   1   3  1   
  3   2   4  1   
  4   2   5  2   
  5   3   6  2   
  6   3   7  1   
  7   4   8  2   
  8   5   6  1   
  9   5   9  1   
 10   6  10  1   
 11   7  11  1   
 12   7  21  1   
 13   7  22  1   
 14   8  12  1   
 15   8  13  1   
 16   9  12  am  
 17   9  14  2   
 18  10  15  1   
 19  10  23  1   
 20  10  24  1   
 21  11  15  1   
 22  11  25  1   
 23  11  26  1   
 24  12  16  1   
 25  13  17  1   
 26  13  27  1   
 27  13  28  1   
 28  15  18  1   
 29  15  29  1   
 30  16  30  1   
 31  16  31  1   
 32  17  19  1   
 33  17  32  1   
 34  17  33  1   
 35  18  34  1   
 36  18  35  1   
 37  18  36  1   
 38  19  20  1   
 39  19  37  1   
 40  19  38  1   
 41  20  39  1   
 42  20  40  1   
 43  20  41  1   
@<TRIPOS>SUBSTRUCTURE
  1 ****   5 GROUP 4 **** **** 0

# MOE 2024.06 (io_trps.svl 2023.06)
