@<TRIPOS>MOLECULE
NONAME
24 24 1 0 0 
SMALL
USER_CHARGES


@<TRIPOS>ATOM
  1 O        2.7400    -0.0110    -2.1450 O.2   1 <1>  -0.5700 
  2 C        2.8000     0.6350    -1.1200 C.2   1 <1>   0.6900 
  3 N        2.6420     0.0660     0.1390 N.am  1 <1>  -0.4690 
  4 N        3.0170     1.9740    -1.2030 N.am  1 <1>  -0.4900 
  5 C        2.6910     0.8600     1.2800 C.2   1 <1>  -0.0410 
  6 C        2.4840    -1.4110     0.2730 C.3   1 <1>   0.1400 
  7 C        3.0770     2.7870    -0.1150 C.2   1 <1>   0.6160 
  8 C        2.9020     2.1910     1.1660 C.2   1 <1>  -0.1360 
  9 C        3.7910    -2.0820     0.7120 C.3   1 <1>   0.1200 
 10 O        3.2740     3.9720    -0.2770 O.2   1 <1>  -0.5700 
 11 O        4.8340    -1.7430    -0.1790 O.3   1 <1>  -0.4300 
 12 C        6.0780    -2.1380     0.0340 C.2   1 <1>   0.6590 
 13 O        6.3890    -2.7990     0.9890 O.2   1 <1>  -0.5700 
 14 C        7.0860    -1.7050    -0.9970 C.3   1 <1>  -0.1790 
 15 H        3.1300     2.3820    -2.1220 H     1 <1>   0.3700 
 16 H        2.5580     0.3760     2.2340 H     1 <1>   0.1500 
 17 H        2.1640    -1.8390    -0.6610 H     1 <1>   0.0800 
 18 H        1.7170    -1.6170     0.9990 H     1 <1>   0.0800 
 19 H        2.9500     2.8520     2.0100 H     1 <1>   0.1500 
 20 H        3.6840    -3.1530     0.7110 H     1 <1>   0.0800 
 21 H        4.0690    -1.7570     1.7000 H     1 <1>   0.0800 
 22 H        7.1200    -0.6330    -1.0360 H     1 <1>   0.0800 
 23 H        6.8010    -2.0880    -1.9580 H     1 <1>   0.0800 
 24 H        8.0580    -2.0830    -0.7380 H     1 <1>   0.0800 
@<TRIPOS>BOND
  1   1   2  2   
  2   2   3  am  
  3   2   4  am  
  4   3   5  1   
  5   3   6  1   
  6   4   7  am  
  7   4  15  1   
  8   5   8  2   
  9   5  16  1   
 10   6   9  1   
 11   6  17  1   
 12   6  18  1   
 13   7   8  1   
 14   7  10  2   
 15   8  19  1   
 16   9  11  1   
 17   9  20  1   
 18   9  21  1   
 19  11  12  1   
 20  12  13  2   
 21  12  14  1   
 22  14  22  1   
 23  14  23  1   
 24  14  24  1   
@<TRIPOS>SUBSTRUCTURE
  1 ****   3 GROUP 4 **** **** 0

# MOE 2024.06 (io_trps.svl 2023.06)
