@<TRIPOS>MOLECULE
NONAME
51 54 1 0 0 
SMALL
USER_CHARGES


@<TRIPOS>ATOM
  1 N       -5.7360    -0.7890     0.6630 N.4   1 <1>  -0.9590 
  2 C       -4.5310     0.0390     0.9610 C.3   1 <1>   0.4230 
  3 C       -5.4550    -2.2630     0.6750 C.3   1 <1>   0.3430 
  4 C       -6.5320    -0.4160    -0.5560 C.3   1 <1>   0.3430 
  5 C       -3.3690    -0.0170    -0.1930 C.3   1 <1>  -0.0800 
  6 C       -4.9200     1.6440     1.2100 C.3   1 <1>  -0.1600 
  7 C       -6.7540    -3.0860     0.4850 C.3   1 <1>   0.1100 
  8 C       -7.8610    -1.2070    -0.6040 C.3   1 <1>   0.1100 
  9 C       -3.5930     1.2700     0.1070 C.3   1 <1>  -0.1600 
 10 C       -2.2760     0.8880    -1.0070 C.3   1 <1>  -0.1600 
 11 C       -3.8480     2.5540     0.3700 C.3   1 <1>  -0.0800 
 12 N       -7.9600    -2.2260     0.4750 N.3   1 <1>  -0.8100 
 13 C       -2.6500     2.4970    -0.7440 C.3   1 <1>  -0.1600 
 14 C       -9.1920    -3.0210     0.3690 C.3   1 <1>   0.2480 
 15 C      -10.3790    -2.1070     0.5730 C.2   1 <1>  -0.2880 
 16 C      -11.3460    -1.8810    -0.3340 C.2   1 <1>  -0.1780 
 17 C      -12.4970    -1.0110    -0.2200 C.ar  1 <1>   0.0280 
 18 C      -12.7660    -0.2670     0.9280 C.ar  1 <1>  -0.1500 
 19 C      -13.3860    -0.8890    -1.2870 C.ar  1 <1>  -0.1500 
 20 C      -13.8680     0.5650     1.0060 C.ar  1 <1>  -0.1500 
 21 C      -14.4910    -0.0600    -1.2150 C.ar  1 <1>  -0.1500 
 22 C      -14.7340     0.6700    -0.0670 C.ar  1 <1>  -0.1500 
 23 H       -6.4200    -0.6720     1.4280 H     1 <1>   0.4500 
 24 H       -4.0890    -0.3250     1.8770 H     1 <1>   0.0800 
 25 H       -4.7580    -2.5140    -0.1070 H     1 <1>   0.0800 
 26 H       -5.0050    -2.5390     1.6140 H     1 <1>   0.0800 
 27 H       -6.7550     0.6370    -0.5530 H     1 <1>   0.0800 
 28 H       -5.9640    -0.6270    -1.4460 H     1 <1>   0.0800 
 29 H       -3.8700    -0.5030    -1.0160 H     1 <1>   0.0800 
 30 H       -5.9230     1.8740     0.8920 H     1 <1>   0.0800 
 31 H       -4.8560     1.8730     2.2620 H     1 <1>   0.0800 
 32 H       -6.8290    -3.8030     1.2860 H     1 <1>   0.0800 
 33 H       -6.6920    -3.6390    -0.4380 H     1 <1>   0.0800 
 34 H       -7.9560    -1.6780    -1.5680 H     1 <1>   0.0800 
 35 H       -8.6730    -0.5050    -0.5110 H     1 <1>   0.0800 
 36 H       -2.8110     1.2390     0.9890 H     1 <1>   0.0800 
 37 H       -4.3680     1.3190    -0.7790 H     1 <1>   0.0800 
 38 H       -1.2770     0.6790    -0.6510 H     1 <1>   0.0800 
 39 H       -2.2910     0.6670    -2.0630 H     1 <1>   0.0800 
 40 H       -3.3500     3.0810     1.1750 H     1 <1>   0.0800 
 41 H       -2.9750     2.9610    -1.6640 H     1 <1>   0.0800 
 42 H       -1.7780     3.0360    -0.4050 H     1 <1>   0.0800 
 43 H       -9.2460    -3.5050    -0.5920 H     1 <1>   0.0800 
 44 H       -9.2040    -3.7800     1.1340 H     1 <1>   0.0800 
 45 H      -10.3580    -1.6440     1.5420 H     1 <1>   0.1500 
 46 H      -11.2970    -2.3900    -1.2810 H     1 <1>   0.1500 
 47 H      -12.1110    -0.3330     1.7750 H     1 <1>   0.1500 
 48 H      -13.2130    -1.4500    -2.1870 H     1 <1>   0.1500 
 49 H      -14.0540     1.1290     1.9030 H     1 <1>   0.1500 
 50 H      -15.1620     0.0170    -2.0530 H     1 <1>   0.1500 
 51 H      -15.5920     1.3170    -0.0080 H     1 <1>   0.1500 
@<TRIPOS>BOND
  1   1   2  1   
  2   1   3  1   
  3   1   4  1   
  4   1  23  1   
  5   2   5  1   
  6   2   6  1   
  7   2  24  1   
  8   3   7  1   
  9   3  25  1   
 10   3  26  1   
 11   4   8  1   
 12   4  27  1   
 13   4  28  1   
 14   5   9  1   
 15   5  10  1   
 16   5  29  1   
 17   6  11  1   
 18   6  30  1   
 19   6  31  1   
 20   7  12  1   
 21   7  32  1   
 22   7  33  1   
 23   8  12  1   
 24   8  34  1   
 25   8  35  1   
 26   9  11  1   
 27   9  36  1   
 28   9  37  1   
 29  10  13  1   
 30  10  38  1   
 31  10  39  1   
 32  11  13  1   
 33  11  40  1   
 34  12  14  1   
 35  13  41  1   
 36  13  42  1   
 37  14  15  1   
 38  14  43  1   
 39  14  44  1   
 40  15  16  2   
 41  15  45  1   
 42  16  17  1   
 43  16  46  1   
 44  17  18  ar  
 45  17  19  ar  
 46  18  20  ar  
 47  18  47  1   
 48  19  21  ar  
 49  19  48  1   
 50  20  22  ar  
 51  20  49  1   
 52  21  22  ar  
 53  21  50  1   
 54  22  51  1   
@<TRIPOS>SUBSTRUCTURE
  1 ****   8 GROUP 4 **** **** 0

# MOE 2024.06 (io_trps.svl 2023.06)
