@<TRIPOS>MOLECULE
NONAME
32 32 1 0 0 
SMALL
USER_CHARGES


@<TRIPOS>ATOM
  1 S        0.0730     0.3210     0.5970 S.o2  1 <1>   1.4470 
  2 O        0.7240    -0.9550     0.3960 O.2   1 <1>  -0.6500 
  3 O        0.3290     1.0630     1.8140 O.2   1 <1>  -0.6500 
  4 N        0.5490     1.3270    -0.6890 N.am  1 <1>  -0.8490 
  5 C       -1.7130     0.1310     0.3380 C.ar  1 <1>  -0.0090 
  6 C        2.0030     1.3320    -0.8680 C.3   1 <1>   0.1160 
  7 C        0.0540     2.7000    -0.5540 C.3   1 <1>   0.1160 
  8 C       -2.2120    -0.3550    -0.8630 C.ar  1 <1>  -0.1500 
  9 C       -2.6290     0.4700     1.3270 C.ar  1 <1>  -0.1500 
 10 C       -3.5730    -0.4960    -1.0740 C.ar  1 <1>  -0.1500 
 11 C       -3.9910     0.3330     1.1230 C.ar  1 <1>  -0.1500 
 12 C       -4.4780    -0.1520    -0.0820 C.ar  1 <1>  -0.1430 
 13 C       -5.9770    -0.3120    -0.3260 C.3   1 <1>   0.0630 
 14 C       -6.6910     1.0410    -0.2450 C.3   1 <1>  -0.2400 
 15 C       -6.5880    -1.3100     0.6610 C.3   1 <1>  -0.2400 
 16 H        2.3520     0.3320    -1.0650 H     1 <1>   0.0800 
 17 H        2.4890     1.6990     0.0210 H     1 <1>   0.0800 
 18 H        2.2730     1.9530    -1.7040 H     1 <1>   0.0800 
 19 H       -1.0200     2.7010    -0.4690 H     1 <1>   0.0800 
 20 H        0.3230     3.2770    -1.4220 H     1 <1>   0.0800 
 21 H        0.4720     3.1690     0.3220 H     1 <1>   0.0800 
 22 H       -1.5220    -0.6270    -1.6440 H     1 <1>   0.1500 
 23 H       -2.2710     0.8470     2.2710 H     1 <1>   0.1500 
 24 H       -3.9210    -0.8760    -2.0180 H     1 <1>   0.1500 
 25 H       -4.6700     0.6050     1.9110 H     1 <1>   0.1500 
 26 H       -6.1250    -0.7010    -1.3190 H     1 <1>   0.0800 
 27 H       -6.6180     1.4550     0.7440 H     1 <1>   0.0800 
 28 H       -7.7310     0.9280    -0.4940 H     1 <1>   0.0800 
 29 H       -6.2470     1.7310    -0.9400 H     1 <1>   0.0800 
 30 H       -6.5130    -0.9480     1.6700 H     1 <1>   0.0800 
 31 H       -6.0700    -2.2510     0.5960 H     1 <1>   0.0800 
 32 H       -7.6250    -1.4750     0.4310 H     1 <1>   0.0800 
@<TRIPOS>BOND
  1   1   2  2   
  2   1   3  2   
  3   1   4  am  
  4   1   5  1   
  5   4   6  1   
  6   4   7  1   
  7   5   8  ar  
  8   5   9  ar  
  9   6  16  1   
 10   6  17  1   
 11   6  18  1   
 12   7  19  1   
 13   7  20  1   
 14   7  21  1   
 15   8  10  ar  
 16   8  22  1   
 17   9  11  ar  
 18   9  23  1   
 19  10  12  ar  
 20  10  24  1   
 21  11  12  ar  
 22  11  25  1   
 23  12  13  1   
 24  13  14  1   
 25  13  15  1   
 26  13  26  1   
 27  14  27  1   
 28  14  28  1   
 29  14  29  1   
 30  15  30  1   
 31  15  31  1   
 32  15  32  1   
@<TRIPOS>SUBSTRUCTURE
  1 ****   5 GROUP 4 **** **** 0

# MOE 2024.06 (io_trps.svl 2023.06)
