@<TRIPOS>MOLECULE
NONAME
46 48 1 0 0 
SMALL
USER_CHARGES


@<TRIPOS>ATOM
  1 CL       0.6190    -0.5810    -0.8030 Cl    1 <1>  -0.1770 
  2 C       -0.6460     0.3980    -0.0880 C.ar  1 <1>   0.1770 
  3 C       -0.3940     1.7240     0.2680 C.ar  1 <1>   0.1170 
  4 C       -1.8740    -0.1980     0.1360 C.ar  1 <1>  -0.1500 
  5 N        0.8420     2.3530     0.0200 N.am  1 <1>  -0.5470 
  6 C       -1.4310     2.4130     0.8930 C.ar  1 <1>   0.1770 
  7 C       -2.8910     0.5210     0.7430 C.ar  1 <1>  -0.1500 
  8 C        1.3710     2.6370    -1.2100 C.2   1 <1>   0.5690 
  9 CL      -1.1790     4.0670     1.4110 Cl    1 <1>  -0.1770 
 10 C       -2.6650     1.8320     1.1280 C.ar  1 <1>  -0.1500 
 11 O        0.7630     2.4160    -2.2300 O.2   1 <1>  -0.5700 
 12 C        2.7450     3.3180    -1.2790 C.3   1 <1>   0.1710 
 13 N        3.9330     2.4210    -1.2070 N.3   1 <1>  -0.8100 
 14 C        5.1840     3.1940    -1.3550 C.3   1 <1>   0.1100 
 15 C        3.9680     1.5710     0.0060 C.3   1 <1>   0.1100 
 16 C        6.4300     2.2920    -1.3530 C.3   1 <1>   0.1400 
 17 C        5.1940     0.6430     0.0230 C.3   1 <1>   0.1400 
 18 N        6.4520     1.4300    -0.1340 N.am  1 <1>  -0.6600 
 19 C        7.4990     1.3220     0.7540 C.2   1 <1>   0.5690 
 20 O        7.4060     0.5990     1.7230 O.2   1 <1>  -0.5700 
 21 C        8.8030     2.1420     0.5560 C.3   1 <1>   0.2610 
 22 O        9.4220     1.8400    -0.6670 O.3   1 <1>  -0.5600 
 23 C        9.9160     1.8740     1.5710 C.3   1 <1>  -0.1600 
 24 C       10.2450     0.7270    -0.5160 C.3   1 <1>   0.1200 
 25 C       10.6910     0.7250     0.9450 C.3   1 <1>  -0.1600 
 26 H       -2.0290    -1.2200    -0.1630 H     1 <1>   0.1500 
 27 H        1.3300     2.7350     0.8280 H     1 <1>   0.3700 
 28 H       -3.8500     0.0610     0.9170 H     1 <1>   0.1500 
 29 H       -3.4410     2.4040     1.6060 H     1 <1>   0.1500 
 30 H        2.8020     4.0470    -0.4920 H     1 <1>   0.0800 
 31 H        2.7810     3.8500    -2.2140 H     1 <1>   0.0800 
 32 H        5.2690     3.9070    -0.5530 H     1 <1>   0.0800 
 33 H        5.1570     3.7370    -2.2840 H     1 <1>   0.0800 
 34 H        3.0910     0.9500     0.0370 H     1 <1>   0.0800 
 35 H        3.9850     2.1860     0.8880 H     1 <1>   0.0800 
 36 H        7.3070     2.9090    -1.4130 H     1 <1>   0.0800 
 37 H        6.4110     1.6630    -2.2260 H     1 <1>   0.0800 
 38 H        5.1140    -0.0600    -0.7870 H     1 <1>   0.0800 
 39 H        5.2030     0.0860     0.9430 H     1 <1>   0.0800 
 40 H        8.5490     3.1850     0.5530 H     1 <1>   0.0800 
 41 H        9.5440     1.6420     2.5530 H     1 <1>   0.0800 
 42 H       10.5410     2.7470     1.6350 H     1 <1>   0.0800 
 43 H       11.0740     0.8160    -1.1970 H     1 <1>   0.0800 
 44 H        9.6670    -0.1520    -0.7470 H     1 <1>   0.0800 
 45 H       10.4220    -0.2120     1.4010 H     1 <1>   0.0800 
 46 H       11.7540     0.8670     1.0310 H     1 <1>   0.0800 
@<TRIPOS>BOND
  1   1   2  1   
  2   2   3  ar  
  3   2   4  ar  
  4   3   5  1   
  5   3   6  ar  
  6   4   7  ar  
  7   4  26  1   
  8   5   8  am  
  9   5  27  1   
 10   6   9  1   
 11   6  10  ar  
 12   7  10  ar  
 13   7  28  1   
 14   8  11  2   
 15   8  12  1   
 16  10  29  1   
 17  12  13  1   
 18  12  30  1   
 19  12  31  1   
 20  13  14  1   
 21  13  15  1   
 22  14  16  1   
 23  14  32  1   
 24  14  33  1   
 25  15  17  1   
 26  15  34  1   
 27  15  35  1   
 28  16  18  1   
 29  16  36  1   
 30  16  37  1   
 31  17  18  1   
 32  17  38  1   
 33  17  39  1   
 34  18  19  am  
 35  19  20  2   
 36  19  21  1   
 37  21  22  1   
 38  21  23  1   
 39  21  40  1   
 40  22  24  1   
 41  23  25  1   
 42  23  41  1   
 43  23  42  1   
 44  24  25  1   
 45  24  43  1   
 46  24  44  1   
 47  25  45  1   
 48  25  46  1   
@<TRIPOS>SUBSTRUCTURE
  1 ****  15 GROUP 4 **** **** 0

# MOE 2024.06 (io_trps.svl 2023.06)
