@<TRIPOS>MOLECULE
NONAME
34 34 1 0 0 
SMALL
USER_CHARGES


@<TRIPOS>ATOM
  1 O        0.0330    -0.0170     1.0030 O.2   1 <1>  -0.5700 
  2 C        0.0080     1.0920     0.5260 C.2   1 <1>   0.5690 
  3 N        1.1120     1.7410     0.0480 N.am  1 <1>  -0.5470 
  4 C       -1.3320     1.7980     0.4510 C.3   1 <1>   0.0420 
  5 C        2.4810     1.4170    -0.0080 C.ar  1 <1>   0.1170 
  6 C       -1.5480     2.2270    -0.9890 C.2   1 <1>   0.4480 
  7 C       -1.4140     2.9660     1.4610 C.3   1 <1>  -0.1600 
  8 C        3.3320     2.2740    -0.7160 C.ar  1 <1>   0.0820 
  9 C        3.0240     0.2950     0.6080 C.ar  1 <1>  -0.1500 
 10 O       -1.0330     3.2060    -1.4390 O.2   1 <1>  -0.5700 
 11 C       -2.4300     1.3490    -1.8510 C.3   1 <1>  -0.1790 
 12 C       -2.7990     3.6270     1.4890 C.3   1 <1>  -0.2400 
 13 O        2.7630     3.3700    -1.3020 O.3   1 <1>  -0.3630 
 14 C        4.6920     1.9950    -0.8010 C.ar  1 <1>  -0.1500 
 15 C        4.3780     0.0220     0.5210 C.ar  1 <1>  -0.1500 
 16 C        3.5070     4.2310    -2.1340 C.3   1 <1>   0.0400 
 17 C        5.2120     0.8700    -0.1840 C.ar  1 <1>  -0.1500 
 18 H        0.9140     2.6250    -0.4410 H     1 <1>   0.3700 
 19 H       -2.0910     1.0840     0.7120 H     1 <1>   0.0800 
 20 H       -0.6730     3.7100     1.2180 H     1 <1>   0.0800 
 21 H       -1.1880     2.5910     2.4450 H     1 <1>   0.0800 
 22 H        2.3960    -0.3760     1.1630 H     1 <1>   0.1500 
 23 H       -2.0340     0.3500    -1.8810 H     1 <1>   0.0800 
 24 H       -2.4620     1.7400    -2.8520 H     1 <1>   0.0800 
 25 H       -3.4270     1.3280    -1.4540 H     1 <1>   0.0800 
 26 H       -3.0300     4.0690     0.5350 H     1 <1>   0.0800 
 27 H       -2.8160     4.4050     2.2310 H     1 <1>   0.0800 
 28 H       -3.5600     2.9070     1.7350 H     1 <1>   0.0800 
 29 H        5.3630     2.6370    -1.3380 H     1 <1>   0.1500 
 30 H        4.7790    -0.8530     1.0030 H     1 <1>   0.1500 
 31 H        4.2860     4.6920    -1.5530 H     1 <1>   0.0800 
 32 H        2.8410     4.9830    -2.5150 H     1 <1>   0.0800 
 33 H        3.9180     3.6600    -2.9490 H     1 <1>   0.0800 
 34 H        6.2650     0.6560    -0.2510 H     1 <1>   0.1500 
@<TRIPOS>BOND
  1   1   2  2   
  2   2   3  am  
  3   2   4  1   
  4   3   5  1   
  5   3  18  1   
  6   4   6  1   
  7   4   7  1   
  8   4  19  1   
  9   5   8  ar  
 10   5   9  ar  
 11   6  10  2   
 12   6  11  1   
 13   7  12  1   
 14   7  20  1   
 15   7  21  1   
 16   8  13  1   
 17   8  14  ar  
 18   9  15  ar  
 19   9  22  1   
 20  11  23  1   
 21  11  24  1   
 22  11  25  1   
 23  12  26  1   
 24  12  27  1   
 25  12  28  1   
 26  13  16  1   
 27  14  17  ar  
 28  14  29  1   
 29  15  17  ar  
 30  15  30  1   
 31  16  31  1   
 32  16  32  1   
 33  16  33  1   
 34  17  34  1   
@<TRIPOS>SUBSTRUCTURE
  1 ****   3 GROUP 4 **** **** 0

# MOE 2024.06 (io_trps.svl 2023.06)
