@<TRIPOS>MOLECULE
NONAME
35 35 1 0 0 
SMALL
USER_CHARGES


@<TRIPOS>ATOM
  1 S       -0.0930     0.1460     0.3450 S.3   1 <1>  -0.0800 
  2 C       -1.2600     1.3350    -0.2070 C.2   1 <1>   0.0960 
  3 C        1.2100     1.2520    -0.0580 C.2   1 <1>   0.0960 
  4 S       -3.0050     0.9070    -0.1140 S.3   1 <1>  -0.2860 
  5 C       -0.6760     2.4680    -0.6450 C.2   1 <1>  -0.1810 
  6 S        2.8970     0.6990     0.2320 S.3   1 <1>  -0.2860 
  7 C        0.7630     2.4180    -0.5690 C.2   1 <1>  -0.1810 
  8 C       -3.0680    -0.7730     0.6510 C.3   1 <1>  -0.0100 
  9 C       -1.4470     3.6780    -1.1450 C.3   1 <1>   0.3010 
 10 C        2.7500    -0.9720     1.0080 C.3   1 <1>  -0.0100 
 11 C        1.6790     3.5370    -1.0460 C.3   1 <1>   0.3010 
 12 O       -1.6710     4.5290    -0.0450 O.3   1 <1>  -0.4300 
 13 O        1.3540     4.7370    -0.3830 O.3   1 <1>  -0.4300 
 14 C       -1.8990     5.8180    -0.2030 C.2   1 <1>   0.6590 
 15 C        1.9890     5.8550    -0.6880 C.2   1 <1>   0.6590 
 16 O       -1.8960     6.3530    -1.2790 O.2   1 <1>  -0.5700 
 17 C       -2.1600     6.5900     1.0640 C.3   1 <1>  -0.1790 
 18 O        2.8630     5.8950    -1.5130 O.2   1 <1>  -0.5700 
 19 C        1.5490     7.0880     0.0550 C.3   1 <1>  -0.1790 
 20 H       -4.1020    -1.0530     0.7360 H     1 <1>   0.0800 
 21 H       -2.6080    -0.7140     1.6210 H     1 <1>   0.0800 
 22 H       -2.5390    -1.4520     0.0070 H     1 <1>   0.0800 
 23 H       -2.4050     3.3910    -1.5400 H     1 <1>   0.0800 
 24 H       -0.8900     4.2000    -1.9030 H     1 <1>   0.0800 
 25 H        3.7450    -1.3220     1.2160 H     1 <1>   0.0800 
 26 H        2.2540    -1.6210     0.3090 H     1 <1>   0.0800 
 27 H        2.1840    -0.8670     1.9160 H     1 <1>   0.0800 
 28 H        1.5590     3.6910    -2.1050 H     1 <1>   0.0800 
 29 H        2.7100     3.3100    -0.8400 H     1 <1>   0.0800 
 30 H       -2.2890     7.6320     0.8360 H     1 <1>   0.0800 
 31 H       -3.0510     6.2160     1.5320 H     1 <1>   0.0800 
 32 H       -1.3300     6.4710     1.7340 H     1 <1>   0.0800 
 33 H        2.2820     7.8630    -0.0640 H     1 <1>   0.0800 
 34 H        0.6120     7.4280    -0.3420 H     1 <1>   0.0800 
 35 H        1.4380     6.8620     1.0990 H     1 <1>   0.0800 
@<TRIPOS>BOND
  1   1   2  1   
  2   1   3  1   
  3   2   4  1   
  4   2   5  2   
  5   3   6  1   
  6   3   7  2   
  7   4   8  1   
  8   5   7  1   
  9   5   9  1   
 10   6  10  1   
 11   7  11  1   
 12   8  20  1   
 13   8  21  1   
 14   8  22  1   
 15   9  12  1   
 16   9  23  1   
 17   9  24  1   
 18  10  25  1   
 19  10  26  1   
 20  10  27  1   
 21  11  13  1   
 22  11  28  1   
 23  11  29  1   
 24  12  14  1   
 25  13  15  1   
 26  14  16  2   
 27  14  17  1   
 28  15  18  2   
 29  15  19  1   
 30  17  30  1   
 31  17  31  1   
 32  17  32  1   
 33  19  33  1   
 34  19  34  1   
 35  19  35  1   
@<TRIPOS>SUBSTRUCTURE
  1 ****   5 GROUP 4 **** **** 0

# MOE 2024.06 (io_trps.svl 2023.06)
