@<TRIPOS>MOLECULE
NONAME
50 52 1 0 0 
SMALL
USER_CHARGES


@<TRIPOS>ATOM
  1 O        0.1030    -0.0600     0.1530 O.2   1 <1>  -0.5700 
  2 C        0.0900     1.1500     0.0580 C.2   1 <1>   0.6900 
  3 N       -1.0550     1.8710     0.2600 N.am  1 <1>  -0.5470 
  4 N        1.2200     1.8480    -0.2800 N.am  1 <1>  -0.5470 
  5 C       -2.3320     1.4730     0.6890 C.ar  1 <1>   0.1170 
  6 C        2.5220     1.4060    -0.5620 C.ar  1 <1>   0.1170 
  7 C       -3.4540     2.2070     0.2950 C.ar  1 <1>  -0.1430 
  8 C       -2.5130     0.3740     1.5250 C.ar  1 <1>  -0.1500 
  9 C        3.0460     0.2140    -0.0730 C.ar  1 <1>  -0.1500 
 10 C        3.3390     2.1990    -1.3600 C.ar  1 <1>  -0.1500 
 11 C       -4.7140     1.8330     0.7360 C.ar  1 <1>  -0.1500 
 12 C       -3.3290     3.4180    -0.6220 C.3   1 <1>  -0.0970 
 13 C       -3.7720     0.0060     1.9580 C.ar  1 <1>  -0.1500 
 14 C        4.3350    -0.1800    -0.3790 C.ar  1 <1>  -0.1500 
 15 C        4.6320     1.8130    -1.6670 C.ar  1 <1>  -0.1500 
 16 C       -4.8770     0.7370     1.5640 C.ar  1 <1>  -0.1500 
 17 C        5.1410     0.6190    -1.1760 C.ar  1 <1>  -0.1430 
 18 C        6.5590     0.1910    -1.5070 C.3   1 <1>   0.4860 
 19 N        7.3990     0.3220    -0.2860 N.4   1 <1>  -0.9590 
 20 C        7.5000     1.7420     0.1650 C.3   1 <1>   0.3430 
 21 C        8.7370    -0.3080    -0.4730 C.3   1 <1>   0.3430 
 22 C        8.2520     1.8080     1.4950 C.3   1 <1>  -0.1600 
 23 C        9.5080    -0.2800     0.8480 C.3   1 <1>  -0.1600 
 24 C        9.6320     1.1440     1.4040 C.3   1 <1>  -0.1600 
 25 H       -1.0140     2.8380    -0.0360 H     1 <1>   0.3700 
 26 H        1.0770     2.8450    -0.3910 H     1 <1>   0.3700 
 27 H       -1.6640    -0.2010     1.8450 H     1 <1>   0.1500 
 28 H        2.4410    -0.4180     0.5530 H     1 <1>   0.1500 
 29 H        2.9570     3.1240    -1.7530 H     1 <1>   0.1500 
 30 H       -5.5840     2.3920     0.4380 H     1 <1>   0.1500 
 31 H       -2.8180     3.1430    -1.5280 H     1 <1>   0.0800 
 32 H       -2.7860     4.2020    -0.1280 H     1 <1>   0.0800 
 33 H       -4.2990     3.7970    -0.8910 H     1 <1>   0.0800 
 34 H       -3.8900    -0.8490     2.6010 H     1 <1>   0.1500 
 35 H        4.6900    -1.1190     0.0110 H     1 <1>   0.1500 
 36 H        5.2290     2.4520    -2.2960 H     1 <1>   0.1500 
 37 H       -5.8590     0.4540     1.9000 H     1 <1>   0.1500 
 38 H        6.9540     0.8030    -2.3010 H     1 <1>   0.0800 
 39 H        6.5460    -0.8350    -1.8400 H     1 <1>   0.0800 
 40 H        6.9100    -0.1830     0.4620 H     1 <1>   0.4500 
 41 H        6.5150     2.1630     0.2930 H     1 <1>   0.0800 
 42 H        8.0250     2.3250    -0.5750 H     1 <1>   0.0800 
 43 H        9.2930     0.2320    -1.2230 H     1 <1>   0.0800 
 44 H        8.6250    -1.3290    -0.8010 H     1 <1>   0.0800 
 45 H        7.6640     1.3300     2.2600 H     1 <1>   0.0800 
 46 H        8.3710     2.8390     1.7810 H     1 <1>   0.0800 
 47 H       10.4930    -0.6860     0.6890 H     1 <1>   0.0800 
 48 H        9.0130    -0.9120     1.5650 H     1 <1>   0.0800 
 49 H       10.0900     1.1180     2.3800 H     1 <1>   0.0800 
 50 H       10.2700     1.7280     0.7610 H     1 <1>   0.0800 
@<TRIPOS>BOND
  1   1   2  2   
  2   2   3  am  
  3   2   4  am  
  4   3   5  1   
  5   3  25  1   
  6   4   6  1   
  7   4  26  1   
  8   5   7  ar  
  9   5   8  ar  
 10   6   9  ar  
 11   6  10  ar  
 12   7  11  ar  
 13   7  12  1   
 14   8  13  ar  
 15   8  27  1   
 16   9  14  ar  
 17   9  28  1   
 18  10  15  ar  
 19  10  29  1   
 20  11  16  ar  
 21  11  30  1   
 22  12  31  1   
 23  12  32  1   
 24  12  33  1   
 25  13  16  ar  
 26  13  34  1   
 27  14  17  ar  
 28  14  35  1   
 29  15  17  ar  
 30  15  36  1   
 31  16  37  1   
 32  17  18  1   
 33  18  19  1   
 34  18  38  1   
 35  18  39  1   
 36  19  20  1   
 37  19  21  1   
 38  19  40  1   
 39  20  22  1   
 40  20  41  1   
 41  20  42  1   
 42  21  23  1   
 43  21  43  1   
 44  21  44  1   
 45  22  24  1   
 46  22  45  1   
 47  22  46  1   
 48  23  24  1   
 49  23  47  1   
 50  23  48  1   
 51  24  49  1   
 52  24  50  1   
@<TRIPOS>SUBSTRUCTURE
  1 ****   6 GROUP 4 **** **** 0

# MOE 2024.06 (io_trps.svl 2023.06)
