@<TRIPOS>MOLECULE
NONAME
45 46 1 0 0 
SMALL
USER_CHARGES


@<TRIPOS>ATOM
  1 O       -1.0490     2.1330     1.3960 O.2   1 <1>  -0.5700 
  2 C       -0.6820     2.0290     0.2500 C.2   1 <1>   0.5690 
  3 N       -1.4870     1.4950    -0.7060 N.am  1 <1>  -0.7300 
  4 C        0.7090     2.5180    -0.1520 C.3   1 <1>  -0.0190 
  5 C       -2.8460     0.9520    -0.4540 C.3   1 <1>   0.1400 
  6 C        1.8140     1.8110     0.6560 C.3   1 <1>  -0.1600 
  7 C        0.8260     4.0480    -0.0040 C.3   1 <1>  -0.1600 
  8 C       -3.8370     2.0850    -0.1940 C.3   1 <1>   0.1200 
  9 C        3.2110     2.3110     0.2620 C.3   1 <1>  -0.1600 
 10 C        2.2220     4.5490    -0.3980 C.3   1 <1>  -0.1600 
 11 O       -5.1440     1.5520    -0.2170 O.3   1 <1>  -0.3630 
 12 C        3.3150     3.8340     0.4080 C.3   1 <1>  -0.1600 
 13 C       -6.2280     2.3520    -0.0530 C.ar  1 <1>   0.0820 
 14 C       -7.4700     1.7600    -0.2170 C.ar  1 <1>  -0.1500 
 15 C       -6.1500     3.7060     0.2610 C.ar  1 <1>  -0.1500 
 16 C       -8.6300     2.5020    -0.0750 C.ar  1 <1>  -0.1440 
 17 C       -7.3060     4.4550     0.4060 C.ar  1 <1>  -0.1440 
 18 C       -8.5410     3.8490     0.2340 C.ar  1 <1>  -0.1500 
 19 C       -9.9890     1.8520    -0.2590 C.3   1 <1>  -0.0970 
 20 C       -7.2260     5.9320     0.7470 C.3   1 <1>  -0.0970 
 21 H       -1.1540     1.4340    -1.6690 H     1 <1>   0.3700 
 22 H        0.8590     2.2770    -1.1890 H     1 <1>   0.0800 
 23 H       -2.8160     0.3040     0.4070 H     1 <1>   0.0800 
 24 H       -3.1630     0.3840    -1.3110 H     1 <1>   0.0800 
 25 H        1.7530     0.7480     0.4980 H     1 <1>   0.0800 
 26 H        1.6560     1.9930     1.7060 H     1 <1>   0.0800 
 27 H        0.6280     4.3190     1.0200 H     1 <1>   0.0800 
 28 H        0.0840     4.5280    -0.6180 H     1 <1>   0.0800 
 29 H       -3.7680     2.8310    -0.9650 H     1 <1>   0.0800 
 30 H       -3.6610     2.5190     0.7750 H     1 <1>   0.0800 
 31 H        3.4150     2.0350    -0.7590 H     1 <1>   0.0800 
 32 H        3.9510     1.8390     0.8850 H     1 <1>   0.0800 
 33 H        2.2850     5.6100    -0.2260 H     1 <1>   0.0800 
 34 H        2.3830     4.3750    -1.4490 H     1 <1>   0.0800 
 35 H        4.2840     4.1640     0.0740 H     1 <1>   0.0800 
 36 H        3.2180     4.0980     1.4480 H     1 <1>   0.0800 
 37 H       -7.5140     0.7140    -0.4580 H     1 <1>   0.1500 
 38 H       -5.2020     4.1870     0.3990 H     1 <1>   0.1500 
 39 H       -9.4390     4.4300     0.3410 H     1 <1>   0.1500 
 40 H       -9.9140     0.7830    -0.1710 H     1 <1>   0.0800 
 41 H      -10.3780     2.0930    -1.2320 H     1 <1>   0.0800 
 42 H      -10.6750     2.2080     0.4890 H     1 <1>   0.0800 
 43 H       -6.3160     6.1500     1.2750 H     1 <1>   0.0800 
 44 H       -8.0550     6.2170     1.3700 H     1 <1>   0.0800 
 45 H       -7.2530     6.5160    -0.1560 H     1 <1>   0.0800 
@<TRIPOS>BOND
  1   1   2  2   
  2   2   3  am  
  3   2   4  1   
  4   3   5  1   
  5   3  21  1   
  6   4   6  1   
  7   4   7  1   
  8   4  22  1   
  9   5   8  1   
 10   5  23  1   
 11   5  24  1   
 12   6   9  1   
 13   6  25  1   
 14   6  26  1   
 15   7  10  1   
 16   7  27  1   
 17   7  28  1   
 18   8  11  1   
 19   8  29  1   
 20   8  30  1   
 21   9  12  1   
 22   9  31  1   
 23   9  32  1   
 24  10  12  1   
 25  10  33  1   
 26  10  34  1   
 27  11  13  1   
 28  12  35  1   
 29  12  36  1   
 30  13  14  ar  
 31  13  15  ar  
 32  14  16  ar  
 33  14  37  1   
 34  15  17  ar  
 35  15  38  1   
 36  16  18  ar  
 37  16  19  1   
 38  17  18  ar  
 39  17  20  1   
 40  18  39  1   
 41  19  40  1   
 42  19  41  1   
 43  19  42  1   
 44  20  43  1   
 45  20  44  1   
 46  20  45  1   
@<TRIPOS>SUBSTRUCTURE
  1 ****   8 GROUP 4 **** **** 0

# MOE 2024.06 (io_trps.svl 2023.06)
