@<TRIPOS>MOLECULE
NONAME
45 47 1 0 0 
SMALL
USER_CHARGES


@<TRIPOS>ATOM
  1 O        0.3930    -1.6210    -2.2250 O.2   1 <1>  -0.5700 
  2 C        0.0670    -1.8410    -1.0810 C.2   1 <1>   0.5690 
  3 N        0.8570    -1.5590     0.0040 N.am  1 <1>  -0.5470 
  4 C       -1.3350    -2.4170    -0.7930 C.3   1 <1>   0.3950 
  5 C        2.1510    -1.0360     0.1260 C.ar  1 <1>   0.1170 
  6 N       -1.9720    -1.8230     0.4340 N.3   1 <1>  -0.8100 
  7 C       -1.2420    -3.9440    -0.6810 C.ar  1 <1>  -0.1430 
  8 C        3.0640    -1.0140    -0.9230 C.ar  1 <1>  -0.1500 
  9 C        2.5490    -0.5230     1.3550 C.ar  1 <1>  -0.1500 
 10 C       -3.2820    -2.4550     0.7290 C.3   1 <1>   0.1100 
 11 C       -2.1870    -0.3650     0.2600 C.3   1 <1>   0.1100 
 12 C       -1.7070    -4.7400    -1.7190 C.ar  1 <1>  -0.1500 
 13 C       -0.6960    -4.5540     0.4410 C.ar  1 <1>  -0.1500 
 14 C        4.3320    -0.4880    -0.7500 C.ar  1 <1>  -0.1500 
 15 C        3.8160     0.0030     1.5310 C.ar  1 <1>  -0.1500 
 16 C       -3.9740    -1.7820     1.9270 C.3   1 <1>   0.1200 
 17 C       -2.9060     0.2460     1.4760 C.3   1 <1>   0.1200 
 18 C       -1.6320    -6.1200    -1.6350 C.ar  1 <1>  -0.1500 
 19 C       -0.6200    -5.9330     0.5260 C.ar  1 <1>  -0.1500 
 20 C        4.7160     0.0260     0.4780 C.ar  1 <1>  -0.1430 
 21 O       -4.1190    -0.4090     1.7030 O.3   1 <1>  -0.5600 
 22 C       -1.0890    -6.7170    -0.5120 C.ar  1 <1>  -0.1500 
 23 C        6.1080     0.6020     0.6660 C.3   1 <1>  -0.0970 
 24 H        0.3510    -1.6970     0.8820 H     1 <1>   0.3700 
 25 H       -1.9520    -2.1780    -1.6410 H     1 <1>   0.0800 
 26 H        2.7900    -1.4110    -1.8830 H     1 <1>   0.1500 
 27 H        1.8640    -0.5330     2.1820 H     1 <1>   0.1500 
 28 H       -3.1480    -3.4960     0.9640 H     1 <1>   0.0800 
 29 H       -3.9290    -2.3880    -0.1290 H     1 <1>   0.0800 
 30 H       -2.7810    -0.1790    -0.6190 H     1 <1>   0.0800 
 31 H       -1.2440     0.1400     0.1350 H     1 <1>   0.0800 
 32 H       -2.1260    -4.2920    -2.6030 H     1 <1>   0.1500 
 33 H       -0.3310    -3.9550     1.2570 H     1 <1>   0.1500 
 34 H        5.0180    -0.4820    -1.5780 H     1 <1>   0.1500 
 35 H        4.1010     0.3940     2.4920 H     1 <1>   0.1500 
 36 H       -3.4000    -1.9270     2.8260 H     1 <1>   0.0800 
 37 H       -4.9560    -2.1960     2.0720 H     1 <1>   0.0800 
 38 H       -3.1230     1.2840     1.2980 H     1 <1>   0.0800 
 39 H       -2.2970     0.1630     2.3590 H     1 <1>   0.0800 
 40 H       -1.9940    -6.7280    -2.4450 H     1 <1>   0.1500 
 41 H       -0.1940    -6.3960     1.4000 H     1 <1>   0.1500 
 42 H       -1.0290    -7.7900    -0.4480 H     1 <1>   0.1500 
 43 H        6.4600     1.0400    -0.2510 H     1 <1>   0.0800 
 44 H        6.7860    -0.1770     0.9630 H     1 <1>   0.0800 
 45 H        6.1010     1.3640     1.4240 H     1 <1>   0.0800 
@<TRIPOS>BOND
  1   1   2  2   
  2   2   3  am  
  3   2   4  1   
  4   3   5  1   
  5   3  24  1   
  6   4   6  1   
  7   4   7  1   
  8   4  25  1   
  9   5   8  ar  
 10   5   9  ar  
 11   6  10  1   
 12   6  11  1   
 13   7  12  ar  
 14   7  13  ar  
 15   8  14  ar  
 16   8  26  1   
 17   9  15  ar  
 18   9  27  1   
 19  10  16  1   
 20  10  28  1   
 21  10  29  1   
 22  11  17  1   
 23  11  30  1   
 24  11  31  1   
 25  12  18  ar  
 26  12  32  1   
 27  13  19  ar  
 28  13  33  1   
 29  14  20  ar  
 30  14  34  1   
 31  15  20  ar  
 32  15  35  1   
 33  16  21  1   
 34  16  36  1   
 35  16  37  1   
 36  17  21  1   
 37  17  38  1   
 38  17  39  1   
 39  18  22  ar  
 40  18  40  1   
 41  19  22  ar  
 42  19  41  1   
 43  20  23  1   
 44  22  42  1   
 45  23  43  1   
 46  23  44  1   
 47  23  45  1   
@<TRIPOS>SUBSTRUCTURE
  1 ****   3 GROUP 4 **** **** 0

# MOE 2024.06 (io_trps.svl 2023.06)
