@<TRIPOS>MOLECULE
NONAME
49 52 1 0 0 
SMALL
USER_CHARGES


@<TRIPOS>ATOM
  1 S       -0.1540    -0.3160     0.0570 S.o2  1 <1>   1.4470 
  2 O        0.1450    -0.6470    -1.3170 O.2   1 <1>  -0.6500 
  3 O        0.8240    -0.4970     1.1020 O.2   1 <1>  -0.6500 
  4 N       -1.4680    -1.3520     0.5100 N.am  1 <1>  -0.6400 
  5 C       -0.8670     1.3520     0.1330 C.ar  1 <1>  -0.0090 
  6 N       -2.8350    -0.9420     0.0710 N.am  1 <1>  -0.3480 
  7 C       -1.0030     2.0310     1.3390 C.ar  1 <1>  -0.1500 
  8 C       -1.3340     1.9800    -1.0180 C.ar  1 <1>  -0.1500 
  9 C       -3.6710    -0.1670     0.8150 C.2   1 <1>   0.5690 
 10 C       -1.5960     3.2800     1.3950 C.ar  1 <1>  -0.1500 
 11 C       -1.9270     3.2290    -0.9730 C.ar  1 <1>  -0.1500 
 12 O       -3.3710     0.1140     1.9600 O.2   1 <1>  -0.5700 
 13 C       -4.9990     0.3480     0.2210 C.3   1 <1>   0.0610 
 14 C       -2.0670     3.8870     0.2440 C.ar  1 <1>   0.0830 
 15 C       -4.9730     0.3850    -1.3340 C.3   1 <1>  -0.1600 
 16 C       -5.2920     1.7870     0.7220 C.3   1 <1>  -0.1600 
 17 C       -6.1650    -0.5660     0.6650 C.3   1 <1>  -0.1600 
 18 O       -2.6520     5.1000     0.3840 O.3   1 <1>  -0.3630 
 19 C       -6.3090     0.9020    -1.8970 C.3   1 <1>  -0.0800 
 20 C       -6.6290     2.3100     0.1680 C.3   1 <1>  -0.0800 
 21 C       -7.5080    -0.0550     0.1070 C.3   1 <1>  -0.0800 
 22 C       -3.2480     5.7620    -0.7090 C.3   1 <1>   0.0400 
 23 C       -6.5660     2.3250    -1.3690 C.3   1 <1>  -0.1600 
 24 C       -7.4450    -0.0280    -1.4310 C.3   1 <1>  -0.1600 
 25 C       -7.7620     1.3730     0.6250 C.3   1 <1>  -0.1600 
 26 H       -1.4320    -1.3960     1.5340 H     1 <1>   0.4200 
 27 H       -3.1250    -1.2570    -0.8630 H     1 <1>   0.3700 
 28 H       -0.6540     1.5730     2.2490 H     1 <1>   0.1500 
 29 H       -1.2320     1.4810    -1.9680 H     1 <1>   0.1500 
 30 H       -1.7020     3.7890     2.3360 H     1 <1>   0.1500 
 31 H       -2.2720     3.6730    -1.8880 H     1 <1>   0.1500 
 32 H       -4.1750     1.0250    -1.6690 H     1 <1>   0.0800 
 33 H       -4.8010    -0.5990    -1.7310 H     1 <1>   0.0800 
 34 H       -4.4960     2.4460     0.4260 H     1 <1>   0.0800 
 35 H       -5.3300     1.7990     1.7980 H     1 <1>   0.0800 
 36 H       -6.2110    -0.5920     1.7400 H     1 <1>   0.0800 
 37 H       -5.9940    -1.5720     0.3240 H     1 <1>   0.0800 
 38 H       -6.2710     0.9180    -2.9730 H     1 <1>   0.0800 
 39 H       -6.8090     3.3060     0.5360 H     1 <1>   0.0800 
 40 H       -8.3060    -0.7030     0.4270 H     1 <1>   0.0800 
 41 H       -3.6710     6.6820    -0.3510 H     1 <1>   0.0800 
 42 H       -4.0230     5.1370    -1.1160 H     1 <1>   0.0800 
 43 H       -2.4920     5.9710    -1.4450 H     1 <1>   0.0800 
 44 H       -7.4940     2.6990    -1.7660 H     1 <1>   0.0800 
 45 H       -5.7820     2.9850    -1.6950 H     1 <1>   0.0800 
 46 H       -8.3840     0.3190    -1.8270 H     1 <1>   0.0800 
 47 H       -7.2830    -1.0230    -1.8080 H     1 <1>   0.0800 
 48 H       -7.8170     1.3660     1.7000 H     1 <1>   0.0800 
 49 H       -8.7050     1.7340     0.2530 H     1 <1>   0.0800 
@<TRIPOS>BOND
  1   1   2  2   
  2   1   3  2   
  3   1   4  am  
  4   1   5  1   
  5   4   6  1   
  6   4  26  1   
  7   5   7  ar  
  8   5   8  ar  
  9   6   9  am  
 10   6  27  1   
 11   7  10  ar  
 12   7  28  1   
 13   8  11  ar  
 14   8  29  1   
 15   9  12  2   
 16   9  13  1   
 17  10  14  ar  
 18  10  30  1   
 19  11  14  ar  
 20  11  31  1   
 21  13  15  1   
 22  13  16  1   
 23  13  17  1   
 24  14  18  1   
 25  15  19  1   
 26  15  32  1   
 27  15  33  1   
 28  16  20  1   
 29  16  34  1   
 30  16  35  1   
 31  17  21  1   
 32  17  36  1   
 33  17  37  1   
 34  18  22  1   
 35  19  23  1   
 36  19  24  1   
 37  19  38  1   
 38  20  23  1   
 39  20  25  1   
 40  20  39  1   
 41  21  24  1   
 42  21  25  1   
 43  21  40  1   
 44  22  41  1   
 45  22  42  1   
 46  22  43  1   
 47  23  44  1   
 48  23  45  1   
 49  24  46  1   
 50  24  47  1   
 51  25  48  1   
 52  25  49  1   
@<TRIPOS>SUBSTRUCTURE
  1 ****   9 GROUP 4 **** **** 0

# MOE 2024.06 (io_trps.svl 2023.06)
