@<TRIPOS>MOLECULE
NONAME
37 40 1 0 0 
SMALL
USER_CHARGES


@<TRIPOS>ATOM
  1 BR       0.1250    -0.4910     1.7000 Br    1 <1>  -0.1110 
  2 C        0.7760     1.1870     1.0050 C.ar  1 <1>   0.1110 
  3 C        2.1060     1.5340     1.1500 C.ar  1 <1>   0.1770 
  4 C       -0.1170     2.0240     0.3630 C.ar  1 <1>  -0.1500 
  5 CL       3.2350     0.4720     1.9590 Cl    1 <1>  -0.1770 
  6 C        2.5580     2.7380     0.6490 C.ar  1 <1>  -0.1500 
  7 C        0.3330     3.2340    -0.1460 C.ar  1 <1>  -0.1440 
  8 C        1.6780     3.6000     0.0020 C.ar  1 <1>   0.1170 
  9 C       -0.6680     4.1370    -0.8570 C.3   1 <1>  -0.0970 
 10 N        2.1880     4.8070    -0.4930 N.am  1 <1>  -0.5470 
 11 C        1.8960     6.0710    -0.0640 C.2   1 <1>   0.5690 
 12 O        1.0900     6.2930     0.8060 O.2   1 <1>  -0.5700 
 13 C        2.6420     7.2300    -0.7340 C.3   1 <1>  -0.0190 
 14 C        4.3570     7.1840    -0.4490 C.3   1 <1>  -0.0190 
 15 C        2.2320     8.8880    -0.2180 C.3   1 <1>  -0.0800 
 16 C        5.3870     8.0970    -1.2280 C.2   1 <1>   0.6590 
 17 C        4.5030     8.1370     0.7410 C.3   1 <1>  -0.0800 
 18 C        3.1380    10.2620     0.4690 C.3   1 <1>  -0.1600 
 19 C        3.2080     8.4800     0.4000 C.3   1 <1>  -0.1600 
 20 O        5.9970     7.7180    -2.1890 O.2   1 <1>  -0.5700 
 21 O        5.5010     9.3780    -0.7130 O.3   1 <1>  -0.4300 
 22 C        4.7540     9.6330     0.5310 C.3   1 <1>   0.2000 
 23 H       -1.1460     1.7260     0.2680 H     1 <1>   0.1500 
 24 H        3.5910     3.0050     0.7700 H     1 <1>   0.1500 
 25 H       -1.5510     3.5900    -1.1350 H     1 <1>   0.0800 
 26 H       -0.2370     4.5520    -1.7490 H     1 <1>   0.0800 
 27 H       -0.9590     4.9420    -0.2050 H     1 <1>   0.0800 
 28 H        2.9070     4.7190    -1.2090 H     1 <1>   0.3700 
 29 H        2.4580     7.1410    -1.7920 H     1 <1>   0.0800 
 30 H        4.7590     6.2070    -0.2550 H     1 <1>   0.0800 
 31 H        1.2540     8.8630     0.2480 H     1 <1>   0.0800 
 32 H        4.5520     7.7320     1.7400 H     1 <1>   0.0800 
 33 H        2.7880    10.5460     1.4540 H     1 <1>   0.0800 
 34 H        3.0910    11.1330    -0.1640 H     1 <1>   0.0800 
 35 H        3.4140     8.9380    -0.8260 H     1 <1>   0.0800 
 36 H        2.6760     8.2500     1.3440 H     1 <1>   0.0800 
 37 H        5.3990    10.0890     1.2620 H     1 <1>   0.0800 
@<TRIPOS>BOND
  1   1   2  1   
  2   2   3  ar  
  3   2   4  ar  
  4   3   5  1   
  5   3   6  ar  
  6   4   7  ar  
  7   4  23  1   
  8   6   8  ar  
  9   6  24  1   
 10   7   8  ar  
 11   7   9  1   
 12   8  10  1   
 13   9  25  1   
 14   9  26  1   
 15   9  27  1   
 16  10  11  am  
 17  10  28  1   
 18  11  12  2   
 19  11  13  1   
 20  13  14  1   
 21  13  15  1   
 22  13  29  1   
 23  14  16  1   
 24  14  17  1   
 25  14  30  1   
 26  15  18  1   
 27  15  19  1   
 28  15  31  1   
 29  16  20  2   
 30  16  21  1   
 31  17  19  1   
 32  17  22  1   
 33  17  32  1   
 34  18  22  1   
 35  18  33  1   
 36  18  34  1   
 37  19  35  1   
 38  19  36  1   
 39  21  22  1   
 40  22  37  1   
@<TRIPOS>SUBSTRUCTURE
  1 ****  11 GROUP 4 **** **** 0

# MOE 2024.06 (io_trps.svl 2023.06)
