@<TRIPOS>MOLECULE
NONAME
44 46 1 0 0 
SMALL
USER_CHARGES


@<TRIPOS>ATOM
  1 O        4.4850     6.5650    -0.4900 O.2   1 <1>  -0.5700 
  2 C        3.3260     6.4930    -0.8130 C.2   1 <1>   0.6590 
  3 O        2.6260     5.3500    -0.8810 O.3   1 <1>  -0.0870 
  4 C        2.5520     7.7380    -1.1730 C.3   1 <1>  -0.1790 
  5 N        3.1570     4.1540    -0.6700 N.2   1 <1>  -0.5130 
  6 C        2.3900     3.1640    -0.4240 C.2   1 <1>   0.3750 
  7 C        2.8030     1.7860    -0.1660 C.2   1 <1>   0.1140 
  8 C        0.8520     3.2790    -0.3590 C.3   1 <1>  -0.0190 
  9 N        1.7320     0.9120     0.0960 N.pl3 1 <1>  -0.8380 
 10 C        4.0520     1.2400    -0.1740 C.2   1 <1>  -0.1780 
 11 C        0.4260     2.7930     1.0440 C.3   1 <1>  -0.1600 
 12 C        0.2820     2.2700    -1.3830 C.3   1 <1>  -0.1600 
 13 C        0.9570     1.3610     1.2940 C.3   1 <1>   0.2090 
 14 C        0.8100     0.8470    -1.0790 C.3   1 <1>   0.2090 
 15 C        5.3570     1.8070    -0.3690 C.ar  1 <1>   0.0280 
 16 C        6.3070     1.1760    -1.1860 C.ar  1 <1>   0.0820 
 17 C        5.7570     2.9830     0.2650 C.ar  1 <1>  -0.1500 
 18 O        5.9940     0.0140    -1.8100 O.3   1 <1>  -0.2320 
 19 C        7.5660     1.7170    -1.3880 C.ar  1 <1>  -0.1500 
 20 C        7.0130     3.5260     0.0700 C.ar  1 <1>  -0.1500 
 21 C        6.4700    -1.1700    -1.4370 C.2   1 <1>   0.6590 
 22 C        7.9230     2.8960    -0.7600 C.ar  1 <1>  -0.1500 
 23 O        6.4240    -2.1130    -2.1800 O.2   1 <1>  -0.5700 
 24 C        7.0540    -1.3240    -0.0460 C.3   1 <1>  -0.1790 
 25 H        1.7200     7.8510    -0.5030 H     1 <1>   0.0800 
 26 H        2.1930     7.6570    -2.1820 H     1 <1>   0.0800 
 27 H        3.1910     8.5970    -1.0930 H     1 <1>   0.0800 
 28 H        0.4830     4.2700    -0.5520 H     1 <1>   0.0800 
 29 H        4.0830     0.1770    -0.0240 H     1 <1>   0.1500 
 30 H       -0.6450     2.8030     1.1380 H     1 <1>   0.0800 
 31 H        0.8260     3.4530     1.7940 H     1 <1>   0.0800 
 32 H        0.5830     2.5530    -2.3760 H     1 <1>   0.0800 
 33 H       -0.7930     2.2700    -1.3550 H     1 <1>   0.0800 
 34 H        1.6030     1.3500     2.1560 H     1 <1>   0.0800 
 35 H        0.1420     0.6810     1.4760 H     1 <1>   0.0800 
 36 H        1.3490     0.4610    -1.9290 H     1 <1>   0.0800 
 37 H       -0.0050     0.1770    -0.8660 H     1 <1>   0.0800 
 38 H        5.0690     3.4880     0.9190 H     1 <1>   0.1500 
 39 H        8.2640     1.2230    -2.0410 H     1 <1>   0.1500 
 40 H        7.2760     4.4470     0.5610 H     1 <1>   0.1500 
 41 H        8.8970     3.3250    -0.9160 H     1 <1>   0.1500 
 42 H        6.3540    -0.9670     0.6870 H     1 <1>   0.0800 
 43 H        7.9700    -0.7720     0.0330 H     1 <1>   0.0800 
 44 H        7.2560    -2.3620     0.1450 H     1 <1>   0.0800 
@<TRIPOS>BOND
  1   1   2  2   
  2   2   3  1   
  3   2   4  1   
  4   3   5  1   
  5   4  25  1   
  6   4  26  1   
  7   4  27  1   
  8   5   6  2   
  9   6   7  1   
 10   6   8  1   
 11   7   9  1   
 12   7  10  2   
 13   8  11  1   
 14   8  12  1   
 15   8  28  1   
 16   9  13  1   
 17   9  14  1   
 18  10  15  1   
 19  10  29  1   
 20  11  13  1   
 21  11  30  1   
 22  11  31  1   
 23  12  14  1   
 24  12  32  1   
 25  12  33  1   
 26  13  34  1   
 27  13  35  1   
 28  14  36  1   
 29  14  37  1   
 30  15  16  ar  
 31  15  17  ar  
 32  16  18  1   
 33  16  19  ar  
 34  17  20  ar  
 35  17  38  1   
 36  18  21  1   
 37  19  22  ar  
 38  19  39  1   
 39  20  22  ar  
 40  20  40  1   
 41  21  23  2   
 42  21  24  1   
 43  22  41  1   
 44  24  42  1   
 45  24  43  1   
 46  24  44  1   
@<TRIPOS>SUBSTRUCTURE
  1 ****  10 GROUP 4 **** **** 0

# MOE 2024.06 (io_trps.svl 2023.06)
