@<TRIPOS>MOLECULE
NONAME
32 33 1 0 0 
SMALL
USER_CHARGES


@<TRIPOS>ATOM
  1 CL      -0.3140    -0.0860    -1.6730 Cl    1 <1>  -0.1770 
  2 C       -1.7160    -0.7790    -0.9020 C.ar  1 <1>   0.1770 
  3 C       -2.3600    -1.8460    -1.4980 C.ar  1 <1>  -0.1500 
  4 C       -2.1630    -0.2510     0.2930 C.ar  1 <1>  -0.1500 
  5 C       -3.4760    -2.3930    -0.8870 C.ar  1 <1>  -0.1500 
  6 C       -3.2800    -0.7990     0.9020 C.ar  1 <1>  -0.1500 
  7 C       -3.9450    -1.8670     0.3110 C.ar  1 <1>  -0.1430 
  8 C       -5.1790    -2.4540     0.9720 C.3   1 <1>   0.4870 
  9 N       -6.3820    -2.0210     0.2060 N.4   1 <1>  -0.9590 
 10 C       -6.5640    -0.5370     0.2650 C.3   1 <1>   0.3430 
 11 C       -7.5980    -2.7680     0.6450 C.3   1 <1>   0.3430 
 12 C       -7.7380    -0.1210    -0.6170 C.3   1 <1>  -0.1600 
 13 C       -8.7870    -2.3850    -0.2330 C.3   1 <1>  -0.1600 
 14 C       -8.9990    -0.8740    -0.2020 C.3   1 <1>   0.2000 
 15 O      -10.0090    -0.5530    -1.0720 O.3   1 <1>  -0.6800 
 16 H       -1.9830    -2.2400    -2.4260 H     1 <1>   0.1500 
 17 H       -1.6360     0.5770     0.7370 H     1 <1>   0.1500 
 18 H       -3.9620    -3.2310    -1.3580 H     1 <1>   0.1500 
 19 H       -3.6140    -0.3820     1.8380 H     1 <1>   0.1500 
 20 H       -5.2450    -2.1210     1.9950 H     1 <1>   0.0800 
 21 H       -5.1030    -3.5300     0.9670 H     1 <1>   0.0800 
 22 H       -6.1930    -2.2560    -0.7770 H     1 <1>   0.4500 
 23 H       -5.6700    -0.0390    -0.0780 H     1 <1>   0.0800 
 24 H       -6.7520    -0.2310     1.2820 H     1 <1>   0.0800 
 25 H       -7.8230    -2.5290     1.6730 H     1 <1>   0.0800 
 26 H       -7.4300    -3.8310     0.5730 H     1 <1>   0.0800 
 27 H       -7.4970    -0.3170    -1.6460 H     1 <1>   0.0800 
 28 H       -7.9020     0.9360    -0.5030 H     1 <1>   0.0800 
 29 H       -9.6700    -2.8730     0.1410 H     1 <1>   0.0800 
 30 H       -8.6130    -2.7240    -1.2390 H     1 <1>   0.0800 
 31 H       -9.3140    -0.5610     0.7820 H     1 <1>   0.0800 
 32 H       -9.7960    -0.7950    -1.9940 H     1 <1>   0.4000 
@<TRIPOS>BOND
  1   1   2  1   
  2   2   3  ar  
  3   2   4  ar  
  4   3   5  ar  
  5   3  16  1   
  6   4   6  ar  
  7   4  17  1   
  8   5   7  ar  
  9   5  18  1   
 10   6   7  ar  
 11   6  19  1   
 12   7   8  1   
 13   8   9  1   
 14   8  20  1   
 15   8  21  1   
 16   9  10  1   
 17   9  11  1   
 18   9  22  1   
 19  10  12  1   
 20  10  23  1   
 21  10  24  1   
 22  11  13  1   
 23  11  25  1   
 24  11  26  1   
 25  12  14  1   
 26  12  27  1   
 27  12  28  1   
 28  13  14  1   
 29  13  29  1   
 30  13  30  1   
 31  14  15  1   
 32  14  31  1   
 33  15  32  1   
@<TRIPOS>SUBSTRUCTURE
  1 ****   9 GROUP 4 **** **** 0

# MOE 2024.06 (io_trps.svl 2023.06)
