@<TRIPOS>MOLECULE
Structure2506
33 34 1 0 0 
SMALL
USER_CHARGES


@<TRIPOS>ATOM
  1 O        0.0360     0.3410     0.3040 O.3   1 <1>  -0.3630 
  2 C        1.2270     0.9420     0.0660 C.ar  1 <1>   0.0820 
  3 C       -1.1840     0.9920     0.0310 C.3   1 <1>   0.1200 
  4 C        2.3640     0.2290     0.4090 C.ar  1 <1>  -0.1500 
  5 C        1.3570     2.2110    -0.4910 C.ar  1 <1>  -0.1500 
  6 C       -2.3400     0.0600     0.4290 C.3   1 <1>  -0.0800 
  7 C        3.6340     0.7540     0.2070 C.ar  1 <1>   0.0730 
  8 C        2.6150     2.7470    -0.6980 C.ar  1 <1>  -0.1500 
  9 C       -2.2750    -1.2860    -0.3190 C.3   1 <1>  -0.1600 
 10 C       -3.6980     0.7350     0.1740 C.3   1 <1>  -0.1600 
 11 C        4.8060     0.0080     0.5660 C.1   1 <1>   0.4840 
 12 C        3.7430     2.0230    -0.3510 C.ar  1 <1>  -0.1500 
 13 C       -3.4650    -2.1840     0.0200 C.3   1 <1>   0.3430 
 14 C       -4.8660    -0.1970     0.5080 C.3   1 <1>   0.3430 
 15 N        5.7410    -0.5810     0.8490 N.1   1 <1>  -0.5570 
 16 N       -4.7330    -1.4600    -0.2680 N.4   1 <1>  -0.9060 
 17 H       -1.2160     1.2190    -1.0210 H     1 <1>   0.0800 
 18 H       -1.2130     1.9020     0.6060 H     1 <1>   0.0800 
 19 H        2.2520    -0.7500     0.8400 H     1 <1>   0.1500 
 20 H        0.5000     2.7960    -0.7690 H     1 <1>   0.1500 
 21 H       -2.2510    -0.1270     1.4880 H     1 <1>   0.0800 
 22 H        2.7190     3.7290    -1.1290 H     1 <1>   0.1500 
 23 H       -1.3720    -1.8050    -0.0470 H     1 <1>   0.0800 
 24 H       -2.2390    -1.1210    -1.3820 H     1 <1>   0.0800 
 25 H       -3.7740     1.0470    -0.8530 H     1 <1>   0.0800 
 26 H       -3.7790     1.6180     0.7850 H     1 <1>   0.0800 
 27 H        4.7180     2.4500    -0.5160 H     1 <1>   0.1500 
 28 H       -3.4260    -2.4510     1.0640 H     1 <1>   0.0800 
 29 H       -3.4120    -3.0900    -0.5640 H     1 <1>   0.0800 
 30 H       -5.7980     0.2900     0.2690 H     1 <1>   0.0800 
 31 H       -4.8590    -0.4160     1.5640 H     1 <1>   0.0800 
 32 H       -5.5340    -2.0750    -0.0710 H     1 <1>   0.4500 
 33 H       -4.7650    -1.2400    -1.2710 H     1 <1>   0.4500 
@<TRIPOS>BOND
  1   1   2  1   
  2   1   3  1   
  3   2   4  ar  
  4   2   5  ar  
  5   3   6  1   
  6   3  17  1   
  7   3  18  1   
  8   4   7  ar  
  9   4  19  1   
 10   5   8  ar  
 11   5  20  1   
 12   6   9  1   
 13   6  10  1   
 14   6  21  1   
 15   7  11  1   
 16   7  12  ar  
 17   8  12  ar  
 18   8  22  1   
 19   9  13  1   
 20   9  23  1   
 21   9  24  1   
 22  10  14  1   
 23  10  25  1   
 24  10  26  1   
 25  11  15  3   
 26  12  27  1   
 27  13  16  1   
 28  13  28  1   
 29  13  29  1   
 30  14  16  1   
 31  14  30  1   
 32  14  31  1   
 33  16  32  1   
 34  16  33  1   
@<TRIPOS>SUBSTRUCTURE
  1 ****   1 GROUP 4 **** **** 0

# MOE 2024.06 (io_trps.svl 2023.06)
