@<TRIPOS>MOLECULE
NONAME
42 44 1 0 0 
SMALL
USER_CHARGES


@<TRIPOS>ATOM
  1 O        1.7780    -1.6280    -0.5280 O.3   1 <1>  -0.6800 
  2 C        2.1340    -2.9780    -0.4210 C.3   1 <1>   0.1200 
  3 C        1.0790    -3.7330     0.4210 C.3   1 <1>   0.4230 
  4 N       -0.2560    -3.2230     0.0270 N.4   1 <1>  -0.9060 
  5 C        1.3070    -3.4790     1.9130 C.3   1 <1>  -0.2400 
  6 C       -1.4350    -3.6600     0.8220 C.3   1 <1>   0.3430 
  7 C       -2.7390    -3.0280     0.2970 C.3   1 <1>   0.0000 
  8 C       -2.6910    -1.4810     0.3800 C.3   1 <1>  -0.1600 
  9 C       -3.9080    -3.5260     1.1790 C.3   1 <1>  -0.1600 
 10 C       -3.0240    -3.4420    -1.1700 C.3   1 <1>  -0.1600 
 11 C       -4.0220    -0.8730    -0.0990 C.3   1 <1>  -0.0800 
 12 C       -5.2450    -2.9260     0.7070 C.3   1 <1>  -0.0800 
 13 C       -4.3560    -2.8370    -1.6510 C.3   1 <1>  -0.0800 
 14 C       -5.1670    -1.3910     0.7900 C.3   1 <1>  -0.1600 
 15 C       -4.2810    -1.3020    -1.5560 C.3   1 <1>  -0.1600 
 16 C       -5.4990    -3.3430    -0.7520 C.3   1 <1>  -0.1600 
 17 H        2.4920    -1.1070    -0.9590 H     1 <1>   0.4000 
 18 H        3.1080    -3.0450     0.0340 H     1 <1>   0.0800 
 19 H        2.1890    -3.3910    -1.4140 H     1 <1>   0.0800 
 20 H        1.1520    -4.7920     0.2280 H     1 <1>   0.0800 
 21 H       -0.4180    -3.4180    -0.9640 H     1 <1>   0.4500 
 22 H       -0.1510    -2.1960     0.0680 H     1 <1>   0.4500 
 23 H        1.1780    -2.4370     2.1510 H     1 <1>   0.0800 
 24 H        2.3140    -3.7550     2.1760 H     1 <1>   0.0800 
 25 H        0.6490    -4.0750     2.5180 H     1 <1>   0.0800 
 26 H       -1.3060    -3.3750     1.8520 H     1 <1>   0.0800 
 27 H       -1.5240    -4.7340     0.7790 H     1 <1>   0.0800 
 28 H       -1.9000    -1.0860    -0.2330 H     1 <1>   0.0800 
 29 H       -2.5070    -1.1680     1.3940 H     1 <1>   0.0800 
 30 H       -3.7450    -3.2480     2.2070 H     1 <1>   0.0800 
 31 H       -3.9750    -4.6000     1.1390 H     1 <1>   0.0800 
 32 H       -3.0760    -4.5140    -1.2500 H     1 <1>   0.0800 
 33 H       -2.2440    -3.0980    -1.8250 H     1 <1>   0.0800 
 34 H       -3.9780     0.2020    -0.0400 H     1 <1>   0.0800 
 35 H       -6.0480    -3.2820     1.3310 H     1 <1>   0.0800 
 36 H       -4.5450    -3.1280    -2.6710 H     1 <1>   0.0800 
 37 H       -6.1000    -0.9620     0.4680 H     1 <1>   0.0800 
 38 H       -5.0070    -1.0860     1.8100 H     1 <1>   0.0800 
 39 H       -5.2060    -0.8720    -1.9000 H     1 <1>   0.0800 
 40 H       -3.4980    -0.9310    -2.1930 H     1 <1>   0.0800 
 41 H       -6.4350    -2.9320    -1.0890 H     1 <1>   0.0800 
 42 H       -5.5740    -4.4150    -0.8200 H     1 <1>   0.0800 
@<TRIPOS>BOND
  1   1   2  1   
  2   1  17  1   
  3   2   3  1   
  4   2  18  1   
  5   2  19  1   
  6   3   4  1   
  7   3   5  1   
  8   3  20  1   
  9   4   6  1   
 10   4  21  1   
 11   4  22  1   
 12   5  23  1   
 13   5  24  1   
 14   5  25  1   
 15   6   7  1   
 16   6  26  1   
 17   6  27  1   
 18   7   8  1   
 19   7   9  1   
 20   7  10  1   
 21   8  11  1   
 22   8  28  1   
 23   8  29  1   
 24   9  12  1   
 25   9  30  1   
 26   9  31  1   
 27  10  13  1   
 28  10  32  1   
 29  10  33  1   
 30  11  14  1   
 31  11  15  1   
 32  11  34  1   
 33  12  14  1   
 34  12  16  1   
 35  12  35  1   
 36  13  15  1   
 37  13  16  1   
 38  13  36  1   
 39  14  37  1   
 40  14  38  1   
 41  15  39  1   
 42  15  40  1   
 43  16  41  1   
 44  16  42  1   
@<TRIPOS>SUBSTRUCTURE
  1 ****   7 GROUP 4 **** **** 0

# MOE 2024.06 (io_trps.svl 2023.06)
