@<TRIPOS>MOLECULE
NONAME
33 33 1 0 0 
SMALL
USER_CHARGES


@<TRIPOS>ATOM
  1 S        0.1820     0.2000     0.1020 S.o2  1 <1>   1.4470 
  2 O        0.4810     0.7270     1.4140 O.2   1 <1>  -0.6500 
  3 O        0.2410     1.0550    -1.0610 O.2   1 <1>  -0.6500 
  4 N        1.3240    -0.9820    -0.2300 N.am  1 <1>  -0.9140 
  5 C       -1.3750    -0.7280     0.1370 C.ar  1 <1>  -0.0090 
  6 C        2.6820    -0.5600     0.1100 C.3   1 <1>   0.1960 
  7 C       -2.4090    -0.4430    -0.7480 C.ar  1 <1>  -0.1500 
  8 C       -1.5710    -1.7550     1.0520 C.ar  1 <1>  -0.1500 
  9 C        3.6810    -1.6610    -0.2480 C.3   1 <1>   0.1200 
 10 C       -3.5940    -1.1580    -0.7220 C.ar  1 <1>  -0.1500 
 11 C       -2.7540    -2.4740     1.0830 C.ar  1 <1>  -0.1500 
 12 O        4.9680    -1.1910     0.0010 O.3   1 <1>  -0.5600 
 13 C       -3.7740    -2.1790     0.1950 C.ar  1 <1>  -0.1430 
 14 C        5.9700    -2.1230    -0.2510 C.3   1 <1>   0.0400 
 15 C       -5.0730    -2.9670     0.2250 C.3   1 <1>  -0.0170 
 16 C       -4.9860    -4.1820    -0.7010 C.3   1 <1>  -0.2400 
 17 H        1.2830    -1.0530    -1.2450 H     1 <1>   0.4200 
 18 H        2.7480    -0.3640     1.1670 H     1 <1>   0.0800 
 19 H        2.9300     0.3400    -0.4290 H     1 <1>   0.0800 
 20 H       -2.2870     0.3500    -1.4680 H     1 <1>   0.1500 
 21 H       -0.7860    -1.9930     1.7490 H     1 <1>   0.1500 
 22 H        3.6080    -1.9130    -1.2910 H     1 <1>   0.0800 
 23 H        3.5060    -2.5310     0.3630 H     1 <1>   0.0800 
 24 H       -4.3770    -0.9160    -1.4210 H     1 <1>   0.1500 
 25 H       -2.8750    -3.2660     1.8020 H     1 <1>   0.1500 
 26 H        6.9170    -1.6630    -0.0310 H     1 <1>   0.0800 
 27 H        5.9380    -2.4100    -1.2880 H     1 <1>   0.0800 
 28 H        5.8270    -2.9800     0.3850 H     1 <1>   0.0800 
 29 H       -5.8880    -2.3350    -0.0830 H     1 <1>   0.0800 
 30 H       -5.2770    -3.2930     1.2310 H     1 <1>   0.0800 
 31 H       -4.8010    -3.8650    -1.7120 H     1 <1>   0.0800 
 32 H       -5.9080    -4.7350    -0.6740 H     1 <1>   0.0800 
 33 H       -4.1850    -4.8280    -0.3900 H     1 <1>   0.0800 
@<TRIPOS>BOND
  1   1   2  2   
  2   1   3  2   
  3   1   4  am  
  4   1   5  1   
  5   4   6  1   
  6   4  17  1   
  7   5   7  ar  
  8   5   8  ar  
  9   6   9  1   
 10   6  18  1   
 11   6  19  1   
 12   7  10  ar  
 13   7  20  1   
 14   8  11  ar  
 15   8  21  1   
 16   9  12  1   
 17   9  22  1   
 18   9  23  1   
 19  10  13  ar  
 20  10  24  1   
 21  11  13  ar  
 22  11  25  1   
 23  12  14  1   
 24  13  15  1   
 25  14  26  1   
 26  14  27  1   
 27  14  28  1   
 28  15  16  1   
 29  15  29  1   
 30  15  30  1   
 31  16  31  1   
 32  16  32  1   
 33  16  33  1   
@<TRIPOS>SUBSTRUCTURE
  1 ****   5 GROUP 4 **** **** 0

# MOE 2024.06 (io_trps.svl 2023.06)
