@<TRIPOS>MOLECULE
NONAME
32 33 1 0 0 
SMALL
USER_CHARGES


@<TRIPOS>ATOM
  1 S       -0.3110    -0.4000     0.2850 S.3   1 <1>  -0.0800 
  2 C        1.1970     0.3300    -0.1520 C.2   1 <1>   0.4620 
  3 C       -0.9960     1.1920     0.2430 C.2   1 <1>   0.1980 
  4 N        1.1140     1.6030    -0.2860 N.2   1 <1>  -0.3380 
  5 N        2.2920    -0.4620    -0.3080 N.pl3 1 <1>  -0.8840 
  6 N       -0.1440     2.0880    -0.0570 N.2   1 <1>  -0.3380 
  7 C       -2.4670     1.3520     0.5730 C.3   1 <1>   0.3000 
  8 O       -3.2440     0.5080    -0.2520 O.3   1 <1>  -0.3630 
  9 C       -4.5930     0.4530    -0.1260 C.ar  1 <1>   0.0830 
 10 C       -5.3250     1.2320     0.7660 C.ar  1 <1>  -0.1500 
 11 C       -5.2590    -0.4430    -0.9460 C.ar  1 <1>  -0.1500 
 12 C       -6.7020     1.1040     0.8280 C.ar  1 <1>  -0.1500 
 13 C       -6.6350    -0.5660    -0.8800 C.ar  1 <1>  -0.1500 
 14 C       -7.3710     0.2060     0.0080 C.ar  1 <1>  -0.1430 
 15 C       -8.8910     0.0830     0.0930 C.3   1 <1>   0.0630 
 16 C       -9.3020    -1.3300     0.5190 C.3   1 <1>  -0.2400 
 17 C       -9.5460     0.4610    -1.2390 C.3   1 <1>  -0.2400 
 18 H        3.1820    -0.0530    -0.5980 H     1 <1>   0.4000 
 19 H        2.2510    -1.4790    -0.2260 H     1 <1>   0.4000 
 20 H       -2.7710     2.3690     0.4000 H     1 <1>   0.0800 
 21 H       -2.6430     1.0800     1.5980 H     1 <1>   0.0800 
 22 H       -4.8520     1.9400     1.4170 H     1 <1>   0.1500 
 23 H       -4.6930    -1.0420    -1.6360 H     1 <1>   0.1500 
 24 H       -7.2540     1.7130     1.5220 H     1 <1>   0.1500 
 25 H       -7.1300    -1.2680    -1.5270 H     1 <1>   0.1500 
 26 H       -9.2530     0.7680     0.8410 H     1 <1>   0.0800 
 27 H       -9.0100    -2.0540    -0.2190 H     1 <1>   0.0800 
 28 H      -10.3680    -1.3840     0.6510 H     1 <1>   0.0800 
 29 H       -8.8280    -1.5820     1.4520 H     1 <1>   0.0800 
 30 H       -9.2590    -0.2240    -2.0160 H     1 <1>   0.0800 
 31 H       -9.2420     1.4520    -1.5270 H     1 <1>   0.0800 
 32 H      -10.6170     0.4460    -1.1450 H     1 <1>   0.0800 
@<TRIPOS>BOND
  1   1   2  1   
  2   1   3  1   
  3   2   4  2   
  4   2   5  1   
  5   3   6  2   
  6   3   7  1   
  7   4   6  1   
  8   5  18  1   
  9   5  19  1   
 10   7   8  1   
 11   7  20  1   
 12   7  21  1   
 13   8   9  1   
 14   9  10  ar  
 15   9  11  ar  
 16  10  12  ar  
 17  10  22  1   
 18  11  13  ar  
 19  11  23  1   
 20  12  14  ar  
 21  12  24  1   
 22  13  14  ar  
 23  13  25  1   
 24  14  15  1   
 25  15  16  1   
 26  15  17  1   
 27  15  26  1   
 28  16  27  1   
 29  16  28  1   
 30  16  29  1   
 31  17  30  1   
 32  17  31  1   
 33  17  32  1   
@<TRIPOS>SUBSTRUCTURE
  1 ****   8 GROUP 4 **** **** 0

# MOE 2024.06 (io_trps.svl 2023.06)
