@<TRIPOS>MOLECULE
NONAME
31 32 1 0 0 
SMALL
USER_CHARGES


@<TRIPOS>ATOM
  1 O       -2.5820     0.5460    -0.2260 O.2   1 <1>  -0.5700 
  2 C       -2.7070    -0.6100     0.0960 C.2   1 <1>   0.6900 
  3 N       -3.1280    -1.0190     1.3090 N.am  1 <1>  -0.4900 
  4 N       -2.4080    -1.6620    -0.6870 N.am  1 <1>  -0.7300 
  5 C       -3.0830    -2.3670     1.4090 C.2   1 <1>   0.5690 
  6 C       -2.5850    -2.9320     0.0570 C.3   1 <1>   0.3610 
  7 O       -3.3750    -2.9830     2.4040 O.2   1 <1>  -0.5700 
  8 C       -1.2360    -3.6990     0.1470 C.3   1 <1>  -0.0800 
  9 C       -3.6630    -3.7520    -0.6760 C.3   1 <1>  -0.1600 
 10 C       -1.4430    -5.1120     0.7390 C.3   1 <1>  -0.1600 
 11 C       -0.1500    -2.9210     0.9280 C.3   1 <1>  -0.0220 
 12 C       -3.8480    -5.1490    -0.0660 C.3   1 <1>  -0.1600 
 13 C       -2.5160    -5.9030    -0.0210 C.3   1 <1>  -0.1600 
 14 C        1.2270    -3.5470     0.7780 C.2   1 <1>  -0.2880 
 15 C        2.2430    -2.9950     0.1080 C.2   1 <1>  -0.3000 
 16 H       -3.3930    -0.3830     2.0520 H     1 <1>   0.3700 
 17 H       -1.9130    -1.5800    -1.5740 H     1 <1>   0.3700 
 18 H       -0.8790    -3.8290    -0.8600 H     1 <1>   0.0800 
 19 H       -3.3760    -3.8670    -1.7060 H     1 <1>   0.0800 
 20 H       -4.6020    -3.2270    -0.6460 H     1 <1>   0.0800 
 21 H       -1.7290    -5.0350     1.7750 H     1 <1>   0.0800 
 22 H       -0.5250    -5.6690     0.6960 H     1 <1>   0.0800 
 23 H       -0.4000    -2.8750     1.9740 H     1 <1>   0.0800 
 24 H       -0.0950    -1.9100     0.5650 H     1 <1>   0.0800 
 25 H       -4.5590    -5.7070    -0.6510 H     1 <1>   0.0800 
 26 H       -4.2440    -5.0620     0.9330 H     1 <1>   0.0800 
 27 H       -2.6620    -6.8560     0.4590 H     1 <1>   0.0800 
 28 H       -2.1770    -6.0920    -1.0250 H     1 <1>   0.0800 
 29 H        1.3210    -4.4970     1.2770 H     1 <1>   0.1500 
 30 H        3.2140    -3.4490     0.0130 H     1 <1>   0.1500 
 31 H        2.1930    -2.0470    -0.4010 H     1 <1>   0.1500 
@<TRIPOS>BOND
  1   1   2  2   
  2   2   3  am  
  3   2   4  am  
  4   3   5  am  
  5   3  16  1   
  6   4   6  1   
  7   4  17  1   
  8   5   6  1   
  9   5   7  2   
 10   6   8  1   
 11   6   9  1   
 12   8  10  1   
 13   8  11  1   
 14   8  18  1   
 15   9  12  1   
 16   9  19  1   
 17   9  20  1   
 18  10  13  1   
 19  10  21  1   
 20  10  22  1   
 21  11  14  1   
 22  11  23  1   
 23  11  24  1   
 24  12  13  1   
 25  12  25  1   
 26  12  26  1   
 27  13  27  1   
 28  13  28  1   
 29  14  15  2   
 30  14  29  1   
 31  15  30  1   
 32  15  31  1   
@<TRIPOS>SUBSTRUCTURE
  1 ****   6 GROUP 4 **** **** 0

# MOE 2024.06 (io_trps.svl 2023.06)
