@<TRIPOS>MOLECULE
NONAME
47 49 1 0 0 
SMALL
USER_CHARGES


@<TRIPOS>ATOM
  1 O       -0.2010    -0.1460     0.0980 O.2   1 <1>  -0.5700 
  2 C       -1.1420     0.6360     0.0030 C.2   1 <1>   0.6160 
  3 N       -2.4370     0.1100    -0.1000 N.am  1 <1>  -0.2860 
  4 C       -0.9620     2.0630    -0.0090 C.2   1 <1>   0.0290 
  5 C       -2.6040    -1.2930     0.0160 C.ar  1 <1>   0.1170 
  6 C       -3.5240     0.9430    -0.2710 C.2   1 <1>  -0.0290 
  7 C        0.3530     2.6600     0.1180 C.2   1 <1>   0.6160 
  8 C       -2.0800     2.8460    -0.1400 C.2   1 <1>  -0.1500 
  9 C       -2.4290    -2.1200    -1.0870 C.ar  1 <1>  -0.1500 
 10 C       -2.9570    -1.8610     1.2340 C.ar  1 <1>  -0.1500 
 11 C       -3.3890     2.3140    -0.2700 C.2   1 <1>   0.0140 
 12 C       -4.9080     0.3030    -0.4500 C.3   1 <1>  -0.0220 
 13 O        0.4590     3.8730     0.0920 O.2   1 <1>  -0.5700 
 14 N        1.4910     1.9170     0.2680 N.am  1 <1>  -0.7300 
 15 C       -2.6160    -3.4870    -0.9780 C.ar  1 <1>  -0.1500 
 16 C       -3.1440    -3.2270     1.3460 C.ar  1 <1>  -0.1500 
 17 C       -4.5150     3.2080    -0.3810 C.2   1 <1>   0.4950 
 18 C       -5.9170     1.2480    -1.1120 C.3   1 <1>  -0.1600 
 19 C        2.8920     2.3200     0.4090 C.3   1 <1>   0.3000 
 20 C       -2.9750    -4.0410     0.2390 C.ar  1 <1>  -0.1500 
 21 O       -4.4230     4.4100    -0.4230 O.2   1 <1>  -0.5700 
 22 C       -5.9130     2.6210    -0.4330 C.3   1 <1>  -0.0990 
 23 C        3.0660     3.1620     1.6730 C.3   1 <1>  -0.2400 
 24 C        3.3420     3.0800    -0.8390 C.3   1 <1>  -0.2400 
 25 C        3.6970     1.0290     0.5400 C.3   1 <1>  -0.2400 
 26 H       -1.9860     3.9220    -0.1490 H     1 <1>   0.1500 
 27 H       -2.1430    -1.6890    -2.0290 H     1 <1>   0.1500 
 28 H       -3.0830    -1.2290     2.0950 H     1 <1>   0.1500 
 29 H       -5.2770    -0.0020     0.5140 H     1 <1>   0.0800 
 30 H       -4.8410    -0.5760    -1.0670 H     1 <1>   0.0800 
 31 H        1.3580     0.8970     0.2730 H     1 <1>   0.3700 
 32 H       -2.4770    -4.1200    -1.8370 H     1 <1>   0.1500 
 33 H       -3.4180    -3.6590     2.2930 H     1 <1>   0.1500 
 34 H       -6.9030     0.8190    -1.0710 H     1 <1>   0.0800 
 35 H       -5.6530     1.3710    -2.1490 H     1 <1>   0.0800 
 36 H       -3.1190    -5.1050     0.3250 H     1 <1>   0.1500 
 37 H       -6.5570     3.2930    -0.9730 H     1 <1>   0.0800 
 38 H       -6.2850     2.5390     0.5720 H     1 <1>   0.0800 
 39 H        2.7020     2.6290     2.5330 H     1 <1>   0.0800 
 40 H        2.5320     4.0910     1.5870 H     1 <1>   0.0800 
 41 H        4.1040     3.3900     1.8260 H     1 <1>   0.0800 
 42 H        2.8090     4.0090    -0.9300 H     1 <1>   0.0800 
 43 H        3.1700     2.4900    -1.7200 H     1 <1>   0.0800 
 44 H        4.3910     3.3050    -0.7760 H     1 <1>   0.0800 
 45 H        3.5740     0.4160    -0.3360 H     1 <1>   0.0800 
 46 H        3.3820     0.4730     1.4050 H     1 <1>   0.0800 
 47 H        4.7430     1.2540     0.6480 H     1 <1>   0.0800 
@<TRIPOS>BOND
  1   1   2  2   
  2   2   3  am  
  3   2   4  1   
  4   3   5  1   
  5   3   6  1   
  6   4   7  1   
  7   4   8  2   
  8   5   9  ar  
  9   5  10  ar  
 10   6  11  2   
 11   6  12  1   
 12   7  13  2   
 13   7  14  am  
 14   8  11  1   
 15   8  26  1   
 16   9  15  ar  
 17   9  27  1   
 18  10  16  ar  
 19  10  28  1   
 20  11  17  1   
 21  12  18  1   
 22  12  29  1   
 23  12  30  1   
 24  14  19  1   
 25  14  31  1   
 26  15  20  ar  
 27  15  32  1   
 28  16  20  ar  
 29  16  33  1   
 30  17  21  2   
 31  17  22  1   
 32  18  22  1   
 33  18  34  1   
 34  18  35  1   
 35  19  23  1   
 36  19  24  1   
 37  19  25  1   
 38  20  36  1   
 39  22  37  1   
 40  22  38  1   
 41  23  39  1   
 42  23  40  1   
 43  23  41  1   
 44  24  42  1   
 45  24  43  1   
 46  24  44  1   
 47  25  45  1   
 48  25  46  1   
 49  25  47  1   
@<TRIPOS>SUBSTRUCTURE
  1 ****   2 GROUP 4 **** **** 0

# MOE 2024.06 (io_trps.svl 2023.06)
