@<TRIPOS>MOLECULE
NONAME
53 55 1 0 0 
SMALL
USER_CHARGES


@<TRIPOS>ATOM
  1 O        4.5570    -9.8360     1.7540 O.2   1 <1>  -0.5700 
  2 C        4.2940    -8.7510     1.2920 C.2   1 <1>   0.5690 
  3 N        3.0330    -8.4950     0.7910 N.am  1 <1>  -0.6600 
  4 C        5.3990    -7.6950     1.3240 C.3   1 <1>   0.1810 
  5 C        2.0690    -9.6190     0.5650 C.3   1 <1>   0.1400 
  6 C        2.5650    -7.1510     0.3230 C.3   1 <1>   0.1400 
  7 O        5.5090    -7.0180     0.0800 O.3   1 <1>  -0.3620 
  8 C        0.6560    -9.2620     1.0560 C.3   1 <1>   0.3430 
  9 C        1.1280    -6.8510     0.7940 C.3   1 <1>   0.3430 
 10 C        6.3060    -5.9300    -0.0580 C.ar  1 <1>   0.0820 
 11 N        0.1690    -7.9660     0.4640 N.4   1 <1>  -0.9590 
 12 C        6.2460    -5.2640    -1.2710 C.ar  1 <1>  -0.1500 
 13 C        7.1570    -5.4600     0.9380 C.ar  1 <1>  -0.1500 
 14 C       -1.2210    -7.6630     0.9160 C.3   1 <1>   0.3430 
 15 C        7.0110    -4.1320    -1.4880 C.ar  1 <1>  -0.1500 
 16 C        7.9210    -4.3270     0.7160 C.ar  1 <1>  -0.1500 
 17 C       -2.0860    -7.1440    -0.2430 C.3   1 <1>  -0.0800 
 18 C        7.8510    -3.6560    -0.4940 C.ar  1 <1>  -0.1440 
 19 C       -1.5790    -5.8040    -0.8200 C.3   1 <1>  -0.0220 
 20 C       -3.5500    -7.0060     0.2210 C.3   1 <1>  -0.1600 
 21 C        8.6920    -2.4150    -0.7320 C.3   1 <1>  -0.0970 
 22 C       -2.5980    -5.1880    -1.7600 C.2   1 <1>  -0.2880 
 23 C       -4.4820    -6.6520    -0.9480 C.3   1 <1>  -0.0220 
 24 C       -3.8750    -5.5700    -1.8230 C.2   1 <1>  -0.2880 
 25 H        6.3430    -8.1680     1.5290 H     1 <1>   0.0800 
 26 H        5.1800    -6.9760     2.0910 H     1 <1>   0.0800 
 27 H        2.3950   -10.5080     1.0790 H     1 <1>   0.0800 
 28 H        2.0420    -9.8510    -0.4860 H     1 <1>   0.0800 
 29 H        2.6130    -7.1160    -0.7520 H     1 <1>   0.0800 
 30 H        3.2060    -6.3750     0.7020 H     1 <1>   0.0800 
 31 H        0.6790    -9.1880     2.1310 H     1 <1>   0.0800 
 32 H       -0.0160   -10.0620     0.7940 H     1 <1>   0.0800 
 33 H        0.7980    -5.9320     0.3390 H     1 <1>   0.0800 
 34 H        1.1470    -6.6980     1.8610 H     1 <1>   0.0800 
 35 H        0.1530    -8.0840    -0.5580 H     1 <1>   0.4500 
 36 H        5.6000    -5.6340    -2.0460 H     1 <1>   0.1500 
 37 H        7.2470    -5.9560     1.8850 H     1 <1>   0.1500 
 38 H       -1.2080    -6.9410     1.7160 H     1 <1>   0.0800 
 39 H       -1.6800    -8.5620     1.2950 H     1 <1>   0.0800 
 40 H        6.9540    -3.6260    -2.4360 H     1 <1>   0.1500 
 41 H        8.5770    -3.9690     1.4900 H     1 <1>   0.1500 
 42 H       -2.0760    -7.8790    -1.0290 H     1 <1>   0.0800 
 43 H       -0.6690    -5.9640    -1.3700 H     1 <1>   0.0800 
 44 H       -1.3850    -5.0990    -0.0300 H     1 <1>   0.0800 
 45 H       -3.6190    -6.2260     0.9610 H     1 <1>   0.0800 
 46 H       -3.8960    -7.9210     0.6710 H     1 <1>   0.0800 
 47 H        9.6480    -2.6960    -1.1370 H     1 <1>   0.0800 
 48 H        8.8480    -1.8830     0.1890 H     1 <1>   0.0800 
 49 H        8.2030    -1.7550    -1.4250 H     1 <1>   0.0800 
 50 H       -2.1970    -4.4000    -2.3780 H     1 <1>   0.1500 
 51 H       -5.4260    -6.3120    -0.5570 H     1 <1>   0.0800 
 52 H       -4.6680    -7.5230    -1.5520 H     1 <1>   0.0800 
 53 H       -4.5830    -5.1330    -2.5090 H     1 <1>   0.1500 
@<TRIPOS>BOND
  1   1   2  2   
  2   2   3  am  
  3   2   4  1   
  4   3   5  1   
  5   3   6  1   
  6   4   7  1   
  7   4  25  1   
  8   4  26  1   
  9   5   8  1   
 10   5  27  1   
 11   5  28  1   
 12   6   9  1   
 13   6  29  1   
 14   6  30  1   
 15   7  10  1   
 16   8  11  1   
 17   8  31  1   
 18   8  32  1   
 19   9  11  1   
 20   9  33  1   
 21   9  34  1   
 22  10  12  ar  
 23  10  13  ar  
 24  11  14  1   
 25  11  35  1   
 26  12  15  ar  
 27  12  36  1   
 28  13  16  ar  
 29  13  37  1   
 30  14  17  1   
 31  14  38  1   
 32  14  39  1   
 33  15  18  ar  
 34  15  40  1   
 35  16  18  ar  
 36  16  41  1   
 37  17  19  1   
 38  17  20  1   
 39  17  42  1   
 40  18  21  1   
 41  19  22  1   
 42  19  43  1   
 43  19  44  1   
 44  20  23  1   
 45  20  45  1   
 46  20  46  1   
 47  21  47  1   
 48  21  48  1   
 49  21  49  1   
 50  22  24  2   
 51  22  50  1   
 52  23  24  1   
 53  23  51  1   
 54  23  52  1   
 55  24  53  1   
@<TRIPOS>SUBSTRUCTURE
  1 ****   6 GROUP 4 **** **** 0

# MOE 2024.06 (io_trps.svl 2023.06)
