@<TRIPOS>MOLECULE
NONAME
32 33 1 0 0 
SMALL
USER_CHARGES


@<TRIPOS>ATOM
  1 S        1.0410    -1.1670    -1.8600 S.3   1 <1>  -0.4600 
  2 C        1.5320     0.3730    -1.0270 C.3   1 <1>   0.0700 
  3 C        0.5790    -2.2410    -0.4630 C.3   1 <1>   0.0700 
  4 C        2.6840     0.0990    -0.0420 C.3   1 <1>   0.3430 
  5 C        1.3870    -1.8790     0.7990 C.3   1 <1>   0.3430 
  6 N        2.7340    -1.3290     0.4420 N.4   1 <1>  -0.9590 
  7 C        3.7490    -1.5270     1.5130 C.3   1 <1>   0.4860 
  8 C        5.0980    -1.0700     0.9950 C.ar  1 <1>  -0.1430 
  9 C        5.7580    -1.8000     0.0160 C.ar  1 <1>  -0.1500 
 10 C        5.6770     0.0900     1.4890 C.ar  1 <1>  -0.1500 
 11 C        6.9770    -1.3710    -0.4790 C.ar  1 <1>  -0.1430 
 12 C        6.8960     0.5190     0.9980 C.ar  1 <1>  -0.1500 
 13 C        7.5430    -0.2090     0.0160 C.ar  1 <1>  -0.1500 
 14 C        7.6990    -2.1700    -1.5500 C.3   1 <1>  -0.0970 
 15 H        0.6620     0.7470    -0.5150 H     1 <1>   0.0800 
 16 H        1.8250     1.0780    -1.7860 H     1 <1>   0.0800 
 17 H        0.7740    -3.2530    -0.7720 H     1 <1>   0.0800 
 18 H       -0.4770    -2.1230    -0.2940 H     1 <1>   0.0800 
 19 H        2.5940     0.7710     0.7950 H     1 <1>   0.0800 
 20 H        3.6150     0.3280    -0.5390 H     1 <1>   0.0800 
 21 H        1.4910    -2.7640     1.4050 H     1 <1>   0.0800 
 22 H        0.8420    -1.1470     1.3720 H     1 <1>   0.0800 
 23 H        3.0580    -1.8630    -0.3790 H     1 <1>   0.4500 
 24 H        3.8080    -2.5680     1.7840 H     1 <1>   0.0800 
 25 H        3.4830    -0.9580     2.3890 H     1 <1>   0.0800 
 26 H        5.3340    -2.7120    -0.3700 H     1 <1>   0.1500 
 27 H        5.1950     0.6710     2.2570 H     1 <1>   0.1500 
 28 H        7.3500     1.4190     1.3810 H     1 <1>   0.1500 
 29 H        8.4930     0.1330    -0.3580 H     1 <1>   0.1500 
 30 H        6.9970    -2.6930    -2.1740 H     1 <1>   0.0800 
 31 H        8.3560    -2.8860    -1.0900 H     1 <1>   0.0800 
 32 H        8.2840    -1.5190    -2.1750 H     1 <1>   0.0800 
@<TRIPOS>BOND
  1   1   2  1   
  2   1   3  1   
  3   2   4  1   
  4   2  15  1   
  5   2  16  1   
  6   3   5  1   
  7   3  17  1   
  8   3  18  1   
  9   4   6  1   
 10   4  19  1   
 11   4  20  1   
 12   5   6  1   
 13   5  21  1   
 14   5  22  1   
 15   6   7  1   
 16   6  23  1   
 17   7   8  1   
 18   7  24  1   
 19   7  25  1   
 20   8   9  ar  
 21   8  10  ar  
 22   9  11  ar  
 23   9  26  1   
 24  10  12  ar  
 25  10  27  1   
 26  11  13  ar  
 27  11  14  1   
 28  12  13  ar  
 29  12  28  1   
 30  13  29  1   
 31  14  30  1   
 32  14  31  1   
 33  14  32  1   
@<TRIPOS>SUBSTRUCTURE
  1 ****   8 GROUP 4 **** **** 0

# MOE 2024.06 (io_trps.svl 2023.06)
