@<TRIPOS>MOLECULE
NONAME
42 44 1 0 0 
SMALL
USER_CHARGES


@<TRIPOS>ATOM
  1 S       -0.0430     0.4100    -0.7230 S.o2  1 <1>   1.5010 
  2 O        0.2620     0.6460    -2.1180 O.2   1 <1>  -0.6500 
  3 O       -0.1170     1.5290     0.1920 O.2   1 <1>  -0.6500 
  4 N        1.1460    -0.6390    -0.1280 N.am  1 <1>  -0.8490 
  5 C       -1.5370    -0.5780    -0.5890 C.2   1 <1>  -0.0630 
  6 C        2.4030     0.0800     0.1610 C.3   1 <1>   0.1960 
  7 C        1.4200    -1.7630    -1.0480 C.3   1 <1>   0.1960 
  8 C       -2.3730    -0.8740    -1.6560 C.2   1 <1>   0.1390 
  9 C       -2.1210    -1.2070     0.4620 C.2   1 <1>  -0.3020 
 10 C        3.4860    -0.8480     0.7450 C.3   1 <1>   0.2090 
 11 C        2.4730    -2.7340    -0.4800 C.3   1 <1>   0.2090 
 12 N       -3.3780    -1.6220    -1.3140 N.2   1 <1>  -0.7070 
 13 N       -3.2240    -1.8260     0.0050 N.pl3 1 <1>   0.3140 
 14 N        3.7410    -2.0160    -0.1520 N.pl3 1 <1>  -0.8380 
 15 C       -4.1760    -2.6350     0.7920 C.3   1 <1>   0.0960 
 16 C        4.8340    -2.8230     0.1870 C.ar  1 <1>   0.1000 
 17 C       -3.6190    -4.0380     1.0620 C.3   1 <1>  -0.2400 
 18 C        4.9180    -3.6240     1.3340 C.ar  1 <1>   0.1900 
 19 C        5.9260    -2.8430    -0.6710 C.ar  1 <1>  -0.1500 
 20 F        3.9200    -3.6510     2.1860 F     1 <1>  -0.1900 
 21 C        6.0210    -4.4040     1.6230 C.ar  1 <1>  -0.1500 
 22 C        7.0410    -3.6190    -0.3990 C.ar  1 <1>  -0.1500 
 23 C        7.0930    -4.4000     0.7450 C.ar  1 <1>  -0.1500 
 24 H        2.2120     0.8660     0.8720 H     1 <1>   0.0800 
 25 H        2.7810     0.5340    -0.7400 H     1 <1>   0.0800 
 26 H        1.7770    -1.3890    -1.9940 H     1 <1>   0.0800 
 27 H        0.5120    -2.3120    -1.2280 H     1 <1>   0.0800 
 28 H       -2.2100    -0.5260    -2.6640 H     1 <1>   0.1500 
 29 H       -1.8050    -1.2410     1.4890 H     1 <1>   0.1500 
 30 H        3.1670    -1.1950     1.7120 H     1 <1>   0.0800 
 31 H        4.4000    -0.2940     0.8720 H     1 <1>   0.0800 
 32 H        2.6800    -3.5020    -1.2050 H     1 <1>   0.0800 
 33 H        2.0800    -3.2030     0.4050 H     1 <1>   0.0800 
 34 H       -5.0950    -2.7050     0.2380 H     1 <1>   0.0800 
 35 H       -4.3730    -2.1260     1.7180 H     1 <1>   0.0800 
 36 H       -3.4300    -4.5440     0.1310 H     1 <1>   0.0800 
 37 H       -4.3340    -4.6120     1.6230 H     1 <1>   0.0800 
 38 H       -2.7060    -3.9790     1.6280 H     1 <1>   0.0800 
 39 H        5.8900    -2.2380    -1.5590 H     1 <1>   0.1500 
 40 H        6.0400    -5.0020     2.5150 H     1 <1>   0.1500 
 41 H        7.8740    -3.6150    -1.0820 H     1 <1>   0.1500 
 42 H        7.9620    -5.0010     0.9510 H     1 <1>   0.1500 
@<TRIPOS>BOND
  1   1   2  2   
  2   1   3  2   
  3   1   4  am  
  4   1   5  1   
  5   4   6  1   
  6   4   7  1   
  7   5   8  1   
  8   5   9  2   
  9   6  10  1   
 10   6  24  1   
 11   6  25  1   
 12   7  11  1   
 13   7  26  1   
 14   7  27  1   
 15   8  12  2   
 16   8  28  1   
 17   9  13  1   
 18   9  29  1   
 19  10  14  1   
 20  10  30  1   
 21  10  31  1   
 22  11  14  1   
 23  11  32  1   
 24  11  33  1   
 25  12  13  1   
 26  13  15  1   
 27  14  16  1   
 28  15  17  1   
 29  15  34  1   
 30  15  35  1   
 31  16  18  ar  
 32  16  19  ar  
 33  17  36  1   
 34  17  37  1   
 35  17  38  1   
 36  18  20  1   
 37  18  21  ar  
 38  19  22  ar  
 39  19  39  1   
 40  21  23  ar  
 41  21  40  1   
 42  22  23  ar  
 43  22  41  1   
 44  23  42  1   
@<TRIPOS>SUBSTRUCTURE
  1 ****   7 GROUP 4 **** **** 0

# MOE 2024.06 (io_trps.svl 2023.06)
