@<TRIPOS>MOLECULE
NONAME
40 41 1 0 0 
SMALL
USER_CHARGES


@<TRIPOS>ATOM
  1 O        0.7790    -0.5110     0.0540 O.3   1 <1>  -0.3630 
  2 C       -0.4680    -1.0250     0.2230 C.ar  1 <1>   0.0820 
  3 C        1.7630    -0.6120     1.0610 C.3   1 <1>   0.1200 
  4 C       -1.3730    -0.8780    -0.8260 C.ar  1 <1>  -0.1440 
  5 C       -0.8650    -1.6810     1.3870 C.ar  1 <1>  -0.1500 
  6 C        3.0340     0.0590     0.5550 C.3   1 <1>   0.1200 
  7 C       -2.6570    -1.3860    -0.7000 C.ar  1 <1>  -0.1500 
  8 C       -0.9650    -0.1660    -2.1080 C.3   1 <1>  -0.0960 
  9 C       -2.1480    -2.1830     1.5010 C.ar  1 <1>  -0.1500 
 10 O        4.0200    -0.0410     1.5600 O.3   1 <1>  -0.3620 
 11 C       -3.0440    -2.0360     0.4580 C.ar  1 <1>  -0.1500 
 12 C        5.2600     0.4780     1.3720 C.ar  1 <1>   0.0820 
 13 C        5.6570     1.1340     0.2110 C.ar  1 <1>  -0.1500 
 14 C        6.1620     0.3310     2.4140 C.ar  1 <1>  -0.1500 
 15 C        6.9420     1.6360     0.0950 C.ar  1 <1>   0.0820 
 16 C        7.4480     0.8310     2.3040 C.ar  1 <1>  -0.1500 
 17 O        7.2450     2.2610    -1.0710 O.3   1 <1>  -0.3630 
 18 C        7.8410     1.4840     1.1480 C.ar  1 <1>  -0.1500 
 19 C        8.5220     2.8100    -1.2980 C.3   1 <1>   0.1200 
 20 C        8.5270     3.4320    -2.6910 C.3   1 <1>  -0.2400 
 21 H        1.9430    -1.6550     1.2550 H     1 <1>   0.0800 
 22 H        1.4000    -0.1110     1.9400 H     1 <1>   0.0800 
 23 H       -0.1930    -1.8110     2.2130 H     1 <1>   0.1500 
 24 H        2.8530     1.1010     0.3590 H     1 <1>   0.0800 
 25 H        3.3950    -0.4410    -0.3260 H     1 <1>   0.0800 
 26 H       -3.3630    -1.2780    -1.5040 H     1 <1>   0.1500 
 27 H       -0.1340    -0.6780    -2.5580 H     1 <1>   0.0800 
 28 H       -0.6690     0.8430    -1.8840 H     1 <1>   0.0800 
 29 H       -1.7750    -0.1380    -2.8130 H     1 <1>   0.0800 
 30 H       -2.4520    -2.6890     2.4010 H     1 <1>   0.1500 
 31 H       -4.0430    -2.4270     0.5460 H     1 <1>   0.1500 
 32 H        4.9920     1.2690    -0.6190 H     1 <1>   0.1500 
 33 H        5.8500    -0.1760     3.3090 H     1 <1>   0.1500 
 34 H        8.1410     0.7120     3.1180 H     1 <1>   0.1500 
 35 H        8.8430     1.8620     1.0870 H     1 <1>   0.1500 
 36 H        9.2500     2.0200    -1.2310 H     1 <1>   0.0800 
 37 H        8.7100     3.5580    -0.5470 H     1 <1>   0.0800 
 38 H        8.3220     2.6800    -3.4320 H     1 <1>   0.0800 
 39 H        9.4910     3.8610    -2.8950 H     1 <1>   0.0800 
 40 H        7.7850     4.2080    -2.7520 H     1 <1>   0.0800 
@<TRIPOS>BOND
  1   1   2  1   
  2   1   3  1   
  3   2   4  ar  
  4   2   5  ar  
  5   3   6  1   
  6   3  21  1   
  7   3  22  1   
  8   4   7  ar  
  9   4   8  1   
 10   5   9  ar  
 11   5  23  1   
 12   6  10  1   
 13   6  24  1   
 14   6  25  1   
 15   7  11  ar  
 16   7  26  1   
 17   8  27  1   
 18   8  28  1   
 19   8  29  1   
 20   9  11  ar  
 21   9  30  1   
 22  10  12  1   
 23  11  31  1   
 24  12  13  ar  
 25  12  14  ar  
 26  13  15  ar  
 27  13  32  1   
 28  14  16  ar  
 29  14  33  1   
 30  15  17  1   
 31  15  18  ar  
 32  16  18  ar  
 33  16  34  1   
 34  17  19  1   
 35  18  35  1   
 36  19  20  1   
 37  19  36  1   
 38  19  37  1   
 39  20  38  1   
 40  20  39  1   
 41  20  40  1   
@<TRIPOS>SUBSTRUCTURE
  1 ****   6 GROUP 4 **** **** 0

# MOE 2024.06 (io_trps.svl 2023.06)
