@<TRIPOS>MOLECULE
NONAME
28 28 1 0 0 
SMALL
USER_CHARGES


@<TRIPOS>ATOM
  1 S       -0.2240     0.2120    -1.1260 S.3   1 <1>  -0.3320 
  2 C       -1.6240     1.1210    -0.4580 C.ar  1 <1>   0.4120 
  3 C        1.2570     0.7490    -0.1580 C.3   1 <1>   0.0700 
  4 N       -2.6080     0.3270    -0.0910 N.ar  1 <1>  -0.6200 
  5 C       -1.6200     2.5120    -0.3720 C.ar  1 <1>   0.0730 
  6 C        2.1960    -0.4500    -0.0490 C.3   1 <1>  -0.2400 
  7 C       -3.6710     0.9210     0.4070 C.ar  1 <1>   0.4100 
  8 C       -0.5070     3.2670    -0.8610 C.1   1 <1>   0.4840 
  9 C       -2.7430     3.1290     0.1810 C.ar  1 <1>  -0.1440 
 10 N       -4.6450     0.0330     0.7470 N.pl3 1 <1>  -0.9000 
 11 C       -3.7960     2.3080     0.5740 C.ar  1 <1>   0.0730 
 12 N        0.3750     3.8980    -1.2140 N.1   1 <1>  -0.5570 
 13 C       -2.8240     4.6560     0.3320 C.3   1 <1>  -0.0170 
 14 C       -5.0100     2.8180     1.1370 C.1   1 <1>   0.4840 
 15 C       -3.4180     5.2880    -0.9280 C.3   1 <1>  -0.2400 
 16 N       -5.9670     3.2270     1.6030 N.1   1 <1>  -0.5570 
 17 H        0.9190     1.0730     0.8110 H     1 <1>   0.0800 
 18 H        1.7220     1.5610    -0.6890 H     1 <1>   0.0800 
 19 H        1.7020    -1.2630     0.4540 H     1 <1>   0.0800 
 20 H        3.0740    -0.1800     0.5090 H     1 <1>   0.0800 
 21 H        2.4960    -0.7750    -1.0290 H     1 <1>   0.0800 
 22 H       -5.3980     0.2540     1.4040 H     1 <1>   0.4000 
 23 H       -4.3900    -0.9560     0.6810 H     1 <1>   0.4000 
 24 H       -1.8500     5.0780     0.5160 H     1 <1>   0.0800 
 25 H       -3.4280     4.9290     1.1810 H     1 <1>   0.0800 
 26 H       -2.8050     5.0720    -1.7860 H     1 <1>   0.0800 
 27 H       -3.4730     6.3560    -0.8120 H     1 <1>   0.0800 
 28 H       -4.4110     4.9140    -1.1080 H     1 <1>   0.0800 
@<TRIPOS>BOND
  1   1   2  1   
  2   1   3  1   
  3   2   4  ar  
  4   2   5  ar  
  5   3   6  1   
  6   3  17  1   
  7   3  18  1   
  8   4   7  ar  
  9   5   8  1   
 10   5   9  ar  
 11   6  19  1   
 12   6  20  1   
 13   6  21  1   
 14   7  10  1   
 15   7  11  ar  
 16   8  12  3   
 17   9  11  ar  
 18   9  13  1   
 19  10  22  1   
 20  10  23  1   
 21  11  14  1   
 22  13  15  1   
 23  13  24  1   
 24  13  25  1   
 25  14  16  3   
 26  15  26  1   
 27  15  27  1   
 28  15  28  1   
@<TRIPOS>SUBSTRUCTURE
  1 ****   5 GROUP 4 **** **** 0

# MOE 2024.06 (io_trps.svl 2023.06)
