@<TRIPOS>MOLECULE
NONAME
44 47 1 0 0 
SMALL
USER_CHARGES


@<TRIPOS>ATOM
  1 O        2.7950     3.9410    -0.3920 O.2   1 <1>  -0.5700 
  2 C        2.0360     2.9890    -0.3650 C.2   1 <1>   0.7150 
  3 N        2.5990     1.7410    -0.5780 N.am  1 <1>  -0.6600 
  4 C        0.6180     3.1790    -0.1030 C.2   1 <1>   0.0550 
  5 C        3.8770     1.5890    -1.3390 C.3   1 <1>   0.1400 
  6 C        2.0880     0.4880     0.0590 C.3   1 <1>   0.1400 
  7 O       -0.2390     2.1890    -0.4000 O.3   1 <1>  -0.2800 
  8 C       -0.0830     4.2310     0.4070 C.2   1 <1>  -0.1810 
  9 C        4.9510     0.9130    -0.4700 C.3   1 <1>   0.3430 
 10 C        3.1920    -0.2120     0.8760 C.3   1 <1>   0.3430 
 11 C       -1.4720     2.5810    -0.0810 C.ar  1 <1>   0.1400 
 12 C       -1.4420     3.8640     0.4290 C.ar  1 <1>   0.0000 
 13 C        0.3980     5.5900     0.8910 C.3   1 <1>  -0.0590 
 14 N        4.4660    -0.3990     0.0930 N.4   1 <1>  -0.9590 
 15 C       -2.6580     1.8640    -0.2010 C.ar  1 <1>   0.0830 
 16 C       -2.6350     4.4750     0.8270 C.ar  1 <1>  -0.1500 
 17 C        5.5210    -1.0430     0.9330 C.3   1 <1>   0.2630 
 18 O       -2.6450     0.5850    -0.6770 O.3   1 <1>  -0.3630 
 19 C       -3.8410     2.4850     0.1860 C.ar  1 <1>   0.0830 
 20 C       -3.8230     3.7830     0.7020 C.ar  1 <1>  -0.1500 
 21 C       -3.8250    -0.1720    -0.4850 C.3   1 <1>   0.1200 
 22 O       -5.0350     1.8530     0.0690 O.3   1 <1>  -0.3630 
 23 C       -5.0670     0.6930    -0.7430 C.3   1 <1>   0.1200 
 24 H        4.2410     2.5480    -1.6670 H     1 <1>   0.0800 
 25 H        3.6950     0.9990    -2.2200 H     1 <1>   0.0800 
 26 H        1.7130    -0.1720    -0.7040 H     1 <1>   0.0800 
 27 H        1.2750     0.7090     0.7290 H     1 <1>   0.0800 
 28 H        5.2080     1.5840     0.3330 H     1 <1>   0.0800 
 29 H        5.8350     0.7540    -1.0660 H     1 <1>   0.0800 
 30 H        2.8240    -1.1670     1.2140 H     1 <1>   0.0800 
 31 H        3.3930     0.3880     1.7490 H     1 <1>   0.0800 
 32 H        1.4690     5.6620     0.8620 H     1 <1>   0.0800 
 33 H        0.0740     5.7530     1.9030 H     1 <1>   0.0800 
 34 H       -0.0120     6.3640     0.2670 H     1 <1>   0.0800 
 35 H        4.2520    -1.0170    -0.7030 H     1 <1>   0.4500 
 36 H       -2.6140     5.4740     1.2230 H     1 <1>   0.1500 
 37 H        5.7650    -0.4140     1.7750 H     1 <1>   0.0800 
 38 H        6.4160    -1.2040     0.3530 H     1 <1>   0.0800 
 39 H        5.1780    -1.9950     1.3030 H     1 <1>   0.0800 
 40 H       -4.7550     4.2320     0.9980 H     1 <1>   0.1500 
 41 H       -3.8290    -0.5360     0.5270 H     1 <1>   0.0800 
 42 H       -3.7960    -1.0080    -1.1610 H     1 <1>   0.0800 
 43 H       -5.9670     0.1520    -0.5120 H     1 <1>   0.0800 
 44 H       -5.0980     1.0060    -1.7720 H     1 <1>   0.0800 
@<TRIPOS>BOND
  1   1   2  2   
  2   2   3  am  
  3   2   4  1   
  4   3   5  1   
  5   3   6  1   
  6   4   7  1   
  7   4   8  2   
  8   5   9  1   
  9   5  24  1   
 10   5  25  1   
 11   6  10  1   
 12   6  26  1   
 13   6  27  1   
 14   7  11  1   
 15   8  12  1   
 16   8  13  1   
 17   9  14  1   
 18   9  28  1   
 19   9  29  1   
 20  10  14  1   
 21  10  30  1   
 22  10  31  1   
 23  11  12  ar  
 24  11  15  ar  
 25  12  16  ar  
 26  13  32  1   
 27  13  33  1   
 28  13  34  1   
 29  14  17  1   
 30  14  35  1   
 31  15  18  1   
 32  15  19  ar  
 33  16  20  ar  
 34  16  36  1   
 35  17  37  1   
 36  17  38  1   
 37  17  39  1   
 38  18  21  1   
 39  19  20  ar  
 40  19  22  1   
 41  20  40  1   
 42  21  23  1   
 43  21  41  1   
 44  21  42  1   
 45  22  23  1   
 46  23  43  1   
 47  23  44  1   
@<TRIPOS>SUBSTRUCTURE
  1 ****   7 GROUP 4 **** **** 0

# MOE 2024.06 (io_trps.svl 2023.06)
