@<TRIPOS>MOLECULE
NONAME
43 44 1 0 0 
SMALL
USER_CHARGES


@<TRIPOS>ATOM
  1 O       -0.2890     0.0330    -0.3560 O.3   1 <1>  -0.3630 
  2 C       -1.5110    -0.5520    -0.2950 C.ar  1 <1>   0.0830 
  3 C       -0.1080     1.3900    -0.0400 C.3   1 <1>   0.1200 
  4 C       -2.6740     0.1140     0.0870 C.ar  1 <1>  -0.1500 
  5 C       -1.5770    -1.8920    -0.6400 C.ar  1 <1>  -0.1500 
  6 C        1.3780     1.7070    -0.2200 C.3   1 <1>  -0.1600 
  7 C       -3.8860    -0.5570     0.1230 C.ar  1 <1>  -0.1440 
  8 C       -2.7840    -2.5640    -0.6080 C.ar  1 <1>  -0.1500 
  9 C        1.6960     3.1760     0.0930 C.3   1 <1>  -0.1600 
 10 C       -3.9360    -1.8980    -0.2270 C.ar  1 <1>  -0.1500 
 11 C       -5.1530     0.1690     0.5380 C.3   1 <1>  -0.0970 
 12 C        3.1910     3.4450    -0.0940 C.3   1 <1>   0.3430 
 13 N        3.5310     4.8390     0.2990 N.4   1 <1>  -0.9590 
 14 C        3.0030     5.8590    -0.6800 C.3   1 <1>   0.3430 
 15 C        5.0220     4.9950     0.4530 C.3   1 <1>   0.3430 
 16 C        3.4190     7.2950    -0.2940 C.3   1 <1>   0.1100 
 17 C        5.4140     6.4400     0.8280 C.3   1 <1>   0.1100 
 18 N        4.8780     7.4060    -0.1420 N.3   1 <1>  -0.9000 
 19 H       -0.4170     1.5430     0.9800 H     1 <1>   0.0800 
 20 H       -0.7150     1.9760    -0.7090 H     1 <1>   0.0800 
 21 H       -2.6540     1.1510     0.3580 H     1 <1>   0.1500 
 22 H       -0.6780    -2.4020    -0.9340 H     1 <1>   0.1500 
 23 H        1.6510     1.4850    -1.2380 H     1 <1>   0.0800 
 24 H        1.9430     1.0650     0.4340 H     1 <1>   0.0800 
 25 H       -2.8280    -3.6050    -0.8780 H     1 <1>   0.1500 
 26 H        1.4140     3.3840     1.1110 H     1 <1>   0.0800 
 27 H        1.1190     3.8010    -0.5670 H     1 <1>   0.0800 
 28 H       -4.8720    -2.4280    -0.2060 H     1 <1>   0.1500 
 29 H       -4.9290     0.9390     1.2540 H     1 <1>   0.0800 
 30 H       -5.8500    -0.5170     0.9860 H     1 <1>   0.0800 
 31 H       -5.6130     0.6180    -0.3240 H     1 <1>   0.0800 
 32 H        3.4700     3.2720    -1.1210 H     1 <1>   0.0800 
 33 H        3.7440     2.7530     0.5220 H     1 <1>   0.0800 
 34 H        3.1090     5.0380     1.2140 H     1 <1>   0.4500 
 35 H        1.9290     5.8070    -0.7270 H     1 <1>   0.0800 
 36 H        3.3900     5.6500    -1.6640 H     1 <1>   0.0800 
 37 H        5.5090     4.7450    -0.4760 H     1 <1>   0.0800 
 38 H        5.3870     4.3220     1.2110 H     1 <1>   0.0800 
 39 H        2.9320     7.5840     0.6220 H     1 <1>   0.0800 
 40 H        3.0970     7.9740    -1.0660 H     1 <1>   0.0800 
 41 H        6.4880     6.5200     0.8430 H     1 <1>   0.0800 
 42 H        5.0530     6.6720     1.8160 H     1 <1>   0.0800 
 43 H        5.1300     8.3670     0.1420 H     1 <1>   0.3600 
@<TRIPOS>BOND
  1   1   2  1   
  2   1   3  1   
  3   2   4  ar  
  4   2   5  ar  
  5   3   6  1   
  6   3  19  1   
  7   3  20  1   
  8   4   7  ar  
  9   4  21  1   
 10   5   8  ar  
 11   5  22  1   
 12   6   9  1   
 13   6  23  1   
 14   6  24  1   
 15   7  10  ar  
 16   7  11  1   
 17   8  10  ar  
 18   8  25  1   
 19   9  12  1   
 20   9  26  1   
 21   9  27  1   
 22  10  28  1   
 23  11  29  1   
 24  11  30  1   
 25  11  31  1   
 26  12  13  1   
 27  12  32  1   
 28  12  33  1   
 29  13  14  1   
 30  13  15  1   
 31  13  34  1   
 32  14  16  1   
 33  14  35  1   
 34  14  36  1   
 35  15  17  1   
 36  15  37  1   
 37  15  38  1   
 38  16  18  1   
 39  16  39  1   
 40  16  40  1   
 41  17  18  1   
 42  17  41  1   
 43  17  42  1   
 44  18  43  1   
@<TRIPOS>SUBSTRUCTURE
  1 ****   6 GROUP 4 **** **** 0

# MOE 2024.06 (io_trps.svl 2023.06)
