@<TRIPOS>MOLECULE
NONAME
26 26 1 0 0 
SMALL
USER_CHARGES


@<TRIPOS>ATOM
  1 CL       0.3440    -0.1090    -0.3800 Cl    1 <1>  -0.1770 
  2 C       -1.1600    -0.8990     0.0180 C.ar  1 <1>   0.1770 
  3 C       -1.5960    -1.9570    -0.7500 C.ar  1 <1>  -0.1500 
  4 C       -1.8930    -0.4530     1.0990 C.ar  1 <1>  -0.1500 
  5 C       -2.7910    -2.5940    -0.4390 C.ar  1 <1>   0.1000 
  6 C       -3.0880    -1.0820     1.4040 C.ar  1 <1>  -0.1500 
  7 N       -3.1910    -3.6660    -1.2210 N.pl3 1 <1>  -0.9000 
  8 C       -3.5560    -2.1510     0.6450 C.ar  1 <1>  -0.0090 
  9 S       -5.1400    -2.9270     1.0260 S.o2  1 <1>   1.2040 
 10 O       -5.6390    -2.3950     2.2760 O.2   1 <1>  -0.6500 
 11 O       -5.0310    -4.3630     0.8600 O.2   1 <1>  -0.6500 
 12 C       -6.1850    -2.2930    -0.2910 C.3   1 <1>  -0.0550 
 13 C       -7.6370    -2.7940    -0.2210 C.3   1 <1>  -0.1600 
 14 C       -8.4780    -2.2230    -1.3670 C.3   1 <1>  -0.2400 
 15 H       -1.0060    -2.2820    -1.5870 H     1 <1>   0.1500 
 16 H       -1.5330     0.3730     1.6880 H     1 <1>   0.1500 
 17 H       -3.6640    -0.7350     2.2470 H     1 <1>   0.1500 
 18 H       -3.7380    -4.3970    -0.7270 H     1 <1>   0.4000 
 19 H       -2.4700    -4.1040    -1.8040 H     1 <1>   0.4000 
 20 H       -5.7690    -2.5800    -1.2380 H     1 <1>   0.0800 
 21 H       -6.1900    -1.2210    -0.2490 H     1 <1>   0.0800 
 22 H       -8.0710    -2.5040     0.7220 H     1 <1>   0.0800 
 23 H       -7.6470    -3.8700    -0.2710 H     1 <1>   0.0800 
 24 H       -8.5020    -1.1480    -1.3200 H     1 <1>   0.0800 
 25 H       -9.4880    -2.5880    -1.2970 H     1 <1>   0.0800 
 26 H       -8.0740    -2.5210    -2.3190 H     1 <1>   0.0800 
@<TRIPOS>BOND
  1   1   2  1   
  2   2   3  ar  
  3   2   4  ar  
  4   3   5  ar  
  5   3  15  1   
  6   4   6  ar  
  7   4  16  1   
  8   5   7  1   
  9   5   8  ar  
 10   6   8  ar  
 11   6  17  1   
 12   7  18  1   
 13   7  19  1   
 14   8   9  1   
 15   9  10  2   
 16   9  11  2   
 17   9  12  1   
 18  12  13  1   
 19  12  20  1   
 20  12  21  1   
 21  13  14  1   
 22  13  22  1   
 23  13  23  1   
 24  14  24  1   
 25  14  25  1   
 26  14  26  1   
@<TRIPOS>SUBSTRUCTURE
  1 ****   8 GROUP 4 **** **** 0

# MOE 2024.06 (io_trps.svl 2023.06)
