@<TRIPOS>MOLECULE
NONAME
50 52 1 0 0 
SMALL
USER_CHARGES


@<TRIPOS>ATOM
  1 BR       0.4670     1.5700     2.2900 Br    1 <1>  -0.1110 
  2 C        0.7980     3.3090     1.5330 C.ar  1 <1>   0.1110 
  3 C        0.8340     4.4060     2.3730 C.ar  1 <1>  -0.1500 
  4 C        0.9890     3.4150     0.1680 C.ar  1 <1>  -0.1500 
  5 C        1.0720     5.6520     1.8200 C.ar  1 <1>  -0.1500 
  6 C        1.2270     4.6660    -0.3760 C.ar  1 <1>  -0.1500 
  7 C        1.2730     5.7900     0.4520 C.ar  1 <1>   0.0830 
  8 O        1.5070     7.0470     0.0010 O.3   1 <1>  -0.3630 
  9 C        1.6990     7.3090    -1.3830 C.3   1 <1>   0.1810 
 10 C        1.9390     8.7960    -1.6490 C.2   1 <1>   0.5690 
 11 O        1.3450     9.2850    -2.5800 O.2   1 <1>  -0.5700 
 12 N        2.8080     9.5610    -0.8990 N.am  1 <1>  -0.6600 
 13 C        3.7310     9.0250     0.1500 C.3   1 <1>   0.1400 
 14 C        2.8130    11.0530    -1.0360 C.3   1 <1>   0.1400 
 15 C        5.1510     9.6130     0.0080 C.3   1 <1>   0.3430 
 16 C        4.2430    11.5950    -1.1920 C.3   1 <1>   0.3430 
 17 N        5.1490    11.1140    -0.0860 N.4   1 <1>  -0.9590 
 18 C        6.5270    11.6600    -0.2320 C.3   1 <1>   0.4860 
 19 C        6.4640    13.1690    -0.1020 C.ar  1 <1>  -0.1430 
 20 C        6.5480    13.9680    -1.2360 C.ar  1 <1>  -0.1500 
 21 C        6.3170    13.7620     1.1470 C.ar  1 <1>  -0.1500 
 22 C        6.4700    15.3450    -1.1220 C.ar  1 <1>  -0.1500 
 23 C        6.2400    15.1400     1.2630 C.ar  1 <1>  -0.1500 
 24 C        6.3140    15.9230     0.1230 C.ar  1 <1>   0.1020 
 25 S        6.2140    17.7190     0.1810 S.3   1 <1>  -0.3320 
 26 C        6.1110    18.1980     1.9620 C.3   1 <1>  -0.0100 
 27 H        0.6770     4.2850     3.4300 H     1 <1>   0.1500 
 28 H        0.9500     2.5360    -0.4510 H     1 <1>   0.1500 
 29 H        1.1000     6.5240     2.4480 H     1 <1>   0.1500 
 30 H        1.3710     4.7390    -1.4380 H     1 <1>   0.1500 
 31 H        0.8130     6.9960    -1.9060 H     1 <1>   0.0800 
 32 H        2.5430     6.7420    -1.7260 H     1 <1>   0.0800 
 33 H        3.8050     7.9540     0.0790 H     1 <1>   0.0800 
 34 H        3.3330     9.2600     1.1230 H     1 <1>   0.0800 
 35 H        2.3520    11.4890    -0.1680 H     1 <1>   0.0800 
 36 H        2.2350    11.3610    -1.8920 H     1 <1>   0.0800 
 37 H        5.5970     9.1990    -0.8820 H     1 <1>   0.0800 
 38 H        5.7450     9.2980     0.8500 H     1 <1>   0.0800 
 39 H        4.2070    12.6730    -1.1960 H     1 <1>   0.0800 
 40 H        4.6270    11.2740    -2.1460 H     1 <1>   0.0800 
 41 H        4.7720    11.4990     0.7890 H     1 <1>   0.4500 
 42 H        6.9380    11.3890    -1.1910 H     1 <1>   0.0800 
 43 H        7.1690    11.2650     0.5390 H     1 <1>   0.0800 
 44 H        6.6770    13.5380    -2.2150 H     1 <1>   0.1500 
 45 H        6.2670    13.1660     2.0420 H     1 <1>   0.1500 
 46 H        6.5320    15.9770    -1.9920 H     1 <1>   0.1500 
 47 H        6.1270    15.5860     2.2330 H     1 <1>   0.1500 
 48 H        6.0810    19.2720     2.0060 H     1 <1>   0.0800 
 49 H        6.9870    17.8220     2.4600 H     1 <1>   0.0800 
 50 H        5.2110    17.7760     2.3700 H     1 <1>   0.0800 
@<TRIPOS>BOND
  1   1   2  1   
  2   2   3  ar  
  3   2   4  ar  
  4   3   5  ar  
  5   3  27  1   
  6   4   6  ar  
  7   4  28  1   
  8   5   7  ar  
  9   5  29  1   
 10   6   7  ar  
 11   6  30  1   
 12   7   8  1   
 13   8   9  1   
 14   9  10  1   
 15   9  31  1   
 16   9  32  1   
 17  10  11  2   
 18  10  12  am  
 19  12  13  1   
 20  12  14  1   
 21  13  15  1   
 22  13  33  1   
 23  13  34  1   
 24  14  16  1   
 25  14  35  1   
 26  14  36  1   
 27  15  17  1   
 28  15  37  1   
 29  15  38  1   
 30  16  17  1   
 31  16  39  1   
 32  16  40  1   
 33  17  18  1   
 34  17  41  1   
 35  18  19  1   
 36  18  42  1   
 37  18  43  1   
 38  19  20  ar  
 39  19  21  ar  
 40  20  22  ar  
 41  20  44  1   
 42  21  23  ar  
 43  21  45  1   
 44  22  24  ar  
 45  22  46  1   
 46  23  24  ar  
 47  23  47  1   
 48  24  25  1   
 49  25  26  1   
 50  26  48  1   
 51  26  49  1   
 52  26  50  1   
@<TRIPOS>SUBSTRUCTURE
  1 ****  13 GROUP 4 **** **** 0

# MOE 2024.06 (io_trps.svl 2023.06)
