@<TRIPOS>MOLECULE
NONAME
40 41 1 0 0 
SMALL
USER_CHARGES


@<TRIPOS>ATOM
  1 S       -0.3160    -1.2740     0.3170 S.o2  1 <1>   1.4470 
  2 O       -0.8620    -2.3790    -0.4220 O.2   1 <1>  -0.6500 
  3 O        0.0990    -1.4270     1.6880 O.2   1 <1>  -0.6500 
  4 N        1.1600    -0.9580    -0.4710 N.am  1 <1>  -0.8790 
  5 C       -1.2380     0.2620     0.0490 C.ar  1 <1>  -0.0090 
  6 N        1.7420     0.2820    -0.0850 N.pl3 1 <1>   0.5250 
  7 C       -1.4830     1.1460     1.0950 C.ar  1 <1>  -0.1500 
  8 C       -1.6780     0.6240    -1.2200 C.ar  1 <1>  -0.1500 
  9 C        1.9020     1.3540    -0.8530 C.2   1 <1>   0.0360 
 10 C        2.1680     0.7040     1.1030 C.2   1 <1>   0.0360 
 11 C       -2.1230     2.3520     0.8790 C.ar  1 <1>  -0.1500 
 12 C       -2.3140     1.8320    -1.4410 C.ar  1 <1>  -0.1500 
 13 N        2.3850     2.3550    -0.1920 N.2   1 <1>  -0.3380 
 14 N        2.5560     1.9390     1.0640 N.2   1 <1>  -0.3380 
 15 C       -2.5300     2.7200    -0.3970 C.ar  1 <1>   0.1170 
 16 N       -3.1580     3.9430    -0.6430 N.am  1 <1>  -0.5470 
 17 C       -3.0220     5.1660    -0.0560 C.2   1 <1>   0.7800 
 18 O       -3.9430     5.9480    -0.0970 O.2   1 <1>  -0.5700 
 19 O       -1.8880     5.5570     0.5270 O.3   1 <1>  -0.4300 
 20 C       -0.6030     5.1180     0.1380 C.3   1 <1>   0.1200 
 21 C        0.3830     6.2550     0.4020 C.3   1 <1>  -0.1600 
 22 C        1.8210     5.8250     0.0900 C.3   1 <1>  -0.1600 
 23 C        2.8030     6.9770     0.3140 C.3   1 <1>  -0.2400 
 24 H        1.7640    -1.7390    -0.2430 H     1 <1>   0.5190 
 25 H       -1.1650     0.8930     2.0930 H     1 <1>   0.1500 
 26 H       -1.5150    -0.0500    -2.0460 H     1 <1>   0.1500 
 27 H        1.6460     1.3640    -1.8950 H     1 <1>   0.1500 
 28 H        2.1720     0.0860     1.9820 H     1 <1>   0.1500 
 29 H       -2.3040     3.0170     1.7070 H     1 <1>   0.1500 
 30 H       -2.6390     2.0930    -2.4330 H     1 <1>   0.1500 
 31 H       -4.0040     3.9070    -1.2070 H     1 <1>   0.3700 
 32 H       -0.6160     4.8650    -0.9090 H     1 <1>   0.0800 
 33 H       -0.3410     4.2540     0.7220 H     1 <1>   0.0800 
 34 H        0.3170     6.5440     1.4370 H     1 <1>   0.0800 
 35 H        0.1170     7.0990    -0.2100 H     1 <1>   0.0800 
 36 H        1.8910     5.4920    -0.9320 H     1 <1>   0.0800 
 37 H        2.0970     5.0000     0.7260 H     1 <1>   0.0800 
 38 H        2.5640     7.8060    -0.3290 H     1 <1>   0.0800 
 39 H        3.8050     6.6510     0.0950 H     1 <1>   0.0800 
 40 H        2.7670     7.3070     1.3370 H     1 <1>   0.0800 
@<TRIPOS>BOND
  1   1   2  2   
  2   1   3  2   
  3   1   4  am  
  4   1   5  1   
  5   4   6  1   
  6   4  24  1   
  7   5   7  ar  
  8   5   8  ar  
  9   6   9  1   
 10   6  10  1   
 11   7  11  ar  
 12   7  25  1   
 13   8  12  ar  
 14   8  26  1   
 15   9  13  2   
 16   9  27  1   
 17  10  14  2   
 18  10  28  1   
 19  11  15  ar  
 20  11  29  1   
 21  12  15  ar  
 22  12  30  1   
 23  13  14  1   
 24  15  16  1   
 25  16  17  am  
 26  16  31  1   
 27  17  18  2   
 28  17  19  1   
 29  19  20  1   
 30  20  21  1   
 31  20  32  1   
 32  20  33  1   
 33  21  22  1   
 34  21  34  1   
 35  21  35  1   
 36  22  23  1   
 37  22  36  1   
 38  22  37  1   
 39  23  38  1   
 40  23  39  1   
 41  23  40  1   
@<TRIPOS>SUBSTRUCTURE
  1 ****  11 GROUP 4 **** **** 0

# MOE 2024.06 (io_trps.svl 2023.06)
