@<TRIPOS>MOLECULE
NONAME
30 30 1 0 0 
SMALL
USER_CHARGES


@<TRIPOS>ATOM
  1 F        0.5470    -0.1160     0.1370 F     1 <1>  -0.1900 
  2 C        1.8380     0.0160    -0.0050 C.ar  1 <1>   0.1900 
  3 C        2.6570    -1.0480     0.3210 C.ar  1 <1>  -0.1500 
  4 C        2.3380     1.2160    -0.4740 C.ar  1 <1>  -0.1500 
  5 C        4.0260    -0.9020     0.1700 C.ar  1 <1>  -0.1500 
  6 C        3.7080     1.3490    -0.6210 C.ar  1 <1>  -0.1500 
  7 C        4.5540     0.2950    -0.3000 C.ar  1 <1>  -0.1430 
  8 C        6.0560     0.4630    -0.4620 C.3   1 <1>  -0.0160 
  9 C        6.6410     1.1810     0.7540 C.3   1 <1>   0.1400 
 10 N        8.1000     1.3620     0.5790 N.am  1 <1>  -0.7300 
 11 C        8.6730     2.4230    -0.0390 C.2   1 <1>   0.6900 
 12 O        7.9690     3.2720    -0.5550 O.2   1 <1>  -0.5700 
 13 N       10.0420     2.5260    -0.0650 N.am  1 <1>  -0.6600 
 14 C       10.7070     3.7730    -0.5340 C.3   1 <1>   0.0600 
 15 C       10.9680     1.4060     0.2550 C.3   1 <1>   0.0600 
 16 H        2.2290    -1.9650     0.6820 H     1 <1>   0.1500 
 17 H        1.6710     2.0220    -0.7180 H     1 <1>   0.1500 
 18 H        4.6760    -1.7220     0.4190 H     1 <1>   0.1500 
 19 H        4.1180     2.2770    -0.9850 H     1 <1>   0.1500 
 20 H        6.2570     1.0430    -1.3460 H     1 <1>   0.0800 
 21 H        6.5240    -0.4980    -0.5750 H     1 <1>   0.0800 
 22 H        6.4520     0.6120     1.6470 H     1 <1>   0.0800 
 23 H        6.1720     2.1460     0.8620 H     1 <1>   0.0800 
 24 H        8.7100     0.7560     1.1190 H     1 <1>   0.3700 
 25 H       10.0070     4.5900    -0.5630 H     1 <1>   0.0800 
 26 H       11.1030     3.6220    -1.5220 H     1 <1>   0.0800 
 27 H       11.5070     4.0340     0.1360 H     1 <1>   0.0800 
 28 H       10.4790     0.4580     0.1220 H     1 <1>   0.0800 
 29 H       11.3060     1.4970     1.2720 H     1 <1>   0.0800 
 30 H       11.8200     1.4380    -0.4030 H     1 <1>   0.0800 
@<TRIPOS>BOND
  1   1   2  1   
  2   2   3  ar  
  3   2   4  ar  
  4   3   5  ar  
  5   3  16  1   
  6   4   6  ar  
  7   4  17  1   
  8   5   7  ar  
  9   5  18  1   
 10   6   7  ar  
 11   6  19  1   
 12   7   8  1   
 13   8   9  1   
 14   8  20  1   
 15   8  21  1   
 16   9  10  1   
 17   9  22  1   
 18   9  23  1   
 19  10  11  am  
 20  10  24  1   
 21  11  12  2   
 22  11  13  am  
 23  13  14  1   
 24  13  15  1   
 25  14  25  1   
 26  14  26  1   
 27  14  27  1   
 28  15  28  1   
 29  15  29  1   
 30  15  30  1   
@<TRIPOS>SUBSTRUCTURE
  1 ****   8 GROUP 4 **** **** 0

# MOE 2024.06 (io_trps.svl 2023.06)
