@<TRIPOS>MOLECULE
NONAME
56 58 1 0 0 
SMALL
USER_CHARGES


@<TRIPOS>ATOM
  1 O        1.0940    -0.1910     0.4420 O.2   1 <1>  -0.5700 
  2 C        0.8120     0.9400     0.0890 C.2   1 <1>   0.5440 
  3 N        1.3630     1.4050    -1.0710 N.am  1 <1>  -0.7300 
  4 C       -0.1120     1.7540     0.8480 C.ar  1 <1>   0.0860 
  5 C        2.3940     0.7180    -1.8900 C.3   1 <1>   0.2810 
  6 C        0.1020     3.1200     1.1210 C.ar  1 <1>   0.1170 
  7 C       -1.2930     1.1710     1.3120 C.ar  1 <1>  -0.1500 
  8 C        3.7430     1.4800    -1.8530 C.2   1 <1>   0.5690 
  9 C        1.8210     0.5620    -3.3020 C.3   1 <1>  -0.2400 
 10 N        1.2700     3.8110     0.7660 N.am  1 <1>  -0.5470 
 11 C       -0.8810     3.8460     1.7870 C.ar  1 <1>  -0.1500 
 12 C       -2.2530     1.9010     1.9830 C.ar  1 <1>  -0.1500 
 13 O        3.9410     2.3460    -2.6760 O.2   1 <1>  -0.5700 
 14 N        4.6980     1.2140    -0.8960 N.am  1 <1>  -0.6600 
 15 C        2.5530     3.5400     1.1770 C.2   1 <1>   0.5440 
 16 C       -2.0490     3.2480     2.2150 C.ar  1 <1>  -0.1500 
 17 C        6.0080     1.9380    -0.9380 C.3   1 <1>   0.1400 
 18 C        4.4500     0.3550     0.3090 C.3   1 <1>   0.1400 
 19 O        2.7680     2.5930     1.9080 O.2   1 <1>  -0.5700 
 20 C        3.6470     4.3950     0.7690 C.ar  1 <1>   0.0860 
 21 C        7.0910     1.2140    -0.1200 C.3   1 <1>   0.3430 
 22 C        5.2180     0.8600     1.5440 C.3   1 <1>   0.3430 
 23 C        4.5870     4.8350     1.7000 C.ar  1 <1>  -0.1500 
 24 C        3.8120     4.7970    -0.5570 C.ar  1 <1>  -0.1500 
 25 N        6.7090     1.0000     1.3270 N.4   1 <1>  -0.9590 
 26 C        5.6480     5.6410     1.3280 C.ar  1 <1>  -0.1500 
 27 C        4.8730     5.5980    -0.9360 C.ar  1 <1>  -0.1500 
 28 C        7.2240     2.1100     2.1840 C.3   1 <1>   0.2630 
 29 C        5.7940     6.0220     0.0060 C.ar  1 <1>  -0.1500 
 30 H        1.1260     2.3470    -1.3820 H     1 <1>   0.3700 
 31 H        2.5570    -0.2710    -1.5010 H     1 <1>   0.0800 
 32 H       -1.4560     0.1210     1.1320 H     1 <1>   0.1500 
 33 H        1.6170     1.5240    -3.7380 H     1 <1>   0.0800 
 34 H        0.9160    -0.0170    -3.2720 H     1 <1>   0.0800 
 35 H        2.5310     0.0520    -3.9270 H     1 <1>   0.0800 
 36 H        1.1330     4.7510     0.3910 H     1 <1>   0.3700 
 37 H       -0.7260     4.8900     1.9870 H     1 <1>   0.1500 
 38 H       -3.1560     1.4250     2.3250 H     1 <1>   0.1500 
 39 H       -2.7960     3.8230     2.7350 H     1 <1>   0.1500 
 40 H        5.8770     2.9360    -0.5590 H     1 <1>   0.0800 
 41 H        6.3360     2.0190    -1.9610 H     1 <1>   0.0800 
 42 H        3.4090     0.3650     0.5600 H     1 <1>   0.0800 
 43 H        4.7290    -0.6620     0.0940 H     1 <1>   0.0800 
 44 H        7.2600     0.2570    -0.5860 H     1 <1>   0.0800 
 45 H        8.0130     1.7680    -0.1790 H     1 <1>   0.0800 
 46 H        5.0240     0.2040     2.3770 H     1 <1>   0.0800 
 47 H        4.8140     1.8230     1.8000 H     1 <1>   0.0800 
 48 H        4.4700     4.5480     2.7320 H     1 <1>   0.1500 
 49 H        3.1130     4.4700    -1.3070 H     1 <1>   0.1500 
 50 H        7.1500     0.1210     1.6340 H     1 <1>   0.4500 
 51 H        6.3560     5.9840     2.0640 H     1 <1>   0.1500 
 52 H        4.9820     5.8930    -1.9670 H     1 <1>   0.1500 
 53 H        6.7790     3.0460     1.8860 H     1 <1>   0.0800 
 54 H        8.2950     2.1910     2.0910 H     1 <1>   0.0800 
 55 H        6.9810     1.9280     3.2180 H     1 <1>   0.0800 
 56 H        6.6150     6.6540    -0.2900 H     1 <1>   0.1500 
@<TRIPOS>BOND
  1   1   2  2   
  2   2   3  am  
  3   2   4  1   
  4   3   5  1   
  5   3  30  1   
  6   4   6  ar  
  7   4   7  ar  
  8   5   8  1   
  9   5   9  1   
 10   5  31  1   
 11   6  10  1   
 12   6  11  ar  
 13   7  12  ar  
 14   7  32  1   
 15   8  13  2   
 16   8  14  am  
 17   9  33  1   
 18   9  34  1   
 19   9  35  1   
 20  10  15  am  
 21  10  36  1   
 22  11  16  ar  
 23  11  37  1   
 24  12  16  ar  
 25  12  38  1   
 26  14  17  1   
 27  14  18  1   
 28  15  19  2   
 29  15  20  1   
 30  16  39  1   
 31  17  21  1   
 32  17  40  1   
 33  17  41  1   
 34  18  22  1   
 35  18  42  1   
 36  18  43  1   
 37  20  23  ar  
 38  20  24  ar  
 39  21  25  1   
 40  21  44  1   
 41  21  45  1   
 42  22  25  1   
 43  22  46  1   
 44  22  47  1   
 45  23  26  ar  
 46  23  48  1   
 47  24  27  ar  
 48  24  49  1   
 49  25  28  1   
 50  25  50  1   
 51  26  29  ar  
 52  26  51  1   
 53  27  29  ar  
 54  27  52  1   
 55  28  53  1   
 56  28  54  1   
 57  28  55  1   
 58  29  56  1   
@<TRIPOS>SUBSTRUCTURE
  1 ****  15 GROUP 4 **** **** 0

# MOE 2024.06 (io_trps.svl 2023.06)
