@<TRIPOS>MOLECULE
NONAME
37 38 1 0 0 
SMALL
USER_CHARGES


@<TRIPOS>ATOM
  1 CL      -0.3160    -0.6840    -0.0500 Cl    1 <1>  -0.1770 
  2 C        1.4140    -0.8550     0.1060 C.ar  1 <1>   0.1770 
  3 C        1.9270    -1.7270     1.0480 C.ar  1 <1>  -0.1500 
  4 C        2.2450    -0.1180    -0.7150 C.ar  1 <1>  -0.1500 
  5 C        3.3000    -1.8580     1.1710 C.ar  1 <1>  -0.1500 
  6 C        3.6180    -0.2530    -0.5880 C.ar  1 <1>  -0.1500 
  7 C        4.1500    -1.1190     0.3580 C.ar  1 <1>  -0.1430 
  8 C        5.6600    -1.2700     0.5030 C.3   1 <1>   0.0890 
  9 S        6.3210    -2.7850    -0.2070 S.o2  1 <1>   1.3330 
 10 O        6.1640    -2.7750    -1.6450 O.2   1 <1>  -0.6500 
 11 O        5.8230    -3.9040     0.5630 O.2   1 <1>  -0.6500 
 12 N        7.9870    -2.6550     0.1040 N.am  1 <1>  -0.8490 
 13 C        8.6780    -1.8430    -0.9060 C.3   1 <1>   0.1960 
 14 C        8.6190    -3.9760     0.2230 C.3   1 <1>   0.1960 
 15 C       10.1260    -1.5950    -0.4790 C.3   1 <1>  -0.1600 
 16 C       10.0730    -3.8280     0.6770 C.3   1 <1>  -0.1600 
 17 C       10.8720    -2.9240    -0.2770 C.3   1 <1>  -0.0190 
 18 C       12.3070    -2.7070     0.1950 C.2   1 <1>   0.5690 
 19 O       13.2220    -3.0220    -0.5180 O.2   1 <1>  -0.5700 
 20 N       12.5530    -2.1600     1.4010 N.am  1 <1>  -0.8000 
 21 H        1.2610    -2.2950     1.6710 H     1 <1>   0.1500 
 22 H        1.8200     0.5500    -1.4430 H     1 <1>   0.1500 
 23 H        3.7010    -2.5440     1.8990 H     1 <1>   0.1500 
 24 H        4.2630     0.3190    -1.2330 H     1 <1>   0.1500 
 25 H        5.9050    -1.2430     1.5470 H     1 <1>   0.0800 
 26 H        6.1380    -0.4280     0.0430 H     1 <1>   0.0800 
 27 H        8.1800    -0.8950    -1.0200 H     1 <1>   0.0800 
 28 H        8.6600    -2.3460    -1.8610 H     1 <1>   0.0800 
 29 H        8.5700    -4.4930    -0.7230 H     1 <1>   0.0800 
 30 H        8.0980    -4.5710     0.9550 H     1 <1>   0.0800 
 31 H       10.1280    -1.0210     0.4300 H     1 <1>   0.0800 
 32 H       10.6260    -1.0170    -1.2370 H     1 <1>   0.0800 
 33 H       10.5320    -4.8010     0.7180 H     1 <1>   0.0800 
 34 H       10.0770    -3.4210     1.6730 H     1 <1>   0.0800 
 35 H       10.9260    -3.4200    -1.2310 H     1 <1>   0.0800 
 36 H       13.5200    -2.0260     1.6970 H     1 <1>   0.3700 
 37 H       11.8260    -1.8780     2.0560 H     1 <1>   0.3700 
@<TRIPOS>BOND
  1   1   2  1   
  2   2   3  ar  
  3   2   4  ar  
  4   3   5  ar  
  5   3  21  1   
  6   4   6  ar  
  7   4  22  1   
  8   5   7  ar  
  9   5  23  1   
 10   6   7  ar  
 11   6  24  1   
 12   7   8  1   
 13   8   9  1   
 14   8  25  1   
 15   8  26  1   
 16   9  10  2   
 17   9  11  2   
 18   9  12  am  
 19  12  13  1   
 20  12  14  1   
 21  13  15  1   
 22  13  27  1   
 23  13  28  1   
 24  14  16  1   
 25  14  29  1   
 26  14  30  1   
 27  15  17  1   
 28  15  31  1   
 29  15  32  1   
 30  16  17  1   
 31  16  33  1   
 32  16  34  1   
 33  17  18  1   
 34  17  35  1   
 35  18  19  2   
 36  18  20  am  
 37  20  36  1   
 38  20  37  1   
@<TRIPOS>SUBSTRUCTURE
  1 ****   9 GROUP 4 **** **** 0

# MOE 2024.06 (io_trps.svl 2023.06)
