@<TRIPOS>MOLECULE
NONAME
34 36 1 0 0 
SMALL
USER_CHARGES


@<TRIPOS>ATOM
  1 S       -0.2650    -0.1110    -0.9870 S.3   1 <1>  -0.0800 
  2 C       -1.8860     0.5600    -0.9880 C.2   1 <1>   0.1660 
  3 C        0.3810     1.3830    -0.3260 C.2   1 <1>  -0.1400 
  4 N       -2.9570    -0.1500    -1.4260 N.2   1 <1>  -0.5760 
  5 C       -1.8980     1.8330    -0.5090 C.2   1 <1>  -0.0860 
  6 C       -0.5880     2.2900    -0.1240 C.2   1 <1>  -0.1810 
  7 C        1.8620     1.5270    -0.0540 C.3   1 <1>   0.0200 
  8 C       -4.0810     0.4720    -1.3720 C.2   1 <1>   0.4500 
  9 C       -3.1660     2.4830    -0.4720 C.2   1 <1>   0.7160 
 10 C       -0.2830     3.6630     0.4550 C.3   1 <1>   0.0210 
 11 C        2.1850     3.0120     0.1900 C.3   1 <1>  -0.1600 
 12 N       -4.2570     1.7590    -0.9170 N.am  1 <1>  -0.4200 
 13 O       -3.3200     3.6290    -0.0690 O.2   1 <1>  -0.5700 
 14 C        1.1270     3.6970     1.0810 C.3   1 <1>  -0.1600 
 15 C       -5.6130     2.3610    -0.9070 C.3   1 <1>   0.1400 
 16 C       -6.2670     2.1470     0.4630 C.3   1 <1>  -0.1600 
 17 C       -7.6410     2.8310     0.5450 C.3   1 <1>   0.0400 
 18 C       -8.2930     2.5860     1.8620 C.1   1 <1>   0.3570 
 19 N       -8.7910     2.3880     2.8640 N.1   1 <1>  -0.5570 
 20 H        2.4290     1.1600    -0.8910 H     1 <1>   0.0800 
 21 H        2.1130     0.9430     0.8140 H     1 <1>   0.0800 
 22 H       -4.9660    -0.0410    -1.7040 H     1 <1>   0.0600 
 23 H       -1.0090     3.9150     1.2090 H     1 <1>   0.0800 
 24 H       -0.3520     4.3930    -0.3330 H     1 <1>   0.0800 
 25 H        2.2170     3.5200    -0.7580 H     1 <1>   0.0800 
 26 H        3.1580     3.0970     0.6430 H     1 <1>   0.0800 
 27 H        1.0950     3.1910     2.0300 H     1 <1>   0.0800 
 28 H        1.4090     4.7190     1.2630 H     1 <1>   0.0800 
 29 H       -6.2130     1.9080    -1.6790 H     1 <1>   0.0800 
 30 H       -5.5380     3.4140    -1.1220 H     1 <1>   0.0800 
 31 H       -5.6300     2.5580     1.2300 H     1 <1>   0.0800 
 32 H       -6.3820     1.0920     0.6460 H     1 <1>   0.0800 
 33 H       -8.2890     2.4550    -0.2260 H     1 <1>   0.0800 
 34 H       -7.5320     3.8920     0.4120 H     1 <1>   0.0800 
@<TRIPOS>BOND
  1   1   2  1   
  2   1   3  1   
  3   2   4  1   
  4   2   5  2   
  5   3   6  2   
  6   3   7  1   
  7   4   8  2   
  8   5   6  1   
  9   5   9  1   
 10   6  10  1   
 11   7  11  1   
 12   7  20  1   
 13   7  21  1   
 14   8  12  1   
 15   8  22  1   
 16   9  12  am  
 17   9  13  2   
 18  10  14  1   
 19  10  23  1   
 20  10  24  1   
 21  11  14  1   
 22  11  25  1   
 23  11  26  1   
 24  12  15  1   
 25  14  27  1   
 26  14  28  1   
 27  15  16  1   
 28  15  29  1   
 29  15  30  1   
 30  16  17  1   
 31  16  31  1   
 32  16  32  1   
 33  17  18  1   
 34  17  33  1   
 35  17  34  1   
 36  18  19  3   
@<TRIPOS>SUBSTRUCTURE
  1 ****   9 GROUP 4 **** **** 0

# MOE 2024.06 (io_trps.svl 2023.06)
