@<TRIPOS>MOLECULE
NONAME
41 42 1 0 0 
SMALL
USER_CHARGES


@<TRIPOS>ATOM
  1 S       -0.0850    -0.6000     1.2560 S.o2  1 <1>   1.4470 
  2 O        0.3010    -1.3990     2.4000 O.2   1 <1>  -0.6500 
  3 O        0.1030     0.8340     1.2970 O.2   1 <1>  -0.6500 
  4 N        0.8170    -1.1700    -0.0610 N.am  1 <1>  -0.8490 
  5 C       -1.7950    -0.9740     0.7790 C.ar  1 <1>  -0.0090 
  6 C        2.2020    -0.6790    -0.0130 C.3   1 <1>   0.1960 
  7 C        0.8260    -2.6400    -0.1500 C.3   1 <1>   0.1960 
  8 C       -2.2960    -0.5700    -0.4520 C.ar  1 <1>  -0.1500 
  9 C       -2.6450    -1.6730     1.6270 C.ar  1 <1>  -0.1500 
 10 C        3.0200    -1.2050    -1.2070 C.3   1 <1>   0.1200 
 11 C        1.6690    -3.1130    -1.3480 C.3   1 <1>   0.1200 
 12 C       -3.5960    -0.8530    -0.8400 C.ar  1 <1>  -0.1430 
 13 C       -3.9470    -1.9650     1.2590 C.ar  1 <1>  -0.1500 
 14 O        2.9700    -2.6030    -1.2650 O.3   1 <1>  -0.5600 
 15 C       -4.4320    -1.5570     0.0200 C.ar  1 <1>   0.0830 
 16 C       -4.0980    -0.3900    -2.2000 C.3   1 <1>  -0.0970 
 17 O       -5.6980    -1.8140    -0.3990 O.3   1 <1>  -0.3630 
 18 C       -6.6380    -2.4640     0.4250 C.3   1 <1>   0.1200 
 19 C       -7.9590    -2.5560    -0.3400 C.3   1 <1>  -0.1600 
 20 C       -9.0390    -3.2550     0.4940 C.3   1 <1>  -0.2400 
 21 H        2.6730    -0.9900     0.9050 H     1 <1>   0.0800 
 22 H        2.2050     0.3980    -0.0390 H     1 <1>   0.0800 
 23 H       -0.1810    -3.0030    -0.2650 H     1 <1>   0.0800 
 24 H        1.2360    -3.0670     0.7510 H     1 <1>   0.0800 
 25 H       -1.6470    -0.0220    -1.1140 H     1 <1>   0.1500 
 26 H       -2.2830    -1.9930     2.5900 H     1 <1>   0.1500 
 27 H        4.0510    -0.9170    -1.1080 H     1 <1>   0.0800 
 28 H        2.6350    -0.8080    -2.1300 H     1 <1>   0.0800 
 29 H        1.2280    -2.7850    -2.2730 H     1 <1>   0.0800 
 30 H        1.7370    -4.1860    -1.3550 H     1 <1>   0.0800 
 31 H       -4.5640    -2.5080     1.9500 H     1 <1>   0.1500 
 32 H       -3.3320     0.1340    -2.7430 H     1 <1>   0.0800 
 33 H       -4.9380     0.2680    -2.0710 H     1 <1>   0.0800 
 34 H       -4.4130    -1.2380    -2.7800 H     1 <1>   0.0800 
 35 H       -6.7590    -1.8850     1.3240 H     1 <1>   0.0800 
 36 H       -6.2650    -3.4460     0.6570 H     1 <1>   0.0800 
 37 H       -7.8020    -3.1080    -1.2510 H     1 <1>   0.0800 
 38 H       -8.2920    -1.5640    -0.5910 H     1 <1>   0.0800 
 39 H       -8.7340    -4.2570     0.7430 H     1 <1>   0.0800 
 40 H       -9.9570    -3.3070    -0.0650 H     1 <1>   0.0800 
 41 H       -9.2240    -2.7110     1.4030 H     1 <1>   0.0800 
@<TRIPOS>BOND
  1   1   2  2   
  2   1   3  2   
  3   1   4  am  
  4   1   5  1   
  5   4   6  1   
  6   4   7  1   
  7   5   8  ar  
  8   5   9  ar  
  9   6  10  1   
 10   6  21  1   
 11   6  22  1   
 12   7  11  1   
 13   7  23  1   
 14   7  24  1   
 15   8  12  ar  
 16   8  25  1   
 17   9  13  ar  
 18   9  26  1   
 19  10  14  1   
 20  10  27  1   
 21  10  28  1   
 22  11  14  1   
 23  11  29  1   
 24  11  30  1   
 25  12  15  ar  
 26  12  16  1   
 27  13  15  ar  
 28  13  31  1   
 29  15  17  1   
 30  16  32  1   
 31  16  33  1   
 32  16  34  1   
 33  17  18  1   
 34  18  19  1   
 35  18  35  1   
 36  18  36  1   
 37  19  20  1   
 38  19  37  1   
 39  19  38  1   
 40  20  39  1   
 41  20  40  1   
 42  20  41  1   
@<TRIPOS>SUBSTRUCTURE
  1 ****   5 GROUP 4 **** **** 0

# MOE 2024.06 (io_trps.svl 2023.06)
