@<TRIPOS>MOLECULE
NONAME
51 53 1 0 0 
SMALL
USER_CHARGES


@<TRIPOS>ATOM
  1 S        0.6790    -0.7070     0.5960 S.3   1 <1>  -0.3320 
  2 C        1.7180     0.7490     0.3910 C.ar  1 <1>   0.1020 
  3 C       -1.0100    -0.2300     0.0130 C.3   1 <1>  -0.0100 
  4 C        1.3110     1.8310    -0.3690 C.ar  1 <1>  -0.1500 
  5 C        2.9460     0.7460     1.0260 C.ar  1 <1>  -0.1500 
  6 C        2.1280     2.9520    -0.4760 C.ar  1 <1>   0.1170 
  7 C        3.7730     1.8490     0.9100 C.ar  1 <1>  -0.1500 
  8 N        1.7600     4.0800    -1.2220 N.am  1 <1>  -0.5470 
  9 C        3.3620     2.9420     0.1660 C.ar  1 <1>  -0.1500 
 10 C        0.5820     4.7460    -1.3590 C.2   1 <1>   0.5690 
 11 O        0.5370     5.7110    -2.0790 O.2   1 <1>  -0.5700 
 12 C       -0.6700     4.3080    -0.6150 C.3   1 <1>  -0.0990 
 13 C       -1.7030     5.4370    -0.4180 C.3   1 <1>  -0.0990 
 14 C       -2.9550     4.9970     0.3290 C.2   1 <1>   0.5690 
 15 O       -3.0810     3.8230     0.5960 O.2   1 <1>  -0.5700 
 16 N       -3.9070     5.9180     0.6820 N.am  1 <1>  -0.6600 
 17 C       -3.8860     7.3790     0.3320 C.3   1 <1>   0.1400 
 18 C       -5.1330     5.5200     1.4480 C.3   1 <1>   0.1400 
 19 C       -5.1860     7.8130    -0.3670 C.3   1 <1>   0.2090 
 20 C       -6.4180     5.9670     0.7320 C.3   1 <1>   0.2090 
 21 N       -6.3870     7.4280     0.4350 N.pl3 1 <1>  -0.8380 
 22 C       -7.5950     8.0210     0.1180 C.ar  1 <1>   0.4100 
 23 N       -7.7980     8.3560    -1.1510 N.ar  1 <1>  -0.6200 
 24 C       -8.5380     8.2310     1.1220 C.ar  1 <1>  -0.1500 
 25 C       -8.9690     8.9070    -1.4230 C.ar  1 <1>   0.1600 
 26 C       -9.7510     8.8050     0.8250 C.ar  1 <1>  -0.1500 
 27 C       -9.9640     9.1500    -0.4940 C.ar  1 <1>  -0.1500 
 28 H       -1.6790    -1.0340     0.2640 H     1 <1>   0.0800 
 29 H       -0.9680    -0.0890    -1.0520 H     1 <1>   0.0800 
 30 H       -1.2960     0.6750     0.5190 H     1 <1>   0.0800 
 31 H        0.3770     1.8040    -0.8880 H     1 <1>   0.1500 
 32 H        3.2460    -0.1100     1.6050 H     1 <1>   0.1500 
 33 H        4.7320     1.8560     1.4000 H     1 <1>   0.1500 
 34 H        2.5170     4.5450    -1.7240 H     1 <1>   0.3700 
 35 H        4.0070     3.7990     0.0860 H     1 <1>   0.1500 
 36 H       -0.3910     3.9280     0.3510 H     1 <1>   0.0800 
 37 H       -1.1300     3.5140    -1.1740 H     1 <1>   0.0800 
 38 H       -2.0010     5.8100    -1.3800 H     1 <1>   0.0800 
 39 H       -1.2370     6.2360     0.1290 H     1 <1>   0.0800 
 40 H       -3.0580     7.6150    -0.3100 H     1 <1>   0.0800 
 41 H       -3.7750     7.9510     1.2360 H     1 <1>   0.0800 
 42 H       -5.1000     5.9760     2.4210 H     1 <1>   0.0800 
 43 H       -5.1640     4.4540     1.5860 H     1 <1>   0.0800 
 44 H       -5.2430     7.3530    -1.3380 H     1 <1>   0.0800 
 45 H       -5.1790     8.8800    -0.5060 H     1 <1>   0.0800 
 46 H       -7.2690     5.7380     1.3500 H     1 <1>   0.0800 
 47 H       -6.5200     5.4200    -0.1900 H     1 <1>   0.0800 
 48 H       -8.2950     7.9410     2.1250 H     1 <1>   0.1500 
 49 H       -9.1450     9.1820    -2.4490 H     1 <1>   0.1500 
 50 H      -10.4970     8.9790     1.5810 H     1 <1>   0.1500 
 51 H      -10.8900     9.6040    -0.7970 H     1 <1>   0.1500 
@<TRIPOS>BOND
  1   1   2  1   
  2   1   3  1   
  3   2   4  ar  
  4   2   5  ar  
  5   3  28  1   
  6   3  29  1   
  7   3  30  1   
  8   4   6  ar  
  9   4  31  1   
 10   5   7  ar  
 11   5  32  1   
 12   6   8  1   
 13   6   9  ar  
 14   7   9  ar  
 15   7  33  1   
 16   8  10  am  
 17   8  34  1   
 18   9  35  1   
 19  10  11  2   
 20  10  12  1   
 21  12  13  1   
 22  12  36  1   
 23  12  37  1   
 24  13  14  1   
 25  13  38  1   
 26  13  39  1   
 27  14  15  2   
 28  14  16  am  
 29  16  17  1   
 30  16  18  1   
 31  17  19  1   
 32  17  40  1   
 33  17  41  1   
 34  18  20  1   
 35  18  42  1   
 36  18  43  1   
 37  19  21  1   
 38  19  44  1   
 39  19  45  1   
 40  20  21  1   
 41  20  46  1   
 42  20  47  1   
 43  21  22  1   
 44  22  23  ar  
 45  22  24  ar  
 46  23  25  ar  
 47  24  26  ar  
 48  24  48  1   
 49  25  27  ar  
 50  25  49  1   
 51  26  27  ar  
 52  26  50  1   
 53  27  51  1   
@<TRIPOS>SUBSTRUCTURE
  1 ****  14 GROUP 4 **** **** 0

# MOE 2024.06 (io_trps.svl 2023.06)
