@<TRIPOS>MOLECULE
NONAME
47 49 1 0 0 
SMALL
USER_CHARGES


@<TRIPOS>ATOM
  1 O        0.3910     0.4150    -0.4210 O.2   1 <1>  -0.5700 
  2 C        0.7610     1.5460    -0.2240 C.2   1 <1>   0.5690 
  3 N       -0.0110     2.6680    -0.1380 N.am  1 <1>  -0.4770 
  4 C        2.2160     1.8650    -0.0280 C.3   1 <1>  -0.0990 
  5 C       -1.4140     2.7820    -0.2340 C.ar  1 <1>   0.1170 
  6 C        0.8340     3.8540     0.1150 C.3   1 <1>   0.1400 
  7 C        2.1830     3.2790     0.5720 C.3   1 <1>  -0.0190 
  8 C       -2.0020     3.9080    -0.8030 C.ar  1 <1>  -0.1500 
  9 C       -2.2510     1.7780     0.2450 C.ar  1 <1>  -0.1500 
 10 C        3.3780     4.1460     0.2000 C.2   1 <1>   0.5690 
 11 C       -3.3780     4.0290    -0.8820 C.ar  1 <1>  -0.1500 
 12 C       -3.6280     1.8920     0.1670 C.ar  1 <1>  -0.1500 
 13 O        3.1790     5.2720    -0.1850 O.2   1 <1>  -0.5700 
 14 N        4.6230     3.5950     0.3310 N.am  1 <1>  -0.5470 
 15 C       -4.2010     3.0260    -0.3990 C.ar  1 <1>   0.0830 
 16 C        5.9040     4.1120     0.0710 C.ar  1 <1>   0.1170 
 17 O       -5.5410     3.2240    -0.5160 O.3   1 <1>  -0.3630 
 18 C        6.9550     3.2320    -0.1990 C.ar  1 <1>  -0.1430 
 19 C        6.1660     5.4790     0.0960 C.ar  1 <1>  -0.1500 
 20 C       -6.4560     2.2360    -0.0970 C.3   1 <1>   0.0400 
 21 C        8.2260     3.7310    -0.4380 C.ar  1 <1>  -0.1500 
 22 C        6.7410     1.7240    -0.2450 C.3   1 <1>  -0.0970 
 23 C        7.4340     5.9750    -0.1470 C.ar  1 <1>  -0.1430 
 24 C        8.4660     5.0930    -0.4120 C.ar  1 <1>  -0.1500 
 25 C        7.6980     7.4690    -0.1180 C.3   1 <1>  -0.0970 
 26 H        2.6960     1.8530    -0.9900 H     1 <1>   0.0800 
 27 H        2.6770     1.1520     0.6310 H     1 <1>   0.0800 
 28 H        0.3990     4.4850     0.8720 H     1 <1>   0.0800 
 29 H        0.9380     4.4070    -0.8030 H     1 <1>   0.0800 
 30 H        2.1520     3.2020     1.6440 H     1 <1>   0.0800 
 31 H       -1.3890     4.6970    -1.1950 H     1 <1>   0.1500 
 32 H       -1.8220     0.8960     0.6850 H     1 <1>   0.1500 
 33 H       -3.8240     4.9030    -1.3220 H     1 <1>   0.1500 
 34 H       -4.2310     1.0910     0.5490 H     1 <1>   0.1500 
 35 H        4.6410     2.6200     0.6180 H     1 <1>   0.3700 
 36 H        5.3710     6.1670     0.3130 H     1 <1>   0.1500 
 37 H       -7.4490     2.5940    -0.2980 H     1 <1>   0.0800 
 38 H       -6.3340     2.0730     0.9590 H     1 <1>   0.0800 
 39 H       -6.2730     1.3330    -0.6510 H     1 <1>   0.0800 
 40 H        9.0440     3.0640    -0.6470 H     1 <1>   0.1500 
 41 H        5.9660     1.4810    -0.9510 H     1 <1>   0.0800 
 42 H        6.4660     1.3590     0.7280 H     1 <1>   0.0800 
 43 H        7.6390     1.2180    -0.5520 H     1 <1>   0.0800 
 44 H        9.4580     5.4630    -0.6010 H     1 <1>   0.1500 
 45 H        6.7830     8.0190    -0.2490 H     1 <1>   0.0800 
 46 H        8.3720     7.7430    -0.9100 H     1 <1>   0.0800 
 47 H        8.1360     7.7440     0.8240 H     1 <1>   0.0800 
@<TRIPOS>BOND
  1   1   2  2   
  2   2   3  am  
  3   2   4  1   
  4   3   5  1   
  5   3   6  1   
  6   4   7  1   
  7   4  26  1   
  8   4  27  1   
  9   5   8  ar  
 10   5   9  ar  
 11   6   7  1   
 12   6  28  1   
 13   6  29  1   
 14   7  10  1   
 15   7  30  1   
 16   8  11  ar  
 17   8  31  1   
 18   9  12  ar  
 19   9  32  1   
 20  10  13  2   
 21  10  14  am  
 22  11  15  ar  
 23  11  33  1   
 24  12  15  ar  
 25  12  34  1   
 26  14  16  1   
 27  14  35  1   
 28  15  17  1   
 29  16  18  ar  
 30  16  19  ar  
 31  17  20  1   
 32  18  21  ar  
 33  18  22  1   
 34  19  23  ar  
 35  19  36  1   
 36  20  37  1   
 37  20  38  1   
 38  20  39  1   
 39  21  24  ar  
 40  21  40  1   
 41  22  41  1   
 42  22  42  1   
 43  22  43  1   
 44  23  24  ar  
 45  23  25  1   
 46  24  44  1   
 47  25  45  1   
 48  25  46  1   
 49  25  47  1   
@<TRIPOS>SUBSTRUCTURE
  1 ****   7 GROUP 4 **** **** 0

# MOE 2024.06 (io_trps.svl 2023.06)
