@<TRIPOS>MOLECULE
NONAME
46 50 1 0 0 
SMALL
USER_CHARGES


@<TRIPOS>ATOM
  1 O        0.1110    -1.7400     2.3600 O.2   1 <1>  -0.5700 
  2 C        0.5210    -1.9030     1.2380 C.2   1 <1>   0.5690 
  3 N       -0.1830    -2.3750     0.1560 N.am  1 <1>  -0.2370 
  4 C        1.9580    -1.5650     0.8720 C.3   1 <1>  -0.0190 
  5 C       -1.5640    -2.6460     0.1990 C.ar  1 <1>   0.1170 
  6 C        0.5370    -2.3430    -1.0140 C.2   1 <1>   0.5690 
  7 C        1.9690    -1.8900    -0.7840 C.3   1 <1>  -0.0190 
  8 C        3.1220    -2.5210     1.5620 C.3   1 <1>   0.0580 
  9 C       -2.4810    -1.6270    -0.0870 C.ar  1 <1>   0.1000 
 10 C       -2.0140    -3.9160     0.5170 C.ar  1 <1>  -0.1500 
 11 O        0.1410    -2.6140    -2.1210 O.2   1 <1>  -0.5700 
 12 C        3.1400    -3.0320    -1.0450 C.3   1 <1>   0.0580 
 13 C        4.3270    -3.5110     1.1200 C.2   1 <1>  -0.2880 
 14 C        3.0510    -2.7180     0.2460 C.3   1 <1>  -0.1600 
 15 N       -2.0440    -0.3410    -0.4240 N.pl3 1 <1>  -0.8380 
 16 C       -3.8360    -1.9320    -0.0450 C.ar  1 <1>  -0.1500 
 17 C       -3.3730    -4.2340     0.5640 C.ar  1 <1>  -0.1790 
 18 C        4.3360    -3.7780    -0.2460 C.2   1 <1>  -0.2880 
 19 C       -2.0980     0.0020    -1.8780 C.3   1 <1>   0.2090 
 20 C       -2.4410     0.7660     0.4960 C.3   1 <1>   0.2090 
 21 C       -4.2700    -3.2050     0.2740 C.ar  1 <1>  -0.1500 
 22 C       -3.8250    -5.5780     0.8950 C.2   1 <1>   0.9790 
 23 C       -3.0900     1.1490    -2.1470 C.3   1 <1>   0.1200 
 24 C       -2.1830     2.1410    -0.1470 C.3   1 <1>   0.1200 
 25 O       -5.0400    -5.8460     0.9400 O.co2 1 <1>  -0.9000 
 26 O       -3.0050    -6.4830     1.1350 O.co2 1 <1>  -0.9000 
 27 O       -2.8240     2.3070    -1.3900 O.3   1 <1>  -0.5600 
 28 H        2.1330    -0.5210     1.0750 H     1 <1>   0.0800 
 29 H        2.1510    -0.9980    -1.3620 H     1 <1>   0.0800 
 30 H        2.5610    -3.1340     2.2560 H     1 <1>   0.0800 
 31 H       -1.3030    -4.6940     0.7380 H     1 <1>   0.1500 
 32 H        2.5870    -3.8630    -1.4640 H     1 <1>   0.0800 
 33 H        4.9970    -3.8740     1.8820 H     1 <1>   0.1500 
 34 H        3.8450    -1.8130     0.0750 H     1 <1>   0.0800 
 35 H        2.3320    -3.6290     0.4200 H     1 <1>   0.0800 
 36 H       -4.5560    -1.1690    -0.2660 H     1 <1>   0.1500 
 37 H        5.0160    -4.4000    -0.8050 H     1 <1>   0.1500 
 38 H       -2.3890    -0.8660    -2.4440 H     1 <1>   0.0800 
 39 H       -1.1170     0.2920    -2.2100 H     1 <1>   0.0800 
 40 H       -1.8710     0.6800     1.4050 H     1 <1>   0.0800 
 41 H       -3.4830     0.6820     0.7510 H     1 <1>   0.0800 
 42 H       -5.3240    -3.4260     0.3030 H     1 <1>   0.1500 
 43 H       -4.0860     0.8220    -1.9060 H     1 <1>   0.0800 
 44 H       -3.0650     1.4260    -3.1860 H     1 <1>   0.0800 
 45 H       -1.1270     2.2670    -0.3040 H     1 <1>   0.0800 
 46 H       -2.5260     2.9260     0.5030 H     1 <1>   0.0800 
@<TRIPOS>BOND
  1   1   2  2   
  2   2   3  am  
  3   2   4  1   
  4   3   5  1   
  5   3   6  am  
  6   4   7  1   
  7   4   8  1   
  8   4  28  1   
  9   5   9  ar  
 10   5  10  ar  
 11   6   7  1   
 12   6  11  2   
 13   7  12  1   
 14   7  29  1   
 15   8  13  1   
 16   8  14  1   
 17   8  30  1   
 18   9  15  1   
 19   9  16  ar  
 20  10  17  ar  
 21  10  31  1   
 22  12  14  1   
 23  12  18  1   
 24  12  32  1   
 25  13  18  2   
 26  13  33  1   
 27  14  34  1   
 28  14  35  1   
 29  15  19  1   
 30  15  20  1   
 31  16  21  ar  
 32  16  36  1   
 33  17  21  ar  
 34  17  22  1   
 35  18  37  1   
 36  19  23  1   
 37  19  38  1   
 38  19  39  1   
 39  20  24  1   
 40  20  40  1   
 41  20  41  1   
 42  21  42  1   
 43  22  25  ar  
 44  22  26  ar  
 45  23  27  1   
 46  23  43  1   
 47  23  44  1   
 48  24  27  1   
 49  24  45  1   
 50  24  46  1   
@<TRIPOS>SUBSTRUCTURE
  1 ****   3 GROUP 4 **** **** 0

# MOE 2024.06 (io_trps.svl 2023.06)
