@<TRIPOS>MOLECULE
NONAME
40 41 1 0 0 
SMALL
USER_CHARGES


@<TRIPOS>ATOM
  1 CL      -0.3780    -0.0500     1.4800 Cl    1 <1>  -0.1770 
  2 C       -1.8160    -0.7960     0.8370 C.ar  1 <1>   0.1770 
  3 C       -2.5330    -1.6770     1.6240 C.ar  1 <1>  -0.1500 
  4 C       -2.2180    -0.4970    -0.4500 C.ar  1 <1>  -0.1500 
  5 C       -3.6780    -2.2670     1.1130 C.ar  1 <1>  -0.1500 
  6 C       -3.3620    -1.0880    -0.9590 C.ar  1 <1>  -0.1500 
  7 C       -4.1000    -1.9700    -0.1780 C.ar  1 <1>  -0.1430 
  8 C       -5.3610    -2.6070    -0.7360 C.3   1 <1>   0.4870 
  9 N       -6.5480    -1.9490    -0.1210 N.4   1 <1>  -0.9590 
 10 C       -7.8040    -2.6910    -0.4680 C.3   1 <1>   0.3430 
 11 C       -6.6260    -0.5030    -0.4900 C.3   1 <1>   0.3430 
 12 C       -9.0320    -2.0730     0.2110 C.3   1 <1>  -0.0190 
 13 C       -7.8140     0.1490     0.2200 C.3   1 <1>  -0.1600 
 14 C      -10.2680    -2.8250    -0.2510 C.2   1 <1>   0.6590 
 15 C       -9.1350    -0.5670    -0.0960 C.3   1 <1>  -0.1600 
 16 O      -10.2170    -3.6040    -1.1670 O.2   1 <1>  -0.5700 
 17 O      -11.3840    -2.5710     0.4140 O.3   1 <1>  -0.4300 
 18 C      -12.6020    -3.1980     0.0810 C.3   1 <1>   0.1200 
 19 C      -13.6750    -2.6790     1.0320 C.3   1 <1>  -0.2400 
 20 H       -2.1900    -1.8950     2.6210 H     1 <1>   0.1500 
 21 H       -1.6340     0.1880    -1.0410 H     1 <1>   0.1500 
 22 H       -4.2220    -2.9590     1.7340 H     1 <1>   0.1500 
 23 H       -3.6610    -0.8530    -1.9670 H     1 <1>   0.1500 
 24 H       -5.3580    -3.6600    -0.5020 H     1 <1>   0.0800 
 25 H       -5.3870    -2.4970    -1.8080 H     1 <1>   0.0800 
 26 H       -6.4080    -1.9880     0.8960 H     1 <1>   0.4500 
 27 H       -7.7210    -3.7240    -0.1710 H     1 <1>   0.0800 
 28 H       -7.9530    -2.6680    -1.5370 H     1 <1>   0.0800 
 29 H       -6.7480    -0.4040    -1.5570 H     1 <1>   0.0800 
 30 H       -5.7170     0.0030    -0.2040 H     1 <1>   0.0800 
 31 H       -8.9490    -2.2180     1.2730 H     1 <1>   0.0800 
 32 H       -7.8840     1.1770    -0.0920 H     1 <1>   0.0800 
 33 H       -7.6380     0.1510     1.2830 H     1 <1>   0.0800 
 34 H       -9.9330    -0.1300     0.4820 H     1 <1>   0.0800 
 35 H       -9.3760    -0.4270    -1.1380 H     1 <1>   0.0800 
 36 H      -12.4790    -4.2640     0.1830 H     1 <1>   0.0800 
 37 H      -12.8430    -2.9590    -0.9410 H     1 <1>   0.0800 
 38 H      -13.4200    -2.9170     2.0490 H     1 <1>   0.0800 
 39 H      -14.6180    -3.1410     0.8000 H     1 <1>   0.0800 
 40 H      -13.7830    -1.6140     0.9260 H     1 <1>   0.0800 
@<TRIPOS>BOND
  1   1   2  1   
  2   2   3  ar  
  3   2   4  ar  
  4   3   5  ar  
  5   3  20  1   
  6   4   6  ar  
  7   4  21  1   
  8   5   7  ar  
  9   5  22  1   
 10   6   7  ar  
 11   6  23  1   
 12   7   8  1   
 13   8   9  1   
 14   8  24  1   
 15   8  25  1   
 16   9  10  1   
 17   9  11  1   
 18   9  26  1   
 19  10  12  1   
 20  10  27  1   
 21  10  28  1   
 22  11  13  1   
 23  11  29  1   
 24  11  30  1   
 25  12  14  1   
 26  12  15  1   
 27  12  31  1   
 28  13  15  1   
 29  13  32  1   
 30  13  33  1   
 31  14  16  2   
 32  14  17  1   
 33  15  34  1   
 34  15  35  1   
 35  17  18  1   
 36  18  19  1   
 37  18  36  1   
 38  18  37  1   
 39  19  38  1   
 40  19  39  1   
 41  19  40  1   
@<TRIPOS>SUBSTRUCTURE
  1 ****   9 GROUP 4 **** **** 0

# MOE 2024.06 (io_trps.svl 2023.06)
