@<TRIPOS>MOLECULE
NONAME
30 30 1 0 0 
SMALL
USER_CHARGES


@<TRIPOS>ATOM
  1 CL      -0.7750     0.7450     0.3070 Cl    1 <1>  -0.1770 
  2 C        0.4660     1.9770     0.2190 C.ar  1 <1>   0.1770 
  3 C        0.1950     3.2300    -0.3180 C.ar  1 <1>   0.0830 
  4 C        1.7230     1.6560     0.6920 C.ar  1 <1>  -0.1500 
  5 O       -1.0410     3.5330    -0.7930 O.3   1 <1>  -0.3630 
  6 C        1.2240     4.1690    -0.3960 C.ar  1 <1>   0.0830 
  7 C        2.7530     2.5870     0.6310 C.ar  1 <1>   0.0730 
  8 C       -2.0720     3.7690     0.1410 C.3   1 <1>   0.2000 
  9 O        0.9420     5.3860    -0.9410 O.3   1 <1>  -0.3630 
 10 C        2.4890     3.8390     0.0830 C.ar  1 <1>  -0.1500 
 11 C        4.0620     2.2630     1.1220 C.1   1 <1>   0.4840 
 12 C       -3.3870     3.3380    -0.5240 C.3   1 <1>  -0.1600 
 13 C       -2.0460     5.2530     0.5170 C.3   1 <1>  -0.2400 
 14 C        1.9390     6.3560    -1.1690 C.3   1 <1>   0.0400 
 15 N        5.1030     2.0120     1.5120 N.1   1 <1>  -0.5570 
 16 C       -4.5900     3.3690     0.4290 C.3   1 <1>  -0.2400 
 17 H        1.8960     0.6770     1.1040 H     1 <1>   0.1500 
 18 H       -1.8940     3.1630     1.0130 H     1 <1>   0.0800 
 19 H        3.2940     4.5490     0.0390 H     1 <1>   0.1500 
 20 H       -3.2680     2.3300    -0.8840 H     1 <1>   0.0800 
 21 H       -3.5840     3.9740    -1.3700 H     1 <1>   0.0800 
 22 H       -2.2060     5.8590    -0.3570 H     1 <1>   0.0800 
 23 H       -1.0980     5.5070     0.9530 H     1 <1>   0.0800 
 24 H       -2.8110     5.4730     1.2370 H     1 <1>   0.0800 
 25 H        1.4770     7.2000    -1.6490 H     1 <1>   0.0800 
 26 H        2.6930     5.9400    -1.8130 H     1 <1>   0.0800 
 27 H        2.3570     6.6590    -0.2250 H     1 <1>   0.0800 
 28 H       -4.3990     2.7630     1.2970 H     1 <1>   0.0800 
 29 H       -5.4600     2.9810    -0.0710 H     1 <1>   0.0800 
 30 H       -4.8060     4.3740     0.7440 H     1 <1>   0.0800 
@<TRIPOS>BOND
  1   1   2  1   
  2   2   3  ar  
  3   2   4  ar  
  4   3   5  1   
  5   3   6  ar  
  6   4   7  ar  
  7   4  17  1   
  8   5   8  1   
  9   6   9  1   
 10   6  10  ar  
 11   7  10  ar  
 12   7  11  1   
 13   8  12  1   
 14   8  13  1   
 15   8  18  1   
 16   9  14  1   
 17  10  19  1   
 18  11  15  3   
 19  12  16  1   
 20  12  20  1   
 21  12  21  1   
 22  13  22  1   
 23  13  23  1   
 24  13  24  1   
 25  14  25  1   
 26  14  26  1   
 27  14  27  1   
 28  16  28  1   
 29  16  29  1   
 30  16  30  1   
@<TRIPOS>SUBSTRUCTURE
  1 ****   3 GROUP 4 **** **** 0

# MOE 2024.06 (io_trps.svl 2023.06)
