@<TRIPOS>MOLECULE
NONAME
51 53 1 0 0 
SMALL
USER_CHARGES


@<TRIPOS>ATOM
  1 F       -4.5760    -1.0340    -0.7690 F     1 <1>  -0.1900 
  2 C       -3.6520    -0.4370    -0.0640 C.ar  1 <1>   0.1900 
  3 C       -2.3840    -0.9940     0.0150 C.ar  1 <1>  -0.1440 
  4 C       -3.9890     0.7420     0.5750 C.ar  1 <1>  -0.1500 
  5 C       -1.4290    -0.3210     0.7660 C.ar  1 <1>  -0.1500 
  6 C       -2.0420    -2.2910    -0.7020 C.3   1 <1>   0.2640 
  7 C       -3.0240     1.3960     1.3210 C.ar  1 <1>  -0.1500 
  8 C       -1.7470     0.8630     1.4130 C.ar  1 <1>  -0.1500 
  9 O       -1.4240    -3.1540     0.2070 O.3   1 <1>  -0.5600 
 10 C       -1.0850    -4.4060    -0.3060 C.3   1 <1>   0.1200 
 11 C       -0.6140    -5.2950     0.8570 C.3   1 <1>   0.2000 
 12 O        0.1950    -4.5320     1.7040 O.3   1 <1>  -0.6800 
 13 C        0.1560    -6.5600     0.4090 C.3   1 <1>   0.3430 
 14 N        1.6360    -6.3540     0.4970 N.4   1 <1>  -0.9590 
 15 C        2.2320    -5.6870    -0.7170 C.3   1 <1>   0.3430 
 16 C        2.3800    -7.6120     0.8710 C.3   1 <1>   0.3430 
 17 C        3.7530    -5.4600    -0.5820 C.3   1 <1>   0.2090 
 18 C        3.9010    -7.3870     1.0020 C.3   1 <1>   0.2090 
 19 N        4.4440    -6.7310    -0.2220 N.pl3 1 <1>  -0.8380 
 20 C        5.8280    -6.7330    -0.3530 C.ar  1 <1>   0.1000 
 21 C        6.4220    -7.5060    -1.3420 C.ar  1 <1>  -0.1500 
 22 C        6.6410    -5.9770     0.4850 C.ar  1 <1>  -0.1500 
 23 C        7.7960    -7.5260    -1.4940 C.ar  1 <1>  -0.1500 
 24 C        8.0150    -5.9940     0.3360 C.ar  1 <1>  -0.1500 
 25 C        8.5960    -6.7690    -0.6540 C.ar  1 <1>  -0.1500 
 26 H       -4.9850     1.1360     0.4880 H     1 <1>   0.1500 
 27 H       -0.4330    -0.7200     0.8520 H     1 <1>   0.1500 
 28 H       -1.3620    -2.0940    -1.5130 H     1 <1>   0.0800 
 29 H       -2.9270    -2.7710    -1.0810 H     1 <1>   0.0800 
 30 H       -3.2630     2.3150     1.8270 H     1 <1>   0.1500 
 31 H       -0.9980     1.3730     1.9940 H     1 <1>   0.1500 
 32 H       -0.3090    -4.2720    -1.0380 H     1 <1>   0.0800 
 33 H       -1.9510    -4.8400    -0.7770 H     1 <1>   0.0800 
 34 H       -1.4830    -5.5930     1.4190 H     1 <1>   0.0800 
 35 H       -0.2500    -3.6540     1.8030 H     1 <1>   0.4000 
 36 H       -0.1370    -6.8520    -0.5860 H     1 <1>   0.0800 
 37 H       -0.1270    -7.3580     1.0750 H     1 <1>   0.0800 
 38 H        1.7250    -5.6730     1.2780 H     1 <1>   0.4500 
 39 H        1.7560    -4.7350    -0.8820 H     1 <1>   0.0800 
 40 H        2.0650    -6.3020    -1.5850 H     1 <1>   0.0800 
 41 H        2.2210    -8.3610     0.1120 H     1 <1>   0.0800 
 42 H        2.0030    -7.9980     1.8030 H     1 <1>   0.0800 
 43 H        3.9460    -4.7160     0.1710 H     1 <1>   0.0800 
 44 H        4.1470    -5.0970    -1.5160 H     1 <1>   0.0800 
 45 H        4.3930    -8.3350     1.1420 H     1 <1>   0.0800 
 46 H        4.1080    -6.7770     1.8640 H     1 <1>   0.0800 
 47 H        5.7980    -8.0910    -1.9910 H     1 <1>   0.1500 
 48 H        6.1980    -5.3750     1.2550 H     1 <1>   0.1500 
 49 H        8.2450    -8.1280    -2.2640 H     1 <1>   0.1500 
 50 H        8.6370    -5.4060     0.9890 H     1 <1>   0.1500 
 51 H        9.6650    -6.7830    -0.7710 H     1 <1>   0.1500 
@<TRIPOS>BOND
  1   1   2  1   
  2   2   3  ar  
  3   2   4  ar  
  4   3   5  ar  
  5   3   6  1   
  6   4   7  ar  
  7   4  26  1   
  8   5   8  ar  
  9   5  27  1   
 10   6   9  1   
 11   6  28  1   
 12   6  29  1   
 13   7   8  ar  
 14   7  30  1   
 15   8  31  1   
 16   9  10  1   
 17  10  11  1   
 18  10  32  1   
 19  10  33  1   
 20  11  12  1   
 21  11  13  1   
 22  11  34  1   
 23  12  35  1   
 24  13  14  1   
 25  13  36  1   
 26  13  37  1   
 27  14  15  1   
 28  14  16  1   
 29  14  38  1   
 30  15  17  1   
 31  15  39  1   
 32  15  40  1   
 33  16  18  1   
 34  16  41  1   
 35  16  42  1   
 36  17  19  1   
 37  17  43  1   
 38  17  44  1   
 39  18  19  1   
 40  18  45  1   
 41  18  46  1   
 42  19  20  1   
 43  20  21  ar  
 44  20  22  ar  
 45  21  23  ar  
 46  21  47  1   
 47  22  24  ar  
 48  22  48  1   
 49  23  25  ar  
 50  23  49  1   
 51  24  25  ar  
 52  24  50  1   
 53  25  51  1   
@<TRIPOS>SUBSTRUCTURE
  1 ****  15 GROUP 4 **** **** 0

# MOE 2024.06 (io_trps.svl 2023.06)
