@<TRIPOS>MOLECULE
NONAME
41 42 1 0 0 
SMALL
USER_CHARGES


@<TRIPOS>ATOM
  1 CL      -0.6680     0.0660    -1.7330 Cl    1 <1>  -0.1770 
  2 C       -2.2010    -0.5080    -1.1250 C.ar  1 <1>   0.1770 
  3 C       -2.2790    -1.0100     0.1600 C.ar  1 <1>  -0.1500 
  4 C       -3.3180    -0.4530    -1.9380 C.ar  1 <1>  -0.1500 
  5 C       -3.4970    -1.4630     0.6370 C.ar  1 <1>  -0.1500 
  6 C       -4.5310    -0.9090    -1.4520 C.ar  1 <1>  -0.1500 
  7 C       -4.6380    -1.4230    -0.1620 C.ar  1 <1>   0.1170 
  8 N       -5.8950    -1.8620     0.2810 N.am  1 <1>  -0.5470 
  9 C       -6.2550    -2.7220     1.2850 C.2   1 <1>   0.5690 
 10 O       -5.4590    -3.2980     1.9840 O.2   1 <1>  -0.5700 
 11 C       -7.7340    -2.9680     1.5430 C.3   1 <1>   0.1310 
 12 S       -8.7710    -2.5540     0.0520 S.3   1 <1>  -0.2860 
 13 C      -10.4380    -2.8560     0.6490 C.2   1 <1>   0.2430 
 14 N      -10.7050    -3.2080     1.8550 N.2   1 <1>  -0.3380 
 15 N      -11.5170    -2.7350    -0.1250 N.pl3 1 <1>   0.0480 
 16 N      -12.0330    -3.3380     1.9070 N.2   1 <1>  -0.3380 
 17 C      -12.4970    -3.0610     0.7320 C.2   1 <1>   0.0060 
 18 C      -11.5780    -2.3500    -1.5500 C.3   1 <1>   0.0160 
 19 C      -13.9790    -3.1040     0.3840 C.3   1 <1>   0.0200 
 20 C      -14.3470    -4.2810    -0.5430 C.3   1 <1>  -0.0800 
 21 C      -15.8350    -4.2230    -0.9110 C.3   1 <1>  -0.2400 
 22 C      -14.0290    -5.6340     0.1090 C.3   1 <1>  -0.2400 
 23 H       -1.3980    -1.0440     0.7760 H     1 <1>   0.1500 
 24 H       -3.2320    -0.0580    -2.9340 H     1 <1>   0.1500 
 25 H       -3.5530    -1.8470     1.6400 H     1 <1>   0.1500 
 26 H       -5.4000    -0.8690    -2.0840 H     1 <1>   0.1500 
 27 H       -6.6850    -1.5350    -0.2770 H     1 <1>   0.3700 
 28 H       -8.0790    -2.3550     2.3540 H     1 <1>   0.0800 
 29 H       -7.9080    -4.0030     1.7730 H     1 <1>   0.0800 
 30 H      -10.8710    -1.5630    -1.7390 H     1 <1>   0.0800 
 31 H      -12.5640    -2.0030    -1.7940 H     1 <1>   0.0800 
 32 H      -11.3350    -3.2030    -2.1560 H     1 <1>   0.0800 
 33 H      -14.2560    -2.1740    -0.0770 H     1 <1>   0.0800 
 34 H      -14.5420    -3.1870     1.2980 H     1 <1>   0.0800 
 35 H      -13.7760    -4.2030    -1.4520 H     1 <1>   0.0800 
 36 H      -16.4470    -4.3110    -0.0300 H     1 <1>   0.0800 
 37 H      -16.0850    -5.0280    -1.5800 H     1 <1>   0.0800 
 38 H      -16.0670    -3.2940    -1.4000 H     1 <1>   0.0800 
 39 H      -14.5680    -5.7460     1.0330 H     1 <1>   0.0800 
 40 H      -12.9770    -5.7180     0.3200 H     1 <1>   0.0800 
 41 H      -14.3020    -6.4420    -0.5470 H     1 <1>   0.0800 
@<TRIPOS>BOND
  1   1   2  1   
  2   2   3  ar  
  3   2   4  ar  
  4   3   5  ar  
  5   3  23  1   
  6   4   6  ar  
  7   4  24  1   
  8   5   7  ar  
  9   5  25  1   
 10   6   7  ar  
 11   6  26  1   
 12   7   8  1   
 13   8   9  am  
 14   8  27  1   
 15   9  10  2   
 16   9  11  1   
 17  11  12  1   
 18  11  28  1   
 19  11  29  1   
 20  12  13  1   
 21  13  14  2   
 22  13  15  1   
 23  14  16  1   
 24  15  17  1   
 25  15  18  1   
 26  16  17  2   
 27  17  19  1   
 28  18  30  1   
 29  18  31  1   
 30  18  32  1   
 31  19  20  1   
 32  19  33  1   
 33  19  34  1   
 34  20  21  1   
 35  20  22  1   
 36  20  35  1   
 37  21  36  1   
 38  21  37  1   
 39  21  38  1   
 40  22  39  1   
 41  22  40  1   
 42  22  41  1   
@<TRIPOS>SUBSTRUCTURE
  1 ****  12 GROUP 4 **** **** 0

# MOE 2024.06 (io_trps.svl 2023.06)
