@<TRIPOS>MOLECULE
NONAME
41 42 1 0 0 
SMALL
USER_CHARGES


@<TRIPOS>ATOM
  1 O       -0.3560    -1.1310     1.1080 O.2   1 <1>  -0.5700 
  2 C       -0.7140    -2.1330     0.5170 C.2   1 <1>   0.7800 
  3 O        0.1970    -3.0260     0.1260 O.3   1 <1>  -0.4300 
  4 N       -2.0300    -2.3900     0.2260 N.am  1 <1>  -0.6600 
  5 C        1.5670    -2.8230     0.3880 C.3   1 <1>   0.1200 
  6 C       -2.4800    -3.6070    -0.5030 C.3   1 <1>   0.1400 
  7 C       -3.1110    -1.4470     0.6220 C.3   1 <1>   0.1400 
  8 C        2.3380    -4.0110    -0.1790 C.3   1 <1>  -0.2400 
  9 C       -3.5190    -4.3500     0.3380 C.3   1 <1>  -0.1600 
 10 C       -4.1560    -2.1850     1.4600 C.3   1 <1>  -0.1600 
 11 C       -4.6690    -3.4180     0.7200 C.3   1 <1>   0.2890 
 12 N       -5.6040    -4.1390     1.5990 N.pl3 1 <1>  -0.8690 
 13 C       -6.5960    -4.9130     1.0100 C.ar  1 <1>   0.1000 
 14 C       -7.5440    -4.3490     0.1650 C.ar  1 <1>  -0.1500 
 15 C       -6.6540    -6.2760     1.2650 C.ar  1 <1>  -0.1500 
 16 C       -8.5210    -5.1270    -0.4330 C.ar  1 <1>  -0.1440 
 17 C       -7.6250    -7.0620     0.6730 C.ar  1 <1>  -0.1500 
 18 C       -8.5560    -6.4890    -0.1780 C.ar  1 <1>  -0.1500 
 19 C       -9.5510    -4.5060    -1.3590 C.3   1 <1>  -0.0970 
 20 H        1.7030    -2.7460     1.4540 H     1 <1>   0.0800 
 21 H        1.8710    -1.9030    -0.0830 H     1 <1>   0.0800 
 22 H       -1.6530    -4.2630    -0.7110 H     1 <1>   0.0800 
 23 H       -2.9130    -3.3100    -1.4430 H     1 <1>   0.0800 
 24 H       -3.5670    -1.0450    -0.2670 H     1 <1>   0.0800 
 25 H       -2.7100    -0.6240     1.1900 H     1 <1>   0.0800 
 26 H        2.0160    -4.9210     0.2940 H     1 <1>   0.0800 
 27 H        3.3890    -3.8820     0.0050 H     1 <1>   0.0800 
 28 H        2.1820    -4.0810    -1.2410 H     1 <1>   0.0800 
 29 H       -3.0400    -4.7310     1.2220 H     1 <1>   0.0800 
 30 H       -3.9030    -5.1780    -0.2290 H     1 <1>   0.0800 
 31 H       -4.9780    -1.5240     1.6650 H     1 <1>   0.0800 
 32 H       -3.7100    -2.4730     2.3940 H     1 <1>   0.0800 
 33 H       -5.1800    -3.1040    -0.1750 H     1 <1>   0.0800 
 34 H       -5.0990    -4.6180     2.3490 H     1 <1>   0.4000 
 35 H       -7.5110    -3.2910    -0.0120 H     1 <1>   0.1500 
 36 H       -5.9340    -6.7220     1.9250 H     1 <1>   0.1500 
 37 H       -7.6610    -8.1180     0.8730 H     1 <1>   0.1500 
 38 H       -9.3080    -7.1060    -0.6370 H     1 <1>   0.1500 
 39 H       -9.5320    -3.4330    -1.2870 H     1 <1>   0.0800 
 40 H      -10.5350    -4.8470    -1.0960 H     1 <1>   0.0800 
 41 H       -9.3430    -4.7870    -2.3760 H     1 <1>   0.0800 
@<TRIPOS>BOND
  1   1   2  2   
  2   2   3  1   
  3   2   4  am  
  4   3   5  1   
  5   4   6  1   
  6   4   7  1   
  7   5   8  1   
  8   5  20  1   
  9   5  21  1   
 10   6   9  1   
 11   6  22  1   
 12   6  23  1   
 13   7  10  1   
 14   7  24  1   
 15   7  25  1   
 16   8  26  1   
 17   8  27  1   
 18   8  28  1   
 19   9  11  1   
 20   9  29  1   
 21   9  30  1   
 22  10  11  1   
 23  10  31  1   
 24  10  32  1   
 25  11  12  1   
 26  11  33  1   
 27  12  13  1   
 28  12  34  1   
 29  13  14  ar  
 30  13  15  ar  
 31  14  16  ar  
 32  14  35  1   
 33  15  17  ar  
 34  15  36  1   
 35  16  18  ar  
 36  16  19  1   
 37  17  18  ar  
 38  17  37  1   
 39  18  38  1   
 40  19  39  1   
 41  19  40  1   
 42  19  41  1   
@<TRIPOS>SUBSTRUCTURE
  1 ****   9 GROUP 4 **** **** 0

# MOE 2024.06 (io_trps.svl 2023.06)
