@<TRIPOS>MOLECULE
NONAME
42 43 1 0 0 
SMALL
USER_CHARGES


@<TRIPOS>ATOM
  1 O       -1.9280    -0.2650     0.9680 O.co2 1 <1>  -0.9000 
  2 C       -2.6020     0.6320     1.4800 C.2   1 <1>   0.9060 
  3 O       -3.4380     0.3860     2.3600 O.co2 1 <1>  -0.9000 
  4 C       -2.4410     2.0740     1.0150 C.3   1 <1>  -0.1860 
  5 C       -3.7470     2.9020     1.1230 C.3   1 <1>  -0.0190 
  6 C       -1.8770     2.1600    -0.4140 C.3   1 <1>  -0.0220 
  7 C       -4.9030     2.3310     0.2840 C.2   1 <1>   0.5690 
  8 C       -3.4430     4.3830     0.8200 C.3   1 <1>  -0.0220 
  9 C       -1.8230     3.5940    -0.9400 C.2   1 <1>  -0.2760 
 10 O       -5.2800     2.8960    -0.7180 O.2   1 <1>  -0.5700 
 11 N       -5.4760     1.1800     0.7340 N.am  1 <1>  -0.5470 
 12 C       -2.5120     4.5980    -0.3750 C.2   1 <1>  -0.2760 
 13 C       -0.9180     3.6840    -2.1630 C.3   1 <1>  -0.1020 
 14 C       -6.4020     0.3420     0.0980 C.ar  1 <1>   0.1170 
 15 C       -2.5010     6.0610    -0.8020 C.3   1 <1>  -0.1020 
 16 C       -7.7160     0.7180    -0.2100 C.ar  1 <1>   0.0820 
 17 C       -5.9870    -0.9420    -0.2290 C.ar  1 <1>  -0.1500 
 18 O       -8.1820     1.9460     0.1290 O.3   1 <1>  -0.3630 
 19 C       -8.5720    -0.1740    -0.8390 C.ar  1 <1>  -0.1500 
 20 C       -6.8420    -1.8300    -0.8600 C.ar  1 <1>  -0.1500 
 21 C       -8.4300     2.8270    -0.9420 C.3   1 <1>   0.0400 
 22 C       -8.1360    -1.4460    -1.1670 C.ar  1 <1>  -0.1500 
 23 H       -1.7180     2.5110     1.6750 H     1 <1>   0.0800 
 24 H       -4.0780     2.8620     2.1450 H     1 <1>   0.0800 
 25 H       -2.4800     1.5630    -1.0770 H     1 <1>   0.0800 
 26 H       -0.8880     1.7350    -0.4060 H     1 <1>   0.0800 
 27 H       -2.9760     4.8200     1.6840 H     1 <1>   0.0800 
 28 H       -4.3720     4.9010     0.6590 H     1 <1>   0.0800 
 29 H       -4.9210     0.7240     1.4860 H     1 <1>   0.3700 
 30 H       -1.2340     2.9620    -2.8950 H     1 <1>   0.0800 
 31 H        0.0960     3.4670    -1.8820 H     1 <1>   0.0800 
 32 H       -0.9420     4.6480    -2.6290 H     1 <1>   0.0800 
 33 H       -2.2690     6.6850     0.0420 H     1 <1>   0.0800 
 34 H       -3.4720     6.3330    -1.1760 H     1 <1>   0.0800 
 35 H       -1.7780     6.2650    -1.5650 H     1 <1>   0.0800 
 36 H       -4.9790    -1.2370     0.0150 H     1 <1>   0.1500 
 37 H       -9.5790     0.1260    -1.0610 H     1 <1>   0.1500 
 38 H       -6.4930    -2.8170    -1.1070 H     1 <1>   0.1500 
 39 H       -9.3310     2.5260    -1.4420 H     1 <1>   0.0800 
 40 H       -7.5960     2.7970    -1.6210 H     1 <1>   0.0800 
 41 H       -8.5370     3.8180    -0.5410 H     1 <1>   0.0800 
 42 H       -8.8010    -2.1360    -1.6560 H     1 <1>   0.1500 
@<TRIPOS>BOND
  1   1   2  ar  
  2   2   3  ar  
  3   2   4  1   
  4   4   5  1   
  5   4   6  1   
  6   4  23  1   
  7   5   7  1   
  8   5   8  1   
  9   5  24  1   
 10   6   9  1   
 11   6  25  1   
 12   6  26  1   
 13   7  10  2   
 14   7  11  am  
 15   8  12  1   
 16   8  27  1   
 17   8  28  1   
 18   9  12  2   
 19   9  13  1   
 20  11  14  1   
 21  11  29  1   
 22  12  15  1   
 23  13  30  1   
 24  13  31  1   
 25  13  32  1   
 26  14  16  ar  
 27  14  17  ar  
 28  15  33  1   
 29  15  34  1   
 30  15  35  1   
 31  16  18  1   
 32  16  19  ar  
 33  17  20  ar  
 34  17  36  1   
 35  18  21  1   
 36  19  22  ar  
 37  19  37  1   
 38  20  22  ar  
 39  20  38  1   
 40  21  39  1   
 41  21  40  1   
 42  21  41  1   
 43  22  42  1   
@<TRIPOS>SUBSTRUCTURE
  1 ****   7 GROUP 4 **** **** 0

# MOE 2024.06 (io_trps.svl 2023.06)
