@<TRIPOS>MOLECULE
NONAME
46 48 1 0 0 
SMALL
USER_CHARGES


@<TRIPOS>ATOM
  1 S        0.1110     0.0080     0.2800 S.3   1 <1>  -0.3710 
  2 C        1.7280     0.6370    -0.1080 C.2   1 <1>   0.6410 
  3 C       -1.0720     1.0650    -0.6830 C.3   1 <1>   0.2110 
  4 N        1.7700     1.9240    -0.5220 N.pl3 1 <1>  -0.8500 
  5 N        2.7350    -0.1350     0.0400 N.2   1 <1>  -0.4500 
  6 C       -2.3470     0.2880    -0.9770 C.2   1 <1>   0.5690 
  7 C       -1.5410     2.2220     0.2140 C.3   1 <1>  -0.0990 
  8 N        3.9720     0.3630    -0.2370 N.2   1 <1>  -0.4500 
  9 O       -2.4270    -0.6200    -1.7650 O.2   1 <1>  -0.5700 
 10 N       -3.3840     0.8040    -0.2640 N.am  1 <1>  -0.4200 
 11 C       -2.9970     1.8970     0.4480 C.2   1 <1>   0.5690 
 12 C        4.9990    -0.3820    -0.1810 C.2   1 <1>   0.3280 
 13 C       -4.7560     0.2450    -0.2640 C.3   1 <1>   0.0600 
 14 O       -3.7020     2.5580     1.1630 O.2   1 <1>  -0.5700 
 15 C        6.3720     0.1960    -0.4810 C.3   1 <1>  -0.0990 
 16 C        5.0110    -1.8680     0.1680 C.3   1 <1>  -0.1790 
 17 C        7.1830     0.4370     0.7980 C.3   1 <1>  -0.0170 
 18 C        8.5290     1.0560     0.4630 C.ar  1 <1>  -0.1430 
 19 C        9.6320     0.2390     0.2350 C.ar  1 <1>  -0.1500 
 20 C        8.6590     2.4420     0.3780 C.ar  1 <1>  -0.1500 
 21 C       10.8380     0.8400    -0.0700 C.ar  1 <1>   0.0830 
 22 C        9.8800     3.0290     0.0690 C.ar  1 <1>  -0.1500 
 23 O       12.0140     0.2570    -0.3230 O.3   1 <1>  -0.3620 
 24 C       10.9580     2.1960    -0.1510 C.ar  1 <1>   0.0830 
 25 C       12.9440     1.3080    -0.5780 C.3   1 <1>   0.4000 
 26 O       12.2170     2.5300    -0.4570 O.3   1 <1>  -0.3620 
 27 H       -0.5920     1.3820    -1.5900 H     1 <1>   0.0800 
 28 H        2.7210     2.2590    -0.6940 H     1 <1>   0.4000 
 29 H        1.1260     2.6170    -0.1580 H     1 <1>   0.4000 
 30 H       -1.0160     2.2630     1.1500 H     1 <1>   0.0800 
 31 H       -1.4680     3.1630    -0.2990 H     1 <1>   0.0800 
 32 H       -5.4680     1.0130    -0.0150 H     1 <1>   0.0800 
 33 H       -4.8210    -0.5460     0.4620 H     1 <1>   0.0800 
 34 H       -4.9900    -0.1500    -1.2380 H     1 <1>   0.0800 
 35 H        6.9080    -0.4650    -1.1380 H     1 <1>   0.0800 
 36 H        6.2510     1.1330    -0.9950 H     1 <1>   0.0800 
 37 H        5.5390    -2.4160    -0.5900 H     1 <1>   0.0800 
 38 H        4.0190    -2.2730     0.2350 H     1 <1>   0.0800 
 39 H        5.4960    -2.0190     1.1140 H     1 <1>   0.0800 
 40 H        7.3370    -0.4890     1.3220 H     1 <1>   0.0800 
 41 H        6.6350     1.0940     1.4520 H     1 <1>   0.0800 
 42 H        9.5690    -0.8320     0.2910 H     1 <1>   0.1500 
 43 H        7.8040     3.0720     0.5530 H     1 <1>   0.1500 
 44 H        9.9940     4.0950     0.0010 H     1 <1>   0.1500 
 45 H       13.7280     1.2820     0.1580 H     1 <1>   0.0800 
 46 H       13.3300     1.2150    -1.5770 H     1 <1>   0.0800 
@<TRIPOS>BOND
  1   1   2  1   
  2   1   3  1   
  3   2   4  1   
  4   2   5  2   
  5   3   6  1   
  6   3   7  1   
  7   3  27  1   
  8   4  28  1   
  9   4  29  1   
 10   5   8  1   
 11   6   9  2   
 12   6  10  am  
 13   7  11  1   
 14   7  30  1   
 15   7  31  1   
 16   8  12  2   
 17  10  11  am  
 18  10  13  1   
 19  11  14  2   
 20  12  15  1   
 21  12  16  1   
 22  13  32  1   
 23  13  33  1   
 24  13  34  1   
 25  15  17  1   
 26  15  35  1   
 27  15  36  1   
 28  16  37  1   
 29  16  38  1   
 30  16  39  1   
 31  17  18  1   
 32  17  40  1   
 33  17  41  1   
 34  18  19  ar  
 35  18  20  ar  
 36  19  21  ar  
 37  19  42  1   
 38  20  22  ar  
 39  20  43  1   
 40  21  23  1   
 41  21  24  ar  
 42  22  24  ar  
 43  22  44  1   
 44  23  25  1   
 45  24  26  1   
 46  25  26  1   
 47  25  45  1   
 48  25  46  1   
@<TRIPOS>SUBSTRUCTURE
  1 ****   8 GROUP 4 **** **** 0

# MOE 2024.06 (io_trps.svl 2023.06)
