@<TRIPOS>MOLECULE
NONAME
43 45 1 0 0 
SMALL
USER_CHARGES


@<TRIPOS>ATOM
  1 BR      -0.1180     0.6430     1.4590 Br    1 <1>  -0.1110 
  2 C       -1.4060     2.0530     1.2230 C.ar  1 <1>   0.1110 
  3 C       -2.4720     1.8450     0.3690 C.ar  1 <1>  -0.1500 
  4 C       -1.2320     3.2340     1.9160 C.ar  1 <1>  -0.1500 
  5 C       -3.4170     2.8480     0.1760 C.ar  1 <1>  -0.0090 
  6 C       -2.1670     4.2360     1.7390 C.ar  1 <1>  -0.1500 
  7 S       -4.8200     2.5660    -0.9390 S.o2  1 <1>   1.4470 
  8 C       -3.2430     4.0430     0.8790 C.ar  1 <1>   0.0830 
  9 O       -4.4740     1.4700    -1.8200 O.2   1 <1>  -0.6500 
 10 O       -5.3110     3.7840    -1.5490 O.2   1 <1>  -0.6500 
 11 N       -6.0600     1.9820     0.0600 N.am  1 <1>  -0.8490 
 12 O       -4.1440     5.0390     0.7650 O.3   1 <1>  -0.3630 
 13 C       -7.1460     1.4020    -0.7560 C.3   1 <1>   0.1960 
 14 C       -6.6080     3.0300     0.9460 C.3   1 <1>   0.1960 
 15 C       -3.7710     6.1400    -0.0360 C.3   1 <1>   0.0400 
 16 C       -8.3040     0.8380     0.0900 C.3   1 <1>   0.2090 
 17 C       -7.7530     2.5250     1.8470 C.3   1 <1>   0.2090 
 18 N       -8.8270     1.8310     1.0750 N.pl3 1 <1>  -0.8380 
 19 C       -9.9700     2.5480     0.7450 C.ar  1 <1>   0.1000 
 20 C      -11.1660     2.2480     1.3810 C.ar  1 <1>  -0.1500 
 21 C       -9.9540     3.5630    -0.2090 C.ar  1 <1>  -0.1500 
 22 C      -12.3090     2.9520     1.0630 C.ar  1 <1>   0.1770 
 23 C      -11.1050     4.2660    -0.5230 C.ar  1 <1>  -0.1500 
 24 CL     -13.8070     2.5650     1.8710 Cl    1 <1>  -0.1770 
 25 C      -12.2950     3.9610     0.1170 C.ar  1 <1>  -0.1500 
 26 H       -2.5630     0.9040    -0.1450 H     1 <1>   0.1500 
 27 H       -0.3910     3.3610     2.5750 H     1 <1>   0.1500 
 28 H       -2.0710     5.1660     2.2720 H     1 <1>   0.1500 
 29 H       -6.7530     0.5990    -1.3560 H     1 <1>   0.0800 
 30 H       -7.5350     2.1480    -1.4270 H     1 <1>   0.0800 
 31 H       -6.9690     3.8600     0.3620 H     1 <1>   0.0800 
 32 H       -5.8300     3.3970     1.5900 H     1 <1>   0.0800 
 33 H       -4.5970     6.8280    -0.0660 H     1 <1>   0.0800 
 34 H       -3.5530     5.7900    -1.0300 H     1 <1>   0.0800 
 35 H       -2.9090     6.6170     0.3950 H     1 <1>   0.0800 
 36 H       -7.9580    -0.0310     0.6220 H     1 <1>   0.0800 
 37 H       -9.1020     0.5270    -0.5620 H     1 <1>   0.0800 
 38 H       -8.1780     3.3560     2.3820 H     1 <1>   0.0800 
 39 H       -7.3510     1.8390     2.5720 H     1 <1>   0.0800 
 40 H      -11.1930     1.4680     2.1180 H     1 <1>   0.1500 
 41 H       -9.0340     3.8030    -0.7080 H     1 <1>   0.1500 
 42 H      -11.0750     5.0480    -1.2630 H     1 <1>   0.1500 
 43 H      -13.2010     4.4940    -0.1110 H     1 <1>   0.1500 
@<TRIPOS>BOND
  1   1   2  1   
  2   2   3  ar  
  3   2   4  ar  
  4   3   5  ar  
  5   3  26  1   
  6   4   6  ar  
  7   4  27  1   
  8   5   7  1   
  9   5   8  ar  
 10   6   8  ar  
 11   6  28  1   
 12   7   9  2   
 13   7  10  2   
 14   7  11  am  
 15   8  12  1   
 16  11  13  1   
 17  11  14  1   
 18  12  15  1   
 19  13  16  1   
 20  13  29  1   
 21  13  30  1   
 22  14  17  1   
 23  14  31  1   
 24  14  32  1   
 25  15  33  1   
 26  15  34  1   
 27  15  35  1   
 28  16  18  1   
 29  16  36  1   
 30  16  37  1   
 31  17  18  1   
 32  17  38  1   
 33  17  39  1   
 34  18  19  1   
 35  19  20  ar  
 36  19  21  ar  
 37  20  22  ar  
 38  20  40  1   
 39  21  23  ar  
 40  21  41  1   
 41  22  24  1   
 42  22  25  ar  
 43  23  25  ar  
 44  23  42  1   
 45  25  43  1   
@<TRIPOS>SUBSTRUCTURE
  1 ****  14 GROUP 4 **** **** 0

# MOE 2024.06 (io_trps.svl 2023.06)
