@<TRIPOS>MOLECULE
NONAME
39 41 1 0 0 
SMALL
USER_CHARGES


@<TRIPOS>ATOM
  1 BR      -0.6450    -0.1170    -1.2130 Br    1 <1>  -0.0580 
  2 C       -2.4350    -0.6500    -0.7840 C.2   1 <1>   0.0980 
  3 S       -2.6000    -1.9800     0.3270 S.3   1 <1>  -0.0800 
  4 C       -3.6180    -0.1680    -1.1980 C.2   1 <1>  -0.1500 
  5 C       -4.3700    -1.8890     0.2310 C.2   1 <1>  -0.0450 
  6 C       -4.7110    -0.8750    -0.6180 C.2   1 <1>  -0.1500 
  7 C       -5.1360    -2.8240     1.0080 C.2   1 <1>   0.5940 
  8 O       -4.6480    -3.6120     1.7790 O.2   1 <1>  -0.5700 
  9 C       -6.6470    -2.8170     0.9440 C.3   1 <1>  -0.0990 
 10 C       -7.1870    -3.5620    -0.2780 C.3   1 <1>   0.4850 
 11 O       -7.1340    -2.7210    -1.3880 O.3   1 <1>  -0.6800 
 12 C       -6.5610    -4.9510    -0.5460 C.2   1 <1>   0.5690 
 13 C       -8.6380    -3.9620    -0.0730 C.ar  1 <1>  -0.1440 
 14 O       -5.4230    -5.1170    -0.9250 O.2   1 <1>  -0.5700 
 15 N       -7.5070    -5.9300    -0.3670 N.am  1 <1>  -0.4770 
 16 C       -8.7500    -5.3400    -0.1150 C.ar  1 <1>   0.1170 
 17 C       -9.7440    -3.1580     0.1360 C.ar  1 <1>  -0.1500 
 18 C       -7.2710    -7.3930    -0.4570 C.3   1 <1>   0.2200 
 19 C       -9.9920    -5.9350     0.0660 C.ar  1 <1>  -0.1500 
 20 C      -10.9820    -3.7550     0.3150 C.ar  1 <1>  -0.1500 
 21 C       -6.1830    -7.8220     0.5290 C.3   1 <1>  -0.2400 
 22 C       -6.9230    -7.7840    -1.8930 C.3   1 <1>  -0.2400 
 23 C      -11.1030    -5.1370     0.2820 C.ar  1 <1>  -0.1500 
 24 H       -3.7570     0.6480    -1.8840 H     1 <1>   0.1500 
 25 H       -5.7200    -0.5950    -0.8650 H     1 <1>   0.1500 
 26 H       -7.0190    -1.8100     0.9600 H     1 <1>   0.0800 
 27 H       -7.0110    -3.3090     1.8270 H     1 <1>   0.0800 
 28 H       -7.4120    -3.2310    -2.1740 H     1 <1>   0.4000 
 29 H       -9.6480    -2.0850     0.1570 H     1 <1>   0.1500 
 30 H       -8.1740    -7.9070    -0.1830 H     1 <1>   0.0800 
 31 H      -10.1030    -7.0020     0.0370 H     1 <1>   0.1500 
 32 H      -11.8540    -3.1440     0.4800 H     1 <1>   0.1500 
 33 H       -5.2300    -7.4010     0.2630 H     1 <1>   0.0800 
 34 H       -6.0880    -8.8930     0.5240 H     1 <1>   0.0800 
 35 H       -6.4410    -7.5090     1.5250 H     1 <1>   0.0800 
 36 H       -5.9920    -7.3400    -2.1960 H     1 <1>   0.0800 
 37 H       -7.7020    -7.4660    -2.5620 H     1 <1>   0.0800 
 38 H       -6.8260    -8.8520    -1.9670 H     1 <1>   0.0800 
 39 H      -12.0700    -5.5900     0.4230 H     1 <1>   0.1500 
@<TRIPOS>BOND
  1   1   2  1   
  2   2   3  1   
  3   2   4  2   
  4   3   5  1   
  5   4   6  1   
  6   4  24  1   
  7   5   6  2   
  8   5   7  1   
  9   6  25  1   
 10   7   8  2   
 11   7   9  1   
 12   9  10  1   
 13   9  26  1   
 14   9  27  1   
 15  10  11  1   
 16  10  12  1   
 17  10  13  1   
 18  11  28  1   
 19  12  14  2   
 20  12  15  am  
 21  13  16  ar  
 22  13  17  ar  
 23  15  16  1   
 24  15  18  1   
 25  16  19  ar  
 26  17  20  ar  
 27  17  29  1   
 28  18  21  1   
 29  18  22  1   
 30  18  30  1   
 31  19  23  ar  
 32  19  31  1   
 33  20  23  ar  
 34  20  32  1   
 35  21  33  1   
 36  21  34  1   
 37  21  35  1   
 38  22  36  1   
 39  22  37  1   
 40  22  38  1   
 41  23  39  1   
@<TRIPOS>SUBSTRUCTURE
  1 ****  10 GROUP 4 **** **** 0

# MOE 2024.06 (io_trps.svl 2023.06)
