@<TRIPOS>MOLECULE
NONAME
39 40 1 0 0 
SMALL
USER_CHARGES


@<TRIPOS>ATOM
  1 O       -0.4210     0.2090     0.2590 O.3   1 <1>  -0.3620 
  2 C       -1.5140    -0.5630     0.4760 C.ar  1 <1>   0.0830 
  3 C        0.7060    -0.2830    -0.4310 C.3   1 <1>   0.0400 
  4 C       -1.6500    -1.8650     0.0050 C.ar  1 <1>  -0.1500 
  5 C       -2.5390     0.0040     1.2140 C.ar  1 <1>  -0.1500 
  6 C       -2.8040    -2.5810     0.2700 C.ar  1 <1>  -0.1500 
  7 C       -3.6930    -0.7110     1.4800 C.ar  1 <1>  -0.1500 
  8 C       -3.8330    -2.0070     1.0030 C.ar  1 <1>  -0.1430 
  9 C       -5.1030    -2.7810     1.2680 C.3   1 <1>   0.4860 
 10 N       -6.0310    -2.4310     0.1720 N.4   1 <1>  -0.9060 
 11 C       -7.4030    -2.9780     0.3460 C.3   1 <1>   0.4230 
 12 C       -7.5080    -4.5000     0.0510 C.3   1 <1>   0.2000 
 13 C       -8.3570    -2.1990    -0.5650 C.3   1 <1>  -0.1600 
 14 O       -6.6720    -5.2170     0.8940 O.3   1 <1>  -0.6800 
 15 C       -8.9400    -5.0040     0.2510 C.3   1 <1>  -0.1600 
 16 C       -9.8020    -2.6960    -0.3930 C.3   1 <1>  -0.1600 
 17 C       -9.9180    -4.2100    -0.6290 C.3   1 <1>  -0.1600 
 18 H        1.0940    -1.1360     0.0970 H     1 <1>   0.0800 
 19 H        1.4460     0.4960    -0.4590 H     1 <1>   0.0800 
 20 H        0.4160    -0.5470    -1.4320 H     1 <1>   0.0800 
 21 H       -0.8680    -2.3320    -0.5650 H     1 <1>   0.1500 
 22 H       -2.4190     1.0090     1.5790 H     1 <1>   0.1500 
 23 H       -2.8840    -3.5890    -0.1010 H     1 <1>   0.1500 
 24 H       -4.4670    -0.2420     2.0640 H     1 <1>   0.1500 
 25 H       -5.5160    -2.5000     2.2230 H     1 <1>   0.0800 
 26 H       -4.8940    -3.8390     1.2760 H     1 <1>   0.0800 
 27 H       -5.6190    -2.7720    -0.7010 H     1 <1>   0.4500 
 28 H       -6.0540    -1.4090     0.1080 H     1 <1>   0.4500 
 29 H       -7.7230    -2.8180     1.3630 H     1 <1>   0.0800 
 30 H       -7.2040    -4.6980    -0.9630 H     1 <1>   0.0800 
 31 H       -8.3260    -1.1510    -0.3220 H     1 <1>   0.0800 
 32 H       -8.0680    -2.3230    -1.5950 H     1 <1>   0.0800 
 33 H       -6.8430    -6.1800     0.8040 H     1 <1>   0.4000 
 34 H       -9.0050    -6.0460    -0.0100 H     1 <1>   0.0800 
 35 H       -9.2270    -4.8920     1.2840 H     1 <1>   0.0800 
 36 H      -10.1490    -2.4660     0.6010 H     1 <1>   0.0800 
 37 H      -10.4470    -2.1790    -1.0850 H     1 <1>   0.0800 
 38 H       -9.7230    -4.4250    -1.6670 H     1 <1>   0.0800 
 39 H      -10.9270    -4.5270    -0.4210 H     1 <1>   0.0800 
@<TRIPOS>BOND
  1   1   2  1   
  2   1   3  1   
  3   2   4  ar  
  4   2   5  ar  
  5   3  18  1   
  6   3  19  1   
  7   3  20  1   
  8   4   6  ar  
  9   4  21  1   
 10   5   7  ar  
 11   5  22  1   
 12   6   8  ar  
 13   6  23  1   
 14   7   8  ar  
 15   7  24  1   
 16   8   9  1   
 17   9  10  1   
 18   9  25  1   
 19   9  26  1   
 20  10  11  1   
 21  10  27  1   
 22  10  28  1   
 23  11  12  1   
 24  11  13  1   
 25  11  29  1   
 26  12  14  1   
 27  12  15  1   
 28  12  30  1   
 29  13  16  1   
 30  13  31  1   
 31  13  32  1   
 32  14  33  1   
 33  15  17  1   
 34  15  34  1   
 35  15  35  1   
 36  16  17  1   
 37  16  36  1   
 38  16  37  1   
 39  17  38  1   
 40  17  39  1   
@<TRIPOS>SUBSTRUCTURE
  1 ****  10 GROUP 4 **** **** 0

# MOE 2024.06 (io_trps.svl 2023.06)
