@<TRIPOS>MOLECULE
NONAME
46 48 1 0 0 
SMALL
USER_CHARGES


@<TRIPOS>ATOM
  1 O       -1.1670    -3.7640     1.7730 O.2   1 <1>  -0.5700 
  2 C       -1.8920    -3.3740     0.8970 C.2   1 <1>   0.6590 
  3 O       -2.0830    -4.0010    -0.2500 O.3   1 <1>  -0.4300 
  4 C       -2.7470    -2.1100     0.8750 C.3   1 <1>   0.0610 
  5 C       -3.0150    -3.2440    -1.0220 C.3   1 <1>   0.3410 
  6 C       -2.6230    -1.7900    -0.6280 C.3   1 <1>   0.0000 
  7 C       -4.1920    -2.6360     1.0150 C.3   1 <1>  -0.1600 
  8 C       -2.3770    -1.0070     1.8830 C.3   1 <1>  -0.2400 
  9 C       -3.0050    -3.6460    -2.5220 C.2   1 <1>   0.5690 
 10 C       -4.3710    -3.4400    -0.2930 C.3   1 <1>  -0.1600 
 11 C       -3.5670    -0.6640    -1.1350 C.3   1 <1>  -0.2400 
 12 C       -1.1870    -1.3710    -1.0530 C.3   1 <1>  -0.2400 
 13 O       -2.7450    -2.8280    -3.3720 O.2   1 <1>  -0.5700 
 14 N       -3.3240    -4.9050    -2.9390 N.am  1 <1>  -0.5470 
 15 C       -3.7530    -6.0200    -2.2120 C.ar  1 <1>   0.1170 
 16 C       -5.0600    -6.4650    -2.3390 C.ar  1 <1>  -0.1500 
 17 C       -2.8950    -6.7010    -1.3600 C.ar  1 <1>  -0.1500 
 18 C       -5.5050    -7.5560    -1.6160 C.ar  1 <1>  -0.1500 
 19 C       -3.3420    -7.7890    -0.6340 C.ar  1 <1>  -0.1500 
 20 C       -4.6550    -8.2310    -0.7450 C.ar  1 <1>   0.1170 
 21 N       -5.0590    -9.3440     0.0120 N.am  1 <1>  -0.5470 
 22 C       -6.3010    -9.7460     0.4120 C.2   1 <1>   0.5690 
 23 O       -7.3200    -9.1490     0.1720 O.2   1 <1>  -0.5700 
 24 C       -6.3860   -11.0170     1.2190 C.3   1 <1>  -0.1790 
 25 H       -4.9050    -1.8330     1.0860 H     1 <1>   0.0800 
 26 H       -4.2930    -3.2680     1.8830 H     1 <1>   0.0800 
 27 H       -2.5030    -1.3740     2.8860 H     1 <1>   0.0800 
 28 H       -3.0030    -0.1440     1.7500 H     1 <1>   0.0800 
 29 H       -1.3490    -0.7160     1.7610 H     1 <1>   0.0800 
 30 H       -4.5640    -4.4800    -0.0950 H     1 <1>   0.0800 
 31 H       -5.1820    -3.0460    -0.8800 H     1 <1>   0.0800 
 32 H       -4.6040    -0.8320    -0.9190 H     1 <1>   0.0800 
 33 H       -3.4760    -0.5620    -2.2020 H     1 <1>   0.0800 
 34 H       -3.2900     0.2760    -0.6930 H     1 <1>   0.0800 
 35 H       -0.4360    -2.0940    -0.7890 H     1 <1>   0.0800 
 36 H       -0.9190    -0.4350    -0.5990 H     1 <1>   0.0800 
 37 H       -1.1380    -1.2390    -2.1200 H     1 <1>   0.0800 
 38 H       -3.3200    -4.9990    -3.9550 H     1 <1>   0.3700 
 39 H       -5.7350    -5.9550    -3.0030 H     1 <1>   0.1500 
 40 H       -1.8740    -6.3740    -1.2620 H     1 <1>   0.1500 
 41 H       -6.5230    -7.8820    -1.7340 H     1 <1>   0.1500 
 42 H       -2.6610    -8.2920     0.0280 H     1 <1>   0.1500 
 43 H       -4.2940    -9.9190     0.3540 H     1 <1>   0.3700 
 44 H       -5.9540   -11.8300     0.6680 H     1 <1>   0.0800 
 45 H       -7.4160   -11.2460     1.4230 H     1 <1>   0.0800 
 46 H       -5.8680   -10.8920     2.1510 H     1 <1>   0.0800 
@<TRIPOS>BOND
  1   1   2  2   
  2   2   3  1   
  3   2   4  1   
  4   3   5  1   
  5   4   6  1   
  6   4   7  1   
  7   4   8  1   
  8   5   6  1   
  9   5   9  1   
 10   5  10  1   
 11   6  11  1   
 12   6  12  1   
 13   7  10  1   
 14   7  25  1   
 15   7  26  1   
 16   8  27  1   
 17   8  28  1   
 18   8  29  1   
 19   9  13  2   
 20   9  14  am  
 21  10  30  1   
 22  10  31  1   
 23  11  32  1   
 24  11  33  1   
 25  11  34  1   
 26  12  35  1   
 27  12  36  1   
 28  12  37  1   
 29  14  15  1   
 30  14  38  1   
 31  15  16  ar  
 32  15  17  ar  
 33  16  18  ar  
 34  16  39  1   
 35  17  19  ar  
 36  17  40  1   
 37  18  20  ar  
 38  18  41  1   
 39  19  20  ar  
 40  19  42  1   
 41  20  21  1   
 42  21  22  am  
 43  21  43  1   
 44  22  23  2   
 45  22  24  1   
 46  24  44  1   
 47  24  45  1   
 48  24  46  1   
@<TRIPOS>SUBSTRUCTURE
  1 ****  10 GROUP 4 **** **** 0

# MOE 2024.06 (io_trps.svl 2023.06)
