@<TRIPOS>MOLECULE
NONAME
37 40 1 0 0 
SMALL
USER_CHARGES


@<TRIPOS>ATOM
  1 S       -0.1020     0.4690    -1.3090 S.3   1 <1>  -0.0800 
  2 C        1.0600     1.8010    -1.1450 C.ar  1 <1>   0.2970 
  3 C        1.0080    -0.6110    -0.4830 C.2   1 <1>  -0.1400 
  4 N        0.8030     3.0200    -1.5710 N.ar  1 <1>  -0.5670 
  5 C        2.2150     1.3820    -0.5180 C.ar  1 <1>   0.0000 
  6 C        2.1380    -0.0090    -0.1460 C.2   1 <1>  -0.1810 
  7 C        0.8670    -2.0490    -0.1010 C.3   1 <1>   0.0200 
  8 C        1.7950     3.8530    -1.3210 C.ar  1 <1>   0.4700 
  9 C        3.1890     2.3700    -0.3510 C.ar  1 <1>   0.4100 
 10 C        3.0450    -0.9710     0.5750 C.3   1 <1>   0.0210 
 11 C        2.1690    -2.2500     0.7160 C.3   1 <1>  -0.1600 
 12 N        2.9580     3.6150    -0.7320 N.ar  1 <1>  -0.6200 
 13 N        4.4240     2.0990     0.1980 N.pl3 1 <1>  -0.8380 
 14 C        5.3620     1.1990    -0.5280 C.3   1 <1>   0.2090 
 15 C        5.0590     3.0530     1.1520 C.3   1 <1>   0.2090 
 16 C        6.4990     1.9900    -1.1770 C.3   1 <1>  -0.1600 
 17 C        6.2040     3.8260     0.4900 C.3   1 <1>  -0.1600 
 18 C        7.2320     2.8790    -0.1540 C.3   1 <1>  -0.1860 
 19 C        8.4200     3.6420    -0.7340 C.2   1 <1>   0.9060 
 20 O        8.5540     3.7460    -1.9590 O.co2 1 <1>  -0.9000 
 21 O        9.2360     4.1230     0.0600 O.co2 1 <1>  -0.9000 
 22 H        0.8440    -2.6690    -0.9790 H     1 <1>   0.0800 
 23 H       -0.0120    -2.2070     0.5000 H     1 <1>   0.0800 
 24 H        1.6410     4.8710    -1.6380 H     1 <1>   0.1500 
 25 H        3.3350    -0.5770     1.5330 H     1 <1>   0.0800 
 26 H        3.9180    -1.1740    -0.0190 H     1 <1>   0.0800 
 27 H        2.7030    -3.1180     0.3740 H     1 <1>   0.0800 
 28 H        1.9160    -2.3880     1.7530 H     1 <1>   0.0800 
 29 H        4.8320     0.6580    -1.2930 H     1 <1>   0.0800 
 30 H        5.7740     0.4920     0.1690 H     1 <1>   0.0800 
 31 H        5.4420     2.4990     1.9900 H     1 <1>   0.0800 
 32 H        4.3230     3.7470     1.5200 H     1 <1>   0.0800 
 33 H        6.0980     2.6060    -1.9640 H     1 <1>   0.0800 
 34 H        7.2020     1.3110    -1.6260 H     1 <1>   0.0800 
 35 H        6.6950     4.4360     1.2260 H     1 <1>   0.0800 
 36 H        5.7990     4.4820    -0.2610 H     1 <1>   0.0800 
 37 H        7.6390     2.2480     0.6140 H     1 <1>   0.0800 
@<TRIPOS>BOND
  1   1   2  1   
  2   1   3  1   
  3   2   4  ar  
  4   2   5  ar  
  5   3   6  2   
  6   3   7  1   
  7   4   8  ar  
  8   5   6  1   
  9   5   9  ar  
 10   6  10  1   
 11   7  11  1   
 12   7  22  1   
 13   7  23  1   
 14   8  12  ar  
 15   8  24  1   
 16   9  12  ar  
 17   9  13  1   
 18  10  11  1   
 19  10  25  1   
 20  10  26  1   
 21  11  27  1   
 22  11  28  1   
 23  13  14  1   
 24  13  15  1   
 25  14  16  1   
 26  14  29  1   
 27  14  30  1   
 28  15  17  1   
 29  15  31  1   
 30  15  32  1   
 31  16  18  1   
 32  16  33  1   
 33  16  34  1   
 34  17  18  1   
 35  17  35  1   
 36  17  36  1   
 37  18  19  1   
 38  18  37  1   
 39  19  20  ar  
 40  19  21  ar  
@<TRIPOS>SUBSTRUCTURE
  1 ****  13 GROUP 4 **** **** 0

# MOE 2024.06 (io_trps.svl 2023.06)
