@<TRIPOS>MOLECULE
NONAME
42 45 1 0 0 
SMALL
USER_CHARGES


@<TRIPOS>ATOM
  1 S        0.0210     0.6400     0.8880 S.o2  1 <1>   1.4470 
  2 O       -0.3580    -0.6740     0.4160 O.2   1 <1>  -0.6500 
  3 O        0.3060     0.8370     2.2930 O.2   1 <1>  -0.6500 
  4 N        1.4140     1.0980     0.0340 N.am  1 <1>  -0.8490 
  5 C       -1.2110     1.8480     0.3280 C.ar  1 <1>  -0.0090 
  6 C        2.4340     0.0440     0.0770 C.3   1 <1>   0.1960 
  7 C        1.9630     2.3680     0.5230 C.3   1 <1>   0.1960 
  8 C       -1.9180     2.6300     1.2060 C.ar  1 <1>  -0.1500 
  9 C       -1.4610     2.0110    -1.0460 C.ar  1 <1>  -0.1500 
 10 C        3.5930     0.4040    -0.8500 C.3   1 <1>  -0.1600 
 11 C        3.0920     2.8330    -0.3940 C.3   1 <1>  -0.1600 
 12 C       -2.8650     3.5820     0.7790 C.ar  1 <1>   0.0000 
 13 C       -2.3740     2.9240    -1.4970 C.ar  1 <1>  -0.1500 
 14 C        4.1720     1.7570    -0.4690 C.3   1 <1>   0.5600 
 15 C       -3.0980     3.7340    -0.6030 C.ar  1 <1>   0.0000 
 16 C       -3.5880     4.3890     1.6810 C.ar  1 <1>  -0.1500 
 17 O        5.1540     2.1100    -1.3810 O.3   1 <1>  -0.5600 
 18 O        4.8230     1.6450     0.7540 O.3   1 <1>  -0.5600 
 19 C       -4.0430     4.6880    -1.0310 C.ar  1 <1>  -0.1500 
 20 C       -4.4990     5.3070     1.2380 C.ar  1 <1>  -0.1500 
 21 C        6.1570     2.7920    -0.7230 C.3   1 <1>   0.1200 
 22 C        5.9750     2.4090     0.7330 C.3   1 <1>   0.1200 
 23 C       -4.7290     5.4590    -0.1340 C.ar  1 <1>  -0.1500 
 24 H        2.0110    -0.8910    -0.2520 H     1 <1>   0.0800 
 25 H        2.7900    -0.0840     1.0870 H     1 <1>   0.0800 
 26 H        2.3330     2.2490     1.5300 H     1 <1>   0.0800 
 27 H        1.1930     3.1210     0.5350 H     1 <1>   0.0800 
 28 H       -1.7530     2.5250     2.2650 H     1 <1>   0.1500 
 29 H       -0.9120     1.3960    -1.7400 H     1 <1>   0.1500 
 30 H        3.2300     0.4420    -1.8600 H     1 <1>   0.0800 
 31 H        4.3610    -0.3450    -0.7890 H     1 <1>   0.0800 
 32 H        3.5040     3.7530    -0.0280 H     1 <1>   0.0800 
 33 H        2.6910     3.0030    -1.3770 H     1 <1>   0.0800 
 34 H       -2.5530     3.0370    -2.5520 H     1 <1>   0.1500 
 35 H       -3.4100     4.2680     2.7350 H     1 <1>   0.1500 
 36 H       -4.2170     4.8000    -2.0860 H     1 <1>   0.1500 
 37 H       -5.0480     5.9210     1.9310 H     1 <1>   0.1500 
 38 H        6.0200     3.8480    -0.8740 H     1 <1>   0.0800 
 39 H        7.1100     2.4790    -1.1110 H     1 <1>   0.0800 
 40 H        6.7940     1.8120     1.0950 H     1 <1>   0.0800 
 41 H        5.8390     3.2740     1.3590 H     1 <1>   0.0800 
 42 H       -5.4500     6.1860    -0.4670 H     1 <1>   0.1500 
@<TRIPOS>BOND
  1   1   2  2   
  2   1   3  2   
  3   1   4  am  
  4   1   5  1   
  5   4   6  1   
  6   4   7  1   
  7   5   8  ar  
  8   5   9  ar  
  9   6  10  1   
 10   6  24  1   
 11   6  25  1   
 12   7  11  1   
 13   7  26  1   
 14   7  27  1   
 15   8  12  ar  
 16   8  28  1   
 17   9  13  ar  
 18   9  29  1   
 19  10  14  1   
 20  10  30  1   
 21  10  31  1   
 22  11  14  1   
 23  11  32  1   
 24  11  33  1   
 25  12  15  ar  
 26  12  16  ar  
 27  13  15  ar  
 28  13  34  1   
 29  14  17  1   
 30  14  18  1   
 31  15  19  ar  
 32  16  20  ar  
 33  16  35  1   
 34  17  21  1   
 35  18  22  1   
 36  19  23  ar  
 37  19  36  1   
 38  20  23  ar  
 39  20  37  1   
 40  21  22  1   
 41  21  38  1   
 42  21  39  1   
 43  22  40  1   
 44  22  41  1   
 45  23  42  1   
@<TRIPOS>SUBSTRUCTURE
  1 ****   7 GROUP 4 **** **** 0

# MOE 2024.06 (io_trps.svl 2023.06)
