@<TRIPOS>MOLECULE
NONAME
26 25 1 0 0 
SMALL
USER_CHARGES


@<TRIPOS>ATOM
  1 BR      -0.6320     0.4340     1.1430 Br    1 <1>  -0.1100 
  2 C        0.7420     1.7760     1.0310 C.2   1 <1>   0.0370 
  3 C        1.9010     1.6090     1.6200 C.1   1 <1>  -0.1300 
  4 C        0.3230     2.9610     0.1830 C.3   1 <1>   0.2580 
  5 C        3.1630     1.5910     1.9620 C.2   1 <1>  -0.2230 
  6 O        1.4750     3.5330    -0.3920 O.3   1 <1>  -0.5600 
  7 C        4.2200     1.2240     0.9550 C.3   1 <1>   0.4810 
  8 C        1.1940     4.6550    -1.1710 C.3   1 <1>   0.0400 
  9 N        4.2050     2.3080    -0.0650 N.4   1 <1>  -0.9590 
 10 C        4.7480     1.8560    -1.3770 C.3   1 <1>   0.2630 
 11 C        4.8750     3.5490     0.4230 C.3   1 <1>   0.2630 
 12 H       -0.1820     3.6950     0.7870 H     1 <1>   0.0800 
 13 H       -0.3250     2.6350    -0.6130 H     1 <1>   0.0800 
 14 H        3.5350     1.8650     2.9340 H     1 <1>   0.1500 
 15 H        3.9560     0.2840     0.4970 H     1 <1>   0.0800 
 16 H        5.1900     1.1320     1.4170 H     1 <1>   0.0800 
 17 H        2.1180     5.0300    -1.5770 H     1 <1>   0.0800 
 18 H        0.7380     5.4130    -0.5570 H     1 <1>   0.0800 
 19 H        0.5340     4.3770    -1.9760 H     1 <1>   0.0800 
 20 H        3.1950     2.5510    -0.1890 H     1 <1>   0.4500 
 21 H        5.7880     1.5900    -1.2830 H     1 <1>   0.0800 
 22 H        4.6570     2.6440    -2.1070 H     1 <1>   0.0800 
 23 H        4.2000     0.9980    -1.7310 H     1 <1>   0.0800 
 24 H        5.9210     3.3660     0.6080 H     1 <1>   0.0800 
 25 H        4.4130     3.8850     1.3370 H     1 <1>   0.0800 
 26 H        4.7840     4.3330    -0.3110 H     1 <1>   0.0800 
@<TRIPOS>BOND
  1   1   2  1   
  2   2   3  2   
  3   2   4  1   
  4   3   5  2   
  5   4   6  1   
  6   4  12  1   
  7   4  13  1   
  8   5   7  1   
  9   5  14  1   
 10   6   8  1   
 11   7   9  1   
 12   7  15  1   
 13   7  16  1   
 14   8  17  1   
 15   8  18  1   
 16   8  19  1   
 17   9  10  1   
 18   9  11  1   
 19   9  20  1   
 20  10  21  1   
 21  10  22  1   
 22  10  23  1   
 23  11  24  1   
 24  11  25  1   
 25  11  26  1   
@<TRIPOS>SUBSTRUCTURE
  1 ****   3 GROUP 4 **** **** 0

# MOE 2024.06 (io_trps.svl 2023.06)
