@<TRIPOS>MOLECULE
NONAME
28 28 1 0 0 
SMALL
USER_CHARGES


@<TRIPOS>ATOM
  1 CL      -2.3010     1.2980     3.5270 Cl    1 <1>  -0.1770 
  2 C       -2.5840     1.5030     1.8130 C.ar  1 <1>   0.1770 
  3 C       -1.6790     2.1960     1.0260 C.ar  1 <1>   0.1770 
  4 C       -3.7240     0.9600     1.2500 C.ar  1 <1>  -0.1500 
  5 CL      -0.2300     2.8880     1.7210 Cl    1 <1>  -0.1770 
  6 C       -1.9060     2.3500    -0.3290 C.ar  1 <1>  -0.1500 
  7 C       -3.9590     1.1050    -0.1120 C.ar  1 <1>  -0.1440 
  8 C       -3.0470     1.8030    -0.8950 C.ar  1 <1>  -0.1500 
  9 C       -5.2120     0.4980    -0.7390 C.3   1 <1>   0.3390 
 10 N       -6.4170     0.8720    -0.0080 N.am  1 <1>  -0.8490 
 11 S       -7.7270    -0.0220    -0.6000 S.o2  1 <1>   1.3330 
 12 C       -6.6260     2.3650    -0.0560 C.3   1 <1>   0.0900 
 13 O       -8.0080     0.4590    -1.9340 O.2   1 <1>  -0.6500 
 14 O       -7.3560    -1.4140    -0.4650 O.2   1 <1>  -0.6500 
 15 C       -9.1210     0.2410     0.4800 C.3   1 <1>  -0.1350 
 16 C       -7.8090     2.9640     0.7200 C.2   1 <1>   0.9060 
 17 O       -8.6510     3.6190     0.0970 O.co2 1 <1>  -0.9000 
 18 O       -7.9280     2.7410     1.9310 O.co2 1 <1>  -0.9000 
 19 H       -4.4300     0.4340     1.8700 H     1 <1>   0.1500 
 20 H       -1.1980     2.8920    -0.9300 H     1 <1>   0.1500 
 21 H       -3.2250     1.9250    -1.9500 H     1 <1>   0.1500 
 22 H       -5.0950    -0.5730    -0.7240 H     1 <1>   0.0800 
 23 H       -5.3060     0.8050    -1.7670 H     1 <1>   0.0800 
 24 H       -6.7420     2.6720    -1.0800 H     1 <1>   0.0800 
 25 H       -5.7580     2.8590     0.3350 H     1 <1>   0.0800 
 26 H       -9.8610    -0.5140     0.3120 H     1 <1>   0.0800 
 27 H       -9.5740     1.1940     0.2960 H     1 <1>   0.0800 
 28 H       -8.8080     0.2010     1.5050 H     1 <1>   0.0800 
@<TRIPOS>BOND
  1   1   2  1   
  2   2   3  ar  
  3   2   4  ar  
  4   3   5  1   
  5   3   6  ar  
  6   4   7  ar  
  7   4  19  1   
  8   6   8  ar  
  9   6  20  1   
 10   7   8  ar  
 11   7   9  1   
 12   8  21  1   
 13   9  10  1   
 14   9  22  1   
 15   9  23  1   
 16  10  11  am  
 17  10  12  1   
 18  11  13  2   
 19  11  14  2   
 20  11  15  1   
 21  12  16  1   
 22  12  24  1   
 23  12  25  1   
 24  15  26  1   
 25  15  27  1   
 26  15  28  1   
 27  16  17  ar  
 28  16  18  ar  
@<TRIPOS>SUBSTRUCTURE
  1 ****  10 GROUP 4 **** **** 0

# MOE 2024.06 (io_trps.svl 2023.06)
