@<TRIPOS>MOLECULE
NONAME
46 48 1 0 0 
SMALL
USER_CHARGES


@<TRIPOS>ATOM
  1 F       -1.7050    -0.5460     2.1510 F     1 <1>  -0.1900 
  2 C       -2.8090    -0.3720     1.4710 C.ar  1 <1>   0.1900 
  3 C       -4.0040    -0.2630     2.1570 C.ar  1 <1>  -0.1500 
  4 C       -2.7390    -0.3020     0.0920 C.ar  1 <1>  -0.1500 
  5 C       -5.1680    -0.0790     1.4310 C.ar  1 <1>  -0.1500 
  6 C       -3.9120    -0.1170    -0.6180 C.ar  1 <1>  -0.1500 
  7 C       -5.1320    -0.0040     0.0400 C.ar  1 <1>   0.1000 
  8 N       -6.2910     0.1790    -0.7050 N.pl3 1 <1>  -0.8380 
  9 C       -6.9950     1.4850    -0.5090 C.3   1 <1>   0.2090 
 10 C       -7.2380    -0.9760    -0.7250 C.3   1 <1>   0.2090 
 11 C       -8.0840     1.6880    -1.5750 C.3   1 <1>   0.1400 
 12 C       -8.3400    -0.7800    -1.7830 C.3   1 <1>   0.1400 
 13 N       -9.0350     0.5330    -1.5980 N.am  1 <1>  -0.6600 
 14 C      -10.2510     0.6310    -0.9800 C.2   1 <1>   0.6900 
 15 O      -10.4620     1.5250    -0.1820 O.2   1 <1>  -0.5700 
 16 N      -11.2080    -0.2870    -1.3020 N.am  1 <1>  -0.5470 
 17 C      -12.4680    -0.5560    -0.7500 C.ar  1 <1>   0.1170 
 18 C      -12.8160    -0.2100     0.5510 C.ar  1 <1>  -0.1500 
 19 C      -13.4110    -1.2180    -1.5250 C.ar  1 <1>  -0.1500 
 20 C      -14.0650    -0.5080     1.0720 C.ar  1 <1>  -0.1430 
 21 C      -14.6590    -1.5220    -1.0160 C.ar  1 <1>  -0.1500 
 22 C      -14.9970    -1.1710     0.2810 C.ar  1 <1>  -0.1430 
 23 C      -14.3850    -0.0960     2.5020 C.3   1 <1>  -0.0970 
 24 C      -16.3820    -1.5200     0.8070 C.3   1 <1>  -0.0970 
 25 H       -4.0170    -0.3220     3.2300 H     1 <1>   0.1500 
 26 H       -1.7910    -0.3900    -0.4060 H     1 <1>   0.1500 
 27 H       -6.1110     0.0080     1.9390 H     1 <1>   0.1500 
 28 H       -3.8980    -0.0570    -1.6910 H     1 <1>   0.1500 
 29 H       -6.2810     2.2870    -0.5680 H     1 <1>   0.0800 
 30 H       -7.4510     1.5110     0.4660 H     1 <1>   0.0800 
 31 H       -7.6940    -1.0840     0.2440 H     1 <1>   0.0800 
 32 H       -6.6920    -1.8780    -0.9400 H     1 <1>   0.0800 
 33 H       -7.6170     1.7820    -2.5400 H     1 <1>   0.0800 
 34 H       -8.6130     2.6040    -1.3760 H     1 <1>   0.0800 
 35 H       -9.0380    -1.5940    -1.7110 H     1 <1>   0.0800 
 36 H       -7.8940    -0.8070    -2.7620 H     1 <1>   0.0800 
 37 H      -11.0040    -0.7590    -2.1750 H     1 <1>   0.3700 
 38 H      -12.0950     0.2990     1.1630 H     1 <1>   0.1500 
 39 H      -13.1720    -1.4970    -2.5340 H     1 <1>   0.1500 
 40 H      -15.3710    -2.0340    -1.6400 H     1 <1>   0.1500 
 41 H      -13.5500     0.4110     2.9520 H     1 <1>   0.0800 
 42 H      -14.6130    -0.9630     3.0940 H     1 <1>   0.0800 
 43 H      -15.2280     0.5710     2.5120 H     1 <1>   0.0800 
 44 H      -16.2990    -2.1580     1.6680 H     1 <1>   0.0800 
 45 H      -16.9600    -2.0340     0.0610 H     1 <1>   0.0800 
 46 H      -16.9070    -0.6230     1.0820 H     1 <1>   0.0800 
@<TRIPOS>BOND
  1   1   2  1   
  2   2   3  ar  
  3   2   4  ar  
  4   3   5  ar  
  5   3  25  1   
  6   4   6  ar  
  7   4  26  1   
  8   5   7  ar  
  9   5  27  1   
 10   6   7  ar  
 11   6  28  1   
 12   7   8  1   
 13   8   9  1   
 14   8  10  1   
 15   9  11  1   
 16   9  29  1   
 17   9  30  1   
 18  10  12  1   
 19  10  31  1   
 20  10  32  1   
 21  11  13  1   
 22  11  33  1   
 23  11  34  1   
 24  12  13  1   
 25  12  35  1   
 26  12  36  1   
 27  13  14  am  
 28  14  15  2   
 29  14  16  am  
 30  16  17  1   
 31  16  37  1   
 32  17  18  ar  
 33  17  19  ar  
 34  18  20  ar  
 35  18  38  1   
 36  19  21  ar  
 37  19  39  1   
 38  20  22  ar  
 39  20  23  1   
 40  21  22  ar  
 41  21  40  1   
 42  22  24  1   
 43  23  41  1   
 44  23  42  1   
 45  23  43  1   
 46  24  44  1   
 47  24  45  1   
 48  24  46  1   
@<TRIPOS>SUBSTRUCTURE
  1 ****  13 GROUP 4 **** **** 0

# MOE 2024.06 (io_trps.svl 2023.06)
