@<TRIPOS>MOLECULE
NONAME
42 42 1 0 0 
SMALL
USER_CHARGES


@<TRIPOS>ATOM
  1 O       -2.9350     0.7630    -1.5900 O.2   1 <1>  -0.5700 
  2 C       -3.4070     1.3840    -0.6800 C.2   1 <1>   0.6590 
  3 O       -4.7210     1.5740    -0.6330 O.3   1 <1>  -0.4300 
  4 C       -2.5170     1.9510     0.4040 C.3   1 <1>  -0.1790 
  5 C       -5.4950     1.9500     0.4720 C.3   1 <1>   0.2000 
  6 C       -6.7600     1.0610     0.5370 C.3   1 <1>  -0.1600 
  7 C       -5.7860     3.4500     0.3670 C.3   1 <1>  -0.2400 
  8 C       -7.4690     0.5910    -0.7690 C.3   1 <1>   0.5030 
  9 N       -8.7980    -0.0190    -0.4350 N.4   1 <1>  -0.9590 
 10 C       -7.7230     1.7320    -1.7620 C.3   1 <1>  -0.2400 
 11 C       -6.6730    -0.4970    -1.5100 C.3   1 <1>  -0.2400 
 12 C       -9.8300     0.9400     0.0820 C.3   1 <1>   0.3430 
 13 C       -8.7140    -1.2250     0.4540 C.3   1 <1>   0.3430 
 14 C      -11.2030     0.2660     0.1170 C.3   1 <1>  -0.1600 
 15 C      -10.0640    -1.9430     0.4960 C.3   1 <1>  -0.1600 
 16 C      -11.1880    -1.0120     0.9620 C.3   1 <1>  -0.1600 
 17 H       -2.7100     2.9980     0.5350 H     1 <1>   0.0800 
 18 H       -1.4890     1.8280     0.1160 H     1 <1>   0.0800 
 19 H       -2.6750     1.4280     1.3270 H     1 <1>   0.0800 
 20 H       -4.9260     1.7770     1.3700 H     1 <1>   0.0800 
 21 H       -7.4620     1.5820     1.1570 H     1 <1>   0.0800 
 22 H       -6.4690     0.1850     1.0870 H     1 <1>   0.0800 
 23 H       -6.2490     3.7040    -0.5670 H     1 <1>   0.0800 
 24 H       -4.8720     4.0100     0.4510 H     1 <1>   0.0800 
 25 H       -6.4310     3.7620     1.1680 H     1 <1>   0.0800 
 26 H       -9.1580    -0.3580    -1.3330 H     1 <1>   0.4500 
 27 H       -6.7930     2.0660    -2.1880 H     1 <1>   0.0800 
 28 H       -8.1770     2.5820    -1.2900 H     1 <1>   0.0800 
 29 H       -8.3420     1.4030    -2.5780 H     1 <1>   0.0800 
 30 H       -5.8370    -0.0750    -2.0360 H     1 <1>   0.0800 
 31 H       -7.2800    -0.9880    -2.2490 H     1 <1>   0.0800 
 32 H       -6.2720    -1.2300    -0.8350 H     1 <1>   0.0800 
 33 H       -9.8920     1.8080    -0.5520 H     1 <1>   0.0800 
 34 H       -9.5660     1.2640     1.0750 H     1 <1>   0.0800 
 35 H       -8.4370    -0.9250     1.4510 H     1 <1>   0.0800 
 36 H       -7.9700    -1.9130     0.0890 H     1 <1>   0.0800 
 37 H      -11.5160     0.0410    -0.8870 H     1 <1>   0.0800 
 38 H      -11.9210     0.9550     0.5290 H     1 <1>   0.0800 
 39 H       -9.9950    -2.7800     1.1690 H     1 <1>   0.0800 
 40 H      -10.2910    -2.3360    -0.4800 H     1 <1>   0.0800 
 41 H      -12.1380    -1.5150     0.8830 H     1 <1>   0.0800 
 42 H      -11.0390    -0.7570     1.9990 H     1 <1>   0.0800 
@<TRIPOS>BOND
  1   1   2  2   
  2   2   3  1   
  3   2   4  1   
  4   3   5  1   
  5   4  17  1   
  6   4  18  1   
  7   4  19  1   
  8   5   6  1   
  9   5   7  1   
 10   5  20  1   
 11   6   8  1   
 12   6  21  1   
 13   6  22  1   
 14   7  23  1   
 15   7  24  1   
 16   7  25  1   
 17   8   9  1   
 18   8  10  1   
 19   8  11  1   
 20   9  12  1   
 21   9  13  1   
 22   9  26  1   
 23  10  27  1   
 24  10  28  1   
 25  10  29  1   
 26  11  30  1   
 27  11  31  1   
 28  11  32  1   
 29  12  14  1   
 30  12  33  1   
 31  12  34  1   
 32  13  15  1   
 33  13  35  1   
 34  13  36  1   
 35  14  16  1   
 36  14  37  1   
 37  14  38  1   
 38  15  16  1   
 39  15  39  1   
 40  15  40  1   
 41  16  41  1   
 42  16  42  1   
@<TRIPOS>SUBSTRUCTURE
  1 ****   8 GROUP 4 **** **** 0

# MOE 2024.06 (io_trps.svl 2023.06)
