@<TRIPOS>MOLECULE
NONAME
43 45 1 0 0 
SMALL
USER_CHARGES


@<TRIPOS>ATOM
  1 S       -0.5450    -0.3890    -0.2310 S.3   1 <1>  -0.0800 
  2 C       -1.1290     1.2790    -0.3210 C.2   1 <1>  -0.0450 
  3 C        1.1150     0.1010    -0.4850 C.2   1 <1>  -0.1100 
  4 C       -2.5350     1.5540    -0.1730 C.2   1 <1>   0.7150 
  5 C       -0.0650     2.0960    -0.5320 C.2   1 <1>  -0.1500 
  6 C        1.1950     1.4360    -0.6250 C.2   1 <1>  -0.1500 
  7 O       -2.9390     2.6990    -0.2260 O.2   1 <1>  -0.5700 
  8 N       -3.4060     0.5100     0.0390 N.am  1 <1>  -0.5470 
  9 C       -4.7930     0.4450     0.2020 C.ar  1 <1>   0.1170 
 10 C       -5.3460    -0.7250     0.7090 C.ar  1 <1>  -0.1500 
 11 C       -5.6640     1.4810    -0.1240 C.ar  1 <1>  -0.1500 
 12 C       -6.7100    -0.8540     0.8830 C.ar  1 <1>  -0.1500 
 13 C       -7.0280     1.3510     0.0550 C.ar  1 <1>  -0.1500 
 14 C       -7.5940     0.1760     0.5570 C.ar  1 <1>   0.0860 
 15 C       -9.0250     0.0190     0.7380 C.2   1 <1>   0.5440 
 16 O       -9.4650    -0.7910     1.5310 O.2   1 <1>  -0.5700 
 17 N       -9.9080     0.7670     0.0080 N.am  1 <1>  -0.7300 
 18 C      -11.3750     0.7120     0.1140 C.3   1 <1>   0.2200 
 19 C      -11.9450     0.1540    -1.1940 C.3   1 <1>  -0.1600 
 20 C      -11.9020     2.1230     0.3940 C.3   1 <1>  -0.1600 
 21 C      -13.4810     0.1780    -1.1860 C.3   1 <1>  -0.1600 
 22 C      -13.4380     2.1500     0.4050 C.3   1 <1>  -0.1600 
 23 C      -14.0130     1.5900    -0.9030 C.3   1 <1>  -0.1600 
 24 H        1.8670    -0.6690    -0.5040 H     1 <1>   0.1500 
 25 H       -0.1390     3.1670    -0.6270 H     1 <1>   0.1500 
 26 H        2.1020     1.9920    -0.7920 H     1 <1>   0.1500 
 27 H       -2.9230    -0.3810     0.1280 H     1 <1>   0.3700 
 28 H       -4.7040    -1.5460     0.9750 H     1 <1>   0.1500 
 29 H       -5.2820     2.4030    -0.5220 H     1 <1>   0.1500 
 30 H       -7.1120    -1.7710     1.2820 H     1 <1>   0.1500 
 31 H       -7.6620     2.1820    -0.1940 H     1 <1>   0.1500 
 32 H       -9.5570     1.3670    -0.7350 H     1 <1>   0.3700 
 33 H      -11.6610     0.0640     0.9270 H     1 <1>   0.0800 
 34 H      -11.6060    -0.8590    -1.3220 H     1 <1>   0.0800 
 35 H      -11.5900     0.7420    -2.0230 H     1 <1>   0.0800 
 36 H      -11.5470     2.7980    -0.3640 H     1 <1>   0.0800 
 37 H      -11.5340     2.4540     1.3490 H     1 <1>   0.0800 
 38 H      -13.8410    -0.4970    -0.4280 H     1 <1>   0.0800 
 39 H      -13.8520    -0.1650    -2.1360 H     1 <1>   0.0800 
 40 H      -13.7810     3.1610     0.5470 H     1 <1>   0.0800 
 41 H      -13.7970     1.5610     1.2330 H     1 <1>   0.0800 
 42 H      -15.0870     1.5630    -0.8420 H     1 <1>   0.0800 
 43 H      -13.7460     2.2410    -1.7180 H     1 <1>   0.0800 
@<TRIPOS>BOND
  1   1   2  1   
  2   1   3  1   
  3   2   4  1   
  4   2   5  2   
  5   3   6  2   
  6   3  24  1   
  7   4   7  2   
  8   4   8  am  
  9   5   6  1   
 10   5  25  1   
 11   6  26  1   
 12   8   9  1   
 13   8  27  1   
 14   9  10  ar  
 15   9  11  ar  
 16  10  12  ar  
 17  10  28  1   
 18  11  13  ar  
 19  11  29  1   
 20  12  14  ar  
 21  12  30  1   
 22  13  14  ar  
 23  13  31  1   
 24  14  15  1   
 25  15  16  2   
 26  15  17  am  
 27  17  18  1   
 28  17  32  1   
 29  18  19  1   
 30  18  20  1   
 31  18  33  1   
 32  19  21  1   
 33  19  34  1   
 34  19  35  1   
 35  20  22  1   
 36  20  36  1   
 37  20  37  1   
 38  21  23  1   
 39  21  38  1   
 40  21  39  1   
 41  22  23  1   
 42  22  40  1   
 43  22  41  1   
 44  23  42  1   
 45  23  43  1   
@<TRIPOS>SUBSTRUCTURE
  1 ****  13 GROUP 4 **** **** 0

# MOE 2024.06 (io_trps.svl 2023.06)
