@<TRIPOS>MOLECULE
NONAME
35 36 1 0 0 
SMALL
USER_CHARGES


@<TRIPOS>ATOM
  1 CL      -2.2570     1.1390    -0.5480 Cl    1 <1>  -0.1770 
  2 C       -1.3190     2.5100    -0.0090 C.ar  1 <1>   0.1770 
  3 C       -1.0380     2.6540     1.3370 C.ar  1 <1>  -0.1500 
  4 C       -0.8680     3.4300    -0.9380 C.ar  1 <1>  -0.1500 
  5 C       -0.2940     3.7420     1.7590 C.ar  1 <1>  -0.1500 
  6 C       -0.1230     4.5140    -0.5070 C.ar  1 <1>  -0.1500 
  7 C        0.1670     4.6840     0.8450 C.ar  1 <1>   0.1170 
  8 N        0.9180     5.7730     1.2970 N.am  1 <1>  -0.5470 
  9 C        0.9270     7.0730     0.8970 C.2   1 <1>   0.6900 
 10 O        1.9240     7.7270     1.1020 O.2   1 <1>  -0.5700 
 11 N       -0.1030     7.6830     0.2550 N.am  1 <1>  -0.4940 
 12 C       -1.4590     7.4700     0.3520 C.2   1 <1>   0.4420 
 13 S       -2.4740     8.3390    -0.7480 S.3   1 <1>  -0.0800 
 14 N       -2.1330     6.7270     1.1520 N.2   1 <1>  -0.3380 
 15 C       -3.8360     7.5620    -0.0010 C.2   1 <1>   0.1980 
 16 N       -3.4820     6.7820     0.9420 N.2   1 <1>  -0.3380 
 17 C       -5.2460     7.8780    -0.5260 C.3   1 <1>   0.1800 
 18 C       -6.3040     7.0900     0.2670 C.3   1 <1>  -0.2400 
 19 C       -5.5480     9.3770    -0.3750 C.3   1 <1>  -0.2400 
 20 C       -5.3620     7.4820    -2.0070 C.3   1 <1>  -0.2400 
 21 H       -1.4030     1.9270     2.0390 H     1 <1>   0.1500 
 22 H       -1.0990     3.2940    -1.9780 H     1 <1>   0.1500 
 23 H       -0.0790     3.8690     2.8050 H     1 <1>   0.1500 
 24 H        0.2360     5.2310    -1.2220 H     1 <1>   0.1500 
 25 H        1.6670     5.5690     1.9550 H     1 <1>   0.3700 
 26 H        0.1840     8.5490    -0.1880 H     1 <1>   0.3700 
 27 H       -6.2570     7.3490     1.3100 H     1 <1>   0.0800 
 28 H       -6.1270     6.0330     0.1760 H     1 <1>   0.0800 
 29 H       -7.2940     7.3030    -0.0940 H     1 <1>   0.0800 
 30 H       -4.8720     9.9680    -0.9660 H     1 <1>   0.0800 
 31 H       -5.4470     9.6720     0.6550 H     1 <1>   0.0800 
 32 H       -6.5520     9.5950    -0.6950 H     1 <1>   0.0800 
 33 H       -4.6840     8.0550    -2.6130 H     1 <1>   0.0800 
 34 H       -6.3610     7.6530    -2.3680 H     1 <1>   0.0800 
 35 H       -5.1290     6.4390    -2.1300 H     1 <1>   0.0800 
@<TRIPOS>BOND
  1   1   2  1   
  2   2   3  ar  
  3   2   4  ar  
  4   3   5  ar  
  5   3  21  1   
  6   4   6  ar  
  7   4  22  1   
  8   5   7  ar  
  9   5  23  1   
 10   6   7  ar  
 11   6  24  1   
 12   7   8  1   
 13   8   9  am  
 14   8  25  1   
 15   9  10  2   
 16   9  11  am  
 17  11  12  1   
 18  11  26  1   
 19  12  13  1   
 20  12  14  2   
 21  13  15  1   
 22  14  16  1   
 23  15  16  2   
 24  15  17  1   
 25  17  18  1   
 26  17  19  1   
 27  17  20  1   
 28  18  27  1   
 29  18  28  1   
 30  18  29  1   
 31  19  30  1   
 32  19  31  1   
 33  19  32  1   
 34  20  33  1   
 35  20  34  1   
 36  20  35  1   
@<TRIPOS>SUBSTRUCTURE
  1 ****  14 GROUP 4 **** **** 0

# MOE 2024.06 (io_trps.svl 2023.06)
