@<TRIPOS>MOLECULE
NONAME
49 51 1 0 0 
SMALL
USER_CHARGES


@<TRIPOS>ATOM
  1 O       -2.1010     1.3610    -1.8570 O.3   1 <1>  -0.3630 
  2 C       -2.4120     1.2630    -0.5330 C.ar  1 <1>   0.0830 
  3 C       -0.8460     1.8040    -2.3230 C.3   1 <1>   0.0400 
  4 C       -1.6500     1.7150     0.5580 C.ar  1 <1>   0.0830 
  5 C       -3.6250     0.6440    -0.2860 C.ar  1 <1>  -0.1500 
  6 O       -0.4580     2.3340     0.4270 O.3   1 <1>  -0.5330 
  7 C       -2.1220     1.5340     1.8490 C.ar  1 <1>  -0.1500 
  8 C       -4.1040     0.4740     1.0050 C.ar  1 <1>  -0.1440 
  9 C       -3.3410     0.9190     2.0740 C.ar  1 <1>  -0.1500 
 10 C       -5.4520    -0.1820     1.2330 C.3   1 <1>   0.4860 
 11 N       -6.5080     0.7150     0.6970 N.4   1 <1>  -0.9590 
 12 C       -6.5390     2.0430     1.4160 C.3   1 <1>   0.3430 
 13 C       -7.8680     0.0660     0.7070 C.3   1 <1>   0.3430 
 14 C       -7.6280     2.9840     0.8630 C.3   1 <1>   0.2090 
 15 C       -8.9640     0.9930     0.1450 C.3   1 <1>   0.2090 
 16 N       -8.9620     2.3120     0.8450 N.pl3 1 <1>  -0.8380 
 17 C      -10.0270     3.1530     0.4920 C.ar  1 <1>   0.1000 
 18 C      -10.1910     3.7210    -0.7860 C.ar  1 <1>   0.0830 
 19 C      -10.9670     3.4320     1.4730 C.ar  1 <1>  -0.1500 
 20 O       -9.2560     3.4400    -1.7480 O.3   1 <1>  -0.3620 
 21 C      -11.2860     4.5430    -1.0360 C.ar  1 <1>  -0.1500 
 22 C      -12.0510     4.2510     1.2160 C.ar  1 <1>  -0.1500 
 23 C       -9.3290     4.0260    -3.0310 C.3   1 <1>   0.0400 
 24 C      -12.2110     4.8060    -0.0400 C.ar  1 <1>  -0.1500 
 25 H       -0.8280     1.6990    -3.3930 H     1 <1>   0.0800 
 26 H       -0.0750     1.1970    -1.8830 H     1 <1>   0.0800 
 27 H       -0.7200     2.8380    -2.0560 H     1 <1>   0.0800 
 28 H       -4.1830     0.2940    -1.1360 H     1 <1>   0.1500 
 29 H       -0.0410     2.5600     1.2770 H     1 <1>   0.4500 
 30 H       -1.5410     1.8720     2.6880 H     1 <1>   0.1500 
 31 H       -3.6810     0.7920     3.0890 H     1 <1>   0.1500 
 32 H       -5.6070    -0.3540     2.2860 H     1 <1>   0.0800 
 33 H       -5.4740    -1.1310     0.7220 H     1 <1>   0.0800 
 34 H       -6.2610     0.9250    -0.2790 H     1 <1>   0.4500 
 35 H       -5.5820     2.5310     1.3290 H     1 <1>   0.0800 
 36 H       -6.7370     1.8840     2.4630 H     1 <1>   0.0800 
 37 H       -8.1380    -0.1910     1.7180 H     1 <1>   0.0800 
 38 H       -7.8480    -0.8420     0.1270 H     1 <1>   0.0800 
 39 H       -7.3590     3.2990    -0.1300 H     1 <1>   0.0800 
 40 H       -7.6870     3.8640     1.4800 H     1 <1>   0.0800 
 41 H       -9.9270     0.5290     0.2760 H     1 <1>   0.0800 
 42 H       -8.8090     1.1350    -0.9100 H     1 <1>   0.0800 
 43 H      -10.8440     3.0010     2.4490 H     1 <1>   0.1500 
 44 H      -11.4470     4.9920    -1.9970 H     1 <1>   0.1500 
 45 H      -12.7690     4.4550     1.9910 H     1 <1>   0.1500 
 46 H       -8.4840     3.6880    -3.6040 H     1 <1>   0.0800 
 47 H       -9.2950     5.0970    -2.9290 H     1 <1>   0.0800 
 48 H      -10.2410     3.7130    -3.5080 H     1 <1>   0.0800 
 49 H      -13.0550     5.4430    -0.2420 H     1 <1>   0.1500 
@<TRIPOS>BOND
  1   1   2  1   
  2   1   3  1   
  3   2   4  ar  
  4   2   5  ar  
  5   3  25  1   
  6   3  26  1   
  7   3  27  1   
  8   4   6  1   
  9   4   7  ar  
 10   5   8  ar  
 11   5  28  1   
 12   6  29  1   
 13   7   9  ar  
 14   7  30  1   
 15   8   9  ar  
 16   8  10  1   
 17   9  31  1   
 18  10  11  1   
 19  10  32  1   
 20  10  33  1   
 21  11  12  1   
 22  11  13  1   
 23  11  34  1   
 24  12  14  1   
 25  12  35  1   
 26  12  36  1   
 27  13  15  1   
 28  13  37  1   
 29  13  38  1   
 30  14  16  1   
 31  14  39  1   
 32  14  40  1   
 33  15  16  1   
 34  15  41  1   
 35  15  42  1   
 36  16  17  1   
 37  17  18  ar  
 38  17  19  ar  
 39  18  20  1   
 40  18  21  ar  
 41  19  22  ar  
 42  19  43  1   
 43  20  23  1   
 44  21  24  ar  
 45  21  44  1   
 46  22  24  ar  
 47  22  45  1   
 48  23  46  1   
 49  23  47  1   
 50  23  48  1   
 51  24  49  1   
@<TRIPOS>SUBSTRUCTURE
  1 ****  12 GROUP 4 **** **** 0

# MOE 2024.06 (io_trps.svl 2023.06)
