@<TRIPOS>MOLECULE
NONAME
37 38 1 0 0 
SMALL
USER_CHARGES


@<TRIPOS>ATOM
  1 O        0.0520     1.1650    -2.4650 O.2   1 <1>  -0.5700 
  2 C       -0.0610     1.7790    -1.4180 C.2   1 <1>   0.5440 
  3 N        1.0300     1.8770    -0.5750 N.am  1 <1>  -0.6600 
  4 C       -1.3320     2.4020    -1.1200 C.ar  1 <1>   0.0860 
  5 C        0.9970     2.5840     0.7360 C.3   1 <1>   0.1400 
  6 C        2.3250     1.2060    -0.8770 C.3   1 <1>   0.1400 
  7 C       -2.1640     1.9520    -0.0900 C.ar  1 <1>   0.0820 
  8 C       -1.7670     3.4850    -1.8840 C.ar  1 <1>  -0.1500 
  9 C        2.1280     3.6160     0.7990 C.3   1 <1>  -0.1600 
 10 C        3.4640     2.2300    -0.8280 C.3   1 <1>  -0.1600 
 11 O       -1.7700     0.9050     0.6720 O.3   1 <1>  -0.3620 
 12 C       -3.3830     2.5770     0.1790 C.ar  1 <1>   0.0820 
 13 C       -2.9720     4.1090    -1.6280 C.ar  1 <1>  -0.1500 
 14 C        3.4950     2.9790     0.5110 C.3   1 <1>  -0.1600 
 15 C       -2.0910    -0.3750     0.1790 C.3   1 <1>   0.0400 
 16 O       -4.1420     2.0880     1.2010 O.3   1 <1>  -0.3630 
 17 C       -3.7810     3.6600    -0.5980 C.ar  1 <1>  -0.1500 
 18 C       -5.3570     2.6950     1.5800 C.3   1 <1>   0.0400 
 19 H        1.1170     1.8590     1.5230 H     1 <1>   0.0800 
 20 H        0.0570     3.0830     0.8870 H     1 <1>   0.0800 
 21 H        2.3010     0.7450    -1.8500 H     1 <1>   0.0800 
 22 H        2.4940     0.4330    -0.1480 H     1 <1>   0.0800 
 23 H       -1.1420     3.8300    -2.6890 H     1 <1>   0.1500 
 24 H        2.1390     4.0710     1.7730 H     1 <1>   0.0800 
 25 H        1.9300     4.3890     0.0780 H     1 <1>   0.0800 
 26 H        3.3310     2.9300    -1.6350 H     1 <1>   0.0800 
 27 H        4.4010     1.7250    -0.9830 H     1 <1>   0.0800 
 28 H       -3.2850     4.9440    -2.2310 H     1 <1>   0.1500 
 29 H        3.7400     2.2890     1.3010 H     1 <1>   0.0800 
 30 H        4.2550     3.7410     0.4850 H     1 <1>   0.0800 
 31 H       -1.7330    -1.1050     0.8820 H     1 <1>   0.0800 
 32 H       -1.6110    -0.5150    -0.7740 H     1 <1>   0.0800 
 33 H       -3.1590    -0.4490     0.0790 H     1 <1>   0.0800 
 34 H       -4.7120     4.1650    -0.4240 H     1 <1>   0.1500 
 35 H       -5.7530     2.1510     2.4190 H     1 <1>   0.0800 
 36 H       -6.0450     2.6450     0.7550 H     1 <1>   0.0800 
 37 H       -5.1640     3.7140     1.8650 H     1 <1>   0.0800 
@<TRIPOS>BOND
  1   1   2  2   
  2   2   3  am  
  3   2   4  1   
  4   3   5  1   
  5   3   6  1   
  6   4   7  ar  
  7   4   8  ar  
  8   5   9  1   
  9   5  19  1   
 10   5  20  1   
 11   6  10  1   
 12   6  21  1   
 13   6  22  1   
 14   7  11  1   
 15   7  12  ar  
 16   8  13  ar  
 17   8  23  1   
 18   9  14  1   
 19   9  24  1   
 20   9  25  1   
 21  10  14  1   
 22  10  26  1   
 23  10  27  1   
 24  11  15  1   
 25  12  16  1   
 26  12  17  ar  
 27  13  17  ar  
 28  13  28  1   
 29  14  29  1   
 30  14  30  1   
 31  15  31  1   
 32  15  32  1   
 33  15  33  1   
 34  16  18  1   
 35  17  34  1   
 36  18  35  1   
 37  18  36  1   
 38  18  37  1   
@<TRIPOS>SUBSTRUCTURE
  1 ****   4 GROUP 4 **** **** 0

# MOE 2024.06 (io_trps.svl 2023.06)
