@<TRIPOS>MOLECULE
NONAME
52 54 1 0 0 
SMALL
USER_CHARGES


@<TRIPOS>ATOM
  1 O        0.5420     1.7120    -1.9110 O.2   1 <1>  -0.5700 
  2 C        0.7750     2.1760    -0.8230 C.2   1 <1>   0.5690 
  3 N       -0.1410     2.4150     0.1670 N.am  1 <1>  -0.2370 
  4 C        2.1740     2.6090    -0.3850 C.3   1 <1>   0.2810 
  5 C       -1.5000     2.0230     0.1260 C.ar  1 <1>   0.1170 
  6 C        0.4790     3.0090     1.2350 C.2   1 <1>   0.5690 
  7 N        3.2500     1.5500    -0.3640 N.am  1 <1>  -0.6600 
  8 C        1.9580     3.1920     1.0130 C.3   1 <1>  -0.0990 
  9 C       -2.0760     1.3410     1.1940 C.ar  1 <1>  -0.1500 
 10 C       -2.2910     2.2990    -0.9850 C.ar  1 <1>  -0.1500 
 11 O       -0.0410     3.3580     2.2620 O.2   1 <1>  -0.5700 
 12 C        3.1360     0.2450     0.0690 C.2   1 <1>   0.5690 
 13 C        4.5580     2.0050    -0.9330 C.3   1 <1>   0.1400 
 14 C       -3.4000     0.9460     1.1490 C.ar  1 <1>  -0.1500 
 15 C       -3.6170     1.9060    -1.0350 C.ar  1 <1>  -0.1500 
 16 O        4.0960    -0.4890     0.0560 O.2   1 <1>  -0.5700 
 17 C        1.8210    -0.3260     0.6040 C.3   1 <1>  -0.0990 
 18 C        5.4620     2.5560     0.1720 C.3   1 <1>  -0.0170 
 19 C       -4.1800     1.2220     0.0390 C.ar  1 <1>   0.0830 
 20 C        1.9420    -1.6970     1.2940 C.3   1 <1>  -0.2400 
 21 C        6.7650     3.0590    -0.4230 C.ar  1 <1>  -0.1430 
 22 O       -5.4680     0.7950     0.0750 O.3   1 <1>  -0.3630 
 23 C        6.9610     4.4110    -0.6640 C.ar  1 <1>  -0.1500 
 24 C        7.7730     2.1600    -0.7340 C.ar  1 <1>  -0.1500 
 25 C       -6.3420     1.0260    -1.0080 C.3   1 <1>   0.0400 
 26 C        8.1510     4.8570    -1.2110 C.ar  1 <1>  -0.1500 
 27 C        8.9630     2.6050    -1.2820 C.ar  1 <1>  -0.1500 
 28 C        9.1530     3.9550    -1.5210 C.ar  1 <1>  -0.1500 
 29 H        2.4680     3.4000    -1.0520 H     1 <1>   0.0800 
 30 H        2.1990     4.2380     1.0400 H     1 <1>   0.0800 
 31 H        2.5100     2.6640     1.7690 H     1 <1>   0.0800 
 32 H       -1.4930     1.1200     2.0700 H     1 <1>   0.1500 
 33 H       -1.8670     2.8220    -1.8240 H     1 <1>   0.1500 
 34 H        4.4020     2.7550    -1.6880 H     1 <1>   0.0800 
 35 H        5.0550     1.1770    -1.4130 H     1 <1>   0.0800 
 36 H       -3.8410     0.4210     1.9780 H     1 <1>   0.1500 
 37 H       -4.1900     2.1360    -1.9120 H     1 <1>   0.1500 
 38 H        1.1370    -0.4290    -0.2180 H     1 <1>   0.0800 
 39 H        1.4080     0.3550     1.3200 H     1 <1>   0.0800 
 40 H        5.6730     1.7750     0.8820 H     1 <1>   0.0800 
 41 H        4.9680     3.3580     0.6880 H     1 <1>   0.0800 
 42 H        2.3160    -2.4300     0.6000 H     1 <1>   0.0800 
 43 H        0.9810    -2.0210     1.6520 H     1 <1>   0.0800 
 44 H        2.6210    -1.6370     2.1270 H     1 <1>   0.0800 
 45 H        6.1920     5.1240    -0.4260 H     1 <1>   0.1500 
 46 H        7.6340     1.1070    -0.5520 H     1 <1>   0.1500 
 47 H       -7.2990     0.6040    -0.7590 H     1 <1>   0.0800 
 48 H       -5.9470     0.5440    -1.8850 H     1 <1>   0.0800 
 49 H       -6.4390     2.0860    -1.1590 H     1 <1>   0.0800 
 50 H        8.3000     5.9070    -1.3960 H     1 <1>   0.1500 
 51 H        9.7410     1.9010    -1.5210 H     1 <1>   0.1500 
 52 H       10.0790     4.3010    -1.9470 H     1 <1>   0.1500 
@<TRIPOS>BOND
  1   1   2  2   
  2   2   3  am  
  3   2   4  1   
  4   3   5  1   
  5   3   6  am  
  6   4   7  1   
  7   4   8  1   
  8   4  29  1   
  9   5   9  ar  
 10   5  10  ar  
 11   6   8  1   
 12   6  11  2   
 13   7  12  am  
 14   7  13  1   
 15   8  30  1   
 16   8  31  1   
 17   9  14  ar  
 18   9  32  1   
 19  10  15  ar  
 20  10  33  1   
 21  12  16  2   
 22  12  17  1   
 23  13  18  1   
 24  13  34  1   
 25  13  35  1   
 26  14  19  ar  
 27  14  36  1   
 28  15  19  ar  
 29  15  37  1   
 30  17  20  1   
 31  17  38  1   
 32  17  39  1   
 33  18  21  1   
 34  18  40  1   
 35  18  41  1   
 36  19  22  1   
 37  20  42  1   
 38  20  43  1   
 39  20  44  1   
 40  21  23  ar  
 41  21  24  ar  
 42  22  25  1   
 43  23  26  ar  
 44  23  45  1   
 45  24  27  ar  
 46  24  46  1   
 47  25  47  1   
 48  25  48  1   
 49  25  49  1   
 50  26  28  ar  
 51  26  50  1   
 52  27  28  ar  
 53  27  51  1   
 54  28  52  1   
@<TRIPOS>SUBSTRUCTURE
  1 ****   4 GROUP 4 **** **** 0

# MOE 2024.06 (io_trps.svl 2023.06)
