@<TRIPOS>MOLECULE
NONAME
39 40 1 0 0 
SMALL
USER_CHARGES


@<TRIPOS>ATOM
  1 BR      -0.3880    -1.3600    -0.1050 Br    1 <1>  -0.1110 
  2 C        1.5300    -1.4940     0.0670 C.ar  1 <1>   0.1110 
  3 C        2.2220    -2.4690    -0.6360 C.ar  1 <1>  -0.1440 
  4 C        2.1600    -0.5910     0.9040 C.ar  1 <1>  -0.1500 
  5 C        3.5980    -2.5220    -0.4770 C.ar  1 <1>  -0.1500 
  6 C        1.5100    -3.4520    -1.5520 C.3   1 <1>  -0.0960 
  7 C        3.5340    -0.6590     1.0500 C.ar  1 <1>  -0.1500 
  8 C        4.2580    -1.6290     0.3570 C.ar  1 <1>   0.0830 
  9 O        5.6060    -1.7650     0.4430 O.3   1 <1>  -0.3630 
 10 C        6.3800    -0.9020     1.2700 C.3   1 <1>   0.1810 
 11 C        7.8640    -1.2440     1.2080 C.2   1 <1>   0.5690 
 12 O        8.6320    -0.5840     1.8680 O.2   1 <1>  -0.5700 
 13 N        8.2840    -2.2680     0.4210 N.am  1 <1>  -0.7300 
 14 C        9.6730    -2.7190     0.2540 C.3   1 <1>   0.2200 
 15 C       10.0680    -2.5710    -1.2180 C.3   1 <1>  -0.1600 
 16 C        9.7800    -4.1760     0.7160 C.3   1 <1>  -0.1600 
 17 C       11.4770    -3.1280    -1.4740 C.3   1 <1>  -0.1600 
 18 C       11.1880    -4.7360     0.4640 C.3   1 <1>  -0.1600 
 19 C       11.5890    -4.5870    -1.0100 C.3   1 <1>  -0.1600 
 20 H        1.5810     0.1480     1.4280 H     1 <1>   0.1500 
 21 H        4.1780    -3.2610    -1.0010 H     1 <1>   0.1500 
 22 H        0.9930    -2.9210    -2.3310 H     1 <1>   0.0800 
 23 H        0.7960    -4.0270    -0.9900 H     1 <1>   0.0800 
 24 H        2.2090    -4.1300    -2.0070 H     1 <1>   0.0800 
 25 H        4.0140     0.0460     1.7020 H     1 <1>   0.1500 
 26 H        6.0390    -1.0060     2.2830 H     1 <1>   0.0800 
 27 H        6.2380     0.1080     0.9340 H     1 <1>   0.0800 
 28 H        7.5780    -2.7820    -0.1090 H     1 <1>   0.3700 
 29 H       10.3270    -2.1100     0.8580 H     1 <1>   0.0800 
 30 H       10.0430    -1.5300    -1.4880 H     1 <1>   0.0800 
 31 H        9.3650    -3.1020    -1.8360 H     1 <1>   0.0800 
 32 H        9.0640    -4.7770     0.1820 H     1 <1>   0.0800 
 33 H        9.5580    -4.2320     1.7670 H     1 <1>   0.0800 
 34 H       12.1970    -2.5290    -0.9430 H     1 <1>   0.0800 
 35 H       11.7060    -3.0640    -2.5240 H     1 <1>   0.0800 
 36 H       11.2190    -5.7750     0.7430 H     1 <1>   0.0800 
 37 H       11.8960    -4.2090     1.0810 H     1 <1>   0.0800 
 38 H       12.6010    -4.9300    -1.1440 H     1 <1>   0.0800 
 39 H       10.9500    -5.2040    -1.6180 H     1 <1>   0.0800 
@<TRIPOS>BOND
  1   1   2  1   
  2   2   3  ar  
  3   2   4  ar  
  4   3   5  ar  
  5   3   6  1   
  6   4   7  ar  
  7   4  20  1   
  8   5   8  ar  
  9   5  21  1   
 10   6  22  1   
 11   6  23  1   
 12   6  24  1   
 13   7   8  ar  
 14   7  25  1   
 15   8   9  1   
 16   9  10  1   
 17  10  11  1   
 18  10  26  1   
 19  10  27  1   
 20  11  12  2   
 21  11  13  am  
 22  13  14  1   
 23  13  28  1   
 24  14  15  1   
 25  14  16  1   
 26  14  29  1   
 27  15  17  1   
 28  15  30  1   
 29  15  31  1   
 30  16  18  1   
 31  16  32  1   
 32  16  33  1   
 33  17  19  1   
 34  17  34  1   
 35  17  35  1   
 36  18  19  1   
 37  18  36  1   
 38  18  37  1   
 39  19  38  1   
 40  19  39  1   
@<TRIPOS>SUBSTRUCTURE
  1 ****   9 GROUP 4 **** **** 0

# MOE 2024.06 (io_trps.svl 2023.06)
