@<TRIPOS>MOLECULE
NONAME
31 32 1 0 0 
SMALL
USER_CHARGES


@<TRIPOS>ATOM
  1 N       -0.0010     0.1220    -0.0850 N.3   1 <1>  -0.8100 
  2 C       -1.1910    -0.7570    -0.0310 C.3   1 <1>   0.1100 
  3 C       -0.0780     1.1690     0.9660 C.3   1 <1>   0.1100 
  4 C        1.2550    -0.6430    -0.0130 C.3   1 <1>   0.2900 
  5 C       -2.5150     0.0460    -0.1110 C.3   1 <1>   0.3430 
  6 C       -1.3740     2.0080     0.8600 C.3   1 <1>   0.3430 
  7 C        2.4320     0.2610    -0.3370 C.2   1 <1>  -0.3320 
  8 N       -2.2480     1.5160    -0.2560 N.4   1 <1>  -0.9590 
  9 N        3.6570     0.0960     0.2340 N.pl3 1 <1>   0.0330 
 10 C        2.4870     1.3130    -1.1990 C.2   1 <1>  -0.1500 
 11 C       -3.4770     2.3350    -0.4590 C.3   1 <1>   0.2630 
 12 C        4.4780     1.0570    -0.2660 C.2   1 <1>  -0.3020 
 13 C        3.7890     1.8210    -1.1510 C.2   1 <1>  -0.1500 
 14 H       -1.1830    -1.3340     0.8790 H     1 <1>   0.0800 
 15 H       -1.1580    -1.4500    -0.8550 H     1 <1>   0.0800 
 16 H        0.7640     1.8350     0.8820 H     1 <1>   0.0800 
 17 H       -0.0280     0.7140     1.9410 H     1 <1>   0.0800 
 18 H        1.2360    -1.4480    -0.7280 H     1 <1>   0.0800 
 19 H        1.3700    -1.0640     0.9720 H     1 <1>   0.0800 
 20 H       -3.0940    -0.1360     0.7790 H     1 <1>   0.0800 
 21 H       -3.0870    -0.3080    -0.9530 H     1 <1>   0.0800 
 22 H       -1.1060     3.0370     0.6880 H     1 <1>   0.0800 
 23 H       -1.9050     1.9600     1.7960 H     1 <1>   0.0800 
 24 H       -1.6270     1.5680    -1.0830 H     1 <1>   0.4500 
 25 H        3.9300    -0.6240     0.9130 H     1 <1>   0.2700 
 26 H        1.6960     1.6990    -1.8170 H     1 <1>   0.1500 
 27 H       -4.1140     2.2750     0.4080 H     1 <1>   0.0800 
 28 H       -4.0250     1.9790    -1.3170 H     1 <1>   0.0800 
 29 H       -3.2130     3.3670    -0.6250 H     1 <1>   0.0800 
 30 H        5.5090     1.1460     0.0300 H     1 <1>   0.1500 
 31 H        4.1500     2.6600    -1.7220 H     1 <1>   0.1500 
@<TRIPOS>BOND
  1   1   2  1   
  2   1   3  1   
  3   1   4  1   
  4   2   5  1   
  5   2  14  1   
  6   2  15  1   
  7   3   6  1   
  8   3  16  1   
  9   3  17  1   
 10   4   7  1   
 11   4  18  1   
 12   4  19  1   
 13   5   8  1   
 14   5  20  1   
 15   5  21  1   
 16   6   8  1   
 17   6  22  1   
 18   6  23  1   
 19   7   9  1   
 20   7  10  2   
 21   8  11  1   
 22   8  24  1   
 23   9  12  1   
 24   9  25  1   
 25  10  13  1   
 26  10  26  1   
 27  11  27  1   
 28  11  28  1   
 29  11  29  1   
 30  12  13  2   
 31  12  30  1   
 32  13  31  1   
@<TRIPOS>SUBSTRUCTURE
  1 ****   1 GROUP 4 **** **** 0

# MOE 2024.06 (io_trps.svl 2023.06)
