@<TRIPOS>MOLECULE
NONAME
46 47 1 0 0 
SMALL
USER_CHARGES


@<TRIPOS>ATOM
  1 O       -1.3640     0.7120    -1.0600 O.2   1 <1>  -0.5700 
  2 C       -0.9790     1.8570    -1.0080 C.2   1 <1>   0.6900 
  3 N        0.0370     2.2020    -0.1790 N.am  1 <1>  -0.5390 
  4 N       -1.5560     2.8130    -1.7500 N.am  1 <1>  -0.7300 
  5 C        0.5090     3.4860    -0.0150 C.2   1 <1>  -0.0290 
  6 C       -1.2990     4.2530    -1.5620 C.3   1 <1>   0.5020 
  7 C       -0.1000     4.5320    -0.6450 C.2   1 <1>  -0.1240 
  8 C        1.7390     3.5610     0.8770 C.3   1 <1>  -0.1020 
  9 C       -2.5670     4.8790    -0.9860 C.ar  1 <1>  -0.1440 
 10 C        0.2010     5.9280    -0.5880 C.2   1 <1>   0.4950 
 11 C       -3.1600     5.9580    -1.6270 C.ar  1 <1>  -0.1500 
 12 C       -3.1360     4.3950     0.1860 C.ar  1 <1>  -0.1500 
 13 O        0.0330     6.6650    -1.5290 O.2   1 <1>  -0.5700 
 14 C        0.7030     6.5840     0.6810 C.3   1 <1>  -0.1790 
 15 C       -4.3010     6.5470    -1.1100 C.ar  1 <1>   0.0830 
 16 C       -4.2840     4.9720     0.7020 C.ar  1 <1>  -0.1500 
 17 O       -4.8040     7.6200    -1.7610 O.3   1 <1>  -0.3620 
 18 C       -4.8830     6.0380     0.0560 C.ar  1 <1>   0.0830 
 19 C       -4.4940     8.8670    -1.1850 C.3   1 <1>   0.1200 
 20 O       -6.0200     6.5340     0.6050 O.3   1 <1>  -0.3630 
 21 C       -5.1580     9.9550    -2.0230 C.3   1 <1>  -0.2400 
 22 C       -7.1500     6.6530    -0.2310 C.3   1 <1>   0.2580 
 23 C       -8.3840     6.6680     0.6510 C.2   1 <1>  -0.2880 
 24 C       -9.4080     5.8130     0.5680 C.2   1 <1>  -0.3000 
 25 H        0.4490     1.4060     0.3060 H     1 <1>   0.3700 
 26 H       -2.4200     2.5670    -2.2280 H     1 <1>   0.3700 
 27 H       -1.0980     4.6740    -2.5340 H     1 <1>   0.0800 
 28 H        1.4470     3.5210     1.9110 H     1 <1>   0.0800 
 29 H        2.3030     4.4560     0.7010 H     1 <1>   0.0800 
 30 H        2.3930     2.7320     0.6730 H     1 <1>   0.0800 
 31 H       -2.7330     6.3650    -2.5270 H     1 <1>   0.1500 
 32 H       -2.6880     3.5630     0.7030 H     1 <1>   0.1500 
 33 H        0.4820     5.9790     1.5390 H     1 <1>   0.0800 
 34 H        0.2140     7.5330     0.8030 H     1 <1>   0.0800 
 35 H        1.7610     6.7520     0.6100 H     1 <1>   0.0800 
 36 H       -4.7250     4.5920     1.6060 H     1 <1>   0.1500 
 37 H       -3.4230     8.9810    -1.1820 H     1 <1>   0.0800 
 38 H       -4.8630     8.8810    -0.1740 H     1 <1>   0.0800 
 39 H       -4.7870     9.9210    -3.0320 H     1 <1>   0.0800 
 40 H       -4.9340    10.9200    -1.6070 H     1 <1>   0.0800 
 41 H       -6.2240     9.8210    -2.0260 H     1 <1>   0.0800 
 42 H       -7.1700     5.8170    -0.9090 H     1 <1>   0.0800 
 43 H       -7.0750     7.5700    -0.7850 H     1 <1>   0.0800 
 44 H       -8.3460     7.4620     1.3780 H     1 <1>   0.1500 
 45 H      -10.2710     5.8480     1.2110 H     1 <1>   0.1500 
 46 H       -9.4720     5.0090    -0.1440 H     1 <1>   0.1500 
@<TRIPOS>BOND
  1   1   2  2   
  2   2   3  am  
  3   2   4  am  
  4   3   5  1   
  5   3  25  1   
  6   4   6  1   
  7   4  26  1   
  8   5   7  2   
  9   5   8  1   
 10   6   7  1   
 11   6   9  1   
 12   6  27  1   
 13   7  10  1   
 14   8  28  1   
 15   8  29  1   
 16   8  30  1   
 17   9  11  ar  
 18   9  12  ar  
 19  10  13  2   
 20  10  14  1   
 21  11  15  ar  
 22  11  31  1   
 23  12  16  ar  
 24  12  32  1   
 25  14  33  1   
 26  14  34  1   
 27  14  35  1   
 28  15  17  1   
 29  15  18  ar  
 30  16  18  ar  
 31  16  36  1   
 32  17  19  1   
 33  18  20  1   
 34  19  21  1   
 35  19  37  1   
 36  19  38  1   
 37  20  22  1   
 38  21  39  1   
 39  21  40  1   
 40  21  41  1   
 41  22  23  1   
 42  22  42  1   
 43  22  43  1   
 44  23  24  2   
 45  23  44  1   
 46  24  45  1   
 47  24  46  1   
@<TRIPOS>SUBSTRUCTURE
  1 ****   9 GROUP 4 **** **** 0

# MOE 2024.06 (io_trps.svl 2023.06)
