@<TRIPOS>MOLECULE
NONAME
55 58 1 0 0 
SMALL
USER_CHARGES


@<TRIPOS>ATOM
  1 O        1.4990     0.3750     0.0340 O.2   1 <1>  -0.5700 
  2 C        1.4570    -0.8290    -0.0920 C.2   1 <1>   0.7060 
  3 O        2.2410    -1.5900     0.6700 O.3   1 <1>  -0.2330 
  4 C        0.5780    -1.4790    -1.0100 C.2   1 <1>  -0.1360 
  5 C        2.2630    -2.9390     0.5780 C.ar  1 <1>   0.0820 
  6 C        0.5390    -2.8260    -1.1340 C.2   1 <1>  -0.1670 
  7 C        1.4400    -3.6140    -0.3340 C.ar  1 <1>   0.0280 
  8 C        3.1270    -3.6340     1.4080 C.ar  1 <1>  -0.1500 
  9 C       -0.4320    -3.5000    -2.0870 C.3   1 <1>   0.4810 
 10 C        1.5590    -5.0060    -0.3970 C.ar  1 <1>  -0.1500 
 11 C        3.2120    -5.0110     1.3470 C.ar  1 <1>  -0.1440 
 12 N       -1.7450    -3.6850    -1.4080 N.4   1 <1>  -0.9590 
 13 C        2.4220    -5.7020     0.4300 C.ar  1 <1>  -0.1430 
 14 C        4.1760    -5.7350     2.2780 C.3   1 <1>  -0.0970 
 15 C       -1.6560    -4.5650    -0.1780 C.3   1 <1>   0.3430 
 16 C       -2.7870    -4.2160    -2.3630 C.3   1 <1>   0.3430 
 17 C        2.5050    -7.2200     0.3190 C.3   1 <1>  -0.0970 
 18 C       -3.0210    -4.7730     0.5050 C.3   1 <1>   0.2090 
 19 C       -4.1590    -4.4190    -1.6920 C.3   1 <1>   0.2090 
 20 N       -4.0330    -5.2690    -0.4740 N.pl3 1 <1>  -0.8380 
 21 C       -5.2550    -5.6490     0.0990 C.ar  1 <1>   0.1000 
 22 C       -6.1540    -4.7490     0.7010 C.ar  1 <1>   0.0830 
 23 C       -5.5830    -6.9960     0.0610 C.ar  1 <1>  -0.1500 
 24 O       -5.8210    -3.4190     0.7350 O.3   1 <1>  -0.3620 
 25 C       -7.3450    -5.2270     1.2410 C.ar  1 <1>  -0.1500 
 26 C       -6.7680    -7.4620     0.5990 C.ar  1 <1>  -0.1500 
 27 C       -6.6780    -2.4670     1.3310 C.3   1 <1>   0.0400 
 28 C       -7.6500    -6.5770     1.1900 C.ar  1 <1>  -0.1500 
 29 H       -0.0420    -0.8100    -1.5780 H     1 <1>   0.1500 
 30 H        3.7350    -3.0780     2.1000 H     1 <1>   0.1500 
 31 H       -0.0410    -4.4450    -2.4240 H     1 <1>   0.0800 
 32 H       -0.5640    -2.8700    -2.9520 H     1 <1>   0.0800 
 33 H        0.9800    -5.5700    -1.1020 H     1 <1>   0.1500 
 34 H       -2.0660    -2.7660    -1.0800 H     1 <1>   0.4500 
 35 H        4.6900    -5.0400     2.9170 H     1 <1>   0.0800 
 36 H        4.9110    -6.2700     1.7060 H     1 <1>   0.0800 
 37 H        3.6410    -6.4290     2.9000 H     1 <1>   0.0800 
 38 H       -0.9750    -4.1350     0.5380 H     1 <1>   0.0800 
 39 H       -1.2740    -5.5340    -0.4540 H     1 <1>   0.0800 
 40 H       -2.4670    -5.1680    -2.7530 H     1 <1>   0.0800 
 41 H       -2.9040    -3.5400    -3.1940 H     1 <1>   0.0800 
 42 H        1.8400    -7.5970    -0.4360 H     1 <1>   0.0800 
 43 H        2.2410    -7.6740     1.2570 H     1 <1>   0.0800 
 44 H        3.5060    -7.5150     0.0600 H     1 <1>   0.0800 
 45 H       -3.3530    -3.8480     0.9420 H     1 <1>   0.0800 
 46 H       -2.9180    -5.4940     1.2990 H     1 <1>   0.0800 
 47 H       -4.8300    -4.8980    -2.3850 H     1 <1>   0.0800 
 48 H       -4.5820    -3.4640    -1.4330 H     1 <1>   0.0800 
 49 H       -4.8990    -7.6850    -0.3980 H     1 <1>   0.1500 
 50 H       -8.0560    -4.5730     1.7080 H     1 <1>   0.1500 
 51 H       -7.0040    -8.5120     0.5590 H     1 <1>   0.1500 
 52 H       -6.2170    -1.5000     1.2470 H     1 <1>   0.0800 
 53 H       -6.8120    -2.7180     2.3680 H     1 <1>   0.0800 
 54 H       -7.6190    -2.4690     0.8090 H     1 <1>   0.0800 
 55 H       -8.5730    -6.9380     1.6100 H     1 <1>   0.1500 
@<TRIPOS>BOND
  1   1   2  2   
  2   2   3  1   
  3   2   4  1   
  4   3   5  1   
  5   4   6  2   
  6   4  29  1   
  7   5   7  ar  
  8   5   8  ar  
  9   6   7  1   
 10   6   9  1   
 11   7  10  ar  
 12   8  11  ar  
 13   8  30  1   
 14   9  12  1   
 15   9  31  1   
 16   9  32  1   
 17  10  13  ar  
 18  10  33  1   
 19  11  13  ar  
 20  11  14  1   
 21  12  15  1   
 22  12  16  1   
 23  12  34  1   
 24  13  17  1   
 25  14  35  1   
 26  14  36  1   
 27  14  37  1   
 28  15  18  1   
 29  15  38  1   
 30  15  39  1   
 31  16  19  1   
 32  16  40  1   
 33  16  41  1   
 34  17  42  1   
 35  17  43  1   
 36  17  44  1   
 37  18  20  1   
 38  18  45  1   
 39  18  46  1   
 40  19  20  1   
 41  19  47  1   
 42  19  48  1   
 43  20  21  1   
 44  21  22  ar  
 45  21  23  ar  
 46  22  24  1   
 47  22  25  ar  
 48  23  26  ar  
 49  23  49  1   
 50  24  27  1   
 51  25  28  ar  
 52  25  50  1   
 53  26  28  ar  
 54  26  51  1   
 55  27  52  1   
 56  27  53  1   
 57  27  54  1   
 58  28  55  1   
@<TRIPOS>SUBSTRUCTURE
  1 ****  15 GROUP 4 **** **** 0

# MOE 2024.06 (io_trps.svl 2023.06)
