@<TRIPOS>MOLECULE
NONAME
26 26 1 0 0 
SMALL
USER_CHARGES


@<TRIPOS>ATOM
  1 CL      -2.2860     1.4930    -3.7630 Cl    1 <1>  -0.1770 
  2 C       -2.6670     1.6080    -2.0590 C.ar  1 <1>   0.1770 
  3 C       -1.7120     2.0060    -1.1400 C.ar  1 <1>   0.1900 
  4 C       -3.9440     1.2940    -1.6330 C.ar  1 <1>  -0.1500 
  5 F       -0.5010     2.3050    -1.5390 F     1 <1>  -0.1900 
  6 C       -2.0100     2.1000     0.2060 C.ar  1 <1>  -0.1500 
  7 C       -4.2720     1.3760    -0.2820 C.ar  1 <1>   0.1170 
  8 C       -3.2920     1.7840     0.6260 C.ar  1 <1>  -0.1500 
  9 N       -5.5820     1.0500     0.1000 N.am  1 <1>  -0.5470 
 10 C       -6.1760     0.8310     1.3130 C.2   1 <1>   0.5690 
 11 O       -5.6000     0.8900     2.3720 O.2   1 <1>  -0.5700 
 12 C       -7.6620     0.4830     1.3050 C.3   1 <1>   0.1810 
 13 O       -8.1660     0.4170    -0.0100 O.3   1 <1>  -0.5600 
 14 C       -9.5160     0.1020    -0.0790 C.3   1 <1>   0.1200 
 15 C       -9.9030     0.0700    -1.5510 C.3   1 <1>  -0.2400 
 16 H       -4.6770     0.9850    -2.3540 H     1 <1>   0.1500 
 17 H       -1.2560     2.4120     0.9070 H     1 <1>   0.1500 
 18 H       -3.5250     1.8610     1.6720 H     1 <1>   0.1500 
 19 H       -6.2560     0.9170    -0.6610 H     1 <1>   0.3700 
 20 H       -8.2020     1.2390     1.8460 H     1 <1>   0.0800 
 21 H       -7.8020    -0.4720     1.7790 H     1 <1>   0.0800 
 22 H      -10.0800     0.8550     0.4460 H     1 <1>   0.0800 
 23 H       -9.6740    -0.8620     0.3760 H     1 <1>   0.0800 
 24 H       -9.7330     1.0320    -2.0000 H     1 <1>   0.0800 
 25 H      -10.9460    -0.1720    -1.6480 H     1 <1>   0.0800 
 26 H       -9.3290    -0.6770    -2.0700 H     1 <1>   0.0800 
@<TRIPOS>BOND
  1   1   2  1   
  2   2   3  ar  
  3   2   4  ar  
  4   3   5  1   
  5   3   6  ar  
  6   4   7  ar  
  7   4  16  1   
  8   6   8  ar  
  9   6  17  1   
 10   7   8  ar  
 11   7   9  1   
 12   8  18  1   
 13   9  10  am  
 14   9  19  1   
 15  10  11  2   
 16  10  12  1   
 17  12  13  1   
 18  12  20  1   
 19  12  21  1   
 20  13  14  1   
 21  14  15  1   
 22  14  22  1   
 23  14  23  1   
 24  15  24  1   
 25  15  25  1   
 26  15  26  1   
@<TRIPOS>SUBSTRUCTURE
  1 ****   7 GROUP 4 **** **** 0

# MOE 2024.06 (io_trps.svl 2023.06)
