@<TRIPOS>MOLECULE
NONAME
36 36 1 0 0 
SMALL
USER_CHARGES


@<TRIPOS>ATOM
  1 O        0.2510    -0.3310     0.4730 O.2   1 <1>  -0.5700 
  2 C        0.1020    -1.4330    -0.0220 C.2   1 <1>   0.6900 
  3 N        1.1960    -2.2090    -0.3320 N.am  1 <1>  -0.6600 
  4 N       -1.1450    -1.9290    -0.2800 N.am  1 <1>  -0.5470 
  5 C        2.5770    -1.6510    -0.2630 C.3   1 <1>   0.0600 
  6 C        1.1310    -3.6540    -0.6850 C.3   1 <1>   0.0600 
  7 C       -2.4320    -1.4060    -0.0720 C.ar  1 <1>   0.1170 
  8 C       -2.6910    -0.0440     0.0280 C.ar  1 <1>  -0.1500 
  9 C       -3.4970    -2.2900     0.0210 C.ar  1 <1>  -0.1500 
 10 C       -3.9830     0.4330     0.2240 C.ar  1 <1>   0.0830 
 11 C       -4.7910    -1.8440     0.2160 C.ar  1 <1>   0.0830 
 12 O       -4.2540     1.7670     0.3390 O.3   1 <1>  -0.3630 
 13 C       -5.0450    -0.4710     0.3010 C.ar  1 <1>   0.0830 
 14 O       -5.7470    -2.8100     0.3040 O.3   1 <1>  -0.3630 
 15 C       -3.2240     2.6930     0.6080 C.3   1 <1>   0.0400 
 16 O       -6.3180    -0.0050     0.4520 O.3   1 <1>  -0.3630 
 17 C       -6.7160    -2.7190     1.3270 C.3   1 <1>   0.0400 
 18 C       -6.9240     0.4530    -0.7350 C.3   1 <1>   0.0400 
 19 H       -1.1170    -2.8640    -0.6670 H     1 <1>   0.3700 
 20 H        2.5530    -0.5760    -0.2030 H     1 <1>   0.0800 
 21 H        3.1290    -1.9280    -1.1430 H     1 <1>   0.0800 
 22 H        3.0780    -2.0330     0.6090 H     1 <1>   0.0800 
 23 H        0.2970    -4.1260    -0.1970 H     1 <1>   0.0800 
 24 H        2.0300    -4.1510    -0.3640 H     1 <1>   0.0800 
 25 H        1.0340    -3.7620    -1.7520 H     1 <1>   0.0800 
 26 H       -1.8700     0.6380    -0.0590 H     1 <1>   0.1500 
 27 H       -3.3260    -3.3470    -0.0510 H     1 <1>   0.1500 
 28 H       -3.6770     3.6470     0.8090 H     1 <1>   0.0800 
 29 H       -2.5860     2.7670    -0.2550 H     1 <1>   0.0800 
 30 H       -2.6700     2.3610     1.4680 H     1 <1>   0.0800 
 31 H       -7.0890    -3.7070     1.5250 H     1 <1>   0.0800 
 32 H       -7.5190    -2.0890     0.9920 H     1 <1>   0.0800 
 33 H       -6.2600    -2.3110     2.2120 H     1 <1>   0.0800 
 34 H       -7.9250     0.7670    -0.5030 H     1 <1>   0.0800 
 35 H       -6.9420    -0.3540    -1.4470 H     1 <1>   0.0800 
 36 H       -6.3580     1.2820    -1.1200 H     1 <1>   0.0800 
@<TRIPOS>BOND
  1   1   2  2   
  2   2   3  am  
  3   2   4  am  
  4   3   5  1   
  5   3   6  1   
  6   4   7  1   
  7   4  19  1   
  8   5  20  1   
  9   5  21  1   
 10   5  22  1   
 11   6  23  1   
 12   6  24  1   
 13   6  25  1   
 14   7   8  ar  
 15   7   9  ar  
 16   8  10  ar  
 17   8  26  1   
 18   9  11  ar  
 19   9  27  1   
 20  10  12  1   
 21  10  13  ar  
 22  11  13  ar  
 23  11  14  1   
 24  12  15  1   
 25  13  16  1   
 26  14  17  1   
 27  15  28  1   
 28  15  29  1   
 29  15  30  1   
 30  16  18  1   
 31  17  31  1   
 32  17  32  1   
 33  17  33  1   
 34  18  34  1   
 35  18  35  1   
 36  18  36  1   
@<TRIPOS>SUBSTRUCTURE
  1 ****   7 GROUP 4 **** **** 0

# MOE 2024.06 (io_trps.svl 2023.06)
