@<TRIPOS>MOLECULE
NONAME
47 48 1 0 0 
SMALL
USER_CHARGES


@<TRIPOS>ATOM
  1 S       -0.0700    -0.2130    -0.7300 S.o2  1 <1>   1.4470 
  2 O        0.3360    -0.3800    -2.1080 O.2   1 <1>  -0.6500 
  3 O        0.1840     1.0380    -0.0530 O.2   1 <1>  -0.6500 
  4 N        0.8210    -1.3830     0.1240 N.am  1 <1>  -0.8490 
  5 C       -1.7940    -0.7180    -0.4840 C.ar  1 <1>  -0.0090 
  6 C        2.2090    -0.9260     0.3220 C.3   1 <1>   0.1960 
  7 C        0.7810    -2.7060    -0.5300 C.3   1 <1>   0.1960 
  8 C       -2.4270    -0.5350     0.7400 C.ar  1 <1>  -0.1500 
  9 C       -2.5250    -1.3200    -1.5020 C.ar  1 <1>  -0.1500 
 10 C        3.0530    -1.9520     1.1070 C.3   1 <1>   0.3430 
 11 C        1.6020    -3.7590     0.2470 C.3   1 <1>   0.3430 
 12 C       -3.7340    -0.9400     0.9420 C.ar  1 <1>  -0.1500 
 13 C       -3.8310    -1.7280    -1.3040 C.ar  1 <1>  -0.1500 
 14 N        3.0280    -3.3190     0.4730 N.4   1 <1>  -0.9590 
 15 C       -4.4570    -1.5480    -0.0750 C.ar  1 <1>   0.1170 
 16 C        3.8000    -4.2910     1.2920 C.3   1 <1>   0.3430 
 17 N       -5.7800    -1.9380     0.1670 N.am  1 <1>  -0.5470 
 18 C        4.0730    -5.5480     0.4750 C.3   1 <1>  -0.2400 
 19 C       -6.5620    -2.8780    -0.4300 C.2   1 <1>   0.7800 
 20 O       -6.1930    -3.6130    -1.3230 O.2   1 <1>  -0.5700 
 21 O       -7.8000    -2.9630     0.0460 O.3   1 <1>  -0.4300 
 22 C       -8.7110    -3.9020    -0.4790 C.3   1 <1>   0.1200 
 23 C      -10.0320    -3.7510     0.2690 C.3   1 <1>  -0.2400 
 24 H        2.2070    -0.0020     0.8770 H     1 <1>   0.0800 
 25 H        2.6710    -0.7290    -0.6320 H     1 <1>   0.0800 
 26 H        1.1630    -2.6390    -1.5360 H     1 <1>   0.0800 
 27 H       -0.2400    -3.0440    -0.5910 H     1 <1>   0.0800 
 28 H       -1.8870    -0.0640     1.5460 H     1 <1>   0.1500 
 29 H       -2.0720    -1.4680    -2.4690 H     1 <1>   0.1500 
 30 H        2.6600    -2.0110     2.1090 H     1 <1>   0.0800 
 31 H        4.0680    -1.5950     1.1710 H     1 <1>   0.0800 
 32 H        1.5860    -4.6860    -0.3010 H     1 <1>   0.0800 
 33 H        1.1210    -3.9290     1.1960 H     1 <1>   0.0800 
 34 H       -4.1960    -0.7820     1.9000 H     1 <1>   0.1500 
 35 H       -4.3680    -2.1840    -2.1180 H     1 <1>   0.1500 
 36 H        3.4870    -3.2460    -0.4450 H     1 <1>   0.4500 
 37 H        3.2550    -4.5410     2.1890 H     1 <1>   0.0800 
 38 H        4.7430    -3.8540     1.5820 H     1 <1>   0.0800 
 39 H       -6.2550    -1.4840     0.9430 H     1 <1>   0.3700 
 40 H        3.1660    -6.0760     0.2440 H     1 <1>   0.0800 
 41 H        4.6940    -6.2110     1.0520 H     1 <1>   0.0800 
 42 H        4.6000    -5.3110    -0.4320 H     1 <1>   0.0800 
 43 H       -8.3010    -4.8890    -0.3420 H     1 <1>   0.0800 
 44 H       -8.8370    -3.7060    -1.5300 H     1 <1>   0.0800 
 45 H       -9.8890    -3.9410     1.3180 H     1 <1>   0.0800 
 46 H      -10.7470    -4.4570    -0.1120 H     1 <1>   0.0800 
 47 H      -10.4240    -2.7590     0.1320 H     1 <1>   0.0800 
@<TRIPOS>BOND
  1   1   2  2   
  2   1   3  2   
  3   1   4  am  
  4   1   5  1   
  5   4   6  1   
  6   4   7  1   
  7   5   8  ar  
  8   5   9  ar  
  9   6  10  1   
 10   6  24  1   
 11   6  25  1   
 12   7  11  1   
 13   7  26  1   
 14   7  27  1   
 15   8  12  ar  
 16   8  28  1   
 17   9  13  ar  
 18   9  29  1   
 19  10  14  1   
 20  10  30  1   
 21  10  31  1   
 22  11  14  1   
 23  11  32  1   
 24  11  33  1   
 25  12  15  ar  
 26  12  34  1   
 27  13  15  ar  
 28  13  35  1   
 29  14  16  1   
 30  14  36  1   
 31  15  17  1   
 32  16  18  1   
 33  16  37  1   
 34  16  38  1   
 35  17  19  am  
 36  17  39  1   
 37  18  40  1   
 38  18  41  1   
 39  18  42  1   
 40  19  20  2   
 41  19  21  1   
 42  21  22  1   
 43  22  23  1   
 44  22  43  1   
 45  22  44  1   
 46  23  45  1   
 47  23  46  1   
 48  23  47  1   
@<TRIPOS>SUBSTRUCTURE
  1 ****   5 GROUP 4 **** **** 0

# MOE 2024.06 (io_trps.svl 2023.06)
