@<TRIPOS>MOLECULE
NONAME
51 54 1 0 0 
SMALL
USER_CHARGES


@<TRIPOS>ATOM
  1 F       -0.3360     0.0450     1.0100 F     1 <1>  -0.3400 
  2 C       -0.3280     1.3730     0.9630 C.3   1 <1>   1.1640 
  3 F       -0.5040     1.7910     2.2100 F     1 <1>  -0.3400 
  4 F       -1.4200     1.7240     0.2930 F     1 <1>  -0.3400 
  5 C        0.9630     1.9320     0.3440 C.ar  1 <1>  -0.1440 
  6 C        2.1780     1.2900     0.5470 C.ar  1 <1>  -0.1500 
  7 C        0.9480     3.0950    -0.4210 C.ar  1 <1>  -0.1500 
  8 C        3.3610     1.7730     0.0030 C.ar  1 <1>   0.1000 
  9 C        2.1180     3.5920    -0.9670 C.ar  1 <1>  -0.1500 
 10 N        4.5520     1.0860     0.2270 N.pl3 1 <1>  -0.8380 
 11 C        3.3150     2.9360    -0.7570 C.ar  1 <1>  -0.1500 
 12 C        4.7210    -0.2820    -0.3500 C.3   1 <1>   0.2090 
 13 C        5.8080     1.8100     0.5880 C.3   1 <1>   0.2090 
 14 C        5.7570    -0.2800    -1.4950 C.3   1 <1>   0.3430 
 15 C        6.8350     1.7700    -0.5640 C.3   1 <1>   0.3430 
 16 N        7.0540     0.3760    -1.1000 N.4   1 <1>  -0.9590 
 17 C        8.0750     0.3110    -2.1790 C.3   1 <1>   0.4810 
 18 C        9.4380     0.7010    -1.6370 C.2   1 <1>  -0.1240 
 19 C        9.9360    -0.0380    -0.5200 C.2   1 <1>   0.4690 
 20 C       10.1770     1.6950    -2.1770 C.2   1 <1>  -0.0730 
 21 O        9.2330    -0.8780     0.0190 O.2   1 <1>  -0.5700 
 22 C       11.2560     0.2920    -0.0510 C.ar  1 <1>   0.0860 
 23 O       11.3810     2.0170    -1.7000 O.3   1 <1>  -0.1590 
 24 C       11.9440     1.3410    -0.6740 C.ar  1 <1>   0.0830 
 25 C       11.8870    -0.3740     1.0020 C.ar  1 <1>  -0.1500 
 26 C       13.2140     1.7050    -0.2510 C.ar  1 <1>  -0.1500 
 27 C       13.1530    -0.0130     1.4240 C.ar  1 <1>  -0.1430 
 28 C       13.8140     1.0320     0.7930 C.ar  1 <1>  -0.1500 
 29 C       13.8320    -0.7430     2.5690 C.3   1 <1>  -0.0970 
 30 H        2.2250     0.3970     1.1460 H     1 <1>   0.1500 
 31 H        0.0240     3.6250    -0.5960 H     1 <1>   0.1500 
 32 H        2.0910     4.4940    -1.5560 H     1 <1>   0.1500 
 33 H        4.2120     3.3320    -1.1910 H     1 <1>   0.1500 
 34 H        3.7760    -0.6360    -0.7280 H     1 <1>   0.0800 
 35 H        5.0360    -0.9560     0.4270 H     1 <1>   0.0800 
 36 H        6.2340     1.3540     1.4650 H     1 <1>   0.0800 
 37 H        5.5800     2.8330     0.8360 H     1 <1>   0.0800 
 38 H        5.3260     0.2460    -2.3310 H     1 <1>   0.0800 
 39 H        5.9370    -1.2980    -1.7990 H     1 <1>   0.0800 
 40 H        7.7670     2.1790    -0.2110 H     1 <1>   0.0800 
 41 H        6.4740     2.4050    -1.3550 H     1 <1>   0.0800 
 42 H        7.4650    -0.1900    -0.3280 H     1 <1>   0.4500 
 43 H        7.7980     0.9610    -2.9920 H     1 <1>   0.0800 
 44 H        8.1340    -0.6980    -2.5560 H     1 <1>   0.0800 
 45 H        9.8820     2.2990    -3.0200 H     1 <1>   0.1500 
 46 H       11.3700    -1.1840     1.4880 H     1 <1>   0.1500 
 47 H       13.7270     2.5140    -0.7420 H     1 <1>   0.1500 
 48 H       14.8010     1.3170     1.1180 H     1 <1>   0.1500 
 49 H       13.2030    -1.5230     2.9590 H     1 <1>   0.0800 
 50 H       14.0520    -0.0530     3.3640 H     1 <1>   0.0800 
 51 H       14.7510    -1.1840     2.2280 H     1 <1>   0.0800 
@<TRIPOS>BOND
  1   1   2  1   
  2   2   3  1   
  3   2   4  1   
  4   2   5  1   
  5   5   6  ar  
  6   5   7  ar  
  7   6   8  ar  
  8   6  30  1   
  9   7   9  ar  
 10   7  31  1   
 11   8  10  1   
 12   8  11  ar  
 13   9  11  ar  
 14   9  32  1   
 15  10  12  1   
 16  10  13  1   
 17  11  33  1   
 18  12  14  1   
 19  12  34  1   
 20  12  35  1   
 21  13  15  1   
 22  13  36  1   
 23  13  37  1   
 24  14  16  1   
 25  14  38  1   
 26  14  39  1   
 27  15  16  1   
 28  15  40  1   
 29  15  41  1   
 30  16  17  1   
 31  16  42  1   
 32  17  18  1   
 33  17  43  1   
 34  17  44  1   
 35  18  19  1   
 36  18  20  2   
 37  19  21  2   
 38  19  22  1   
 39  20  23  1   
 40  20  45  1   
 41  22  24  ar  
 42  22  25  ar  
 43  23  24  1   
 44  24  26  ar  
 45  25  27  ar  
 46  25  46  1   
 47  26  28  ar  
 48  26  47  1   
 49  27  28  ar  
 50  27  29  1   
 51  28  48  1   
 52  29  49  1   
 53  29  50  1   
 54  29  51  1   
@<TRIPOS>SUBSTRUCTURE
  1 ****  15 GROUP 4 **** **** 0

# MOE 2024.06 (io_trps.svl 2023.06)
