@<TRIPOS>MOLECULE
NONAME
39 40 1 0 0 
SMALL
USER_CHARGES


@<TRIPOS>ATOM
  1 O       -0.4430    -4.0970    -1.0290 O.2   1 <1>  -0.5700 
  2 C       -0.5670    -5.0330    -0.2750 C.2   1 <1>   0.5690 
  3 N       -1.7630    -5.4070     0.2830 N.am  1 <1>  -0.5470 
  4 C        0.7130    -5.8200     0.0580 C.3   1 <1>   0.4040 
  5 C       -3.0210    -4.7880     0.1910 C.ar  1 <1>   0.1170 
  6 N        1.9780    -5.0210    -0.1670 N.4   1 <1>  -0.9590 
  7 C       -3.1780    -3.4220    -0.0160 C.ar  1 <1>  -0.1500 
  8 C       -4.1610    -5.5690     0.3370 C.ar  1 <1>  -0.1500 
  9 C        3.2000    -5.8700    -0.2300 C.3   1 <1>   0.3430 
 10 C        2.1010    -3.8940     0.8060 C.3   1 <1>   0.3430 
 11 C       -4.4340    -2.8450    -0.0770 C.ar  1 <1>   0.0820 
 12 C       -5.4220    -5.0040     0.2760 C.ar  1 <1>  -0.1500 
 13 C        4.4020    -5.0130    -0.6310 C.3   1 <1>  -0.1600 
 14 C        3.2880    -3.0110     0.4200 C.3   1 <1>  -0.1600 
 15 O       -4.4800    -1.5040    -0.2780 O.3   1 <1>  -0.3630 
 16 C       -5.5650    -3.6440     0.0690 C.ar  1 <1>  -0.1500 
 17 C        4.5890    -3.8170     0.3110 C.3   1 <1>  -0.1600 
 18 C       -5.7090    -0.8240    -0.4090 C.3   1 <1>   0.0400 
 19 H       -1.7920    -6.2810     0.8080 H     1 <1>   0.3700 
 20 H        0.7280    -6.6920    -0.5730 H     1 <1>   0.0800 
 21 H        0.6680    -6.1460     1.0820 H     1 <1>   0.0800 
 22 H        1.8470    -4.5640    -1.0870 H     1 <1>   0.4500 
 23 H       -2.3250    -2.7810    -0.1290 H     1 <1>   0.1500 
 24 H       -4.0730    -6.6280     0.4970 H     1 <1>   0.1500 
 25 H        3.0680    -6.6600    -0.9530 H     1 <1>   0.0800 
 26 H        3.3850    -6.3170     0.7340 H     1 <1>   0.0800 
 27 H        2.2490    -4.2810     1.8010 H     1 <1>   0.0800 
 28 H        1.2010    -3.2990     0.7990 H     1 <1>   0.0800 
 29 H       -6.2970    -5.6220     0.3880 H     1 <1>   0.1500 
 30 H        4.2710    -4.6660    -1.6410 H     1 <1>   0.0800 
 31 H        5.2900    -5.6220    -0.6130 H     1 <1>   0.0800 
 32 H        3.4070    -2.2390     1.1610 H     1 <1>   0.0800 
 33 H        3.0770    -2.5240    -0.5170 H     1 <1>   0.0800 
 34 H       -6.5530    -3.2280     0.0260 H     1 <1>   0.1500 
 35 H        5.3810    -3.1830    -0.0550 H     1 <1>   0.0800 
 36 H        4.8780    -4.1680     1.2880 H     1 <1>   0.0800 
 37 H       -5.4970     0.2160    -0.5820 H     1 <1>   0.0800 
 38 H       -6.2700    -0.9360     0.5010 H     1 <1>   0.0800 
 39 H       -6.2460    -1.2310    -1.2480 H     1 <1>   0.0800 
@<TRIPOS>BOND
  1   1   2  2   
  2   2   3  am  
  3   2   4  1   
  4   3   5  1   
  5   3  19  1   
  6   4   6  1   
  7   4  20  1   
  8   4  21  1   
  9   5   7  ar  
 10   5   8  ar  
 11   6   9  1   
 12   6  10  1   
 13   6  22  1   
 14   7  11  ar  
 15   7  23  1   
 16   8  12  ar  
 17   8  24  1   
 18   9  13  1   
 19   9  25  1   
 20   9  26  1   
 21  10  14  1   
 22  10  27  1   
 23  10  28  1   
 24  11  15  1   
 25  11  16  ar  
 26  12  16  ar  
 27  12  29  1   
 28  13  17  1   
 29  13  30  1   
 30  13  31  1   
 31  14  17  1   
 32  14  32  1   
 33  14  33  1   
 34  15  18  1   
 35  16  34  1   
 36  17  35  1   
 37  17  36  1   
 38  18  37  1   
 39  18  38  1   
 40  18  39  1   
@<TRIPOS>SUBSTRUCTURE
  1 ****   2 GROUP 4 **** **** 0

# MOE 2024.06 (io_trps.svl 2023.06)
