@<TRIPOS>MOLECULE
NONAME
41 42 1 0 0 
SMALL
USER_CHARGES


@<TRIPOS>ATOM
  1 O        0.1890    -0.0830    -1.3180 O.2   1 <1>  -0.5700 
  2 C        0.2390    -0.9940    -0.5150 C.2   1 <1>   0.6900 
  3 N        1.4150    -1.5250    -0.0830 N.am  1 <1>  -0.5470 
  4 N       -0.9000    -1.5280    -0.0110 N.am  1 <1>  -0.7300 
  5 C        2.7670    -1.2220    -0.3250 C.ar  1 <1>   0.1170 
  6 C       -2.2660    -1.0660    -0.3230 C.3   1 <1>   0.2200 
  7 C        3.7350    -2.1200     0.1410 C.ar  1 <1>   0.0830 
  8 C        3.1860    -0.0760    -0.9920 C.ar  1 <1>  -0.1500 
  9 C       -2.9490    -0.5200     0.9500 C.3   1 <1>  -0.0800 
 10 C       -3.0440    -2.2440    -0.9180 C.3   1 <1>  -0.1600 
 11 O        3.2890    -3.2330     0.8020 O.3   1 <1>  -0.3630 
 12 C        5.0860    -1.8630    -0.0730 C.ar  1 <1>  -0.1500 
 13 C        4.5300     0.1750    -1.2020 C.ar  1 <1>  -0.1500 
 14 C       -4.4130    -0.1460     0.6540 C.3   1 <1>  -0.1600 
 15 C       -2.2110     0.7020     1.5220 C.3   1 <1>  -0.2400 
 16 C       -4.5030    -1.8630    -1.2050 C.3   1 <1>  -0.1600 
 17 C        4.1880    -4.2160     1.2680 C.3   1 <1>   0.0400 
 18 C        5.4810    -0.7180    -0.7430 C.ar  1 <1>  -0.1500 
 19 C       -5.1900    -1.3270     0.0570 C.3   1 <1>  -0.1600 
 20 H        1.3160    -2.3750     0.4660 H     1 <1>   0.3700 
 21 H       -0.8380    -2.2130     0.7350 H     1 <1>   0.3700 
 22 H       -2.2230    -0.2780    -1.0570 H     1 <1>   0.0800 
 23 H        2.4650     0.6330    -1.3540 H     1 <1>   0.1500 
 24 H       -2.9520    -1.2980     1.6940 H     1 <1>   0.0800 
 25 H       -3.0270    -3.0720    -0.2320 H     1 <1>   0.0800 
 26 H       -2.5720    -2.5510    -1.8360 H     1 <1>   0.0800 
 27 H        5.8480    -2.5350     0.2730 H     1 <1>   0.1500 
 28 H        4.8320     1.0670    -1.7230 H     1 <1>   0.1500 
 29 H       -4.4390     0.6790    -0.0380 H     1 <1>   0.0800 
 30 H       -4.8960     0.1730     1.5620 H     1 <1>   0.0800 
 31 H       -2.1550     1.4850     0.7850 H     1 <1>   0.0800 
 32 H       -1.2090     0.4400     1.8110 H     1 <1>   0.0800 
 33 H       -2.7220     1.0790     2.3890 H     1 <1>   0.0800 
 34 H       -5.0370    -2.7240    -1.5700 H     1 <1>   0.0800 
 35 H       -4.5290    -1.1090    -1.9730 H     1 <1>   0.0800 
 36 H        3.6170    -4.9990     1.7330 H     1 <1>   0.0800 
 37 H        4.8510    -3.7700     1.9890 H     1 <1>   0.0800 
 38 H        4.7370    -4.6120     0.4320 H     1 <1>   0.0800 
 39 H        6.5260    -0.5210    -0.9080 H     1 <1>   0.1500 
 40 H       -6.1910    -1.0130    -0.1850 H     1 <1>   0.0800 
 41 H       -5.2600    -2.1140     0.7880 H     1 <1>   0.0800 
@<TRIPOS>BOND
  1   1   2  2   
  2   2   3  am  
  3   2   4  am  
  4   3   5  1   
  5   3  20  1   
  6   4   6  1   
  7   4  21  1   
  8   5   7  ar  
  9   5   8  ar  
 10   6   9  1   
 11   6  10  1   
 12   6  22  1   
 13   7  11  1   
 14   7  12  ar  
 15   8  13  ar  
 16   8  23  1   
 17   9  14  1   
 18   9  15  1   
 19   9  24  1   
 20  10  16  1   
 21  10  25  1   
 22  10  26  1   
 23  11  17  1   
 24  12  18  ar  
 25  12  27  1   
 26  13  18  ar  
 27  13  28  1   
 28  14  19  1   
 29  14  29  1   
 30  14  30  1   
 31  15  31  1   
 32  15  32  1   
 33  15  33  1   
 34  16  19  1   
 35  16  34  1   
 36  16  35  1   
 37  17  36  1   
 38  17  37  1   
 39  17  38  1   
 40  18  39  1   
 41  19  40  1   
 42  19  41  1   
@<TRIPOS>SUBSTRUCTURE
  1 ****   2 GROUP 4 **** **** 0

# MOE 2024.06 (io_trps.svl 2023.06)
