@<TRIPOS>MOLECULE
NONAME
26 26 1 0 0 
SMALL
USER_CHARGES


@<TRIPOS>ATOM
  1 CL       0.4650    -0.1430    -1.9200 Cl    1 <1>  -0.1770 
  2 C        1.6550    -0.9520    -0.9260 C.ar  1 <1>   0.1770 
  3 C        1.4810    -2.2720    -0.5440 C.ar  1 <1>   0.1770 
  4 C        2.7770    -0.2490    -0.5240 C.ar  1 <1>  -0.1500 
  5 CL       0.0670    -3.1720    -1.0440 Cl    1 <1>  -0.1770 
  6 C        2.4300    -2.9010     0.2420 C.ar  1 <1>  -0.1500 
  7 C        3.7320    -0.8710     0.2690 C.ar  1 <1>  -0.1440 
  8 C        3.5540    -2.1970     0.6460 C.ar  1 <1>  -0.1500 
  9 C        4.9680    -0.1100     0.7230 C.3   1 <1>   0.2140 
 10 S        6.3630    -0.6420    -0.3050 S.3   1 <1>  -0.4600 
 11 C        7.7410     0.3560     0.3200 C.3   1 <1>   0.0700 
 12 C        9.0090    -0.0780    -0.4170 C.3   1 <1>  -0.0990 
 13 C       10.2030     0.7520     0.0000 C.2   1 <1>   0.5690 
 14 O       10.2960     1.1630     1.1270 O.2   1 <1>  -0.5700 
 15 N       11.1630     1.0250    -0.9000 N.am  1 <1>  -0.8000 
 16 H        2.8950     0.7740    -0.8350 H     1 <1>   0.1500 
 17 H        2.2900    -3.9270     0.5300 H     1 <1>   0.1500 
 18 H        4.2980    -2.6870     1.2510 H     1 <1>   0.1500 
 19 H        5.2150    -0.3330     1.7460 H     1 <1>   0.0800 
 20 H        4.8560     0.9520     0.5920 H     1 <1>   0.0800 
 21 H        7.8230     0.1810     1.3790 H     1 <1>   0.0800 
 22 H        7.5100     1.3900     0.1310 H     1 <1>   0.0800 
 23 H        8.8550     0.0230    -1.4750 H     1 <1>   0.0800 
 24 H        9.2150    -1.1090    -0.1950 H     1 <1>   0.0800 
 25 H       11.9710     1.5780    -0.6110 H     1 <1>   0.3700 
 26 H       11.1540     0.6980    -1.8650 H     1 <1>   0.3700 
@<TRIPOS>BOND
  1   1   2  1   
  2   2   3  ar  
  3   2   4  ar  
  4   3   5  1   
  5   3   6  ar  
  6   4   7  ar  
  7   4  16  1   
  8   6   8  ar  
  9   6  17  1   
 10   7   8  ar  
 11   7   9  1   
 12   8  18  1   
 13   9  10  1   
 14   9  19  1   
 15   9  20  1   
 16  10  11  1   
 17  11  12  1   
 18  11  21  1   
 19  11  22  1   
 20  12  13  1   
 21  12  23  1   
 22  12  24  1   
 23  13  14  2   
 24  13  15  am  
 25  15  25  1   
 26  15  26  1   
@<TRIPOS>SUBSTRUCTURE
  1 ****   9 GROUP 4 **** **** 0

# MOE 2024.06 (io_trps.svl 2023.06)
