@<TRIPOS>MOLECULE
NONAME
50 51 1 0 0 
SMALL
USER_CHARGES


@<TRIPOS>ATOM
  1 O       -0.1610     1.3650    -2.0770 O.2   1 <1>  -0.5700 
  2 C       -0.1100     2.3810    -1.4080 C.2   1 <1>   0.5440 
  3 N        1.0740     3.0950    -1.3620 N.am  1 <1>  -0.6600 
  4 C       -1.2950     2.8060    -0.7010 C.ar  1 <1>   0.0860 
  5 C        1.2570     4.3410    -0.5680 C.3   1 <1>   0.1400 
  6 C        2.2940     2.6450    -2.0860 C.3   1 <1>   0.1400 
  7 C       -1.4380     2.7420     0.6960 C.ar  1 <1>   0.0830 
  8 C       -2.3560     3.3370    -1.4350 C.ar  1 <1>  -0.1500 
  9 C        2.3750     4.1290     0.4550 C.3   1 <1>  -0.1600 
 10 C        3.4270     2.4170    -1.0810 C.3   1 <1>  -0.1600 
 11 O       -0.4940     2.2320     1.5240 O.3   1 <1>  -0.3620 
 12 C       -2.5830     3.2200     1.3120 C.ar  1 <1>  -0.1500 
 13 C       -3.4980     3.8170    -0.8240 C.ar  1 <1>   0.0830 
 14 C        3.6850     3.6650    -0.2160 C.3   1 <1>  -0.0190 
 15 C        0.0860     0.9740     1.2460 C.3   1 <1>   0.0400 
 16 C       -3.6240     3.7420     0.5680 C.ar  1 <1>   0.0830 
 17 O       -4.4570     4.3540    -1.6190 O.3   1 <1>  -0.3630 
 18 C        4.8070     3.4070     0.7880 C.2   1 <1>   0.6590 
 19 O       -4.7270     4.1540     1.2340 O.3   1 <1>  -0.3630 
 20 C       -4.6520     5.7460    -1.4980 C.3   1 <1>   0.0400 
 21 O        4.6010     3.1850     1.9540 O.2   1 <1>  -0.5700 
 22 O        6.0350     3.4370     0.2860 O.3   1 <1>  -0.4300 
 23 C       -5.9300     3.4660     0.9720 C.3   1 <1>   0.0400 
 24 C        7.1640     3.2040     1.0960 C.3   1 <1>   0.1200 
 25 C        8.4060     3.2980     0.2150 C.3   1 <1>  -0.2400 
 26 H        0.3520     4.6180    -0.0570 H     1 <1>   0.0800 
 27 H        1.5190     5.1440    -1.2350 H     1 <1>   0.0800 
 28 H        2.5780     3.4010    -2.7980 H     1 <1>   0.0800 
 29 H        2.1070     1.7340    -2.6290 H     1 <1>   0.0800 
 30 H       -2.2780     3.3830    -2.5060 H     1 <1>   0.1500 
 31 H        2.0510     3.3970     1.1740 H     1 <1>   0.0800 
 32 H        2.5480     5.0480     0.9880 H     1 <1>   0.0800 
 33 H        4.3220     2.1540    -1.6170 H     1 <1>   0.0800 
 34 H        3.1670     1.5840    -0.4510 H     1 <1>   0.0800 
 35 H       -2.6690     3.1750     2.3810 H     1 <1>   0.1500 
 36 H        4.0210     4.4570    -0.8620 H     1 <1>   0.0800 
 37 H        0.3940     0.5340     2.1770 H     1 <1>   0.0800 
 38 H        0.9440     1.1130     0.6150 H     1 <1>   0.0800 
 39 H       -0.6410     0.3430     0.7640 H     1 <1>   0.0800 
 40 H       -5.3850     6.0470    -2.2250 H     1 <1>   0.0800 
 41 H       -3.7190     6.2450    -1.6870 H     1 <1>   0.0800 
 42 H       -5.0050     5.9730    -0.5080 H     1 <1>   0.0800 
 43 H       -6.6710     3.8060     1.6730 H     1 <1>   0.0800 
 44 H       -5.7620     2.4110     1.0950 H     1 <1>   0.0800 
 45 H       -6.2530     3.6780    -0.0320 H     1 <1>   0.0800 
 46 H        7.0740     2.2240     1.5340 H     1 <1>   0.0800 
 47 H        7.1840     3.9480     1.8750 H     1 <1>   0.0800 
 48 H        8.3650     2.5580    -0.5640 H     1 <1>   0.0800 
 49 H        9.2850     3.1230     0.8080 H     1 <1>   0.0800 
 50 H        8.4780     4.2780    -0.2220 H     1 <1>   0.0800 
@<TRIPOS>BOND
  1   1   2  2   
  2   2   3  am  
  3   2   4  1   
  4   3   5  1   
  5   3   6  1   
  6   4   7  ar  
  7   4   8  ar  
  8   5   9  1   
  9   5  26  1   
 10   5  27  1   
 11   6  10  1   
 12   6  28  1   
 13   6  29  1   
 14   7  11  1   
 15   7  12  ar  
 16   8  13  ar  
 17   8  30  1   
 18   9  14  1   
 19   9  31  1   
 20   9  32  1   
 21  10  14  1   
 22  10  33  1   
 23  10  34  1   
 24  11  15  1   
 25  12  16  ar  
 26  12  35  1   
 27  13  16  ar  
 28  13  17  1   
 29  14  18  1   
 30  14  36  1   
 31  15  37  1   
 32  15  38  1   
 33  15  39  1   
 34  16  19  1   
 35  17  20  1   
 36  18  21  2   
 37  18  22  1   
 38  19  23  1   
 39  20  40  1   
 40  20  41  1   
 41  20  42  1   
 42  22  24  1   
 43  23  43  1   
 44  23  44  1   
 45  23  45  1   
 46  24  25  1   
 47  24  46  1   
 48  24  47  1   
 49  25  48  1   
 50  25  49  1   
 51  25  50  1   
@<TRIPOS>SUBSTRUCTURE
  1 ****   3 GROUP 4 **** **** 0

# MOE 2024.06 (io_trps.svl 2023.06)
