@<TRIPOS>MOLECULE
NONAME
30 30 1 0 0 
SMALL
USER_CHARGES


@<TRIPOS>ATOM
  1 S       -0.0940    -0.0510    -0.5700 S.3   1 <1>  -0.3710 
  2 C       -1.5620     0.9280    -0.3300 C.2   1 <1>   0.6510 
  3 C        1.1200     0.7610     0.5580 C.3   1 <1>   0.0700 
  4 N       -1.5410     1.9110     0.4820 N.2   1 <1>  -0.6210 
  5 N       -2.6240     0.5280    -1.0610 N.am  1 <1>  -0.4900 
  6 C        2.4440     0.0080     0.4470 C.3   1 <1>  -0.2400 
  7 C       -2.7030     2.6270     0.6250 C.2   1 <1>   0.0210 
  8 C       -3.8010     1.2010    -0.9580 C.2   1 <1>   0.6160 
  9 O       -2.6450     3.5700     1.4210 O.3   1 <1>  -0.8500 
 10 C       -3.8580     2.2930    -0.0900 C.2   1 <1>  -0.1240 
 11 O       -4.7190     0.7560    -1.6660 O.2   1 <1>  -0.5700 
 12 C       -5.1390     3.1160     0.0960 C.3   1 <1>   0.0580 
 13 C       -6.2600     2.2540     0.7110 C.3   1 <1>  -0.1600 
 14 C       -5.5560     3.7880    -1.2210 C.3   1 <1>  -0.2400 
 15 C       -7.4990     3.0610     1.1260 C.3   1 <1>  -0.2400 
 16 H        0.7100     0.7190     1.5530 H     1 <1>   0.0800 
 17 H        1.2080     1.7880     0.2460 H     1 <1>   0.0800 
 18 H       -2.5720    -0.2620    -1.6860 H     1 <1>   0.3700 
 19 H        2.3100    -1.0180     0.7370 H     1 <1>   0.0800 
 20 H        3.1730     0.4600     1.0950 H     1 <1>   0.0800 
 21 H        2.8060     0.0470    -0.5640 H     1 <1>   0.0800 
 22 H       -4.9280     3.9070     0.7960 H     1 <1>   0.0800 
 23 H       -5.8580     1.7710     1.5850 H     1 <1>   0.0800 
 24 H       -6.5520     1.4860     0.0180 H     1 <1>   0.0800 
 25 H       -5.9010     3.0590    -1.9310 H     1 <1>   0.0800 
 26 H       -4.7090     4.3040    -1.6370 H     1 <1>   0.0800 
 27 H       -6.3350     4.5060    -1.0490 H     1 <1>   0.0800 
 28 H       -7.2170     3.8540     1.7950 H     1 <1>   0.0800 
 29 H       -8.1980     2.4190     1.6300 H     1 <1>   0.0800 
 30 H       -7.9850     3.4830     0.2650 H     1 <1>   0.0800 
@<TRIPOS>BOND
  1   1   2  1   
  2   1   3  1   
  3   2   4  2   
  4   2   5  1   
  5   3   6  1   
  6   3  16  1   
  7   3  17  1   
  8   4   7  1   
  9   5   8  am  
 10   5  18  1   
 11   6  19  1   
 12   6  20  1   
 13   6  21  1   
 14   7   9  1   
 15   7  10  2   
 16   8  10  1   
 17   8  11  2   
 18  10  12  1   
 19  12  13  1   
 20  12  14  1   
 21  12  22  1   
 22  13  15  1   
 23  13  23  1   
 24  13  24  1   
 25  14  25  1   
 26  14  26  1   
 27  14  27  1   
 28  15  28  1   
 29  15  29  1   
 30  15  30  1   
@<TRIPOS>SUBSTRUCTURE
  1 ****  10 GROUP 4 **** **** 0

# MOE 2024.06 (io_trps.svl 2023.06)
