@<TRIPOS>MOLECULE
NONAME
46 48 1 0 0 
SMALL
USER_CHARGES


@<TRIPOS>ATOM
  1 O        0.2330    -0.6400     2.3730 O.2   1 <1>  -0.5700 
  2 C        0.6030    -1.3640     1.4820 C.2   1 <1>   0.5690 
  3 N       -0.1880    -2.0890     0.6610 N.am  1 <1>  -0.6600 
  4 C        2.0540    -1.5690     1.1540 C.3   1 <1>  -0.0990 
  5 C       -1.6590    -2.2210     0.8280 C.3   1 <1>   0.2200 
  6 C        0.6030    -2.8840    -0.3030 C.3   1 <1>   0.1400 
  7 C        2.0090    -2.2620    -0.2210 C.3   1 <1>  -0.0190 
  8 C       -2.0250    -3.6210     1.3370 C.3   1 <1>  -0.1600 
  9 C       -2.3910    -2.0540    -0.5050 C.3   1 <1>  -0.1600 
 10 C        3.1550    -3.2480    -0.4430 C.2   1 <1>   0.5690 
 11 C       -2.8510    -4.3050     0.2390 C.3   1 <1>  -0.1600 
 12 C       -2.6540    -3.4680    -1.0210 C.3   1 <1>  -0.1600 
 13 O        2.8980    -4.4290    -0.4040 O.2   1 <1>  -0.5700 
 14 N        4.4350    -2.8040    -0.6760 N.am  1 <1>  -0.6600 
 15 C        5.5680    -3.7680    -0.8100 C.3   1 <1>   0.1400 
 16 C        4.8700    -1.3810    -0.7680 C.3   1 <1>   0.1400 
 17 C        6.6070    -3.5130     0.2950 C.3   1 <1>  -0.0800 
 18 C        5.8810    -1.0870     0.3450 C.3   1 <1>  -0.1600 
 19 C        7.0780    -2.0480     0.2840 C.3   1 <1>  -0.1600 
 20 C        7.8050    -4.4590     0.1430 C.3   1 <1>  -0.2400 
 21 H        2.4860    -2.2120     1.8990 H     1 <1>   0.0800 
 22 H        2.5740    -0.6310     1.1260 H     1 <1>   0.0800 
 23 H       -1.9990    -1.4720     1.5250 H     1 <1>   0.0800 
 24 H        0.2100    -2.7990    -1.3000 H     1 <1>   0.0800 
 25 H        0.5950    -3.9150     0.0050 H     1 <1>   0.0800 
 26 H        2.0470    -1.5150    -0.9910 H     1 <1>   0.0800 
 27 H       -2.6140    -3.5390     2.2330 H     1 <1>   0.0800 
 28 H       -1.1450    -4.1950     1.5650 H     1 <1>   0.0800 
 29 H       -1.8440    -1.4470    -1.2040 H     1 <1>   0.0800 
 30 H       -3.3370    -1.5810    -0.3100 H     1 <1>   0.0800 
 31 H       -3.8910    -4.2880     0.5160 H     1 <1>   0.0800 
 32 H       -2.5480    -5.3270     0.0890 H     1 <1>   0.0800 
 33 H       -1.7980    -3.8300    -1.5610 H     1 <1>   0.0800 
 34 H       -3.5140    -3.5060    -1.6680 H     1 <1>   0.0800 
 35 H        6.0220    -3.6410    -1.7770 H     1 <1>   0.0800 
 36 H        5.2170    -4.7840    -0.7420 H     1 <1>   0.0800 
 37 H        4.0420    -0.7040    -0.6890 H     1 <1>   0.0800 
 38 H        5.3340    -1.2220    -1.7270 H     1 <1>   0.0800 
 39 H        6.1360    -3.7200     1.2410 H     1 <1>   0.0800 
 40 H        5.3890    -1.1790     1.2980 H     1 <1>   0.0800 
 41 H        6.2290    -0.0740     0.2510 H     1 <1>   0.0800 
 42 H        7.6380    -1.8570    -0.6150 H     1 <1>   0.0800 
 43 H        7.7260    -1.8680     1.1240 H     1 <1>   0.0800 
 44 H        8.3040    -4.2960    -0.7970 H     1 <1>   0.0800 
 45 H        7.4770    -5.4830     0.1850 H     1 <1>   0.0800 
 46 H        8.5110    -4.2980     0.9390 H     1 <1>   0.0800 
@<TRIPOS>BOND
  1   1   2  2   
  2   2   3  am  
  3   2   4  1   
  4   3   5  1   
  5   3   6  1   
  6   4   7  1   
  7   4  21  1   
  8   4  22  1   
  9   5   8  1   
 10   5   9  1   
 11   5  23  1   
 12   6   7  1   
 13   6  24  1   
 14   6  25  1   
 15   7  10  1   
 16   7  26  1   
 17   8  11  1   
 18   8  27  1   
 19   8  28  1   
 20   9  12  1   
 21   9  29  1   
 22   9  30  1   
 23  10  13  2   
 24  10  14  am  
 25  11  12  1   
 26  11  31  1   
 27  11  32  1   
 28  12  33  1   
 29  12  34  1   
 30  14  15  1   
 31  14  16  1   
 32  15  17  1   
 33  15  35  1   
 34  15  36  1   
 35  16  18  1   
 36  16  37  1   
 37  16  38  1   
 38  17  19  1   
 39  17  20  1   
 40  17  39  1   
 41  18  19  1   
 42  18  40  1   
 43  18  41  1   
 44  19  42  1   
 45  19  43  1   
 46  20  44  1   
 47  20  45  1   
 48  20  46  1   
@<TRIPOS>SUBSTRUCTURE
  1 ****   7 GROUP 4 **** **** 0

# MOE 2024.06 (io_trps.svl 2023.06)
