@<TRIPOS>MOLECULE
NONAME
28 29 1 0 0 
SMALL
USER_CHARGES


@<TRIPOS>ATOM
  1 CL       0.7320     0.1960    -0.4460 Cl    1 <1>  -0.1770 
  2 C        0.1510     1.8360    -0.2570 C.ar  1 <1>   0.1770 
  3 C       -1.1900     2.0960    -0.0060 C.ar  1 <1>  -0.1440 
  4 C        1.0850     2.8490    -0.3710 C.ar  1 <1>  -0.1500 
  5 C       -1.5980     3.4290     0.1110 C.ar  1 <1>   0.1170 
  6 C       -2.1830     0.9400     0.1330 C.3   1 <1>  -0.0970 
  7 C        0.6800     4.1640    -0.2380 C.ar  1 <1>  -0.1500 
  8 N       -2.9260     3.8050     0.3540 N.am  1 <1>  -0.5470 
  9 C       -0.6520     4.4440     0.0000 C.ar  1 <1>  -0.1500 
 10 C       -4.0210     3.5700    -0.4280 C.2   1 <1>   0.6900 
 11 O       -3.9200     3.0100    -1.5020 O.2   1 <1>  -0.5700 
 12 N       -5.2300     3.9880     0.0310 N.am  1 <1>  -0.5790 
 13 C       -6.5080     3.8390    -0.6800 C.3   1 <1>   0.0490 
 14 C       -7.5630     4.8690    -0.4480 C.3   1 <1>  -0.2000 
 15 C       -7.7190     3.4900     0.1200 C.3   1 <1>  -0.2000 
 16 H        2.1140     2.6060    -0.5640 H     1 <1>   0.1500 
 17 H       -1.7170     0.0730     0.5630 H     1 <1>   0.0800 
 18 H       -2.5690     0.6810    -0.8370 H     1 <1>   0.0800 
 19 H       -3.0060     1.2070     0.7690 H     1 <1>   0.0800 
 20 H        1.3970     4.9620    -0.3250 H     1 <1>   0.1500 
 21 H       -3.0530     4.5260     1.0560 H     1 <1>   0.3700 
 22 H       -0.9640     5.4690     0.0910 H     1 <1>   0.1500 
 23 H       -5.3080     4.3320     0.9830 H     1 <1>   0.3700 
 24 H       -6.4020     3.4200    -1.6700 H     1 <1>   0.1000 
 25 H       -8.1930     5.1530    -1.2730 H     1 <1>   0.1000 
 26 H       -7.3540     5.6890     0.2150 H     1 <1>   0.1000 
 27 H       -7.6200     3.3440     1.1800 H     1 <1>   0.1000 
 28 H       -8.4550     2.8400    -0.3200 H     1 <1>   0.1000 
@<TRIPOS>BOND
  1   1   2  1   
  2   2   3  ar  
  3   2   4  ar  
  4   3   5  ar  
  5   3   6  1   
  6   4   7  ar  
  7   4  16  1   
  8   5   8  1   
  9   5   9  ar  
 10   6  17  1   
 11   6  18  1   
 12   6  19  1   
 13   7   9  ar  
 14   7  20  1   
 15   8  10  am  
 16   8  21  1   
 17   9  22  1   
 18  10  11  2   
 19  10  12  am  
 20  12  13  1   
 21  12  23  1   
 22  13  14  1   
 23  13  15  1   
 24  13  24  1   
 25  14  15  1   
 26  14  25  1   
 27  14  26  1   
 28  15  27  1   
 29  15  28  1   
@<TRIPOS>SUBSTRUCTURE
  1 ****   8 GROUP 4 **** **** 0

# MOE 2024.06 (io_trps.svl 2023.06)
