@<TRIPOS>MOLECULE
NONAME
40 41 1 0 0 
SMALL
USER_CHARGES


@<TRIPOS>ATOM
  1 S       -0.1660    -0.1440    -0.4270 S.o2  1 <1>   1.4470 
  2 O       -0.4390     0.6330     0.7610 O.2   1 <1>  -0.6500 
  3 O       -0.3730     0.4460    -1.7300 O.2   1 <1>  -0.6500 
  4 N       -1.2570    -1.4100    -0.2780 N.am  1 <1>  -0.9140 
  5 C        1.4760    -0.9300    -0.3420 C.ar  1 <1>  -0.0090 
  6 C       -2.5850    -1.0690    -0.7950 C.3   1 <1>   0.1960 
  7 C        2.6210    -0.2360     0.0540 C.ar  1 <1>  -0.1430 
  8 C        1.6270    -2.2640    -0.7070 C.ar  1 <1>  -0.1500 
  9 C       -3.6000    -2.1850    -0.5050 C.3   1 <1>   0.2000 
 10 C        3.8470    -0.8810     0.1030 C.ar  1 <1>  -0.1500 
 11 C        2.5670     1.2380     0.4380 C.3   1 <1>  -0.0960 
 12 C        2.8500    -2.9130    -0.6620 C.ar  1 <1>  -0.1430 
 13 O       -4.8650    -1.7760    -0.9050 O.3   1 <1>  -0.5600 
 14 C       -3.7730    -2.5270     0.9700 C.3   1 <1>  -0.1600 
 15 C        3.9730    -2.2140    -0.2470 C.ar  1 <1>  -0.1430 
 16 C        2.9290    -4.3770    -1.0720 C.3   1 <1>  -0.0970 
 17 C       -5.8450    -2.5160    -0.2480 C.3   1 <1>   0.1200 
 18 C       -5.2010    -3.0440     1.0320 C.3   1 <1>  -0.1600 
 19 C        5.3430    -2.8750    -0.1740 C.3   1 <1>  -0.0970 
 20 H       -1.3550    -1.4930     0.7330 H     1 <1>   0.4200 
 21 H       -2.5280    -0.9220    -1.8620 H     1 <1>   0.0800 
 22 H       -2.9270    -0.1540    -0.3400 H     1 <1>   0.0800 
 23 H        0.7620    -2.8110    -1.0390 H     1 <1>   0.1500 
 24 H       -3.3530    -3.0660    -1.0730 H     1 <1>   0.0800 
 25 H        4.7190    -0.3360     0.4190 H     1 <1>   0.1500 
 26 H        2.0470     1.8060    -0.3140 H     1 <1>   0.0800 
 27 H        3.5550     1.6490     0.5360 H     1 <1>   0.0800 
 28 H        2.0590     1.3570     1.3790 H     1 <1>   0.0800 
 29 H       -3.6790    -1.6350     1.5650 H     1 <1>   0.0800 
 30 H       -3.0540    -3.2560     1.2990 H     1 <1>   0.0800 
 31 H        1.9680    -4.7470    -1.3780 H     1 <1>   0.0800 
 32 H        3.2730    -4.9730    -0.2450 H     1 <1>   0.0800 
 33 H        3.6110    -4.4930    -1.8950 H     1 <1>   0.0800 
 34 H       -6.1510    -3.3200    -0.8950 H     1 <1>   0.0800 
 35 H       -6.6800    -1.8680    -0.0450 H     1 <1>   0.0800 
 36 H       -5.7170    -2.6870     1.9050 H     1 <1>   0.0800 
 37 H       -5.2230    -4.1200     1.0280 H     1 <1>   0.0800 
 38 H        6.0870    -2.1850     0.1820 H     1 <1>   0.0800 
 39 H        5.6390    -3.2160    -1.1490 H     1 <1>   0.0800 
 40 H        5.3130    -3.7130     0.4980 H     1 <1>   0.0800 
@<TRIPOS>BOND
  1   1   2  2   
  2   1   3  2   
  3   1   4  am  
  4   1   5  1   
  5   4   6  1   
  6   4  20  1   
  7   5   7  ar  
  8   5   8  ar  
  9   6   9  1   
 10   6  21  1   
 11   6  22  1   
 12   7  10  ar  
 13   7  11  1   
 14   8  12  ar  
 15   8  23  1   
 16   9  13  1   
 17   9  14  1   
 18   9  24  1   
 19  10  15  ar  
 20  10  25  1   
 21  11  26  1   
 22  11  27  1   
 23  11  28  1   
 24  12  15  ar  
 25  12  16  1   
 26  13  17  1   
 27  14  18  1   
 28  14  29  1   
 29  14  30  1   
 30  15  19  1   
 31  16  31  1   
 32  16  32  1   
 33  16  33  1   
 34  17  18  1   
 35  17  34  1   
 36  17  35  1   
 37  18  36  1   
 38  18  37  1   
 39  19  38  1   
 40  19  39  1   
 41  19  40  1   
@<TRIPOS>SUBSTRUCTURE
  1 ****   4 GROUP 4 **** **** 0

# MOE 2024.06 (io_trps.svl 2023.06)
