@<TRIPOS>MOLECULE
NONAME
29 29 1 0 0 
SMALL
USER_CHARGES


@<TRIPOS>ATOM
  1 S        0.7690     1.2280     0.3590 S.3   1 <1>  -0.3320 
  2 C       -0.9540     1.7030     0.1800 C.ar  1 <1>   0.4120 
  3 C        0.8140    -0.5690    -0.1390 C.3   1 <1>   0.1310 
  4 N       -1.7400     0.7310    -0.2380 N.ar  1 <1>  -0.6200 
  5 C       -1.3410     3.0050     0.4760 C.ar  1 <1>   0.0730 
  6 C        2.2180    -1.1500    -0.0450 C.2   1 <1>   0.5690 
  7 C       -3.0130     1.0480    -0.3720 C.ar  1 <1>   0.1660 
  8 C       -0.3600     3.9480     0.9250 C.1   1 <1>   0.4840 
  9 C       -2.6880     3.3270     0.3220 C.ar  1 <1>  -0.1440 
 10 O        2.3990    -2.3020    -0.3420 O.2   1 <1>  -0.5700 
 11 N        3.2570    -0.3940     0.3640 N.am  1 <1>  -0.8000 
 12 C       -3.5430     2.3110    -0.0940 C.ar  1 <1>  -0.1430 
 13 C       -3.8810    -0.0960    -0.8680 C.3   1 <1>  -0.0970 
 14 N        0.3940     4.7250     1.2850 N.1   1 <1>  -0.5570 
 15 C       -3.2060     4.7430     0.6020 C.3   1 <1>  -0.0970 
 16 C       -5.0440     2.5820    -0.2440 C.3   1 <1>  -0.0970 
 17 H        0.4540    -0.6300    -1.1480 H     1 <1>   0.0800 
 18 H        0.1490    -1.0990     0.5180 H     1 <1>   0.0800 
 19 H        4.1930    -0.7950     0.4220 H     1 <1>   0.3700 
 20 H        3.1480     0.5880     0.6250 H     1 <1>   0.3700 
 21 H       -3.2700    -0.8990    -1.2420 H     1 <1>   0.0800 
 22 H       -4.5180     0.2330    -1.6680 H     1 <1>   0.0800 
 23 H       -4.4800    -0.4760    -0.0610 H     1 <1>   0.0800 
 24 H       -2.4250     5.4810     0.5830 H     1 <1>   0.0800 
 25 H       -3.6760     4.7750     1.5690 H     1 <1>   0.0800 
 26 H       -3.9250     5.0380    -0.1420 H     1 <1>   0.0800 
 27 H       -5.6290     1.6870    -0.1430 H     1 <1>   0.0800 
 28 H       -5.2420     3.0150    -1.2080 H     1 <1>   0.0800 
 29 H       -5.3930     3.2560     0.5170 H     1 <1>   0.0800 
@<TRIPOS>BOND
  1   1   2  1   
  2   1   3  1   
  3   2   4  ar  
  4   2   5  ar  
  5   3   6  1   
  6   3  17  1   
  7   3  18  1   
  8   4   7  ar  
  9   5   8  1   
 10   5   9  ar  
 11   6  10  2   
 12   6  11  am  
 13   7  12  ar  
 14   7  13  1   
 15   8  14  3   
 16   9  12  ar  
 17   9  15  1   
 18  11  19  1   
 19  11  20  1   
 20  12  16  1   
 21  13  21  1   
 22  13  22  1   
 23  13  23  1   
 24  15  24  1   
 25  15  25  1   
 26  15  26  1   
 27  16  27  1   
 28  16  28  1   
 29  16  29  1   
@<TRIPOS>SUBSTRUCTURE
  1 ****   2 GROUP 4 **** **** 0

# MOE 2024.06 (io_trps.svl 2023.06)
