@<TRIPOS>MOLECULE
NONAME
30 30 1 0 0 
SMALL
USER_CHARGES


@<TRIPOS>ATOM
  1 F        0.7170     0.5480     0.1090 F     1 <1>  -0.1900 
  2 C        1.7120    -0.2660    -0.1220 C.ar  1 <1>   0.1900 
  3 C        2.9730     0.0870     0.3140 C.ar  1 <1>  -0.1500 
  4 C        1.4600    -1.4480    -0.7930 C.ar  1 <1>  -0.1500 
  5 C        4.0410    -0.7690     0.0740 C.ar  1 <1>   0.1170 
  6 C        2.5210    -2.3050    -1.0310 C.ar  1 <1>  -0.1500 
  7 N        5.3150    -0.4060     0.5350 N.am  1 <1>  -0.5470 
  8 C        3.7940    -1.9660    -0.5990 C.ar  1 <1>  -0.1500 
  9 C        6.5550    -0.7600     0.0930 C.2   1 <1>   0.6900 
 10 O        6.7090    -1.3950    -0.9310 O.2   1 <1>  -0.5700 
 11 N        7.6120    -0.3590     0.8460 N.am  1 <1>  -0.7300 
 12 C        9.0500    -0.5740     0.5810 C.3   1 <1>   0.2200 
 13 C        9.4500     0.0610    -0.7610 C.3   1 <1>  -0.1600 
 14 C        9.3660    -2.0670     0.6710 C.3   1 <1>  -0.2400 
 15 C       10.9710     0.1450    -0.9590 C.3   1 <1>  -0.2400 
 16 H        3.1140     1.0190     0.8270 H     1 <1>   0.1500 
 17 H        0.4640    -1.6860    -1.1180 H     1 <1>   0.1500 
 18 H        2.3600    -3.2330    -1.5520 H     1 <1>   0.1500 
 19 H        5.3300     0.3330     1.2280 H     1 <1>   0.3700 
 20 H        4.6060    -2.6450    -0.7890 H     1 <1>   0.1500 
 21 H        7.4170    -0.0270     1.7860 H     1 <1>   0.3700 
 22 H        9.5970    -0.0690     1.3590 H     1 <1>   0.0800 
 23 H        9.0470     1.0570    -0.8060 H     1 <1>   0.0800 
 24 H        9.0260    -0.5050    -1.5730 H     1 <1>   0.0800 
 25 H        8.9050    -2.6000    -0.1410 H     1 <1>   0.0800 
 26 H        9.0120    -2.4670     1.6030 H     1 <1>   0.0800 
 27 H       10.4270    -2.2270     0.6190 H     1 <1>   0.0800 
 28 H       11.4280     0.6910    -0.1530 H     1 <1>   0.0800 
 29 H       11.1880     0.6540    -1.8820 H     1 <1>   0.0800 
 30 H       11.4050    -0.8370    -1.0080 H     1 <1>   0.0800 
@<TRIPOS>BOND
  1   1   2  1   
  2   2   3  ar  
  3   2   4  ar  
  4   3   5  ar  
  5   3  16  1   
  6   4   6  ar  
  7   4  17  1   
  8   5   7  1   
  9   5   8  ar  
 10   6   8  ar  
 11   6  18  1   
 12   7   9  am  
 13   7  19  1   
 14   8  20  1   
 15   9  10  2   
 16   9  11  am  
 17  11  12  1   
 18  11  21  1   
 19  12  13  1   
 20  12  14  1   
 21  12  22  1   
 22  13  15  1   
 23  13  23  1   
 24  13  24  1   
 25  14  25  1   
 26  14  26  1   
 27  14  27  1   
 28  15  28  1   
 29  15  29  1   
 30  15  30  1   
@<TRIPOS>SUBSTRUCTURE
  1 ****   7 GROUP 4 **** **** 0

# MOE 2024.06 (io_trps.svl 2023.06)
