@<TRIPOS>MOLECULE
NONAME
44 46 1 0 0 
SMALL
USER_CHARGES


@<TRIPOS>ATOM
  1 S       -0.2330     0.7410     1.4480 S.3   1 <1>  -0.0800 
  2 C       -0.3460    -1.0000     1.2230 C.2   1 <1>   0.1040 
  3 C       -1.9690     0.8860     1.6460 C.2   1 <1>  -0.1100 
  4 N        0.7940    -1.7710     1.0550 N.am  1 <1>  -0.4940 
  5 C       -1.6490    -1.4090     1.2680 C.2   1 <1>  -0.0860 
  6 C       -2.5530    -0.3180     1.5310 C.2   1 <1>  -0.1500 
  7 C        2.1090    -1.4560     0.8410 C.2   1 <1>   0.5690 
  8 C       -2.0720    -2.7760     1.0880 C.2   1 <1>   0.7160 
  9 O        2.5230    -0.3380     0.6750 O.2   1 <1>  -0.5700 
 10 C        3.0940    -2.6030     0.7810 C.3   1 <1>  -0.0990 
 11 O       -1.2940    -3.6860     1.3290 O.2   1 <1>  -0.5700 
 12 N       -3.3270    -3.1010     0.6180 N.am  1 <1>  -0.6600 
 13 C        3.1980    -3.1660    -0.6400 C.3   1 <1>  -0.0170 
 14 C       -3.9210    -4.4540     0.8390 C.3   1 <1>   0.1400 
 15 C       -3.9970    -2.3390    -0.4790 C.3   1 <1>   0.1400 
 16 C        4.1630    -4.3400    -0.6720 C.ar  1 <1>  -0.1430 
 17 C       -4.0700    -5.2050    -0.4940 C.3   1 <1>   0.1200 
 18 C       -4.1550    -3.2160    -1.7340 C.3   1 <1>   0.1200 
 19 C        5.5170    -4.1240    -0.8760 C.ar  1 <1>  -0.1500 
 20 C        3.6990    -5.6340    -0.4930 C.ar  1 <1>  -0.1500 
 21 O       -4.7780    -4.4270    -1.4170 O.3   1 <1>  -0.5600 
 22 C        6.3990    -5.1910    -0.9010 C.ar  1 <1>  -0.1500 
 23 C        4.5810    -6.7020    -0.5180 C.ar  1 <1>  -0.1500 
 24 C        5.9310    -6.4800    -0.7220 C.ar  1 <1>  -0.1500 
 25 H       -2.3620     1.8700     1.8360 H     1 <1>   0.1500 
 26 H        0.5990    -2.7760     1.1160 H     1 <1>   0.3700 
 27 H       -3.6110    -0.4930     1.6310 H     1 <1>   0.1500 
 28 H        2.7900    -3.3770     1.4620 H     1 <1>   0.0800 
 29 H        4.0580    -2.2460     1.0960 H     1 <1>   0.0800 
 30 H        3.5420    -2.3950    -1.3090 H     1 <1>   0.0800 
 31 H        2.2290    -3.4860    -0.9830 H     1 <1>   0.0800 
 32 H       -4.8920    -4.3440     1.2900 H     1 <1>   0.0800 
 33 H       -3.3120    -5.0320     1.5110 H     1 <1>   0.0800 
 34 H       -3.4250    -1.4660    -0.7400 H     1 <1>   0.0800 
 35 H       -4.9690    -2.0180    -0.1480 H     1 <1>   0.0800 
 36 H       -4.6170    -6.1200    -0.3460 H     1 <1>   0.0800 
 37 H       -3.1040    -5.4420    -0.9050 H     1 <1>   0.0800 
 38 H       -3.1950    -3.4270    -2.1740 H     1 <1>   0.0800 
 39 H       -4.7660    -2.7140    -2.4640 H     1 <1>   0.0800 
 40 H        5.8910    -3.1250    -1.0150 H     1 <1>   0.1500 
 41 H        2.6520    -5.8190    -0.3330 H     1 <1>   0.1500 
 42 H        7.4490    -5.0160    -1.0600 H     1 <1>   0.1500 
 43 H        4.2160    -7.7040    -0.3790 H     1 <1>   0.1500 
 44 H        6.6160    -7.3100    -0.7420 H     1 <1>   0.1500 
@<TRIPOS>BOND
  1   1   2  1   
  2   1   3  1   
  3   2   4  1   
  4   2   5  2   
  5   3   6  2   
  6   3  25  1   
  7   4   7  am  
  8   4  26  1   
  9   5   6  1   
 10   5   8  1   
 11   6  27  1   
 12   7   9  2   
 13   7  10  1   
 14   8  11  2   
 15   8  12  am  
 16  10  13  1   
 17  10  28  1   
 18  10  29  1   
 19  12  14  1   
 20  12  15  1   
 21  13  16  1   
 22  13  30  1   
 23  13  31  1   
 24  14  17  1   
 25  14  32  1   
 26  14  33  1   
 27  15  18  1   
 28  15  34  1   
 29  15  35  1   
 30  16  19  ar  
 31  16  20  ar  
 32  17  21  1   
 33  17  36  1   
 34  17  37  1   
 35  18  21  1   
 36  18  38  1   
 37  18  39  1   
 38  19  22  ar  
 39  19  40  1   
 40  20  23  ar  
 41  20  41  1   
 42  22  24  ar  
 43  22  42  1   
 44  23  24  ar  
 45  23  43  1   
 46  24  44  1   
@<TRIPOS>SUBSTRUCTURE
  1 ****   4 GROUP 4 **** **** 0

# MOE 2024.06 (io_trps.svl 2023.06)
