@<TRIPOS>MOLECULE
NONAME
38 40 1 0 0 
SMALL
USER_CHARGES


@<TRIPOS>ATOM
  1 F       -0.5670    -0.3930     0.8970 F     1 <1>  -0.1900 
  2 C       -1.7320    -0.8260     0.5020 C.ar  1 <1>   0.1900 
  3 C       -2.2330    -1.9900     1.0510 C.ar  1 <1>  -0.1500 
  4 C       -2.4230    -0.1050    -0.4520 C.ar  1 <1>  -0.1500 
  5 C       -3.4720    -2.4440     0.6320 C.ar  1 <1>  -0.1500 
  6 C       -3.6620    -0.5670    -0.8660 C.ar  1 <1>  -0.1500 
  7 C       -4.1930    -1.7320    -0.3230 C.ar  1 <1>  -0.1430 
  8 C       -5.5560    -2.2270    -0.7720 C.3   1 <1>   0.4870 
  9 N       -6.5480    -1.9290     0.2950 N.4   1 <1>  -0.9590 
 10 C       -7.8720    -2.6080     0.0240 C.3   1 <1>   0.3430 
 11 C       -6.7150    -0.4350     0.4870 C.3   1 <1>   0.3430 
 12 C       -8.9570    -2.2500     1.0620 C.3   1 <1>   0.2090 
 13 C       -7.7950    -0.0920     1.5330 C.3   1 <1>   0.2090 
 14 N       -9.0740    -0.7690     1.1720 N.pl3 1 <1>  -0.8380 
 15 C      -10.0110    -0.1220     0.3990 C.ar  1 <1>   0.7200 
 16 N      -11.2390    -0.6260     0.4120 N.ar  1 <1>  -0.6200 
 17 N       -9.5840     0.9160    -0.3170 N.ar  1 <1>  -0.6200 
 18 C      -12.1280     0.0040    -0.3170 C.ar  1 <1>   0.1600 
 19 C      -10.4970     1.5260    -1.0380 C.ar  1 <1>   0.1600 
 20 C      -11.8040     1.1050    -1.0700 C.ar  1 <1>  -0.1500 
 21 H       -1.6570    -2.5230     1.7870 H     1 <1>   0.1500 
 22 H       -1.9920     0.7930    -0.8590 H     1 <1>   0.1500 
 23 H       -3.8570    -3.3570     1.0550 H     1 <1>   0.1500 
 24 H       -4.1980    -0.0080    -1.6160 H     1 <1>   0.1500 
 25 H       -5.5060    -3.2890    -0.9480 H     1 <1>   0.0800 
 26 H       -5.8410    -1.7420    -1.6920 H     1 <1>   0.0800 
 27 H       -6.1660    -2.2980     1.1730 H     1 <1>   0.4500 
 28 H       -7.7420    -3.6780     0.0090 H     1 <1>   0.0800 
 29 H       -8.2370    -2.3070    -0.9450 H     1 <1>   0.0800 
 30 H       -7.0060     0.0210    -0.4450 H     1 <1>   0.0800 
 31 H       -5.7790     0.0050     0.7920 H     1 <1>   0.0800 
 32 H       -8.7050    -2.6610     2.0240 H     1 <1>   0.0800 
 33 H       -9.8950    -2.6860     0.7630 H     1 <1>   0.0800 
 34 H       -7.9350     0.9760     1.5780 H     1 <1>   0.0800 
 35 H       -7.4810    -0.4140     2.5100 H     1 <1>   0.0800 
 36 H      -13.1400    -0.3670    -0.3130 H     1 <1>   0.1500 
 37 H      -10.1980     2.3830    -1.6180 H     1 <1>   0.1500 
 38 H      -12.5420     1.6150    -1.6610 H     1 <1>   0.1500 
@<TRIPOS>BOND
  1   1   2  1   
  2   2   3  ar  
  3   2   4  ar  
  4   3   5  ar  
  5   3  21  1   
  6   4   6  ar  
  7   4  22  1   
  8   5   7  ar  
  9   5  23  1   
 10   6   7  ar  
 11   6  24  1   
 12   7   8  1   
 13   8   9  1   
 14   8  25  1   
 15   8  26  1   
 16   9  10  1   
 17   9  11  1   
 18   9  27  1   
 19  10  12  1   
 20  10  28  1   
 21  10  29  1   
 22  11  13  1   
 23  11  30  1   
 24  11  31  1   
 25  12  14  1   
 26  12  32  1   
 27  12  33  1   
 28  13  14  1   
 29  13  34  1   
 30  13  35  1   
 31  14  15  1   
 32  15  16  ar  
 33  15  17  ar  
 34  16  18  ar  
 35  17  19  ar  
 36  18  20  ar  
 37  18  36  1   
 38  19  20  ar  
 39  19  37  1   
 40  20  38  1   
@<TRIPOS>SUBSTRUCTURE
  1 ****  11 GROUP 4 **** **** 0

# MOE 2024.06 (io_trps.svl 2023.06)
