@<TRIPOS>MOLECULE
NONAME
36 37 1 0 0 
SMALL
USER_CHARGES


@<TRIPOS>ATOM
  1 CL      -0.2640    -0.1870     1.5250 Cl    1 <1>  -0.1770 
  2 C       -1.8870    -0.1730     0.8860 C.ar  1 <1>   0.1770 
  3 C       -2.1020    -0.5310    -0.4300 C.ar  1 <1>  -0.1500 
  4 C       -2.9360     0.1980     1.7030 C.ar  1 <1>  -0.1500 
  5 C       -3.3940    -0.5170    -0.9320 C.ar  1 <1>  -0.1500 
  6 C       -4.2220     0.2080     1.1880 C.ar  1 <1>  -0.1500 
  7 C       -4.4740    -0.1460    -0.1350 C.ar  1 <1>  -0.0090 
  8 S       -6.1660    -0.1310    -0.7900 S.o2  1 <1>   1.4470 
  9 O       -6.1470    -0.1560    -2.2340 O.2   1 <1>  -0.6500 
 10 O       -6.9850    -1.0670    -0.0560 O.2   1 <1>  -0.6500 
 11 N       -6.6930     1.4200    -0.4400 N.am  1 <1>  -0.9140 
 12 C       -8.1310     1.5430    -0.3640 C.3   1 <1>   0.2760 
 13 C       -8.5210     2.8980    -0.9630 C.3   1 <1>  -0.1600 
 14 C       -8.5710     1.4580     1.1030 C.3   1 <1>  -0.1600 
 15 C      -10.0290     3.1560    -0.8250 C.3   1 <1>  -0.1600 
 16 C      -10.0780     1.7140     1.2510 C.3   1 <1>  -0.1600 
 17 C      -10.4800     3.0660     0.6410 C.3   1 <1>  -0.0800 
 18 C      -11.9940     3.2730     0.7490 C.3   1 <1>  -0.2400 
 19 H       -1.2710    -0.8180    -1.0490 H     1 <1>   0.1500 
 20 H       -2.7470     0.4720     2.7260 H     1 <1>   0.1500 
 21 H       -3.5650    -0.7980    -1.9590 H     1 <1>   0.1500 
 22 H       -5.0470     0.4950     1.8210 H     1 <1>   0.1500 
 23 H       -6.4190     1.9320    -1.2740 H     1 <1>   0.4200 
 24 H       -8.6130     0.7640    -0.9360 H     1 <1>   0.0800 
 25 H       -8.2580     2.9210    -2.0060 H     1 <1>   0.0800 
 26 H       -7.9870     3.6820    -0.4550 H     1 <1>   0.0800 
 27 H       -8.0320     2.1890     1.6800 H     1 <1>   0.0800 
 28 H       -8.3450     0.4830     1.4980 H     1 <1>   0.0800 
 29 H      -10.5670     2.4320    -1.4130 H     1 <1>   0.0800 
 30 H      -10.2590     4.1330    -1.2150 H     1 <1>   0.0800 
 31 H      -10.3400     1.6950     2.2950 H     1 <1>   0.0800 
 32 H      -10.6190     0.9210     0.7630 H     1 <1>   0.0800 
 33 H       -9.9920     3.8500     1.1980 H     1 <1>   0.0800 
 34 H      -12.5230     2.5090     0.2060 H     1 <1>   0.0800 
 35 H      -12.2690     4.2320     0.3470 H     1 <1>   0.0800 
 36 H      -12.3020     3.2370     1.7790 H     1 <1>   0.0800 
@<TRIPOS>BOND
  1   1   2  1   
  2   2   3  ar  
  3   2   4  ar  
  4   3   5  ar  
  5   3  19  1   
  6   4   6  ar  
  7   4  20  1   
  8   5   7  ar  
  9   5  21  1   
 10   6   7  ar  
 11   6  22  1   
 12   7   8  1   
 13   8   9  2   
 14   8  10  2   
 15   8  11  am  
 16  11  12  1   
 17  11  23  1   
 18  12  13  1   
 19  12  14  1   
 20  12  24  1   
 21  13  15  1   
 22  13  25  1   
 23  13  26  1   
 24  14  16  1   
 25  14  27  1   
 26  14  28  1   
 27  15  17  1   
 28  15  29  1   
 29  15  30  1   
 30  16  17  1   
 31  16  31  1   
 32  16  32  1   
 33  17  18  1   
 34  17  33  1   
 35  18  34  1   
 36  18  35  1   
 37  18  36  1   
@<TRIPOS>SUBSTRUCTURE
  1 ****  11 GROUP 4 **** **** 0

# MOE 2024.06 (io_trps.svl 2023.06)
