@<TRIPOS>MOLECULE
NONAME
43 45 1 0 0 
SMALL
USER_CHARGES


@<TRIPOS>ATOM
  1 BR      -0.5190    -0.2880    -1.1470 Br    1 <1>  -0.1110 
  2 C       -2.1520     0.7240    -1.2590 C.ar  1 <1>   0.1110 
  3 C       -3.3260     0.1410    -0.8300 C.ar  1 <1>  -0.1500 
  4 C       -2.1030     2.0070    -1.7670 C.ar  1 <1>  -0.1500 
  5 C       -4.5230     0.8510    -0.9060 C.ar  1 <1>   0.0860 
  6 C       -3.2810     2.7280    -1.8390 C.ar  1 <1>  -0.1500 
  7 C       -5.7710     0.2510    -0.4710 C.2   1 <1>   0.5440 
  8 C       -4.4690     2.1560    -1.4120 C.ar  1 <1>  -0.1500 
  9 O       -5.7910    -0.5320     0.4580 O.2   1 <1>  -0.5700 
 10 N       -6.9450     0.5570    -1.0990 N.am  1 <1>  -0.7300 
 11 C       -8.2950     0.0770    -0.6810 C.3   1 <1>   0.1400 
 12 C       -9.1580     1.1640     0.0080 C.3   1 <1>   0.1440 
 13 C      -10.4870     0.4710     0.4120 C.ar  1 <1>  -0.1430 
 14 C       -9.3580     2.3700    -0.9460 C.3   1 <1>  -0.1600 
 15 C       -8.4380     1.7330     1.2570 C.3   1 <1>  -0.1600 
 16 C      -10.4800    -0.4790     1.4320 C.ar  1 <1>  -0.1500 
 17 C      -11.7070     0.7210    -0.2160 C.ar  1 <1>  -0.1500 
 18 C      -10.0590     3.5430    -0.2440 C.3   1 <1>   0.1200 
 19 C       -9.2170     2.9110     1.8500 C.3   1 <1>   0.1200 
 20 C      -11.6360    -1.1280     1.8270 C.ar  1 <1>  -0.1500 
 21 C      -12.8660     0.0740     0.1750 C.ar  1 <1>  -0.1500 
 22 O       -9.3240     3.9080     0.8810 O.3   1 <1>  -0.5600 
 23 C      -12.8350    -0.8500     1.2000 C.ar  1 <1>  -0.1500 
 24 H       -3.3200    -0.8610    -0.4360 H     1 <1>   0.1500 
 25 H       -1.1680     2.4280    -2.0920 H     1 <1>   0.1500 
 26 H       -3.2720     3.7340    -2.2240 H     1 <1>   0.1500 
 27 H       -5.3720     2.7390    -1.4610 H     1 <1>   0.1500 
 28 H       -6.9260     1.1660    -1.9170 H     1 <1>   0.3700 
 29 H       -8.1770    -0.7560    -0.0100 H     1 <1>   0.0800 
 30 H       -8.8160    -0.2900    -1.5480 H     1 <1>   0.0800 
 31 H       -9.9000     2.0790    -1.8260 H     1 <1>   0.0800 
 32 H       -8.4050     2.7360    -1.2780 H     1 <1>   0.0800 
 33 H       -7.4620     2.0960     0.9930 H     1 <1>   0.0800 
 34 H       -8.2890     0.9830     2.0080 H     1 <1>   0.0800 
 35 H       -9.5670    -0.7400     1.9360 H     1 <1>   0.1500 
 36 H      -11.7940     1.4190    -1.0250 H     1 <1>   0.1500 
 37 H      -11.0580     3.2950     0.0720 H     1 <1>   0.0800 
 38 H      -10.1040     4.3990    -0.8940 H     1 <1>   0.0800 
 39 H       -8.6890     3.3260     2.6900 H     1 <1>   0.0800 
 40 H      -10.2050     2.6180     2.1630 H     1 <1>   0.0800 
 41 H      -11.6010    -1.8530     2.6210 H     1 <1>   0.1500 
 42 H      -13.7960     0.2900    -0.3220 H     1 <1>   0.1500 
 43 H      -13.7360    -1.3530     1.5060 H     1 <1>   0.1500 
@<TRIPOS>BOND
  1   1   2  1   
  2   2   3  ar  
  3   2   4  ar  
  4   3   5  ar  
  5   3  24  1   
  6   4   6  ar  
  7   4  25  1   
  8   5   7  1   
  9   5   8  ar  
 10   6   8  ar  
 11   6  26  1   
 12   7   9  2   
 13   7  10  am  
 14   8  27  1   
 15  10  11  1   
 16  10  28  1   
 17  11  12  1   
 18  11  29  1   
 19  11  30  1   
 20  12  13  1   
 21  12  14  1   
 22  12  15  1   
 23  13  16  ar  
 24  13  17  ar  
 25  14  18  1   
 26  14  31  1   
 27  14  32  1   
 28  15  19  1   
 29  15  33  1   
 30  15  34  1   
 31  16  20  ar  
 32  16  35  1   
 33  17  21  ar  
 34  17  36  1   
 35  18  22  1   
 36  18  37  1   
 37  18  38  1   
 38  19  22  1   
 39  19  39  1   
 40  19  40  1   
 41  20  23  ar  
 42  20  41  1   
 43  21  23  ar  
 44  21  42  1   
 45  23  43  1   
@<TRIPOS>SUBSTRUCTURE
  1 ****  10 GROUP 4 **** **** 0

# MOE 2024.06 (io_trps.svl 2023.06)
