@<TRIPOS>MOLECULE
NONAME
35 36 1 0 0 
SMALL
USER_CHARGES


@<TRIPOS>ATOM
  1 CL      -0.8570     0.9050     1.3700 Cl    1 <1>  -0.1770 
  2 C       -1.0180     2.0230     0.0350 C.ar  1 <1>   0.1770 
  3 C       -2.2520     2.2510    -0.5860 C.ar  1 <1>   0.0860 
  4 C        0.1410     2.6570    -0.3740 C.ar  1 <1>  -0.1500 
  5 C       -3.4980     1.6200    -0.1840 C.2   1 <1>   0.5440 
  6 C       -2.2490     3.1470    -1.6600 C.ar  1 <1>  -0.1500 
  7 C        0.1050     3.5440    -1.4330 C.ar  1 <1>  -0.1500 
  8 O       -4.3730     1.4040    -1.0010 O.2   1 <1>  -0.5700 
  9 N       -3.7750     1.2980     1.1160 N.am  1 <1>  -0.7300 
 10 C       -1.0950     3.7850    -2.0770 C.ar  1 <1>  -0.1500 
 11 C       -4.8180     0.3360     1.5850 C.3   1 <1>   0.1400 
 12 C       -6.2040     0.9950     1.7410 C.3   1 <1>   0.3430 
 13 N       -6.7170     1.4830     0.4320 N.4   1 <1>  -0.9590 
 14 C       -7.6390     2.6360     0.5020 C.3   1 <1>   0.3430 
 15 C       -7.3660     0.4560    -0.4090 C.3   1 <1>   0.3430 
 16 C       -8.3520     2.6400    -0.8450 C.3   1 <1>  -0.1600 
 17 C       -8.0970     1.2640    -1.4700 C.3   1 <1>  -0.1600 
 18 H        1.0690     2.4550     0.1320 H     1 <1>   0.1500 
 19 H       -3.1700     3.3460    -2.1810 H     1 <1>   0.1500 
 20 H        1.0040     4.0420    -1.7580 H     1 <1>   0.1500 
 21 H       -3.0030     1.4310     1.7830 H     1 <1>   0.3700 
 22 H       -1.1270     4.4710    -2.9080 H     1 <1>   0.1500 
 23 H       -4.5130    -0.0640     2.5370 H     1 <1>   0.0800 
 24 H       -4.8830    -0.4880     0.8940 H     1 <1>   0.0800 
 25 H       -6.1070     1.8210     2.4260 H     1 <1>   0.0800 
 26 H       -6.8990     0.2890     2.1650 H     1 <1>   0.0800 
 27 H       -5.8760     1.7710    -0.1150 H     1 <1>   0.4500 
 28 H       -7.1060     3.5580     0.6720 H     1 <1>   0.0800 
 29 H       -8.3580     2.4830     1.2900 H     1 <1>   0.0800 
 30 H       -8.0760    -0.1060     0.1760 H     1 <1>   0.0800 
 31 H       -6.6410    -0.2110    -0.8490 H     1 <1>   0.0800 
 32 H       -7.9510     3.4180    -1.4720 H     1 <1>   0.0800 
 33 H       -9.4040     2.8220    -0.7060 H     1 <1>   0.0800 
 34 H       -9.0090     0.7750    -1.7650 H     1 <1>   0.0800 
 35 H       -7.4640     1.3620    -2.3350 H     1 <1>   0.0800 
@<TRIPOS>BOND
  1   1   2  1   
  2   2   3  ar  
  3   2   4  ar  
  4   3   5  1   
  5   3   6  ar  
  6   4   7  ar  
  7   4  18  1   
  8   5   8  2   
  9   5   9  am  
 10   6  10  ar  
 11   6  19  1   
 12   7  10  ar  
 13   7  20  1   
 14   9  11  1   
 15   9  21  1   
 16  10  22  1   
 17  11  12  1   
 18  11  23  1   
 19  11  24  1   
 20  12  13  1   
 21  12  25  1   
 22  12  26  1   
 23  13  14  1   
 24  13  15  1   
 25  13  27  1   
 26  14  16  1   
 27  14  28  1   
 28  14  29  1   
 29  15  17  1   
 30  15  30  1   
 31  15  31  1   
 32  16  17  1   
 33  16  32  1   
 34  16  33  1   
 35  17  34  1   
 36  17  35  1   
@<TRIPOS>SUBSTRUCTURE
  1 ****   5 GROUP 4 **** **** 0

# MOE 2024.06 (io_trps.svl 2023.06)
