@<TRIPOS>MOLECULE
NONAME
40 43 1 0 0 
SMALL
USER_CHARGES


@<TRIPOS>ATOM
  1 P        0.0760     0.3360    -0.7840 P.3   1 <1>   1.5070 
  2 O        0.1000    -1.1170    -0.6460 O.2   1 <1>  -0.7000 
  3 O        1.2840     0.9880    -1.6580 O.3   1 <1>  -0.3540 
  4 N       -1.3510     0.9400    -1.4360 N.3   1 <1>  -0.8080 
  5 N        0.0370     1.1580     0.6840 N.3   1 <1>  -0.8080 
  6 C        2.6040     0.9590    -1.3560 C.ar  1 <1>   0.0820 
  7 C       -1.3440     2.4100    -1.5840 C.3   1 <1>   0.1100 
  8 C       -2.5130     0.5220    -0.6300 C.3   1 <1>   0.1100 
  9 C        0.0370     2.6260     0.5270 C.3   1 <1>   0.1100 
 10 C       -1.1290     0.7390     1.4860 C.3   1 <1>   0.1100 
 11 C        3.4550     1.6650    -2.1930 C.ar  1 <1>  -0.1500 
 12 C        3.1250     0.2710    -0.2650 C.ar  1 <1>  -0.1500 
 13 C       -1.2310     3.1100    -0.2110 C.3   1 <1>   0.0610 
 14 C       -2.4550     1.1300     0.7920 C.3   1 <1>   0.0610 
 15 C        4.8160     1.6920    -1.9430 C.ar  1 <1>  -0.1500 
 16 C        4.4870     0.3010    -0.0170 C.ar  1 <1>  -0.1500 
 17 C       -2.4250     2.6450     0.6170 C.2   1 <1>   0.4480 
 18 C       -1.1830     4.6400    -0.3990 C.3   1 <1>  -0.2400 
 19 C       -3.6550     0.6410     1.6280 C.3   1 <1>  -0.2400 
 20 C        5.3310     1.0110    -0.8540 C.ar  1 <1>  -0.1500 
 21 O       -3.2460     3.3860     1.0770 O.2   1 <1>  -0.5700 
 22 H       -0.5220     2.7040    -2.2160 H     1 <1>   0.0800 
 23 H       -2.2520     2.7190    -2.0740 H     1 <1>   0.0800 
 24 H       -2.5320    -0.5550    -0.5670 H     1 <1>   0.0800 
 25 H       -3.4190     0.8330    -1.1230 H     1 <1>   0.0800 
 26 H        0.9180     2.9310    -0.0140 H     1 <1>   0.0800 
 27 H        0.0860     3.0850     1.5010 H     1 <1>   0.0800 
 28 H       -1.0930    -0.3290     1.6320 H     1 <1>   0.0800 
 29 H       -1.0760     1.2010     2.4580 H     1 <1>   0.0800 
 30 H        3.0490     2.1890    -3.0390 H     1 <1>   0.1500 
 31 H        2.4960    -0.2930     0.4000 H     1 <1>   0.1500 
 32 H        5.4730     2.2410    -2.5950 H     1 <1>   0.1500 
 33 H        4.8900    -0.2310     0.8270 H     1 <1>   0.1500 
 34 H       -0.3290     4.9280    -0.9860 H     1 <1>   0.0800 
 35 H       -1.1260     5.1310     0.5570 H     1 <1>   0.0800 
 36 H       -2.0740     4.9830    -0.8960 H     1 <1>   0.0800 
 37 H       -3.6400    -0.4300     1.7280 H     1 <1>   0.0800 
 38 H       -4.5790     0.9300     1.1580 H     1 <1>   0.0800 
 39 H       -3.6290     1.0800     2.6100 H     1 <1>   0.0800 
 40 H        6.3900     1.0320    -0.6580 H     1 <1>   0.1500 
@<TRIPOS>BOND
  1   1   2  2   
  2   1   3  1   
  3   1   4  1   
  4   1   5  1   
  5   3   6  1   
  6   4   7  1   
  7   4   8  1   
  8   5   9  1   
  9   5  10  1   
 10   6  11  ar  
 11   6  12  ar  
 12   7  13  1   
 13   7  22  1   
 14   7  23  1   
 15   8  14  1   
 16   8  24  1   
 17   8  25  1   
 18   9  13  1   
 19   9  26  1   
 20   9  27  1   
 21  10  14  1   
 22  10  28  1   
 23  10  29  1   
 24  11  15  ar  
 25  11  30  1   
 26  12  16  ar  
 27  12  31  1   
 28  13  17  1   
 29  13  18  1   
 30  14  17  1   
 31  14  19  1   
 32  15  20  ar  
 33  15  32  1   
 34  16  20  ar  
 35  16  33  1   
 36  17  21  2   
 37  18  34  1   
 38  18  35  1   
 39  18  36  1   
 40  19  37  1   
 41  19  38  1   
 42  19  39  1   
 43  20  40  1   
@<TRIPOS>SUBSTRUCTURE
  1 ****   5 GROUP 4 **** **** 0

# MOE 2024.06 (io_trps.svl 2023.06)
