@<TRIPOS>MOLECULE
NONAME
33 34 1 0 0 
SMALL
USER_CHARGES


@<TRIPOS>ATOM
  1 S        0.7960     1.3740     0.2970 S.3   1 <1>  -0.3320 
  2 C       -0.9880     1.6440     0.3150 C.ar  1 <1>   0.1020 
  3 C        1.1890     0.2200    -1.1140 C.3   1 <1>   0.2110 
  4 C       -1.8620     0.9720    -0.5270 C.ar  1 <1>  -0.1500 
  5 C       -1.4630     2.5690     1.2260 C.ar  1 <1>  -0.1500 
  6 C        2.5630    -0.4280    -0.9090 C.2   1 <1>   0.5690 
  7 C        1.1150     1.0440    -2.4070 C.3   1 <1>  -0.2400 
  8 C       -3.2190     1.2380    -0.4500 C.ar  1 <1>  -0.1500 
  9 C       -2.8200     2.8300     1.2970 C.ar  1 <1>  -0.1500 
 10 O        2.8070    -1.4530    -1.5030 O.2   1 <1>  -0.5700 
 11 N        3.4680     0.1640    -0.0810 N.am  1 <1>  -0.5790 
 12 C       -3.7040     2.1650     0.4600 C.ar  1 <1>  -0.1430 
 13 C        4.8220    -0.3200     0.2130 C.3   1 <1>   0.0490 
 14 C       -5.1920     2.4550     0.5390 C.3   1 <1>  -0.0970 
 15 C        5.3410    -0.1460     1.6010 C.3   1 <1>  -0.2000 
 16 C        5.8840     0.6920     0.4820 C.3   1 <1>  -0.2000 
 17 H        0.4500    -0.5580    -1.1030 H     1 <1>   0.0800 
 18 H       -1.5190     0.2480    -1.2380 H     1 <1>   0.1500 
 19 H       -0.7750     3.0820     1.8740 H     1 <1>   0.1500 
 20 H        1.8590     1.8210    -2.3930 H     1 <1>   0.0800 
 21 H        0.1460     1.4920    -2.5210 H     1 <1>   0.0800 
 22 H        1.3030     0.4070    -3.2530 H     1 <1>   0.0800 
 23 H       -3.8990     0.7200    -1.1030 H     1 <1>   0.1500 
 24 H       -3.1850     3.5530     2.0060 H     1 <1>   0.1500 
 25 H        3.1730     0.9970     0.4340 H     1 <1>   0.3700 
 26 H        5.0830    -1.2160    -0.3300 H     1 <1>   0.1000 
 27 H       -5.7610     1.5880     0.2510 H     1 <1>   0.0800 
 28 H       -5.4400     3.2670    -0.1200 H     1 <1>   0.0800 
 29 H       -5.4700     2.7240     1.5420 H     1 <1>   0.0800 
 30 H        5.9710    -0.9130     2.0140 H     1 <1>   0.1000 
 31 H        4.7050     0.3110     2.3390 H     1 <1>   0.1000 
 32 H        5.6310     1.7360     0.4380 H     1 <1>   0.1000 
 33 H        6.8840     0.4930     0.1370 H     1 <1>   0.1000 
@<TRIPOS>BOND
  1   1   2  1   
  2   1   3  1   
  3   2   4  ar  
  4   2   5  ar  
  5   3   6  1   
  6   3   7  1   
  7   3  17  1   
  8   4   8  ar  
  9   4  18  1   
 10   5   9  ar  
 11   5  19  1   
 12   6  10  2   
 13   6  11  am  
 14   7  20  1   
 15   7  21  1   
 16   7  22  1   
 17   8  12  ar  
 18   8  23  1   
 19   9  12  ar  
 20   9  24  1   
 21  11  13  1   
 22  11  25  1   
 23  12  14  1   
 24  13  15  1   
 25  13  16  1   
 26  13  26  1   
 27  14  27  1   
 28  14  28  1   
 29  14  29  1   
 30  15  16  1   
 31  15  30  1   
 32  15  31  1   
 33  16  32  1   
 34  16  33  1   
@<TRIPOS>SUBSTRUCTURE
  1 ****   1 GROUP 4 **** **** 0

# MOE 2024.06 (io_trps.svl 2023.06)
