@<TRIPOS>MOLECULE
NONAME
37 37 1 0 0 
SMALL
USER_CHARGES


@<TRIPOS>ATOM
  1 O        1.2710     1.2780     0.7370 O.2   1 <1>  -0.5700 
  2 C        0.6760     2.0250    -0.0160 C.2   1 <1>   0.5440 
  3 N        1.3120     2.4060    -1.1650 N.am  1 <1>  -0.7300 
  4 C       -0.6470     2.5370     0.2890 C.ar  1 <1>   0.0860 
  5 C        2.5190     1.7580    -1.7630 C.3   1 <1>   0.1400 
  6 C       -1.7290     1.7090     0.6170 C.ar  1 <1>  -0.1430 
  7 C       -0.8690     3.9150     0.2480 C.ar  1 <1>  -0.1500 
  8 C        3.8350     2.2540    -1.1270 C.3   1 <1>   0.3430 
  9 C       -2.9700     2.2600     0.8880 C.ar  1 <1>  -0.1500 
 10 C       -1.5760     0.1940     0.6830 C.3   1 <1>  -0.0960 
 11 C       -2.1100     4.4650     0.5160 C.ar  1 <1>  -0.1430 
 12 N        3.9140     1.8980     0.3220 N.4   1 <1>  -0.9590 
 13 C       -3.1620     3.6280     0.8360 C.ar  1 <1>  -0.1500 
 14 C       -2.3320     5.9660     0.4670 C.3   1 <1>  -0.0970 
 15 C        4.6730     2.9000     1.1240 C.3   1 <1>   0.2630 
 16 C        4.4090     0.5090     0.5500 C.3   1 <1>   0.2630 
 17 H        0.7550     2.9680    -1.8190 H     1 <1>   0.3700 
 18 H        2.5380     1.9760    -2.8170 H     1 <1>   0.0800 
 19 H        2.4420     0.6900    -1.6540 H     1 <1>   0.0800 
 20 H       -0.0500     4.5670     0.0070 H     1 <1>   0.1500 
 21 H        3.8770     3.3250    -1.2420 H     1 <1>   0.0800 
 22 H        4.6750     1.8310    -1.6520 H     1 <1>   0.0800 
 23 H       -3.8030     1.6280     1.1420 H     1 <1>   0.1500 
 24 H       -1.1150    -0.1760    -0.2150 H     1 <1>   0.0800 
 25 H       -2.5310    -0.2890     0.7930 H     1 <1>   0.0800 
 26 H       -0.9630    -0.0760     1.5250 H     1 <1>   0.0800 
 27 H        2.9190     1.8940     0.6520 H     1 <1>   0.4500 
 28 H       -4.1340     4.0380     1.0490 H     1 <1>   0.1500 
 29 H       -1.4080     6.4900     0.3010 H     1 <1>   0.0800 
 30 H       -2.7530     6.3040     1.3970 H     1 <1>   0.0800 
 31 H       -3.0120     6.2090    -0.3300 H     1 <1>   0.0800 
 32 H        5.7030     2.9310     0.8090 H     1 <1>   0.0800 
 33 H        4.6370     2.6410     2.1700 H     1 <1>   0.0800 
 34 H        4.2410     3.8790     1.0000 H     1 <1>   0.0800 
 35 H        5.4220     0.4060     0.1980 H     1 <1>   0.0800 
 36 H        3.7820    -0.1980     0.0320 H     1 <1>   0.0800 
 37 H        4.3800     0.2750     1.6020 H     1 <1>   0.0800 
@<TRIPOS>BOND
  1   1   2  2   
  2   2   3  am  
  3   2   4  1   
  4   3   5  1   
  5   3  17  1   
  6   4   6  ar  
  7   4   7  ar  
  8   5   8  1   
  9   5  18  1   
 10   5  19  1   
 11   6   9  ar  
 12   6  10  1   
 13   7  11  ar  
 14   7  20  1   
 15   8  12  1   
 16   8  21  1   
 17   8  22  1   
 18   9  13  ar  
 19   9  23  1   
 20  10  24  1   
 21  10  25  1   
 22  10  26  1   
 23  11  13  ar  
 24  11  14  1   
 25  12  15  1   
 26  12  16  1   
 27  12  27  1   
 28  13  28  1   
 29  14  29  1   
 30  14  30  1   
 31  14  31  1   
 32  15  32  1   
 33  15  33  1   
 34  15  34  1   
 35  16  35  1   
 36  16  36  1   
 37  16  37  1   
@<TRIPOS>SUBSTRUCTURE
  1 ****   2 GROUP 4 **** **** 0

# MOE 2024.06 (io_trps.svl 2023.06)
