@<TRIPOS>MOLECULE
NONAME
42 42 1 0 0 
SMALL
USER_CHARGES


@<TRIPOS>ATOM
  1 O       -1.1120    -0.1570     0.6650 O.3   1 <1>  -0.3630 
  2 C       -1.9080     0.6350    -0.1080 C.ar  1 <1>   0.0830 
  3 C        0.2870    -0.0030     0.7300 C.3   1 <1>   0.1200 
  4 C       -1.5850     1.8980    -0.6340 C.ar  1 <1>   0.0830 
  5 C       -3.1540     0.0890    -0.3640 C.ar  1 <1>  -0.1500 
  6 C        0.8680    -1.2420     1.4050 C.3   1 <1>  -0.2400 
  7 O       -0.3730     2.4640    -0.3650 O.3   1 <1>  -0.3620 
  8 C       -2.5310     2.5600    -1.4160 C.ar  1 <1>  -0.1500 
  9 C       -4.0930     0.7610    -1.1300 C.ar  1 <1>  -0.1440 
 10 C        0.0190     3.7150    -0.8890 C.3   1 <1>   0.0400 
 11 C       -3.7710     1.9980    -1.6620 C.ar  1 <1>  -0.1500 
 12 C       -5.4530     0.1470    -1.3590 C.3   1 <1>   0.4860 
 13 N       -6.2430     0.4490    -0.1480 N.4   1 <1>  -0.9060 
 14 C       -7.6440    -0.0340    -0.1920 C.3   1 <1>   0.4230 
 15 C       -8.4770     0.6220     0.9270 C.3   1 <1>   0.1200 
 16 C       -7.6400    -1.5600    -0.0690 C.3   1 <1>  -0.2400 
 17 O       -9.8110     0.2870     0.7320 O.3   1 <1>  -0.5600 
 18 C      -10.6820     0.7900     1.6970 C.3   1 <1>   0.0400 
 19 H        0.5060     0.8790     1.3060 H     1 <1>   0.0800 
 20 H        0.6690     0.1010    -0.2710 H     1 <1>   0.0800 
 21 H       -3.3640    -0.8810     0.0510 H     1 <1>   0.1500 
 22 H        0.4700    -1.3420     2.3990 H     1 <1>   0.0800 
 23 H        1.9370    -1.1510     1.4700 H     1 <1>   0.0800 
 24 H        0.6320    -2.1200     0.8320 H     1 <1>   0.0800 
 25 H       -2.3210     3.5220    -1.8440 H     1 <1>   0.1500 
 26 H        1.0160     3.9230    -0.5430 H     1 <1>   0.0800 
 27 H       -0.6540     4.4730    -0.5310 H     1 <1>   0.0800 
 28 H        0.0110     3.6630    -1.9640 H     1 <1>   0.0800 
 29 H       -4.4730     2.5420    -2.2720 H     1 <1>   0.1500 
 30 H       -5.3570    -0.9180    -1.4990 H     1 <1>   0.0800 
 31 H       -5.9140     0.5780    -2.2330 H     1 <1>   0.0800 
 32 H       -6.2160     1.4660    -0.0180 H     1 <1>   0.4500 
 33 H       -5.7520     0.0460     0.6570 H     1 <1>   0.4500 
 34 H       -8.0880     0.2500    -1.1330 H     1 <1>   0.0800 
 35 H       -8.3970     1.6940     0.8830 H     1 <1>   0.0800 
 36 H       -8.1730     0.2620     1.8950 H     1 <1>   0.0800 
 37 H       -7.1910    -1.8750     0.8570 H     1 <1>   0.0800 
 38 H       -7.1340    -2.0230    -0.8950 H     1 <1>   0.0800 
 39 H       -8.6550    -1.9190    -0.0790 H     1 <1>   0.0800 
 40 H      -11.6800     0.4740     1.4450 H     1 <1>   0.0800 
 41 H      -10.6370     1.8660     1.6980 H     1 <1>   0.0800 
 42 H      -10.4150     0.3980     2.6630 H     1 <1>   0.0800 
@<TRIPOS>BOND
  1   1   2  1   
  2   1   3  1   
  3   2   4  ar  
  4   2   5  ar  
  5   3   6  1   
  6   3  19  1   
  7   3  20  1   
  8   4   7  1   
  9   4   8  ar  
 10   5   9  ar  
 11   5  21  1   
 12   6  22  1   
 13   6  23  1   
 14   6  24  1   
 15   7  10  1   
 16   8  11  ar  
 17   8  25  1   
 18   9  11  ar  
 19   9  12  1   
 20  10  26  1   
 21  10  27  1   
 22  10  28  1   
 23  11  29  1   
 24  12  13  1   
 25  12  30  1   
 26  12  31  1   
 27  13  14  1   
 28  13  32  1   
 29  13  33  1   
 30  14  15  1   
 31  14  16  1   
 32  14  34  1   
 33  15  17  1   
 34  15  35  1   
 35  15  36  1   
 36  16  37  1   
 37  16  38  1   
 38  16  39  1   
 39  17  18  1   
 40  18  40  1   
 41  18  41  1   
 42  18  42  1   
@<TRIPOS>SUBSTRUCTURE
  1 ****   9 GROUP 4 **** **** 0

# MOE 2024.06 (io_trps.svl 2023.06)
