@<TRIPOS>MOLECULE
NONAME
47 49 1 0 0 
SMALL
USER_CHARGES


@<TRIPOS>ATOM
  1 BR       0.0080    -0.2670    -0.0640 Br    1 <1>  -0.1110 
  2 C       -1.7750    -0.9960    -0.0370 C.ar  1 <1>   0.1110 
  3 C       -2.7820    -0.3230    -0.7000 C.ar  1 <1>  -0.1500 
  4 C       -2.0030    -2.1740     0.6470 C.ar  1 <1>  -0.1500 
  5 C       -4.0600    -0.8540    -0.6750 C.ar  1 <1>  -0.1500 
  6 C       -3.2870    -2.6920     0.6620 C.ar  1 <1>  -0.1500 
  7 C       -4.3290    -2.0440     0.0030 C.ar  1 <1>   0.1170 
  8 N       -5.6150    -2.6030     0.0650 N.am  1 <1>  -0.5470 
  9 C       -6.6840    -2.5020    -0.7960 C.2   1 <1>   0.5440 
 10 O       -6.5480    -1.9610    -1.8740 O.2   1 <1>  -0.5700 
 11 C       -7.9650    -3.0780    -0.4240 C.ar  1 <1>   0.0860 
 12 C       -8.8430    -3.5580    -1.3950 C.ar  1 <1>  -0.1500 
 13 C       -8.3810    -3.1770     0.9050 C.ar  1 <1>  -0.1500 
 14 C      -10.0610    -4.1200    -1.0580 C.ar  1 <1>  -0.1500 
 15 C       -9.5990    -3.7430     1.2400 C.ar  1 <1>  -0.1500 
 16 C      -10.4620    -4.2320     0.2670 C.ar  1 <1>  -0.0090 
 17 S      -12.0640    -4.9790     0.7000 S.o2  1 <1>   1.4470 
 18 O      -12.0760    -5.2770     2.1170 O.2   1 <1>  -0.6500 
 19 O      -13.0790    -4.1150     0.1410 O.2   1 <1>  -0.6500 
 20 N      -12.0500    -6.4770    -0.1100 N.am  1 <1>  -0.8490 
 21 C      -13.2860    -7.2730     0.0710 C.3   1 <1>   0.2760 
 22 C      -10.8890    -7.2680     0.3400 C.3   1 <1>   0.1960 
 23 C      -13.1940    -8.5820    -0.7360 C.3   1 <1>  -0.1600 
 24 C      -14.5470    -6.5420    -0.4040 C.3   1 <1>  -0.2400 
 25 C      -10.7220    -8.5400    -0.4900 C.3   1 <1>  -0.1600 
 26 C      -11.9650    -9.4180    -0.3750 C.3   1 <1>  -0.1600 
 27 H       -2.5720     0.5910    -1.2240 H     1 <1>   0.1500 
 28 H       -1.1940    -2.6710     1.1520 H     1 <1>   0.1500 
 29 H       -4.8510    -0.3360    -1.1850 H     1 <1>   0.1500 
 30 H       -3.4750    -3.6100     1.1880 H     1 <1>   0.1500 
 31 H       -5.7520    -3.2560     0.8330 H     1 <1>   0.3700 
 32 H       -8.5620    -3.4830    -2.4330 H     1 <1>   0.1500 
 33 H       -7.7530    -2.7960     1.6920 H     1 <1>   0.1500 
 34 H      -10.7170    -4.4790    -1.8340 H     1 <1>   0.1500 
 35 H       -9.8900    -3.8020     2.2770 H     1 <1>   0.1500 
 36 H      -13.4040    -7.5160     1.1160 H     1 <1>   0.0800 
 37 H      -11.0030    -7.5280     1.3810 H     1 <1>   0.0800 
 38 H       -9.9820    -6.6980     0.2400 H     1 <1>   0.0800 
 39 H      -13.1650    -8.3420    -1.7850 H     1 <1>   0.0800 
 40 H      -14.0740    -9.1760    -0.5630 H     1 <1>   0.0800 
 41 H      -14.3790    -6.0820    -1.3620 H     1 <1>   0.0800 
 42 H      -14.8520    -5.7990     0.3090 H     1 <1>   0.0800 
 43 H      -15.3680    -7.2290    -0.4950 H     1 <1>   0.0800 
 44 H       -9.8620    -9.0850    -0.1440 H     1 <1>   0.0800 
 45 H      -10.5530    -8.2690    -1.5180 H     1 <1>   0.0800 
 46 H      -11.8850   -10.2640    -1.0360 H     1 <1>   0.0800 
 47 H      -12.0600    -9.7840     0.6330 H     1 <1>   0.0800 
@<TRIPOS>BOND
  1   1   2  1   
  2   2   3  ar  
  3   2   4  ar  
  4   3   5  ar  
  5   3  27  1   
  6   4   6  ar  
  7   4  28  1   
  8   5   7  ar  
  9   5  29  1   
 10   6   7  ar  
 11   6  30  1   
 12   7   8  1   
 13   8   9  am  
 14   8  31  1   
 15   9  10  2   
 16   9  11  1   
 17  11  12  ar  
 18  11  13  ar  
 19  12  14  ar  
 20  12  32  1   
 21  13  15  ar  
 22  13  33  1   
 23  14  16  ar  
 24  14  34  1   
 25  15  16  ar  
 26  15  35  1   
 27  16  17  1   
 28  17  18  2   
 29  17  19  2   
 30  17  20  am  
 31  20  21  1   
 32  20  22  1   
 33  21  23  1   
 34  21  24  1   
 35  21  36  1   
 36  22  25  1   
 37  22  37  1   
 38  22  38  1   
 39  23  26  1   
 40  23  39  1   
 41  23  40  1   
 42  24  41  1   
 43  24  42  1   
 44  24  43  1   
 45  25  26  1   
 46  25  44  1   
 47  25  45  1   
 48  26  46  1   
 49  26  47  1   
@<TRIPOS>SUBSTRUCTURE
  1 ****  11 GROUP 4 **** **** 0

# MOE 2024.06 (io_trps.svl 2023.06)
