@<TRIPOS>MOLECULE
NONAME
38 40 1 0 0 
SMALL
USER_CHARGES


@<TRIPOS>ATOM
  1 CL      -1.8710    -0.4560     3.5960 Cl    1 <1>  -0.1770 
  2 C       -1.9230    -1.6200     2.3000 C.ar  1 <1>   0.1770 
  3 C       -0.8950    -2.5310     2.1680 C.ar  1 <1>  -0.1500 
  4 C       -2.9960    -1.6080     1.4290 C.ar  1 <1>  -0.1500 
  5 C       -0.9690    -3.4380     1.1320 C.ar  1 <1>   0.1770 
  6 C       -3.0800    -2.5250     0.3770 C.ar  1 <1>   0.0860 
  7 CL       0.3110    -4.6050     0.9320 Cl    1 <1>  -0.1770 
  8 C       -2.0330    -3.4440     0.2500 C.ar  1 <1>  -0.1500 
  9 C       -4.1980    -2.5370    -0.5490 C.2   1 <1>   0.6340 
 10 O       -4.2810    -3.3080    -1.4800 O.2   1 <1>  -0.5700 
 11 O       -5.1900    -1.6570    -0.3580 O.3   1 <1>  -0.4300 
 12 C       -6.2890    -1.5510    -1.2440 C.3   1 <1>   0.2000 
 13 C       -6.8370    -0.0980    -1.0850 C.3   1 <1>  -0.1600 
 14 C       -7.3090    -2.6740    -0.8600 C.3   1 <1>  -0.1600 
 15 C       -7.8000    -0.1020     0.1060 C.3   1 <1>   0.4230 
 16 C       -8.4830    -2.2750     0.0780 C.3   1 <1>   0.4230 
 17 N       -8.9330    -0.9610    -0.3580 N.4   1 <1>  -0.9590 
 18 C       -8.0630    -0.3780     1.5750 C.3   1 <1>  -0.1600 
 19 C       -8.1520    -1.9320     1.5480 C.3   1 <1>  -0.1600 
 20 C       -9.5060    -0.8670    -1.7470 C.3   1 <1>   0.2630 
 21 H       -0.0640    -2.5340     2.8500 H     1 <1>   0.1500 
 22 H       -3.7670    -0.8730     1.5770 H     1 <1>   0.1500 
 23 H       -2.0480    -4.1700    -0.5450 H     1 <1>   0.1500 
 24 H       -5.9180    -1.6920    -2.2470 H     1 <1>   0.0800 
 25 H       -7.2880     0.2660    -1.9880 H     1 <1>   0.0800 
 26 H       -6.0150     0.5660    -0.8780 H     1 <1>   0.0800 
 27 H       -6.7950    -3.5230    -0.4440 H     1 <1>   0.0800 
 28 H       -7.7460    -3.0310    -1.7740 H     1 <1>   0.0800 
 29 H       -6.9440    -0.6440     0.4580 H     1 <1>   0.0800 
 30 H       -9.2760    -3.0050     0.0270 H     1 <1>   0.0800 
 31 H       -9.7040    -0.7210     0.2770 H     1 <1>   0.4500 
 32 H       -8.9810     0.0830     1.9050 H     1 <1>   0.0800 
 33 H       -7.2590    -0.0300     2.2030 H     1 <1>   0.0800 
 34 H       -7.2190    -2.3900     1.8340 H     1 <1>   0.0800 
 35 H       -8.9230    -2.2870     2.2100 H     1 <1>   0.0800 
 36 H       -8.7800    -1.1720    -2.4830 H     1 <1>   0.0800 
 37 H       -9.8040     0.1470    -1.9570 H     1 <1>   0.0800 
 38 H      -10.3700    -1.5050    -1.8370 H     1 <1>   0.0800 
@<TRIPOS>BOND
  1   1   2  1   
  2   2   3  ar  
  3   2   4  ar  
  4   3   5  ar  
  5   3  21  1   
  6   4   6  ar  
  7   4  22  1   
  8   5   7  1   
  9   5   8  ar  
 10   6   8  ar  
 11   6   9  1   
 12   8  23  1   
 13   9  10  2   
 14   9  11  1   
 15  11  12  1   
 16  12  13  1   
 17  12  14  1   
 18  12  24  1   
 19  13  15  1   
 20  13  25  1   
 21  13  26  1   
 22  14  16  1   
 23  14  27  1   
 24  14  28  1   
 25  15  17  1   
 26  15  18  1   
 27  15  29  1   
 28  16  17  1   
 29  16  19  1   
 30  16  30  1   
 31  17  20  1   
 32  17  31  1   
 33  18  19  1   
 34  18  32  1   
 35  18  33  1   
 36  19  34  1   
 37  19  35  1   
 38  20  36  1   
 39  20  37  1   
 40  20  38  1   
@<TRIPOS>SUBSTRUCTURE
  1 ****  11 GROUP 4 **** **** 0

# MOE 2024.06 (io_trps.svl 2023.06)
