@<TRIPOS>MOLECULE
NONAME
36 37 1 0 0 
SMALL
USER_CHARGES


@<TRIPOS>ATOM
  1 CL       0.5110    -0.1410     0.4170 Cl    1 <1>  -0.1230 
  2 C       -1.2000    -0.5360     0.3620 C.2   1 <1>   0.1230 
  3 C       -2.2390     0.3790     0.3200 C.2   1 <1>   0.1080 
  4 C       -1.7540    -1.7620     0.3590 C.2   1 <1>  -0.3320 
  5 N       -3.3850    -0.2220     0.2950 N.2   1 <1>  -0.7070 
  6 C       -2.1030     1.8850     0.3100 C.3   1 <1>  -0.0590 
  7 N       -3.1140    -1.5820     0.3080 N.pl3 1 <1>   0.5840 
  8 C       -1.0590    -3.1180     0.4050 C.3   1 <1>  -0.0600 
  9 S       -4.3510    -2.9060     0.3500 S.o2  1 <1>   1.4240 
 10 O       -4.5790    -3.3330     1.7180 O.2   1 <1>  -0.6500 
 11 O       -3.9650    -3.9350    -0.5990 O.2   1 <1>  -0.6500 
 12 N       -5.8350    -2.2610    -0.1950 N.am  1 <1>  -0.8490 
 13 C       -6.4300    -1.3690     0.8110 C.3   1 <1>   0.1960 
 14 C       -6.7470    -3.3270    -0.6230 C.3   1 <1>   0.1960 
 15 C       -7.3040    -0.3110     0.1330 C.3   1 <1>  -0.1600 
 16 C       -8.0090    -2.8090    -1.3280 C.3   1 <1>  -0.1600 
 17 C       -8.7780    -0.7070    -0.0540 C.3   1 <1>  -0.1600 
 18 C       -9.0360    -2.1860    -0.3720 C.3   1 <1>  -0.1600 
 19 H       -1.1440     2.1750    -0.0780 H     1 <1>   0.0800 
 20 H       -2.2090     2.2640     1.3100 H     1 <1>   0.0800 
 21 H       -2.8710     2.3130    -0.3080 H     1 <1>   0.0800 
 22 H        0.0070    -2.9910     0.4870 H     1 <1>   0.0800 
 23 H       -1.2620    -3.6760    -0.4930 H     1 <1>   0.0800 
 24 H       -1.3980    -3.6880     1.2520 H     1 <1>   0.0800 
 25 H       -5.6490    -0.8440     1.3340 H     1 <1>   0.0800 
 26 H       -6.9830    -1.9280     1.5470 H     1 <1>   0.0800 
 27 H       -7.0160    -3.9410     0.2220 H     1 <1>   0.0800 
 28 H       -6.2370    -3.9590    -1.3310 H     1 <1>   0.0800 
 29 H       -6.8660    -0.0600    -0.8180 H     1 <1>   0.0800 
 30 H       -7.2780     0.5820     0.7310 H     1 <1>   0.0800 
 31 H       -8.4750    -3.6580    -1.7960 H     1 <1>   0.0800 
 32 H       -7.7410    -2.1240    -2.1130 H     1 <1>   0.0800 
 33 H       -9.1840    -0.1040    -0.8480 H     1 <1>   0.0800 
 34 H       -9.3230    -0.4590     0.8400 H     1 <1>   0.0800 
 35 H       -9.0620    -2.7540     0.5430 H     1 <1>   0.0800 
 36 H      -10.0150    -2.2630    -0.8140 H     1 <1>   0.0800 
@<TRIPOS>BOND
  1   1   2  1   
  2   2   3  1   
  3   2   4  2   
  4   3   5  2   
  5   3   6  1   
  6   4   7  1   
  7   4   8  1   
  8   5   7  1   
  9   6  19  1   
 10   6  20  1   
 11   6  21  1   
 12   7   9  1   
 13   8  22  1   
 14   8  23  1   
 15   8  24  1   
 16   9  10  2   
 17   9  11  2   
 18   9  12  am  
 19  12  13  1   
 20  12  14  1   
 21  13  15  1   
 22  13  25  1   
 23  13  26  1   
 24  14  16  1   
 25  14  27  1   
 26  14  28  1   
 27  15  17  1   
 28  15  29  1   
 29  15  30  1   
 30  16  18  1   
 31  16  31  1   
 32  16  32  1   
 33  17  18  1   
 34  17  33  1   
 35  17  34  1   
 36  18  35  1   
 37  18  36  1   
@<TRIPOS>SUBSTRUCTURE
  1 ****   7 GROUP 4 **** **** 0

# MOE 2024.06 (io_trps.svl 2023.06)
