@<TRIPOS>MOLECULE
NONAME
41 43 1 0 0 
SMALL
USER_CHARGES


@<TRIPOS>ATOM
  1 O        0.7350    -1.4490     2.2200 O.2   1 <1>  -0.5700 
  2 C        0.5640    -2.4110     1.4790 C.2   1 <1>   0.5410 
  3 C        1.1210    -3.6780     1.7690 C.2   1 <1>  -0.1360 
  4 C       -0.1920    -2.3060     0.2890 C.2   1 <1>  -0.1360 
  5 C        0.8990    -4.7510     0.9650 C.2   1 <1>  -0.0380 
  6 C       -0.4070    -3.3840    -0.5110 C.2   1 <1>  -0.0380 
  7 N        0.0930    -4.6390    -0.1680 N.pl3 1 <1>  -0.3000 
  8 C        1.5320    -6.1000     1.2860 C.3   1 <1>  -0.1020 
  9 C       -1.1940    -3.2420    -1.8070 C.3   1 <1>  -0.1020 
 10 C       -0.2110    -5.7850    -0.9570 C.ar  1 <1>   0.1000 
 11 C       -1.3900    -6.5520    -0.8090 C.ar  1 <1>   0.1000 
 12 C        0.7190    -6.1470    -1.9240 C.ar  1 <1>  -0.1500 
 13 N       -2.4420    -6.2900     0.0930 N.pl3 1 <1>  -0.8380 
 14 C       -1.5490    -7.6660    -1.6270 C.ar  1 <1>  -0.1500 
 15 C        0.5290    -7.2520    -2.7330 C.ar  1 <1>  -0.1500 
 16 C       -2.2150    -5.7170     1.4520 C.3   1 <1>   0.2090 
 17 C       -3.7750    -5.9010    -0.4530 C.3   1 <1>   0.2090 
 18 C       -0.6100    -8.0170    -2.5790 C.ar  1 <1>  -0.1500 
 19 C       -3.4070    -6.0240     2.3760 C.3   1 <1>   0.1200 
 20 C       -4.8860    -6.2140     0.5650 C.3   1 <1>   0.1200 
 21 O       -4.6180    -5.6100     1.8020 O.3   1 <1>  -0.5600 
 22 H        1.7270    -3.7330     2.6520 H     1 <1>   0.1500 
 23 H       -0.5730    -1.3310     0.0570 H     1 <1>   0.1500 
 24 H        0.7800    -6.8640     1.3620 H     1 <1>   0.0800 
 25 H        2.0700    -6.0610     2.2150 H     1 <1>   0.0800 
 26 H        2.2210    -6.3750     0.5080 H     1 <1>   0.0800 
 27 H       -2.0570    -3.8790    -1.7910 H     1 <1>   0.0800 
 28 H       -0.5760    -3.5190    -2.6420 H     1 <1>   0.0800 
 29 H       -1.5220    -2.2290    -1.9480 H     1 <1>   0.0800 
 30 H        1.6060    -5.5510    -2.0390 H     1 <1>   0.1500 
 31 H       -2.4280    -8.2700    -1.5060 H     1 <1>   0.1500 
 32 H        1.2630    -7.5150    -3.4740 H     1 <1>   0.1500 
 33 H       -2.0930    -4.6510     1.3810 H     1 <1>   0.0800 
 34 H       -1.3220    -6.1360     1.8750 H     1 <1>   0.0800 
 35 H       -3.9670    -6.4270    -1.3710 H     1 <1>   0.0800 
 36 H       -3.7830    -4.8460    -0.6610 H     1 <1>   0.0800 
 37 H       -0.7670    -8.8840    -3.1970 H     1 <1>   0.1500 
 38 H       -3.2920    -5.5060     3.3110 H     1 <1>   0.0800 
 39 H       -3.4620    -7.0810     2.5700 H     1 <1>   0.0800 
 40 H       -4.9680    -7.2770     0.7120 H     1 <1>   0.0800 
 41 H       -5.8290    -5.8380     0.2130 H     1 <1>   0.0800 
@<TRIPOS>BOND
  1   1   2  2   
  2   2   3  1   
  3   2   4  1   
  4   3   5  2   
  5   3  22  1   
  6   4   6  2   
  7   4  23  1   
  8   5   7  1   
  9   5   8  1   
 10   6   7  1   
 11   6   9  1   
 12   7  10  1   
 13   8  24  1   
 14   8  25  1   
 15   8  26  1   
 16   9  27  1   
 17   9  28  1   
 18   9  29  1   
 19  10  11  ar  
 20  10  12  ar  
 21  11  13  1   
 22  11  14  ar  
 23  12  15  ar  
 24  12  30  1   
 25  13  16  1   
 26  13  17  1   
 27  14  18  ar  
 28  14  31  1   
 29  15  18  ar  
 30  15  32  1   
 31  16  19  1   
 32  16  33  1   
 33  16  34  1   
 34  17  20  1   
 35  17  35  1   
 36  17  36  1   
 37  18  37  1   
 38  19  21  1   
 39  19  38  1   
 40  19  39  1   
 41  20  21  1   
 42  20  40  1   
 43  20  41  1   
@<TRIPOS>SUBSTRUCTURE
  1 ****   7 GROUP 4 **** **** 0

# MOE 2024.06 (io_trps.svl 2023.06)
