@<TRIPOS>MOLECULE
NONAME
45 49 1 0 0 
SMALL
USER_CHARGES


@<TRIPOS>ATOM
  1 S       -0.6080     0.5210    -0.2020 S.3   1 <1>  -0.0800 
  2 C        0.7770    -0.2750     0.4800 C.2   1 <1>   0.4420 
  3 C       -1.5400    -0.8810     0.2180 C.2   1 <1>   0.1980 
  4 N        0.4860    -1.4370     0.9360 N.2   1 <1>  -0.3380 
  5 N        2.0310     0.2980     0.5040 N.am  1 <1>  -0.4940 
  6 N       -0.8300    -1.7740     0.7860 N.2   1 <1>  -0.3380 
  7 C       -3.0370    -0.8950    -0.1190 C.3   1 <1>   0.1800 
  8 C        2.5130     1.5240     0.1130 C.2   1 <1>   0.5440 
  9 C       -3.7690     0.2640     0.5990 C.3   1 <1>  -0.1600 
 10 C       -3.6830    -2.2280     0.3370 C.3   1 <1>  -0.1600 
 11 C       -3.2550    -0.7520    -1.6440 C.3   1 <1>  -0.1600 
 12 O        1.7350     2.3560    -0.3060 O.2   1 <1>  -0.5700 
 13 C        3.9320     1.8390     0.1810 C.ar  1 <1>   0.0860 
 14 C       -5.2740     0.2510     0.2660 C.3   1 <1>  -0.0800 
 15 C       -5.1860    -2.2570     0.0050 C.3   1 <1>  -0.0800 
 16 C       -4.7570    -0.7690    -1.9870 C.3   1 <1>  -0.0800 
 17 C        4.8750     1.1130     0.9180 C.ar  1 <1>   0.1900 
 18 C        4.4420     2.9360    -0.5240 C.ar  1 <1>  -0.1500 
 19 C       -5.8830    -1.0870     0.7240 C.3   1 <1>  -0.1600 
 20 C       -5.4540     0.3950    -1.2570 C.3   1 <1>  -0.1600 
 21 C       -5.3690    -2.1010    -1.5160 C.3   1 <1>  -0.1600 
 22 F        4.5040     0.0770     1.6190 F     1 <1>  -0.1900 
 23 C        6.2200     1.4310     0.9620 C.ar  1 <1>  -0.1500 
 24 C        5.7850     3.2730    -0.4940 C.ar  1 <1>  -0.1500 
 25 C        6.6800     2.5210     0.2480 C.ar  1 <1>  -0.1500 
 26 H        2.7250    -0.3190     0.9250 H     1 <1>   0.3700 
 27 H       -3.3520     1.2080     0.2980 H     1 <1>   0.0800 
 28 H       -3.6320     0.1720     1.6620 H     1 <1>   0.0800 
 29 H       -3.5460    -2.3520     1.3970 H     1 <1>   0.0800 
 30 H       -3.1920    -3.0530    -0.1500 H     1 <1>   0.0800 
 31 H       -2.7560    -1.5570    -2.1560 H     1 <1>   0.0800 
 32 H       -2.8270     0.1700    -1.9940 H     1 <1>   0.0800 
 33 H       -5.7660     1.0650     0.7700 H     1 <1>   0.0800 
 34 H       -5.6130    -3.1910     0.3300 H     1 <1>   0.0800 
 35 H       -4.8890    -0.6640    -3.0500 H     1 <1>   0.0800 
 36 H        3.7690     3.5410    -1.1090 H     1 <1>   0.1500 
 37 H       -6.9360    -1.1020     0.5050 H     1 <1>   0.0800 
 38 H       -5.7700    -1.1940     1.7890 H     1 <1>   0.0800 
 39 H       -5.0410     1.3320    -1.5870 H     1 <1>   0.0800 
 40 H       -6.5030     0.3990    -1.5000 H     1 <1>   0.0800 
 41 H       -6.4170    -2.1270    -1.7610 H     1 <1>   0.0800 
 42 H       -4.8950    -2.9220    -2.0260 H     1 <1>   0.0800 
 43 H        6.8970     0.8340     1.5470 H     1 <1>   0.1500 
 44 H        6.1360     4.1250    -1.0520 H     1 <1>   0.1500 
 45 H        7.7240     2.7860     0.2680 H     1 <1>   0.1500 
@<TRIPOS>BOND
  1   1   2  1   
  2   1   3  1   
  3   2   4  2   
  4   2   5  1   
  5   3   6  2   
  6   3   7  1   
  7   4   6  1   
  8   5   8  am  
  9   5  26  1   
 10   7   9  1   
 11   7  10  1   
 12   7  11  1   
 13   8  12  2   
 14   8  13  1   
 15   9  14  1   
 16   9  27  1   
 17   9  28  1   
 18  10  15  1   
 19  10  29  1   
 20  10  30  1   
 21  11  16  1   
 22  11  31  1   
 23  11  32  1   
 24  13  17  ar  
 25  13  18  ar  
 26  14  19  1   
 27  14  20  1   
 28  14  33  1   
 29  15  19  1   
 30  15  21  1   
 31  15  34  1   
 32  16  20  1   
 33  16  21  1   
 34  16  35  1   
 35  17  22  1   
 36  17  23  ar  
 37  18  24  ar  
 38  18  36  1   
 39  19  37  1   
 40  19  38  1   
 41  20  39  1   
 42  20  40  1   
 43  21  41  1   
 44  21  42  1   
 45  23  25  ar  
 46  23  43  1   
 47  24  25  ar  
 48  24  44  1   
 49  25  45  1   
@<TRIPOS>SUBSTRUCTURE
  1 ****   1 GROUP 4 **** **** 0

# MOE 2024.06 (io_trps.svl 2023.06)
