@<TRIPOS>MOLECULE
NONAME
28 28 1 0 0 
SMALL
USER_CHARGES


@<TRIPOS>ATOM
  1 F        1.1360    -1.1510    -1.4540 F     1 <1>  -0.1900 
  2 C        0.7470    -2.0260    -0.5680 C.ar  1 <1>   0.1900 
  3 C        1.5330    -2.2480     0.5650 C.ar  1 <1>   0.0860 
  4 C       -0.4400    -2.6900    -0.8100 C.ar  1 <1>  -0.1500 
  5 C        2.7720    -1.5440     0.8010 C.2   1 <1>   0.5440 
  6 C        1.0580    -3.1820     1.4920 C.ar  1 <1>  -0.1500 
  7 C       -0.8550    -3.6100     0.1320 C.ar  1 <1>   0.1900 
  8 O        2.8110    -0.7440     1.7170 O.2   1 <1>  -0.5700 
  9 N        3.9140    -1.7760     0.0560 N.am  1 <1>  -0.6600 
 10 C       -0.1280    -3.8660     1.2820 C.ar  1 <1>  -0.1500 
 11 F       -1.9690    -4.2560    -0.0670 F     1 <1>  -0.1900 
 12 C        5.1040    -0.8880     0.1930 C.3   1 <1>   0.1400 
 13 C        4.0100    -2.8210    -1.0000 C.3   1 <1>   0.1400 
 14 C        6.1810    -1.5760     1.0260 C.3   1 <1>  -0.2400 
 15 C        4.1640    -4.2040    -0.3680 C.3   1 <1>  -0.2400 
 16 H       -1.0190    -2.4980    -1.6940 H     1 <1>   0.1500 
 17 H        1.6330    -3.3600     2.3860 H     1 <1>   0.1500 
 18 H       -0.4900    -4.5860     1.9950 H     1 <1>   0.1500 
 19 H        4.8210     0.0350     0.6730 H     1 <1>   0.0800 
 20 H        5.4870    -0.6390    -0.7810 H     1 <1>   0.0800 
 21 H        4.8590    -2.6220    -1.6310 H     1 <1>   0.0800 
 22 H        3.1330    -2.7970    -1.6230 H     1 <1>   0.0800 
 23 H        5.7780    -1.8600     1.9820 H     1 <1>   0.0800 
 24 H        6.9980    -0.8970     1.1890 H     1 <1>   0.0800 
 25 H        6.5580    -2.4440     0.5190 H     1 <1>   0.0800 
 26 H        5.0330    -4.2360     0.2620 H     1 <1>   0.0800 
 27 H        4.2780    -4.9410    -1.1420 H     1 <1>   0.0800 
 28 H        3.2980    -4.4580     0.2130 H     1 <1>   0.0800 
@<TRIPOS>BOND
  1   1   2  1   
  2   2   3  ar  
  3   2   4  ar  
  4   3   5  1   
  5   3   6  ar  
  6   4   7  ar  
  7   4  16  1   
  8   5   8  2   
  9   5   9  am  
 10   6  10  ar  
 11   6  17  1   
 12   7  10  ar  
 13   7  11  1   
 14   9  12  1   
 15   9  13  1   
 16  10  18  1   
 17  12  14  1   
 18  12  19  1   
 19  12  20  1   
 20  13  15  1   
 21  13  21  1   
 22  13  22  1   
 23  14  23  1   
 24  14  24  1   
 25  14  25  1   
 26  15  26  1   
 27  15  27  1   
 28  15  28  1   
@<TRIPOS>SUBSTRUCTURE
  1 ****   3 GROUP 4 **** **** 0

# MOE 2024.06 (io_trps.svl 2023.06)
