@<TRIPOS>MOLECULE
NONAME
51 54 1 0 0 
SMALL
USER_CHARGES


@<TRIPOS>ATOM
  1 O       -0.8410     0.4240    -0.8240 O.3   1 <1>  -0.3630 
  2 C       -1.9110    -0.2340    -0.3390 C.ar  1 <1>   0.0820 
  3 C       -0.8860     0.3130    -2.2440 C.3   1 <1>   0.4000 
  4 C       -2.3310    -0.4410     0.9750 C.ar  1 <1>   0.0820 
  5 C       -2.6350    -0.7390    -1.3810 C.ar  1 <1>   0.0820 
  6 O       -2.0640    -0.4270    -2.5480 O.3   1 <1>  -0.3630 
  7 O       -1.7070     0.0090     2.0960 O.3   1 <1>  -0.3630 
  8 C       -3.4970    -1.1710     1.1750 C.ar  1 <1>  -0.1500 
  9 C       -3.7960    -1.4630    -1.1960 C.ar  1 <1>  -0.1500 
 10 C       -0.4720     0.6870     2.0180 C.3   1 <1>   0.0400 
 11 C       -4.2350    -1.6760     0.1060 C.ar  1 <1>  -0.1430 
 12 C       -5.5140    -2.4460     0.3650 C.3   1 <1>   0.4870 
 13 N       -6.6650    -1.5530     0.0740 N.4   1 <1>  -0.9590 
 14 C       -6.7060    -0.3630     1.0050 C.3   1 <1>   0.3430 
 15 C       -7.9770    -2.2960     0.0990 C.3   1 <1>   0.3430 
 16 C       -7.9010     0.5680     0.7200 C.3   1 <1>   0.2090 
 17 C       -9.1790    -1.3780    -0.1990 C.3   1 <1>   0.2090 
 18 N       -9.1850    -0.1940     0.7100 N.pl3 1 <1>  -0.8380 
 19 C      -10.3310     0.6080     0.6070 C.ar  1 <1>   0.1000 
 20 C      -10.6650     1.3600    -0.5360 C.ar  1 <1>   0.0820 
 21 C      -11.1760     0.6520     1.7060 C.ar  1 <1>  -0.1500 
 22 O       -9.8230     1.3100    -1.6170 O.3   1 <1>  -0.3620 
 23 C      -11.8280     2.1250    -0.5380 C.ar  1 <1>  -0.1500 
 24 C      -12.3290     1.4160     1.6950 C.ar  1 <1>  -0.1500 
 25 C      -10.0890     2.0610    -2.7840 C.3   1 <1>   0.0400 
 26 C      -12.6550     2.1520     0.5730 C.ar  1 <1>  -0.1500 
 27 H       -0.0210    -0.2250    -2.5920 H     1 <1>   0.0800 
 28 H       -0.9490     1.2930    -2.6820 H     1 <1>   0.0800 
 29 H       -3.8100    -1.3340     2.1920 H     1 <1>   0.1500 
 30 H       -4.3170    -1.8400    -2.0580 H     1 <1>   0.1500 
 31 H       -0.1470     0.9110     3.0180 H     1 <1>   0.0800 
 32 H       -0.6080     1.5990     1.4650 H     1 <1>   0.0800 
 33 H        0.2470     0.0500     1.5340 H     1 <1>   0.0800 
 34 H       -5.5460    -2.7760     1.3910 H     1 <1>   0.0800 
 35 H       -5.5430    -3.3120    -0.2750 H     1 <1>   0.0800 
 36 H       -6.5290    -1.1750    -0.8720 H     1 <1>   0.4500 
 37 H       -5.7950     0.2060     0.9170 H     1 <1>   0.0800 
 38 H       -6.7850    -0.7030     2.0240 H     1 <1>   0.0800 
 39 H       -8.1270    -2.7310     1.0740 H     1 <1>   0.0800 
 40 H       -7.9620    -3.0960    -0.6230 H     1 <1>   0.0800 
 41 H       -7.7560     1.0600    -0.2260 H     1 <1>   0.0800 
 42 H       -7.9500     1.3290     1.4800 H     1 <1>   0.0800 
 43 H      -10.0930    -1.9290    -0.0620 H     1 <1>   0.0800 
 44 H       -9.1410    -1.0550    -1.2240 H     1 <1>   0.0800 
 45 H      -10.9230     0.0800     2.5790 H     1 <1>   0.1500 
 46 H      -12.1170     2.7110    -1.3890 H     1 <1>   0.1500 
 47 H      -12.9710     1.4360     2.5590 H     1 <1>   0.1500 
 48 H       -9.3000     1.8770    -3.4900 H     1 <1>   0.0800 
 49 H      -10.1140     3.1060    -2.5300 H     1 <1>   0.0800 
 50 H      -11.0290     1.7430    -3.1990 H     1 <1>   0.0800 
 51 H      -13.5520     2.7470     0.5620 H     1 <1>   0.1500 
@<TRIPOS>BOND
  1   1   2  1   
  2   1   3  1   
  3   2   4  ar  
  4   2   5  ar  
  5   3   6  1   
  6   3  27  1   
  7   3  28  1   
  8   4   7  1   
  9   4   8  ar  
 10   5   6  1   
 11   5   9  ar  
 12   7  10  1   
 13   8  11  ar  
 14   8  29  1   
 15   9  11  ar  
 16   9  30  1   
 17  10  31  1   
 18  10  32  1   
 19  10  33  1   
 20  11  12  1   
 21  12  13  1   
 22  12  34  1   
 23  12  35  1   
 24  13  14  1   
 25  13  15  1   
 26  13  36  1   
 27  14  16  1   
 28  14  37  1   
 29  14  38  1   
 30  15  17  1   
 31  15  39  1   
 32  15  40  1   
 33  16  18  1   
 34  16  41  1   
 35  16  42  1   
 36  17  18  1   
 37  17  43  1   
 38  17  44  1   
 39  18  19  1   
 40  19  20  ar  
 41  19  21  ar  
 42  20  22  1   
 43  20  23  ar  
 44  21  24  ar  
 45  21  45  1   
 46  22  25  1   
 47  23  26  ar  
 48  23  46  1   
 49  24  26  ar  
 50  24  47  1   
 51  25  48  1   
 52  25  49  1   
 53  25  50  1   
 54  26  51  1   
@<TRIPOS>SUBSTRUCTURE
  1 ****  14 GROUP 4 **** **** 0

# MOE 2024.06 (io_trps.svl 2023.06)
