@<TRIPOS>MOLECULE
NONAME
52 54 1 0 0 
SMALL
USER_CHARGES


@<TRIPOS>ATOM
  1 S       -0.0010     0.1570    -0.1840 S.o2  1 <1>   1.4470 
  2 O       -0.5040    -0.7830     0.7910 O.2   1 <1>  -0.6500 
  3 O       -0.4430     0.0720    -1.5560 O.2   1 <1>  -0.6500 
  4 N       -0.4930     1.6790     0.3010 N.am  1 <1>  -0.9140 
  5 C        1.8080     0.2420    -0.1070 C.ar  1 <1>  -0.0090 
  6 C       -1.9080     1.7310     0.5400 C.3   1 <1>   0.4190 
  7 C        2.5960    -0.1250    -1.1920 C.ar  1 <1>  -0.1500 
  8 C        2.4590     0.6670     1.0450 C.ar  1 <1>  -0.1500 
  9 C       -2.4320     2.9880    -0.1440 C.ar  1 <1>  -0.1440 
 10 C       -2.1550     1.7610     2.0450 C.3   1 <1>  -0.2400 
 11 C        3.9770    -0.0650    -1.1320 C.ar  1 <1>  -0.1500 
 12 C        3.8400     0.7290     1.1100 C.ar  1 <1>  -0.1500 
 13 C       -3.3950     2.8800    -1.1390 C.ar  1 <1>  -0.1500 
 14 C       -1.9580     4.2490     0.1970 C.ar  1 <1>  -0.1500 
 15 C        4.6220     0.3660     0.0190 C.ar  1 <1>   0.1170 
 16 C       -3.8780     4.0100    -1.7760 C.ar  1 <1>  -0.1500 
 17 C       -2.4410     5.3790    -0.4390 C.ar  1 <1>  -0.1500 
 18 N        6.0210     0.4010     0.0450 N.am  1 <1>  -0.5470 
 19 C       -3.4020     5.2600    -1.4260 C.ar  1 <1>  -0.1500 
 20 C        6.8880     1.1620     0.7770 C.2   1 <1>   0.6900 
 21 O        6.4850     2.0800     1.4650 O.2   1 <1>  -0.5700 
 22 N        8.2300     0.8910     0.6940 N.am  1 <1>  -0.6600 
 23 C        8.8020    -0.4400     0.3500 C.3   1 <1>   0.1400 
 24 C        9.2410     1.8890     1.1400 C.3   1 <1>   0.1400 
 25 C        9.8410    -0.2770    -0.7650 C.3   1 <1>  -0.1600 
 26 C       10.3000     2.0710     0.0460 C.3   1 <1>  -0.1600 
 27 C       10.9290     0.7330    -0.3710 C.3   1 <1>  -0.1600 
 28 H       -0.3800     2.2410    -0.5400 H     1 <1>   0.4200 
 29 H       -2.4080     0.8730     0.1160 H     1 <1>   0.0800 
 30 H        2.1200    -0.4620    -2.0990 H     1 <1>   0.1500 
 31 H        1.8760     0.9540     1.9050 H     1 <1>   0.1500 
 32 H       -1.6290     2.5770     2.5040 H     1 <1>   0.0800 
 33 H       -1.8340     0.8380     2.4900 H     1 <1>   0.0800 
 34 H       -3.2070     1.8800     2.2330 H     1 <1>   0.0800 
 35 H        4.5570    -0.3520    -1.9900 H     1 <1>   0.1500 
 36 H        4.3120     1.0600     2.0180 H     1 <1>   0.1500 
 37 H       -3.7740     1.9150    -1.4270 H     1 <1>   0.1500 
 38 H       -1.2070     4.3550     0.9610 H     1 <1>   0.1500 
 39 H       -4.6250     3.9150    -2.5450 H     1 <1>   0.1500 
 40 H       -2.0680     6.3510    -0.1660 H     1 <1>   0.1500 
 41 H        6.4950    -0.1170    -0.6850 H     1 <1>   0.3700 
 42 H       -3.7780     6.1390    -1.9210 H     1 <1>   0.1500 
 43 H        8.0350    -1.1280     0.0430 H     1 <1>   0.0800 
 44 H        9.2760    -0.8480     1.2270 H     1 <1>   0.0800 
 45 H        9.7010     1.5390     2.0480 H     1 <1>   0.0800 
 46 H        8.7720     2.8370     1.3450 H     1 <1>   0.0800 
 47 H        9.3460     0.0550    -1.6610 H     1 <1>   0.0800 
 48 H       10.2930    -1.2300    -0.9720 H     1 <1>   0.0800 
 49 H       11.0660     2.7360     0.4030 H     1 <1>   0.0800 
 50 H        9.8350     2.5350    -0.8060 H     1 <1>   0.0800 
 51 H       11.6000     0.8880    -1.1980 H     1 <1>   0.0800 
 52 H       11.5010     0.3380     0.4520 H     1 <1>   0.0800 
@<TRIPOS>BOND
  1   1   2  2   
  2   1   3  2   
  3   1   4  am  
  4   1   5  1   
  5   4   6  1   
  6   4  28  1   
  7   5   7  ar  
  8   5   8  ar  
  9   6   9  1   
 10   6  10  1   
 11   6  29  1   
 12   7  11  ar  
 13   7  30  1   
 14   8  12  ar  
 15   8  31  1   
 16   9  13  ar  
 17   9  14  ar  
 18  10  32  1   
 19  10  33  1   
 20  10  34  1   
 21  11  15  ar  
 22  11  35  1   
 23  12  15  ar  
 24  12  36  1   
 25  13  16  ar  
 26  13  37  1   
 27  14  17  ar  
 28  14  38  1   
 29  15  18  1   
 30  16  19  ar  
 31  16  39  1   
 32  17  19  ar  
 33  17  40  1   
 34  18  20  am  
 35  18  41  1   
 36  19  42  1   
 37  20  21  2   
 38  20  22  am  
 39  22  23  1   
 40  22  24  1   
 41  23  25  1   
 42  23  43  1   
 43  23  44  1   
 44  24  26  1   
 45  24  45  1   
 46  24  46  1   
 47  25  27  1   
 48  25  47  1   
 49  25  48  1   
 50  26  27  1   
 51  26  49  1   
 52  26  50  1   
 53  27  51  1   
 54  27  52  1   
@<TRIPOS>SUBSTRUCTURE
  1 ****   8 GROUP 4 **** **** 0

# MOE 2024.06 (io_trps.svl 2023.06)
