@<TRIPOS>MOLECULE
NONAME
50 52 1 0 0 
SMALL
USER_CHARGES


@<TRIPOS>ATOM
  1 S        0.0230     0.3430     0.1210 S.o2  1 <1>   1.4470 
  2 O       -0.2360     0.7900     1.4680 O.2   1 <1>  -0.6500 
  3 O       -0.1380     1.2290    -1.0090 O.2   1 <1>  -0.6500 
  4 N        1.6650    -0.1810     0.1270 N.am  1 <1>  -0.7570 
  5 C       -0.8250    -1.2250    -0.2010 C.ar  1 <1>  -0.0090 
  6 C        2.8030     0.6080     0.2560 C.ar  1 <1>   0.1990 
  7 C       -1.0940    -1.6440    -1.4990 C.ar  1 <1>  -0.1500 
  8 C       -1.1950    -2.0680     0.8410 C.ar  1 <1>  -0.1500 
  9 C        3.9900     0.0460     0.7680 C.ar  1 <1>   0.0860 
 10 C        2.7990     1.9530    -0.1120 C.ar  1 <1>  -0.1500 
 11 C       -1.7130    -2.8570    -1.7490 C.ar  1 <1>  -0.1500 
 12 C       -1.8140    -3.2820     0.5980 C.ar  1 <1>  -0.1500 
 13 C        4.0860    -1.3600     1.1210 C.2   1 <1>   0.5440 
 14 C        5.1040     0.8750     0.9270 C.ar  1 <1>  -0.1500 
 15 C        3.9180     2.7450     0.0380 C.ar  1 <1>  -0.1500 
 16 C       -2.0780    -3.6820    -0.7000 C.ar  1 <1>  -0.1430 
 17 O        3.1410    -1.9590     1.6040 O.2   1 <1>  -0.5700 
 18 N        5.2340    -2.0900     0.8900 N.am  1 <1>  -0.6600 
 19 C        5.0760     2.2060     0.5670 C.ar  1 <1>  -0.1500 
 20 C       -2.7620    -5.0120    -0.9660 C.3   1 <1>  -0.0970 
 21 C        5.5000    -3.3400     1.6660 C.3   1 <1>   0.1400 
 22 C        5.9500    -2.0190    -0.4180 C.3   1 <1>   0.1400 
 23 C        5.1820    -4.5780     0.8090 C.3   1 <1>   0.3430 
 24 C        5.6680    -3.2830    -1.2610 C.3   1 <1>   0.3430 
 25 N        5.9320    -4.5610    -0.5010 N.4   1 <1>  -0.9590 
 26 C        5.5780    -5.7560    -1.3280 C.3   1 <1>   0.2630 
 27 H        1.7220    -1.0120     0.7240 H     1 <1>   0.4200 
 28 H       -0.8170    -1.0120    -2.3260 H     1 <1>   0.1500 
 29 H       -1.0000    -1.7710     1.8590 H     1 <1>   0.1500 
 30 H        1.9150     2.4030    -0.5220 H     1 <1>   0.1500 
 31 H       -1.9100    -3.1530    -2.7650 H     1 <1>   0.1500 
 32 H       -2.0910    -3.9120     1.4250 H     1 <1>   0.1500 
 33 H        6.0080     0.4710     1.3480 H     1 <1>   0.1500 
 34 H        3.8880     3.7830    -0.2500 H     1 <1>   0.1500 
 35 H        5.9460     2.8290     0.6970 H     1 <1>   0.1500 
 36 H       -3.2750    -4.9910    -1.9110 H     1 <1>   0.0800 
 37 H       -3.4820    -5.2230    -0.1960 H     1 <1>   0.0800 
 38 H       -2.0320    -5.8010    -0.9850 H     1 <1>   0.0800 
 39 H        4.8960    -3.3590     2.5580 H     1 <1>   0.0800 
 40 H        6.5310    -3.3590     1.9740 H     1 <1>   0.0800 
 41 H        7.0070    -1.9220    -0.2430 H     1 <1>   0.0800 
 42 H        5.6300    -1.1530    -0.9730 H     1 <1>   0.0800 
 43 H        4.1200    -4.5920     0.6220 H     1 <1>   0.0800 
 44 H        5.4310    -5.4670     1.3660 H     1 <1>   0.0800 
 45 H        6.2730    -3.2550    -2.1520 H     1 <1>   0.0800 
 46 H        4.6350    -3.2570    -1.5660 H     1 <1>   0.0800 
 47 H        6.9390    -4.5990    -0.2840 H     1 <1>   0.4500 
 48 H        4.5280    -5.7450    -1.5700 H     1 <1>   0.0800 
 49 H        5.7980    -6.6630    -0.7890 H     1 <1>   0.0800 
 50 H        6.1440    -5.7580    -2.2460 H     1 <1>   0.0800 
@<TRIPOS>BOND
  1   1   2  2   
  2   1   3  2   
  3   1   4  am  
  4   1   5  1   
  5   4   6  1   
  6   4  27  1   
  7   5   7  ar  
  8   5   8  ar  
  9   6   9  ar  
 10   6  10  ar  
 11   7  11  ar  
 12   7  28  1   
 13   8  12  ar  
 14   8  29  1   
 15   9  13  1   
 16   9  14  ar  
 17  10  15  ar  
 18  10  30  1   
 19  11  16  ar  
 20  11  31  1   
 21  12  16  ar  
 22  12  32  1   
 23  13  17  2   
 24  13  18  am  
 25  14  19  ar  
 26  14  33  1   
 27  15  19  ar  
 28  15  34  1   
 29  16  20  1   
 30  18  21  1   
 31  18  22  1   
 32  19  35  1   
 33  20  36  1   
 34  20  37  1   
 35  20  38  1   
 36  21  23  1   
 37  21  39  1   
 38  21  40  1   
 39  22  24  1   
 40  22  41  1   
 41  22  42  1   
 42  23  25  1   
 43  23  43  1   
 44  23  44  1   
 45  24  25  1   
 46  24  45  1   
 47  24  46  1   
 48  25  26  1   
 49  25  47  1   
 50  26  48  1   
 51  26  49  1   
 52  26  50  1   
@<TRIPOS>SUBSTRUCTURE
  1 ****   4 GROUP 4 **** **** 0

# MOE 2024.06 (io_trps.svl 2023.06)
