@<TRIPOS>MOLECULE
NONAME
50 52 1 0 0 
SMALL
USER_CHARGES


@<TRIPOS>ATOM
  1 O       -1.0220     1.3450    -0.7700 O.2   1 <1>  -0.5700 
  2 C       -0.4920     2.4140    -0.5340 C.2   1 <1>   0.7150 
  3 N       -1.3570     3.4400    -0.2900 N.am  1 <1>  -0.7300 
  4 C        0.9560     2.5130    -0.5150 C.2   1 <1>   0.0550 
  5 C       -1.0920     4.8810    -0.1460 C.3   1 <1>   0.2200 
  6 O        1.6030     3.6350    -0.2110 O.3   1 <1>  -0.2800 
  7 C        1.8860     1.5500    -0.7680 C.2   1 <1>  -0.1500 
  8 C       -0.8320     5.1800     1.3380 C.3   1 <1>  -0.1600 
  9 C       -2.2900     5.6290    -0.7410 C.3   1 <1>  -0.1600 
 10 C        2.8980     3.4210    -0.2630 C.2   1 <1>  -0.0400 
 11 C        3.1410     2.1370    -0.6050 C.2   1 <1>  -0.1500 
 12 C       -0.1710     6.5510     1.5400 C.3   1 <1>  -0.1600 
 13 C       -2.2100     7.1610    -0.6390 C.3   1 <1>  -0.1600 
 14 C        3.8570     4.5580     0.0490 C.3   1 <1>   0.3000 
 15 C       -1.1420     7.7380     1.6470 C.3   1 <1>  -0.1600 
 16 C       -2.4180     7.6720     0.7930 C.3   1 <1>  -0.1600 
 17 O        3.9830     5.3940    -1.0820 O.3   1 <1>  -0.3630 
 18 C        3.1080     6.4220    -1.1970 C.ar  1 <1>   0.0820 
 19 C        3.1550     7.5310    -0.3470 C.ar  1 <1>   0.0820 
 20 C        2.1760     6.3600    -2.2180 C.ar  1 <1>  -0.1500 
 21 O        4.0940     7.5530     0.6440 O.3   1 <1>  -0.3620 
 22 C        2.2480     8.5700    -0.5470 C.ar  1 <1>  -0.1500 
 23 C        1.2800     7.3980    -2.4070 C.ar  1 <1>  -0.1500 
 24 C        4.2960     8.7000     1.4380 C.3   1 <1>   0.0400 
 25 C        1.3190     8.5010    -1.5720 C.ar  1 <1>  -0.1500 
 26 H       -2.3390     3.1720    -0.2820 H     1 <1>   0.3700 
 27 H       -0.2170     5.1360    -0.7210 H     1 <1>   0.0800 
 28 H        1.6990     0.5270    -1.0420 H     1 <1>   0.1500 
 29 H       -0.1460     4.4400     1.7110 H     1 <1>   0.0800 
 30 H       -1.7380     5.1030     1.9120 H     1 <1>   0.0800 
 31 H       -3.1950     5.2940    -0.2670 H     1 <1>   0.0800 
 32 H       -2.3510     5.3720    -1.7840 H     1 <1>   0.0800 
 33 H        4.0870     1.6430    -0.7340 H     1 <1>   0.1500 
 34 H        0.5200     6.7260     0.7330 H     1 <1>   0.0800 
 35 H        0.4170     6.5220     2.4410 H     1 <1>   0.0800 
 36 H       -2.9970     7.5680    -1.2520 H     1 <1>   0.0800 
 37 H       -1.2790     7.5200    -1.0370 H     1 <1>   0.0800 
 38 H        4.8350     4.1670     0.2640 H     1 <1>   0.0800 
 39 H        3.5110     5.1280     0.8920 H     1 <1>   0.0800 
 40 H       -0.5990     8.6310     1.3900 H     1 <1>   0.0800 
 41 H       -1.4420     7.8420     2.6750 H     1 <1>   0.0800 
 42 H       -3.1520     7.0620     1.2900 H     1 <1>   0.0800 
 43 H       -2.8280     8.6670     0.7450 H     1 <1>   0.0800 
 44 H        2.1590     5.4980    -2.8600 H     1 <1>   0.1500 
 45 H        2.2470     9.4400     0.0810 H     1 <1>   0.1500 
 46 H        0.5570     7.3450    -3.2020 H     1 <1>   0.1500 
 47 H        3.4060     8.8920     2.0100 H     1 <1>   0.0800 
 48 H        4.5330     9.5310     0.7970 H     1 <1>   0.0800 
 49 H        5.1200     8.5050     2.1010 H     1 <1>   0.0800 
 50 H        0.6230     9.3090    -1.7210 H     1 <1>   0.1500 
@<TRIPOS>BOND
  1   1   2  2   
  2   2   3  am  
  3   2   4  1   
  4   3   5  1   
  5   3  26  1   
  6   4   6  1   
  7   4   7  2   
  8   5   8  1   
  9   5   9  1   
 10   5  27  1   
 11   6  10  1   
 12   7  11  1   
 13   7  28  1   
 14   8  12  1   
 15   8  29  1   
 16   8  30  1   
 17   9  13  1   
 18   9  31  1   
 19   9  32  1   
 20  10  11  2   
 21  10  14  1   
 22  11  33  1   
 23  12  15  1   
 24  12  34  1   
 25  12  35  1   
 26  13  16  1   
 27  13  36  1   
 28  13  37  1   
 29  14  17  1   
 30  14  38  1   
 31  14  39  1   
 32  15  16  1   
 33  15  40  1   
 34  15  41  1   
 35  16  42  1   
 36  16  43  1   
 37  17  18  1   
 38  18  19  ar  
 39  18  20  ar  
 40  19  21  1   
 41  19  22  ar  
 42  20  23  ar  
 43  20  44  1   
 44  21  24  1   
 45  22  25  ar  
 46  22  45  1   
 47  23  25  ar  
 48  23  46  1   
 49  24  47  1   
 50  24  48  1   
 51  24  49  1   
 52  25  50  1   
@<TRIPOS>SUBSTRUCTURE
  1 ****   6 GROUP 4 **** **** 0

# MOE 2024.06 (io_trps.svl 2023.06)
