@<TRIPOS>MOLECULE
NONAME
35 37 1 0 0 
SMALL
USER_CHARGES


@<TRIPOS>ATOM
  1 S       -0.0720    -0.0720     0.0590 S.3   1 <1>  -0.9530 
  2 C       -0.0620    -1.7310     0.0260 C.ar  1 <1>   0.5730 
  3 N        1.1100    -2.3100    -0.0350 N.ar  1 <1>  -0.6200 
  4 N       -1.2260    -2.3270     0.0640 N.ar  1 <1>  -0.6200 
  5 C        1.0500    -3.6130    -0.0630 C.ar  1 <1>   0.7200 
  6 C       -1.1500    -3.6290     0.0400 C.ar  1 <1>   0.7200 
  7 N       -0.0460    -4.3360    -0.0250 N.ar  1 <1>  -0.6200 
  8 N        2.2490    -4.3040    -0.1380 N.pl3 1 <1>  -0.8380 
  9 N       -2.3410    -4.3370     0.0870 N.pl3 1 <1>  -0.8380 
 10 C        2.3180    -5.6440    -0.7900 C.3   1 <1>   0.2090 
 11 C        3.5400    -3.5530    -0.1980 C.3   1 <1>   0.2090 
 12 C       -3.6410    -3.6040     0.1770 C.3   1 <1>   0.2090 
 13 C       -2.3930    -5.7020     0.6860 C.3   1 <1>   0.2090 
 14 C        3.5730    -6.4120    -0.3420 C.3   1 <1>   0.1200 
 15 C        4.7270    -4.4490     0.1980 C.3   1 <1>   0.1200 
 16 C       -4.8170    -4.4980    -0.2540 C.3   1 <1>   0.1200 
 17 C       -3.6390    -6.4670     0.2070 C.3   1 <1>   0.1200 
 18 O        4.7320    -5.6480    -0.5290 O.3   1 <1>  -0.5600 
 19 O       -4.8070    -5.7260     0.4250 O.3   1 <1>  -0.5600 
 20 H        2.3390    -5.5140    -1.8580 H     1 <1>   0.0800 
 21 H        1.4500    -6.2290    -0.5420 H     1 <1>   0.0800 
 22 H        3.5080    -2.7100     0.4720 H     1 <1>   0.0800 
 23 H        3.6850    -3.1770    -1.1950 H     1 <1>   0.0800 
 24 H       -3.6200    -2.7350    -0.4580 H     1 <1>   0.0800 
 25 H       -3.7900    -3.2700     1.1890 H     1 <1>   0.0800 
 26 H       -2.4150    -5.6150     1.7580 H     1 <1>   0.0800 
 27 H       -1.5180    -6.2660     0.4150 H     1 <1>   0.0800 
 28 H        3.6770    -7.3150    -0.9160 H     1 <1>   0.0800 
 29 H        3.4960    -6.6710     0.7000 H     1 <1>   0.0800 
 30 H        4.6780    -4.6830     1.2460 H     1 <1>   0.0800 
 31 H        5.6520    -3.9390     0.0000 H     1 <1>   0.0800 
 32 H       -4.7650    -4.6900    -1.3110 H     1 <1>   0.0800 
 33 H       -5.7490    -4.0080    -0.0360 H     1 <1>   0.0800 
 34 H       -3.7320    -7.3930     0.7460 H     1 <1>   0.0800 
 35 H       -3.5590    -6.6830    -0.8440 H     1 <1>   0.0800 
@<TRIPOS>BOND
  1   1   2  1   
  2   2   3  ar  
  3   2   4  ar  
  4   3   5  ar  
  5   4   6  ar  
  6   5   7  ar  
  7   5   8  1   
  8   6   7  ar  
  9   6   9  1   
 10   8  10  1   
 11   8  11  1   
 12   9  12  1   
 13   9  13  1   
 14  10  14  1   
 15  10  20  1   
 16  10  21  1   
 17  11  15  1   
 18  11  22  1   
 19  11  23  1   
 20  12  16  1   
 21  12  24  1   
 22  12  25  1   
 23  13  17  1   
 24  13  26  1   
 25  13  27  1   
 26  14  18  1   
 27  14  28  1   
 28  14  29  1   
 29  15  18  1   
 30  15  30  1   
 31  15  31  1   
 32  16  19  1   
 33  16  32  1   
 34  16  33  1   
 35  17  19  1   
 36  17  34  1   
 37  17  35  1   
@<TRIPOS>SUBSTRUCTURE
  1 ****   7 GROUP 4 **** **** 0

# MOE 2024.06 (io_trps.svl 2023.06)
