@<TRIPOS>MOLECULE
NONAME
33 34 1 0 0 
SMALL
USER_CHARGES


@<TRIPOS>ATOM
  1 CL       0.3470    -0.6900    -0.9690 Cl    1 <1>  -0.1770 
  2 C       -0.8390     0.5010    -0.4630 C.ar  1 <1>   0.1770 
  3 C       -0.5110     1.7640     0.0620 C.ar  1 <1>   0.0830 
  4 C       -2.1610     0.1130    -0.6110 C.ar  1 <1>  -0.1500 
  5 O        0.7330     2.2870     0.2640 O.3   1 <1>  -0.3630 
  6 C       -1.5490     2.6100     0.4280 C.ar  1 <1>  -0.1500 
  7 C       -3.1830     0.9700    -0.2410 C.ar  1 <1>  -0.1500 
  8 C        1.9290     1.6360    -0.0820 C.3   1 <1>   0.1200 
  9 C       -2.8630     2.2100     0.2760 C.ar  1 <1>   0.1770 
 10 C        3.0930     2.5680     0.2670 C.3   1 <1>   0.3430 
 11 CL      -4.1460     3.2950     0.7450 Cl    1 <1>  -0.1770 
 12 N        4.4240     2.0080    -0.1430 N.4   1 <1>  -0.9590 
 13 C        4.7790     0.7450     0.6030 C.3   1 <1>   0.3430 
 14 C        5.5080     3.0370     0.0450 C.3   1 <1>   0.3430 
 15 C        6.2060     0.2700     0.2680 C.3   1 <1>   0.1200 
 16 C        6.9020     2.4580    -0.2650 C.3   1 <1>   0.1200 
 17 O        7.1220     1.3020     0.4880 O.3   1 <1>  -0.5600 
 18 H       -2.3900    -0.8580    -1.0150 H     1 <1>   0.1500 
 19 H       -1.3380     3.5820     0.8340 H     1 <1>   0.1500 
 20 H       -4.2150     0.6840    -0.3490 H     1 <1>   0.1500 
 21 H        1.9070     1.4390    -1.1390 H     1 <1>   0.0800 
 22 H        1.9860     0.7270     0.4890 H     1 <1>   0.0800 
 23 H        3.0880     2.7490     1.3300 H     1 <1>   0.0800 
 24 H        2.9310     3.5080    -0.2370 H     1 <1>   0.0800 
 25 H        4.3940     1.7810    -1.1470 H     1 <1>   0.4500 
 26 H        4.0810    -0.0390     0.3600 H     1 <1>   0.0800 
 27 H        4.7230     0.9210     1.6650 H     1 <1>   0.0800 
 28 H        5.5080     3.3840     1.0660 H     1 <1>   0.0800 
 29 H        5.3270     3.8870    -0.5930 H     1 <1>   0.0800 
 30 H        6.2820    -0.0520    -0.7560 H     1 <1>   0.0800 
 31 H        6.4820    -0.5520     0.9060 H     1 <1>   0.0800 
 32 H        7.6660     3.1700    -0.0010 H     1 <1>   0.0800 
 33 H        7.0040     2.2190    -1.3100 H     1 <1>   0.0800 
@<TRIPOS>BOND
  1   1   2  1   
  2   2   3  ar  
  3   2   4  ar  
  4   3   5  1   
  5   3   6  ar  
  6   4   7  ar  
  7   4  18  1   
  8   5   8  1   
  9   6   9  ar  
 10   6  19  1   
 11   7   9  ar  
 12   7  20  1   
 13   8  10  1   
 14   8  21  1   
 15   8  22  1   
 16   9  11  1   
 17  10  12  1   
 18  10  23  1   
 19  10  24  1   
 20  12  13  1   
 21  12  14  1   
 22  12  25  1   
 23  13  15  1   
 24  13  26  1   
 25  13  27  1   
 26  14  16  1   
 27  14  28  1   
 28  14  29  1   
 29  15  17  1   
 30  15  30  1   
 31  15  31  1   
 32  16  17  1   
 33  16  32  1   
 34  16  33  1   
@<TRIPOS>SUBSTRUCTURE
  1 ****   8 GROUP 4 **** **** 0

# MOE 2024.06 (io_trps.svl 2023.06)
