@<TRIPOS>MOLECULE
NONAME
47 49 1 0 0 
SMALL
USER_CHARGES


@<TRIPOS>ATOM
  1 F       -0.1730    -2.3450     1.6850 F     1 <1>  -0.1900 
  2 C       -1.1060    -2.0430     0.8110 C.ar  1 <1>   0.1900 
  3 C       -0.9800    -2.4840    -0.5120 C.ar  1 <1>   0.1000 
  4 C       -2.1780    -1.2940     1.2540 C.ar  1 <1>  -0.1500 
  5 N        0.0910    -3.2450    -1.0020 N.pl3 1 <1>  -0.8380 
  6 C       -1.9980    -2.1330    -1.3880 C.ar  1 <1>  -0.1500 
  7 C       -3.1770    -0.9620     0.3540 C.ar  1 <1>  -0.1500 
  8 C        1.4020    -2.5490    -1.1850 C.3   1 <1>   0.2090 
  9 C        0.1580    -4.6810    -0.5920 C.3   1 <1>   0.2090 
 10 C       -3.0830    -1.3820    -0.9640 C.ar  1 <1>  -0.1500 
 11 C        2.3840    -2.8330    -0.0280 C.3   1 <1>   0.3430 
 12 C        1.1660    -4.9170     0.5550 C.3   1 <1>   0.3430 
 13 N        2.5160    -4.3050     0.2840 N.4   1 <1>  -0.9590 
 14 C        3.4560    -4.5370     1.4130 C.3   1 <1>   0.4860 
 15 C        4.8360    -4.0620     1.0010 C.ar  1 <1>  -0.1430 
 16 C        5.3320    -2.8610     1.4870 C.ar  1 <1>  -0.1500 
 17 C        5.6120    -4.8190     0.1330 C.ar  1 <1>  -0.1500 
 18 C        6.5830    -2.4180     1.0980 C.ar  1 <1>  -0.1500 
 19 C        6.8650    -4.3750    -0.2550 C.ar  1 <1>  -0.1500 
 20 C        7.3560    -3.1660     0.2270 C.ar  1 <1>   0.0830 
 21 O        8.5680    -2.6560    -0.1010 O.3   1 <1>  -0.3620 
 22 C        9.4810    -3.3710    -0.9010 C.3   1 <1>   0.1200 
 23 C       10.7490    -2.5340    -1.0320 C.3   1 <1>  -0.2400 
 24 H       -2.2340    -0.9770     2.2800 H     1 <1>   0.1500 
 25 H       -1.9350    -2.4540    -2.4130 H     1 <1>   0.1500 
 26 H       -4.0240    -0.3780     0.6760 H     1 <1>   0.1500 
 27 H        1.2350    -1.4860    -1.2530 H     1 <1>   0.0800 
 28 H        1.8390    -2.8650    -2.1160 H     1 <1>   0.0800 
 29 H        0.4340    -5.2750    -1.4450 H     1 <1>   0.0800 
 30 H       -0.8190    -5.0070    -0.2760 H     1 <1>   0.0800 
 31 H       -3.8600    -1.1230    -1.6630 H     1 <1>   0.1500 
 32 H        2.0340    -2.3090     0.8450 H     1 <1>   0.0800 
 33 H        3.3480    -2.4250    -0.2870 H     1 <1>   0.0800 
 34 H        1.2670    -5.9780     0.7130 H     1 <1>   0.0800 
 35 H        0.7520    -4.4910     1.4540 H     1 <1>   0.0800 
 36 H        2.9200    -4.7490    -0.5480 H     1 <1>   0.4500 
 37 H        3.4990    -5.5870     1.6530 H     1 <1>   0.0800 
 38 H        3.1280    -4.0000     2.2880 H     1 <1>   0.0800 
 39 H        4.7610    -2.2580     2.1730 H     1 <1>   0.1500 
 40 H        5.2590    -5.7620    -0.2480 H     1 <1>   0.1500 
 41 H        6.9770    -1.4880     1.4700 H     1 <1>   0.1500 
 42 H        7.4460    -4.9790    -0.9270 H     1 <1>   0.1500 
 43 H        9.0340    -3.5350    -1.8670 H     1 <1>   0.0800 
 44 H        9.6940    -4.3100    -0.4210 H     1 <1>   0.0800 
 45 H       10.5240    -1.5910    -1.4970 H     1 <1>   0.0800 
 46 H       11.4690    -3.0530    -1.6380 H     1 <1>   0.0800 
 47 H       11.1790    -2.3610    -0.0610 H     1 <1>   0.0800 
@<TRIPOS>BOND
  1   1   2  1   
  2   2   3  ar  
  3   2   4  ar  
  4   3   5  1   
  5   3   6  ar  
  6   4   7  ar  
  7   4  24  1   
  8   5   8  1   
  9   5   9  1   
 10   6  10  ar  
 11   6  25  1   
 12   7  10  ar  
 13   7  26  1   
 14   8  11  1   
 15   8  27  1   
 16   8  28  1   
 17   9  12  1   
 18   9  29  1   
 19   9  30  1   
 20  10  31  1   
 21  11  13  1   
 22  11  32  1   
 23  11  33  1   
 24  12  13  1   
 25  12  34  1   
 26  12  35  1   
 27  13  14  1   
 28  13  36  1   
 29  14  15  1   
 30  14  37  1   
 31  14  38  1   
 32  15  16  ar  
 33  15  17  ar  
 34  16  18  ar  
 35  16  39  1   
 36  17  19  ar  
 37  17  40  1   
 38  18  20  ar  
 39  18  41  1   
 40  19  20  ar  
 41  19  42  1   
 42  20  21  1   
 43  21  22  1   
 44  22  23  1   
 45  22  43  1   
 46  22  44  1   
 47  23  45  1   
 48  23  46  1   
 49  23  47  1   
@<TRIPOS>SUBSTRUCTURE
  1 ****  11 GROUP 4 **** **** 0

# MOE 2024.06 (io_trps.svl 2023.06)
