@<TRIPOS>MOLECULE
NONAME
48 51 1 0 0 
SMALL
USER_CHARGES


@<TRIPOS>ATOM
  1 CL      -0.1150     3.4950     3.3380 Cl    1 <1>  -0.1770 
  2 C       -0.2550     3.7810     1.6210 C.ar  1 <1>   0.1770 
  3 C       -1.4350     4.2810     1.1140 C.ar  1 <1>  -0.1500 
  4 C        0.8200     3.4990     0.8010 C.ar  1 <1>  -0.1500 
  5 C       -1.5610     4.5140    -0.2500 C.ar  1 <1>   0.1000 
  6 C        0.7030     3.7280    -0.5600 C.ar  1 <1>  -0.1500 
  7 N       -2.7520     5.0160    -0.7700 N.pl3 1 <1>  -0.8380 
  8 C       -0.4770     4.2320    -1.0870 C.ar  1 <1>  -0.1430 
  9 C       -3.9110     4.0850    -0.9010 C.3   1 <1>   0.2090 
 10 C       -3.1280     6.4300    -0.4630 C.3   1 <1>   0.2090 
 11 C       -0.5820     4.4770    -2.5860 C.3   1 <1>  -0.0970 
 12 C       -4.9380     4.2740     0.2310 C.3   1 <1>   0.1960 
 13 C       -4.2090     6.5350     0.6330 C.3   1 <1>   0.1960 
 14 N       -5.3790     5.6780     0.3620 N.am  1 <1>  -0.8490 
 15 S       -6.5740     5.8740     1.5460 S.o2  1 <1>   1.4470 
 16 O       -6.1610     5.0880     2.6880 O.2   1 <1>  -0.6500 
 17 O       -6.7920     7.2950     1.6980 O.2   1 <1>  -0.6500 
 18 C       -8.0340     5.1260     0.7720 C.ar  1 <1>  -0.0090 
 19 C       -8.3350     5.3830    -0.5630 C.ar  1 <1>  -0.1500 
 20 C       -8.8860     4.2850     1.4980 C.ar  1 <1>  -0.1500 
 21 C       -9.4480     4.7900    -1.1260 C.ar  1 <1>   0.0830 
 22 C      -10.0050     3.6980     0.9250 C.ar  1 <1>  -0.1500 
 23 O       -9.8990     4.8970    -2.3910 O.3   1 <1>  -0.2320 
 24 C      -10.2770     3.9600    -0.4070 C.ar  1 <1>   0.1170 
 25 C      -10.9990     4.1450    -2.4730 C.2   1 <1>   0.7800 
 26 N      -11.2700     3.5500    -1.2700 N.am  1 <1>  -0.4770 
 27 O      -11.6400     4.0310    -3.5000 O.2   1 <1>  -0.5700 
 28 C      -12.4110     2.6620    -0.9570 C.3   1 <1>   0.0600 
 29 H       -2.2500     4.4870     1.7780 H     1 <1>   0.1500 
 30 H        1.7290     3.1090     1.2210 H     1 <1>   0.1500 
 31 H        1.5370     3.5110    -1.2040 H     1 <1>   0.1500 
 32 H       -3.5560     3.0690    -0.8960 H     1 <1>   0.0800 
 33 H       -4.3920     4.2610    -1.8470 H     1 <1>   0.0800 
 34 H       -3.4970     6.8920    -1.3610 H     1 <1>   0.0800 
 35 H       -2.2520     6.9740    -0.1520 H     1 <1>   0.0800 
 36 H       -1.3760     3.8790    -2.9960 H     1 <1>   0.0800 
 37 H        0.3330     4.2270    -3.0900 H     1 <1>   0.0800 
 38 H       -0.8050     5.5130    -2.7680 H     1 <1>   0.0800 
 39 H       -4.4980     3.9370     1.1550 H     1 <1>   0.0800 
 40 H       -5.7880     3.6460     0.0260 H     1 <1>   0.0800 
 41 H       -4.5230     7.5640     0.6930 H     1 <1>   0.0800 
 42 H       -3.7760     6.2720     1.5830 H     1 <1>   0.0800 
 43 H       -7.7130     6.0310    -1.1560 H     1 <1>   0.1500 
 44 H       -8.6620     4.0890     2.5350 H     1 <1>   0.1500 
 45 H      -10.6500     3.0540     1.4950 H     1 <1>   0.1500 
 46 H      -12.0460     1.7040    -0.6330 H     1 <1>   0.0800 
 47 H      -13.0210     2.5280    -1.8340 H     1 <1>   0.0800 
 48 H      -13.0080     3.1020    -0.1770 H     1 <1>   0.0800 
@<TRIPOS>BOND
  1   1   2  1   
  2   2   3  ar  
  3   2   4  ar  
  4   3   5  ar  
  5   3  29  1   
  6   4   6  ar  
  7   4  30  1   
  8   5   7  1   
  9   5   8  ar  
 10   6   8  ar  
 11   6  31  1   
 12   7   9  1   
 13   7  10  1   
 14   8  11  1   
 15   9  12  1   
 16   9  32  1   
 17   9  33  1   
 18  10  13  1   
 19  10  34  1   
 20  10  35  1   
 21  11  36  1   
 22  11  37  1   
 23  11  38  1   
 24  12  14  1   
 25  12  39  1   
 26  12  40  1   
 27  13  14  1   
 28  13  41  1   
 29  13  42  1   
 30  14  15  am  
 31  15  16  2   
 32  15  17  2   
 33  15  18  1   
 34  18  19  ar  
 35  18  20  ar  
 36  19  21  ar  
 37  19  43  1   
 38  20  22  ar  
 39  20  44  1   
 40  21  23  1   
 41  21  24  ar  
 42  22  24  ar  
 43  22  45  1   
 44  23  25  1   
 45  24  26  1   
 46  25  26  am  
 47  25  27  2   
 48  26  28  1   
 49  28  46  1   
 50  28  47  1   
 51  28  48  1   
@<TRIPOS>SUBSTRUCTURE
  1 ****  12 GROUP 4 **** **** 0

# MOE 2024.06 (io_trps.svl 2023.06)
