@<TRIPOS>MOLECULE
NONAME
40 41 1 0 0 
SMALL
USER_CHARGES


@<TRIPOS>ATOM
  1 O        0.5870    -1.4680    -0.4260 O.3   1 <1>  -0.3630 
  2 C       -0.7050    -1.4340    -0.8500 C.ar  1 <1>   0.0830 
  3 C        1.5560    -0.5710    -0.9230 C.3   1 <1>   0.1200 
  4 C       -1.6080    -2.3130    -0.2550 C.ar  1 <1>  -0.1440 
  5 C       -1.1460    -0.5600    -1.8420 C.ar  1 <1>  -0.1500 
  6 C        2.8740    -0.8480    -0.2090 C.3   1 <1>   0.1200 
  7 C       -2.9350    -2.3020    -0.6560 C.ar  1 <1>  -0.1500 
  8 C       -1.1740    -3.2890     0.8330 C.3   1 <1>  -0.0160 
  9 C       -2.4730    -0.5610    -2.2340 C.ar  1 <1>  -0.1500 
 10 O        3.8460     0.0490    -0.7030 O.3   1 <1>  -0.3630 
 11 C       -3.3680    -1.4320    -1.6400 C.ar  1 <1>  -0.1500 
 12 C       -1.2130    -2.6170     2.2080 C.3   1 <1>  -0.2400 
 13 C        5.1210     0.0220    -0.2340 C.ar  1 <1>   0.0830 
 14 C        5.5710    -0.8620     0.7420 C.ar  1 <1>  -0.1500 
 15 C        6.0030     0.9430    -0.7790 C.ar  1 <1>  -0.1500 
 16 C        6.8900    -0.8160     1.1590 C.ar  1 <1>  -0.1500 
 17 C        7.3220     0.9890    -0.3610 C.ar  1 <1>  -0.1500 
 18 C        7.7720     0.1040     0.6150 C.ar  1 <1>   0.0830 
 19 O        9.0470     0.0780     1.0830 O.3   1 <1>  -0.3620 
 20 C       10.0200     0.9740     0.5930 C.3   1 <1>   0.0400 
 21 H        1.2250     0.4320    -0.7190 H     1 <1>   0.0800 
 22 H        1.6610    -0.7370    -1.9800 H     1 <1>   0.0800 
 23 H       -0.4770     0.1270    -2.3220 H     1 <1>   0.1500 
 24 H        3.2040    -1.8520    -0.4120 H     1 <1>   0.0800 
 25 H        2.7660    -0.6830     0.8490 H     1 <1>   0.0800 
 26 H       -3.6420    -2.9730    -0.2000 H     1 <1>   0.1500 
 27 H       -0.1790    -3.6460     0.6310 H     1 <1>   0.0800 
 28 H       -1.8250    -4.1450     0.8350 H     1 <1>   0.0800 
 29 H       -2.8100     0.1150    -3.0000 H     1 <1>   0.1500 
 30 H       -4.4000    -1.4330    -1.9430 H     1 <1>   0.1500 
 31 H       -0.5460    -1.7730     2.2230 H     1 <1>   0.0800 
 32 H       -0.9100    -3.3130     2.9700 H     1 <1>   0.0800 
 33 H       -2.2080    -2.2730     2.4240 H     1 <1>   0.0800 
 34 H        4.9180    -1.5890     1.1870 H     1 <1>   0.1500 
 35 H        5.6470     1.6220    -1.5320 H     1 <1>   0.1500 
 36 H        7.2470    -1.4950     1.9120 H     1 <1>   0.1500 
 37 H        7.9760     1.7140    -0.8050 H     1 <1>   0.1500 
 38 H       10.9450     0.7720     1.1020 H     1 <1>   0.0800 
 39 H        9.7020     1.9810     0.7980 H     1 <1>   0.0800 
 40 H       10.1420     0.8130    -0.4630 H     1 <1>   0.0800 
@<TRIPOS>BOND
  1   1   2  1   
  2   1   3  1   
  3   2   4  ar  
  4   2   5  ar  
  5   3   6  1   
  6   3  21  1   
  7   3  22  1   
  8   4   7  ar  
  9   4   8  1   
 10   5   9  ar  
 11   5  23  1   
 12   6  10  1   
 13   6  24  1   
 14   6  25  1   
 15   7  11  ar  
 16   7  26  1   
 17   8  12  1   
 18   8  27  1   
 19   8  28  1   
 20   9  11  ar  
 21   9  29  1   
 22  10  13  1   
 23  11  30  1   
 24  12  31  1   
 25  12  32  1   
 26  12  33  1   
 27  13  14  ar  
 28  13  15  ar  
 29  14  16  ar  
 30  14  34  1   
 31  15  17  ar  
 32  15  35  1   
 33  16  18  ar  
 34  16  36  1   
 35  17  18  ar  
 36  17  37  1   
 37  18  19  1   
 38  19  20  1   
 39  20  38  1   
 40  20  39  1   
 41  20  40  1   
@<TRIPOS>SUBSTRUCTURE
  1 ****   6 GROUP 4 **** **** 0

# MOE 2024.06 (io_trps.svl 2023.06)
