@<TRIPOS>MOLECULE
NONAME
42 43 1 0 0 
SMALL
USER_CHARGES


@<TRIPOS>ATOM
  1 O        0.1820    -1.1030    -0.4970 O.3   1 <1>  -0.3630 
  2 C       -0.1490    -2.3430    -0.0650 C.ar  1 <1>   0.0830 
  3 C        0.4580    -0.8410    -1.8540 C.3   1 <1>   0.1200 
  4 C       -0.3110    -3.4420    -0.9040 C.ar  1 <1>  -0.1500 
  5 C       -0.3290    -2.4970     1.2990 C.ar  1 <1>  -0.1500 
  6 C        0.8290     0.6330    -1.9830 C.3   1 <1>  -0.2400 
  7 C       -0.6530    -4.6740    -0.3730 C.ar  1 <1>  -0.1500 
  8 C       -0.6690    -3.7280     1.8310 C.ar  1 <1>  -0.1500 
  9 C       -0.8360    -4.8230     0.9950 C.ar  1 <1>  -0.1430 
 10 C       -1.2270    -6.1670     1.5620 C.3   1 <1>   0.4860 
 11 N       -2.6980    -6.2340     1.4860 N.4   1 <1>  -0.9060 
 12 C       -3.2650    -7.5680     1.7710 C.3   1 <1>   0.4860 
 13 C       -2.7240    -8.5470     0.7470 C.ar  1 <1>  -0.1430 
 14 C       -2.9240    -8.3260    -0.6150 C.ar  1 <1>   0.0830 
 15 C       -2.0250    -9.6680     1.1690 C.ar  1 <1>  -0.1500 
 16 O       -3.6090    -7.2080    -0.9790 O.3   1 <1>  -0.3620 
 17 C       -2.4160    -9.2340    -1.5400 C.ar  1 <1>  -0.1500 
 18 C       -1.5220   -10.5650     0.2430 C.ar  1 <1>  -0.1500 
 19 C       -4.0590    -7.0280    -2.3080 C.3   1 <1>   0.0400 
 20 C       -1.7180   -10.3470    -1.1090 C.ar  1 <1>  -0.1500 
 21 H       -0.4220    -1.0630    -2.4310 H     1 <1>   0.0800 
 22 H        1.2780    -1.4670    -2.1620 H     1 <1>   0.0800 
 23 H       -0.1740    -3.3530    -1.9650 H     1 <1>   0.1500 
 24 H       -0.1960    -1.6420     1.9380 H     1 <1>   0.1500 
 25 H        0.0100     1.2500    -1.6560 H     1 <1>   0.0800 
 26 H        1.0460     0.8670    -3.0100 H     1 <1>   0.0800 
 27 H        1.7000     0.8490    -1.3900 H     1 <1>   0.0800 
 28 H       -0.7700    -5.5120    -1.0410 H     1 <1>   0.1500 
 29 H       -0.7960    -3.8130     2.8970 H     1 <1>   0.1500 
 30 H       -0.8910    -6.2580     2.5820 H     1 <1>   0.0800 
 31 H       -0.7800    -6.9520     0.9720 H     1 <1>   0.0800 
 32 H       -2.9460    -6.0420     0.5020 H     1 <1>   0.4500 
 33 H       -3.1190    -5.4910     2.0500 H     1 <1>   0.4500 
 34 H       -4.3400    -7.5360     1.6910 H     1 <1>   0.0800 
 35 H       -3.0020    -7.8850     2.7670 H     1 <1>   0.0800 
 36 H       -1.8640    -9.8660     2.2160 H     1 <1>   0.1500 
 37 H       -2.5490    -9.0980    -2.5970 H     1 <1>   0.1500 
 38 H       -0.9800   -11.4370     0.5700 H     1 <1>   0.1500 
 39 H       -3.2090    -6.9230    -2.9590 H     1 <1>   0.0800 
 40 H       -4.6570    -6.1350    -2.3470 H     1 <1>   0.0800 
 41 H       -4.6570    -7.8770    -2.5950 H     1 <1>   0.0800 
 42 H       -1.3270   -11.0490    -1.8270 H     1 <1>   0.1500 
@<TRIPOS>BOND
  1   1   2  1   
  2   1   3  1   
  3   2   4  ar  
  4   2   5  ar  
  5   3   6  1   
  6   3  21  1   
  7   3  22  1   
  8   4   7  ar  
  9   4  23  1   
 10   5   8  ar  
 11   5  24  1   
 12   6  25  1   
 13   6  26  1   
 14   6  27  1   
 15   7   9  ar  
 16   7  28  1   
 17   8   9  ar  
 18   8  29  1   
 19   9  10  1   
 20  10  11  1   
 21  10  30  1   
 22  10  31  1   
 23  11  12  1   
 24  11  32  1   
 25  11  33  1   
 26  12  13  1   
 27  12  34  1   
 28  12  35  1   
 29  13  14  ar  
 30  13  15  ar  
 31  14  16  1   
 32  14  17  ar  
 33  15  18  ar  
 34  15  36  1   
 35  16  19  1   
 36  17  20  ar  
 37  17  37  1   
 38  18  20  ar  
 39  18  38  1   
 40  19  39  1   
 41  19  40  1   
 42  19  41  1   
 43  20  42  1   
@<TRIPOS>SUBSTRUCTURE
  1 ****   7 GROUP 4 **** **** 0

# MOE 2024.06 (io_trps.svl 2023.06)
