@<TRIPOS>MOLECULE
NONAME
48 52 1 0 0 
SMALL
USER_CHARGES


@<TRIPOS>ATOM
  1 S        0.5320     1.1900    -1.9100 S.3   1 <1>  -0.0800 
  2 C        0.2260    -0.3410    -1.0920 C.2   1 <1>   0.3250 
  3 C       -1.0990     1.2170    -2.4990 C.2   1 <1>  -0.1100 
  4 N       -0.9860    -0.7490    -1.2670 N.2   1 <1>  -0.5650 
  5 C        1.2870    -0.9790    -0.3420 C.ar  1 <1>   0.0530 
  6 C       -1.7270     0.1180    -2.0570 C.2   1 <1>   0.0460 
  7 C        1.1210    -2.3000     0.0940 C.ar  1 <1>  -0.1500 
  8 C        2.4930    -0.3310    -0.0160 C.ar  1 <1>  -0.1500 
  9 C       -3.1760    -0.2640    -2.3240 C.3   1 <1>   0.5240 
 10 C        2.1250    -2.9090     0.8140 C.ar  1 <1>   0.0830 
 11 C        3.4960    -0.9590     0.7090 C.ar  1 <1>  -0.1500 
 12 N       -3.7710    -0.7260    -1.0440 N.4   1 <1>  -0.9590 
 13 O        2.1500    -4.1500     1.3120 O.3   1 <1>  -0.3630 
 14 C        3.2840    -2.2600     1.1160 C.ar  1 <1>   0.0830 
 15 C       -5.0240    -1.5350    -1.2480 C.3   1 <1>   0.3430 
 16 C       -3.9990     0.4240    -0.0960 C.3   1 <1>   0.3430 
 17 C        3.4080    -4.3000     1.9690 C.3   1 <1>   0.4000 
 18 O        4.0920    -3.0580     1.8150 O.3   1 <1>  -0.3630 
 19 C       -5.6710    -1.9800     0.0830 C.3   1 <1>   0.2090 
 20 C       -4.6390    -0.0200     1.2370 C.3   1 <1>   0.2090 
 21 N       -5.8760    -0.8250     1.0060 N.pl3 1 <1>  -0.8380 
 22 C       -7.0290    -0.0970     0.8020 C.ar  1 <1>   0.4100 
 23 N       -7.1010     0.5890    -0.3340 N.ar  1 <1>  -0.6200 
 24 C       -8.0320    -0.1130     1.7640 C.ar  1 <1>  -0.1500 
 25 C       -8.2190     1.2800    -0.5080 C.ar  1 <1>   0.1600 
 26 C       -9.1850     0.6100     1.5670 C.ar  1 <1>  -0.1500 
 27 C       -9.2700     1.3260     0.3900 C.ar  1 <1>  -0.1500 
 28 H       -1.3950     2.0530    -3.1090 H     1 <1>   0.1500 
 29 H        0.2250    -2.8490    -0.1260 H     1 <1>   0.1500 
 30 H        2.6630     0.6840    -0.3270 H     1 <1>   0.1500 
 31 H       -3.1890    -1.0680    -3.0410 H     1 <1>   0.0800 
 32 H       -3.7260     0.5720    -2.7250 H     1 <1>   0.0800 
 33 H        4.4160    -0.4600     0.9550 H     1 <1>   0.1500 
 34 H       -3.0320    -1.3160    -0.6280 H     1 <1>   0.4500 
 35 H       -4.8090    -2.4070    -1.8420 H     1 <1>   0.0800 
 36 H       -5.7500    -0.9410    -1.7800 H     1 <1>   0.0800 
 37 H       -4.6600     1.1410    -0.5550 H     1 <1>   0.0800 
 38 H       -3.0640     0.9180     0.1120 H     1 <1>   0.0800 
 39 H        3.9710    -5.0840     1.4950 H     1 <1>   0.0800 
 40 H        3.2480    -4.4980     3.0140 H     1 <1>   0.0800 
 41 H       -5.0510    -2.7160     0.5650 H     1 <1>   0.0800 
 42 H       -6.6230    -2.4410    -0.1250 H     1 <1>   0.0800 
 43 H       -4.8870     0.8530     1.8170 H     1 <1>   0.0800 
 44 H       -3.9350    -0.6010     1.8060 H     1 <1>   0.0800 
 45 H       -7.8890    -0.6960     2.6550 H     1 <1>   0.1500 
 46 H       -8.3070     1.8460    -1.4200 H     1 <1>   0.1500 
 47 H       -9.9810     0.6190     2.2930 H     1 <1>   0.1500 
 48 H      -10.1450     1.9130     0.1740 H     1 <1>   0.1500 
@<TRIPOS>BOND
  1   1   2  1   
  2   1   3  1   
  3   2   4  2   
  4   2   5  1   
  5   3   6  2   
  6   3  28  1   
  7   4   6  1   
  8   5   7  ar  
  9   5   8  ar  
 10   6   9  1   
 11   7  10  ar  
 12   7  29  1   
 13   8  11  ar  
 14   8  30  1   
 15   9  12  1   
 16   9  31  1   
 17   9  32  1   
 18  10  13  1   
 19  10  14  ar  
 20  11  14  ar  
 21  11  33  1   
 22  12  15  1   
 23  12  16  1   
 24  12  34  1   
 25  13  17  1   
 26  14  18  1   
 27  15  19  1   
 28  15  35  1   
 29  15  36  1   
 30  16  20  1   
 31  16  37  1   
 32  16  38  1   
 33  17  18  1   
 34  17  39  1   
 35  17  40  1   
 36  19  21  1   
 37  19  41  1   
 38  19  42  1   
 39  20  21  1   
 40  20  43  1   
 41  20  44  1   
 42  21  22  1   
 43  22  23  ar  
 44  22  24  ar  
 45  23  25  ar  
 46  24  26  ar  
 47  24  45  1   
 48  25  27  ar  
 49  25  46  1   
 50  26  27  ar  
 51  26  47  1   
 52  27  48  1   
@<TRIPOS>SUBSTRUCTURE
  1 ****   4 GROUP 4 **** **** 0

# MOE 2024.06 (io_trps.svl 2023.06)
