@<TRIPOS>MOLECULE
NONAME
34 35 1 0 0 
SMALL
USER_CHARGES


@<TRIPOS>ATOM
  1 CL       2.1210    -0.6540    -0.4140 Cl    1 <1>  -0.1770 
  2 C        1.5070    -2.2730    -0.6180 C.ar  1 <1>   0.1770 
  3 C        1.6660    -2.9120    -1.8320 C.ar  1 <1>  -0.1500 
  4 C        0.8700    -2.8980     0.4350 C.ar  1 <1>  -0.1500 
  5 C        1.1820    -4.2010    -1.9850 C.ar  1 <1>  -0.1500 
  6 C        0.3880    -4.1860     0.2670 C.ar  1 <1>  -0.1500 
  7 C        0.5440    -4.8660    -0.9410 C.ar  1 <1>  -0.0090 
  8 S       -0.0570    -6.5650    -1.1870 S.o2  1 <1>   1.4470 
  9 O        1.0280    -7.3920    -1.6780 O.2   1 <1>  -0.6500 
 10 O       -1.2820    -6.5120    -1.9530 O.2   1 <1>  -0.6500 
 11 N       -0.4450    -7.1510     0.3630 N.am  1 <1>  -0.8490 
 12 C        0.6960    -7.7930     1.0730 C.3   1 <1>   0.2570 
 13 C       -1.6100    -8.0430     0.3620 C.3   1 <1>   0.1160 
 14 C        1.9180    -6.8980     1.3340 C.2   1 <1>   0.5690 
 15 O        1.9970    -6.3210     2.3940 O.2   1 <1>  -0.5700 
 16 N        2.8710    -6.7800     0.3690 N.am  1 <1>  -0.5790 
 17 C        4.0490    -5.9060     0.4310 C.3   1 <1>   0.0490 
 18 C        4.4590    -5.2050    -0.8200 C.3   1 <1>  -0.2000 
 19 C        5.2850    -6.3360    -0.2860 C.3   1 <1>  -0.2000 
 20 H        2.1610    -2.4050    -2.6410 H     1 <1>   0.1500 
 21 H        0.7550    -2.3850     1.3730 H     1 <1>   0.1500 
 22 H        1.3050    -4.7010    -2.9310 H     1 <1>   0.1500 
 23 H       -0.1080    -4.6650     1.0950 H     1 <1>   0.1500 
 24 H        1.0200    -8.6610     0.5260 H     1 <1>   0.0800 
 25 H        0.3550    -8.1320     2.0350 H     1 <1>   0.0800 
 26 H       -2.4740    -7.5220    -0.0170 H     1 <1>   0.0800 
 27 H       -1.8340    -8.3700     1.3630 H     1 <1>   0.0800 
 28 H       -1.4250    -8.9030    -0.2610 H     1 <1>   0.0800 
 29 H        2.7030    -7.2200    -0.5460 H     1 <1>   0.3700 
 30 H        4.1490    -5.3870     1.3720 H     1 <1>   0.1000 
 31 H        4.8490    -4.2050    -0.7430 H     1 <1>   0.1000 
 32 H        3.8910    -5.3600    -1.7200 H     1 <1>   0.1000 
 33 H        5.2820    -7.2780    -0.8050 H     1 <1>   0.1000 
 34 H        6.2410    -6.1060     0.1510 H     1 <1>   0.1000 
@<TRIPOS>BOND
  1   1   2  1   
  2   2   3  ar  
  3   2   4  ar  
  4   3   5  ar  
  5   3  20  1   
  6   4   6  ar  
  7   4  21  1   
  8   5   7  ar  
  9   5  22  1   
 10   6   7  ar  
 11   6  23  1   
 12   7   8  1   
 13   8   9  2   
 14   8  10  2   
 15   8  11  am  
 16  11  12  1   
 17  11  13  1   
 18  12  14  1   
 19  12  24  1   
 20  12  25  1   
 21  13  26  1   
 22  13  27  1   
 23  13  28  1   
 24  14  15  2   
 25  14  16  am  
 26  16  17  1   
 27  16  29  1   
 28  17  18  1   
 29  17  19  1   
 30  17  30  1   
 31  18  19  1   
 32  18  31  1   
 33  18  32  1   
 34  19  33  1   
 35  19  34  1   
@<TRIPOS>SUBSTRUCTURE
  1 ****   7 GROUP 4 **** **** 0

# MOE 2024.06 (io_trps.svl 2023.06)
