@<TRIPOS>MOLECULE
NONAME
59 61 1 0 0 
SMALL
USER_CHARGES


@<TRIPOS>ATOM
  1 CL      -0.4350    -1.1000    -1.5230 Cl    1 <1>  -0.1770 
  2 C       -0.0530    -2.4950    -0.5400 C.ar  1 <1>   0.1770 
  3 C       -1.0370    -3.0940     0.2350 C.ar  1 <1>  -0.1440 
  4 C        1.2430    -2.9710    -0.5620 C.ar  1 <1>  -0.1500 
  5 C       -0.6900    -4.1990     0.9990 C.ar  1 <1>  -0.1500 
  6 C       -2.4620    -2.5620     0.2530 C.3   1 <1>  -0.0960 
  7 C        1.5870    -4.0770     0.2040 C.ar  1 <1>   0.1000 
  8 C        0.6070    -4.6810     0.9810 C.ar  1 <1>  -0.1500 
  9 N        2.8800    -4.5860     0.2080 N.pl3 1 <1>  -0.8380 
 10 C        3.9220    -3.7430     0.8630 C.3   1 <1>   0.2090 
 11 C        3.3350    -5.2470    -1.0500 C.3   1 <1>   0.2090 
 12 C        5.2140    -4.5560     1.1010 C.3   1 <1>   0.3430 
 13 C        4.6300    -6.0530    -0.8090 C.3   1 <1>   0.3430 
 14 N        5.7110    -5.2320    -0.1530 N.4   1 <1>  -0.9590 
 15 C        6.9600    -6.0210     0.0780 C.3   1 <1>   0.3430 
 16 C        8.2010    -5.0990     0.1360 C.3   1 <1>   0.2000 
 17 O        8.0240    -4.0380    -0.7600 O.3   1 <1>  -0.6800 
 18 C        9.4720    -5.8730    -0.2240 C.3   1 <1>   0.1200 
 19 O        9.4890    -7.0550     0.5440 O.3   1 <1>  -0.3630 
 20 C       10.4620    -7.9820     0.4080 C.ar  1 <1>   0.0830 
 21 C       11.5320    -7.8640    -0.4740 C.ar  1 <1>  -0.1500 
 22 C       10.3700    -9.1140     1.2010 C.ar  1 <1>  -0.1500 
 23 C       12.4810    -8.8660    -0.5530 C.ar  1 <1>  -0.1500 
 24 C       11.3240   -10.1090     1.1150 C.ar  1 <1>  -0.1500 
 25 C       12.4110   -10.0180     0.2400 C.ar  1 <1>   0.0860 
 26 C       13.3890   -11.0860     0.1840 C.2   1 <1>   0.4230 
 27 O       13.1850   -12.1700     0.6710 O.2   1 <1>  -0.5700 
 28 C       14.7310   -10.8520    -0.5130 C.3   1 <1>  -0.0990 
 29 C       15.8270   -11.8690    -0.1490 C.3   1 <1>  -0.2400 
 30 H        1.9740    -2.4810    -1.1730 H     1 <1>   0.1500 
 31 H       -1.4280    -4.6880     1.6120 H     1 <1>   0.1500 
 32 H       -2.8790    -2.5960    -0.7380 H     1 <1>   0.0800 
 33 H       -2.4690    -1.5430     0.5960 H     1 <1>   0.0800 
 34 H       -3.0860    -3.1460     0.9050 H     1 <1>   0.0800 
 35 H        0.8710    -5.5370     1.5750 H     1 <1>   0.1500 
 36 H        3.5460    -3.3860     1.8070 H     1 <1>   0.0800 
 37 H        4.1370    -2.8870     0.2470 H     1 <1>   0.0800 
 38 H        3.5040    -4.5040    -1.8100 H     1 <1>   0.0800 
 39 H        2.5620    -5.9090    -1.4010 H     1 <1>   0.0800 
 40 H        5.0040    -5.3000     1.8510 H     1 <1>   0.0800 
 41 H        5.9740    -3.8980     1.4880 H     1 <1>   0.0800 
 42 H        4.9820    -6.4390    -1.7510 H     1 <1>   0.0800 
 43 H        4.3850    -6.8920    -0.1780 H     1 <1>   0.0800 
 44 H        6.0080    -4.4830    -0.8050 H     1 <1>   0.4500 
 45 H        7.1030    -6.7090    -0.7380 H     1 <1>   0.0800 
 46 H        6.8900    -6.6040     0.9820 H     1 <1>   0.0800 
 47 H        8.3040    -4.6830     1.1240 H     1 <1>   0.0800 
 48 H        8.8000    -3.4340    -0.7510 H     1 <1>   0.4000 
 49 H       10.3530    -5.3020     0.0130 H     1 <1>   0.0800 
 50 H        9.4650    -6.1510    -1.2650 H     1 <1>   0.0800 
 51 H       11.6430    -7.0030    -1.1070 H     1 <1>   0.1500 
 52 H        9.5490    -9.2150     1.8880 H     1 <1>   0.1500 
 53 H       13.2880    -8.7450    -1.2530 H     1 <1>   0.1500 
 54 H       11.2330   -10.9820     1.7390 H     1 <1>   0.1500 
 55 H       15.0890    -9.8720    -0.2550 H     1 <1>   0.0800 
 56 H       14.5690   -10.8840    -1.5760 H     1 <1>   0.0800 
 57 H       16.0030   -11.8600     0.9130 H     1 <1>   0.0800 
 58 H       16.7440   -11.6290    -0.6560 H     1 <1>   0.0800 
 59 H       15.5230   -12.8610    -0.4350 H     1 <1>   0.0800 
@<TRIPOS>BOND
  1   1   2  1   
  2   2   3  ar  
  3   2   4  ar  
  4   3   5  ar  
  5   3   6  1   
  6   4   7  ar  
  7   4  30  1   
  8   5   8  ar  
  9   5  31  1   
 10   6  32  1   
 11   6  33  1   
 12   6  34  1   
 13   7   8  ar  
 14   7   9  1   
 15   8  35  1   
 16   9  10  1   
 17   9  11  1   
 18  10  12  1   
 19  10  36  1   
 20  10  37  1   
 21  11  13  1   
 22  11  38  1   
 23  11  39  1   
 24  12  14  1   
 25  12  40  1   
 26  12  41  1   
 27  13  14  1   
 28  13  42  1   
 29  13  43  1   
 30  14  15  1   
 31  14  44  1   
 32  15  16  1   
 33  15  45  1   
 34  15  46  1   
 35  16  17  1   
 36  16  18  1   
 37  16  47  1   
 38  17  48  1   
 39  18  19  1   
 40  18  49  1   
 41  18  50  1   
 42  19  20  1   
 43  20  21  ar  
 44  20  22  ar  
 45  21  23  ar  
 46  21  51  1   
 47  22  24  ar  
 48  22  52  1   
 49  23  25  ar  
 50  23  53  1   
 51  24  25  ar  
 52  24  54  1   
 53  25  26  1   
 54  26  27  2   
 55  26  28  1   
 56  28  29  1   
 57  28  55  1   
 58  28  56  1   
 59  29  57  1   
 60  29  58  1   
 61  29  59  1   
@<TRIPOS>SUBSTRUCTURE
  1 ****  15 GROUP 4 **** **** 0

# MOE 2024.06 (io_trps.svl 2023.06)
