@<TRIPOS>MOLECULE
NONAME
36 37 1 0 0 
SMALL
USER_CHARGES


@<TRIPOS>ATOM
  1 CL       0.0610    -0.9840     0.9300 Cl    1 <1>  -0.1770 
  2 C       -1.5370    -1.5150     0.4720 C.ar  1 <1>   0.1770 
  3 C       -2.6220    -1.1410     1.2400 C.ar  1 <1>  -0.1500 
  4 C       -1.6920    -2.3040    -0.6530 C.ar  1 <1>  -0.1500 
  5 C       -3.8890    -1.5640     0.8740 C.ar  1 <1>  -0.1500 
  6 C       -2.9620    -2.7240    -1.0140 C.ar  1 <1>  -0.1500 
  7 C       -4.0650    -2.3540    -0.2550 C.ar  1 <1>  -0.1430 
  8 C       -5.4550    -2.8170    -0.6560 C.3   1 <1>   0.3530 
  9 N       -5.6820    -4.1460    -0.0590 N.pl3 1 <1>  -0.8690 
 10 C       -6.7780    -4.9500    -0.2260 C.2   1 <1>  -0.0380 
 11 C       -7.8740    -4.6370    -0.9640 C.2   1 <1>  -0.1360 
 12 C       -6.7190    -6.2850     0.5080 C.3   1 <1>  -0.0220 
 13 C       -9.0140    -5.4630    -1.1130 C.2   1 <1>   0.4950 
 14 C       -7.6360    -7.3630    -0.1210 C.3   1 <1>   0.0000 
 15 O       -9.9690    -5.1620    -1.7890 O.2   1 <1>  -0.5700 
 16 C       -9.0470    -6.7840    -0.3650 C.3   1 <1>  -0.0990 
 17 C       -7.0330    -7.8520    -1.4520 C.3   1 <1>  -0.2400 
 18 C       -7.7370    -8.5680     0.8270 C.3   1 <1>  -0.2400 
 19 H       -2.4730    -0.5290     2.1120 H     1 <1>   0.1500 
 20 H       -0.8310    -2.5830    -1.2320 H     1 <1>   0.1500 
 21 H       -4.7380    -1.2790     1.4730 H     1 <1>   0.1500 
 22 H       -3.0900    -3.3430    -1.8860 H     1 <1>   0.1500 
 23 H       -5.5320    -2.8840    -1.7280 H     1 <1>   0.0800 
 24 H       -6.2000    -2.1280    -0.2970 H     1 <1>   0.0800 
 25 H       -4.8880    -4.4460     0.5210 H     1 <1>   0.4000 
 26 H       -7.9330    -3.7070    -1.4910 H     1 <1>   0.1500 
 27 H       -7.0080    -6.1100     1.5290 H     1 <1>   0.0800 
 28 H       -5.7060    -6.6460     0.5150 H     1 <1>   0.0800 
 29 H       -9.6430    -7.4850    -0.9220 H     1 <1>   0.0800 
 30 H       -9.5390    -6.6090     0.5740 H     1 <1>   0.0800 
 31 H       -6.9220    -7.0420    -2.1520 H     1 <1>   0.0800 
 32 H       -7.6640    -8.5980    -1.9020 H     1 <1>   0.0800 
 33 H       -6.0620    -8.2850    -1.2910 H     1 <1>   0.0800 
 34 H       -8.1580    -8.2760     1.7730 H     1 <1>   0.0800 
 35 H       -6.7640    -8.9910     1.0070 H     1 <1>   0.0800 
 36 H       -8.3640    -9.3320     0.4020 H     1 <1>   0.0800 
@<TRIPOS>BOND
  1   1   2  1   
  2   2   3  ar  
  3   2   4  ar  
  4   3   5  ar  
  5   3  19  1   
  6   4   6  ar  
  7   4  20  1   
  8   5   7  ar  
  9   5  21  1   
 10   6   7  ar  
 11   6  22  1   
 12   7   8  1   
 13   8   9  1   
 14   8  23  1   
 15   8  24  1   
 16   9  10  1   
 17   9  25  1   
 18  10  11  2   
 19  10  12  1   
 20  11  13  1   
 21  11  26  1   
 22  12  14  1   
 23  12  27  1   
 24  12  28  1   
 25  13  15  2   
 26  13  16  1   
 27  14  16  1   
 28  14  17  1   
 29  14  18  1   
 30  16  29  1   
 31  16  30  1   
 32  17  31  1   
 33  17  32  1   
 34  17  33  1   
 35  18  34  1   
 36  18  35  1   
 37  18  36  1   
@<TRIPOS>SUBSTRUCTURE
  1 ****   9 GROUP 4 **** **** 0

# MOE 2024.06 (io_trps.svl 2023.06)
