@<TRIPOS>MOLECULE
NONAME
42 43 1 0 0 
SMALL
USER_CHARGES


@<TRIPOS>ATOM
  1 O       -5.9420    -2.9860     0.2120 O.3   1 <1>  -0.3630 
  2 C       -4.8430    -3.7840     0.0700 C.ar  1 <1>   0.0830 
  3 C       -5.8820    -1.5940     0.0000 C.3   1 <1>   0.0400 
  4 C       -5.0110    -5.1650     0.2100 C.ar  1 <1>   0.0830 
  5 C       -3.5780    -3.2710    -0.2060 C.ar  1 <1>  -0.1500 
  6 O       -6.2620    -5.6370     0.4830 O.3   1 <1>  -0.3630 
  7 C       -3.9100    -6.0060     0.0680 C.ar  1 <1>  -0.1500 
  8 C       -2.4870    -4.1150    -0.3430 C.ar  1 <1>  -0.1430 
  9 C       -6.5190    -7.0140     0.6330 C.3   1 <1>   0.0400 
 10 C       -2.6600    -5.4810    -0.2070 C.ar  1 <1>  -0.1500 
 11 C       -1.1050    -3.5510    -0.6310 C.3   1 <1>  -0.0170 
 12 C       -0.3250    -3.3840     0.6720 C.3   1 <1>   0.2090 
 13 N        1.0090    -2.8140     0.3830 N.pl3 1 <1>  -0.8690 
 14 C        2.1320    -3.5530     0.2320 C.ar  1 <1>   0.7200 
 15 N        3.2500    -2.8870     0.4680 N.ar  1 <1>  -0.6200 
 16 N        2.0070    -4.8270    -0.1220 N.ar  1 <1>  -0.6200 
 17 C        4.3580    -3.5700     0.3260 C.ar  1 <1>   0.1670 
 18 C        3.1270    -5.4900    -0.2580 C.ar  1 <1>   0.1670 
 19 C        4.3490    -4.8950    -0.0410 C.ar  1 <1>  -0.1500 
 20 C        5.6560    -2.8340     0.5850 C.3   1 <1>  -0.0970 
 21 C        3.0200    -6.9430    -0.6650 C.3   1 <1>  -0.0970 
 22 H       -6.8720    -1.1960     0.1330 H     1 <1>   0.0800 
 23 H       -5.5450    -1.4090    -1.0040 H     1 <1>   0.0800 
 24 H       -5.2140    -1.1600     0.7220 H     1 <1>   0.0800 
 25 H       -3.4250    -2.2150    -0.3140 H     1 <1>   0.1500 
 26 H       -4.0030    -7.0690     0.1670 H     1 <1>   0.1500 
 27 H       -7.5680    -7.1360     0.8360 H     1 <1>   0.0800 
 28 H       -5.9400    -7.3890     1.4580 H     1 <1>   0.0800 
 29 H       -6.2630    -7.5170    -0.2830 H     1 <1>   0.0800 
 30 H       -1.8170    -6.1430    -0.3130 H     1 <1>   0.1500 
 31 H       -1.1890    -2.6000    -1.1240 H     1 <1>   0.0800 
 32 H       -0.5700    -4.2200    -1.2810 H     1 <1>   0.0800 
 33 H       -0.2190    -4.3390     1.1580 H     1 <1>   0.0800 
 34 H       -0.8590    -2.7260     1.3350 H     1 <1>   0.0800 
 35 H        1.2130    -1.9000     0.7810 H     1 <1>   0.4000 
 36 H        5.2630    -5.4460    -0.1550 H     1 <1>   0.1500 
 37 H        5.6640    -2.4660     1.5950 H     1 <1>   0.0800 
 38 H        5.7350    -2.0000    -0.0870 H     1 <1>   0.0800 
 39 H        6.5020    -3.4790     0.4420 H     1 <1>   0.0800 
 40 H        2.4490    -7.4800     0.0690 H     1 <1>   0.0800 
 41 H        3.9910    -7.3940    -0.7500 H     1 <1>   0.0800 
 42 H        2.5190    -7.0130    -1.6130 H     1 <1>   0.0800 
@<TRIPOS>BOND
  1   1   2  1   
  2   1   3  1   
  3   2   4  ar  
  4   2   5  ar  
  5   3  22  1   
  6   3  23  1   
  7   3  24  1   
  8   4   6  1   
  9   4   7  ar  
 10   5   8  ar  
 11   5  25  1   
 12   6   9  1   
 13   7  10  ar  
 14   7  26  1   
 15   8  10  ar  
 16   8  11  1   
 17   9  27  1   
 18   9  28  1   
 19   9  29  1   
 20  10  30  1   
 21  11  12  1   
 22  11  31  1   
 23  11  32  1   
 24  12  13  1   
 25  12  33  1   
 26  12  34  1   
 27  13  14  1   
 28  13  35  1   
 29  14  15  ar  
 30  14  16  ar  
 31  15  17  ar  
 32  16  18  ar  
 33  17  19  ar  
 34  17  20  1   
 35  18  19  ar  
 36  18  21  1   
 37  19  36  1   
 38  20  37  1   
 39  20  38  1   
 40  20  39  1   
 41  21  40  1   
 42  21  41  1   
 43  21  42  1   
@<TRIPOS>SUBSTRUCTURE
  1 ****  11 GROUP 4 **** **** 0

# MOE 2024.06 (io_trps.svl 2023.06)
