@<TRIPOS>MOLECULE
NONAME
54 56 1 0 0 
SMALL
USER_CHARGES


@<TRIPOS>ATOM
  1 O        0.2690     0.7950     1.0880 O.2   1 <1>  -0.5700 
  2 C        0.7090     1.6310     0.3230 C.2   1 <1>   0.7800 
  3 O        0.1340     1.8110    -0.8680 O.3   1 <1>  -0.4300 
  4 N        1.7890     2.4120     0.6310 N.am  1 <1>  -0.6600 
  5 C       -0.9780     1.0380    -1.2540 C.3   1 <1>   0.1200 
  6 C        2.5050     2.2350     1.9310 C.3   1 <1>   0.1400 
  7 C        2.3070     3.4690    -0.2910 C.3   1 <1>   0.1400 
  8 C       -1.3990     1.4820    -2.6520 C.3   1 <1>  -0.2400 
  9 C        3.9400     2.7830     1.8870 C.3   1 <1>   0.1400 
 10 C        2.9150     4.6480     0.4850 C.3   1 <1>   0.1400 
 11 N        3.9870     4.2130     1.4400 N.am  1 <1>  -0.6600 
 12 C        5.0760     5.0020     1.7430 C.2   1 <1>   0.5440 
 13 O        6.0760     4.4600     2.1850 O.2   1 <1>  -0.5700 
 14 C        5.0680     6.4360     1.5220 C.ar  1 <1>   0.0860 
 15 C        6.1190     7.0680     0.8360 C.ar  1 <1>   0.1170 
 16 C        4.0090     7.2180     1.9890 C.ar  1 <1>  -0.1500 
 17 N        7.2170     6.3030     0.4160 N.am  1 <1>  -0.5470 
 18 C        6.0560     8.4420     0.6170 C.ar  1 <1>  -0.1500 
 19 C        3.9620     8.5790     1.7630 C.ar  1 <1>  -0.1500 
 20 C        8.1920     6.4880    -0.5350 C.2   1 <1>   0.5440 
 21 C        4.9890     9.1920     1.0690 C.ar  1 <1>  -0.1500 
 22 O        8.1130     7.4250    -1.3050 O.2   1 <1>  -0.5700 
 23 C        9.2890     5.5370    -0.6320 C.ar  1 <1>   0.0860 
 24 C        9.6450     4.6960     0.4270 C.ar  1 <1>  -0.1500 
 25 C       10.0360     5.4240    -1.8060 C.ar  1 <1>  -0.1500 
 26 C       10.6820     3.7880     0.3120 C.ar  1 <1>  -0.1500 
 27 C       11.0740     4.5190    -1.9240 C.ar  1 <1>  -0.1500 
 28 C       11.4040     3.6930    -0.8640 C.ar  1 <1>  -0.1440 
 29 C       12.5410     2.6950    -0.9900 C.3   1 <1>  -0.0970 
 30 H       -1.7700     1.2000    -0.5420 H     1 <1>   0.0800 
 31 H       -0.6920     0.0000    -1.2470 H     1 <1>   0.0800 
 32 H        2.5350     1.1890     2.1840 H     1 <1>   0.0800 
 33 H        1.9560     2.7430     2.7040 H     1 <1>   0.0800 
 34 H        1.5100     3.8370    -0.9140 H     1 <1>   0.0800 
 35 H        3.0570     3.0400    -0.9310 H     1 <1>   0.0800 
 36 H       -1.6730     2.5210    -2.6440 H     1 <1>   0.0800 
 37 H       -2.2490     0.9060    -2.9730 H     1 <1>   0.0800 
 38 H       -0.5960     1.3240    -3.3480 H     1 <1>   0.0800 
 39 H        4.5280     2.1850     1.2130 H     1 <1>   0.0800 
 40 H        4.3780     2.7000     2.8670 H     1 <1>   0.0800 
 41 H        2.1310     5.1380     1.0350 H     1 <1>   0.0800 
 42 H        3.3210     5.3530    -0.2190 H     1 <1>   0.0800 
 43 H        3.2140     6.7470     2.5400 H     1 <1>   0.1500 
 44 H        7.2670     5.3960     0.9000 H     1 <1>   0.3700 
 45 H        6.8530     8.9370     0.0920 H     1 <1>   0.1500 
 46 H        3.1340     9.1650     2.1260 H     1 <1>   0.1500 
 47 H        4.9610    10.2530     0.8860 H     1 <1>   0.1500 
 48 H        9.1140     4.7480     1.3610 H     1 <1>   0.1500 
 49 H        9.7950     6.0610    -2.6400 H     1 <1>   0.1500 
 50 H       10.9270     3.1540     1.1470 H     1 <1>   0.1500 
 51 H       11.6240     4.4600    -2.8470 H     1 <1>   0.1500 
 52 H       12.1590     1.7480    -1.3280 H     1 <1>   0.0800 
 53 H       13.0260     2.5550    -0.0400 H     1 <1>   0.0800 
 54 H       13.2740     3.0450    -1.6950 H     1 <1>   0.0800 
@<TRIPOS>BOND
  1   1   2  2   
  2   2   3  1   
  3   2   4  am  
  4   3   5  1   
  5   4   6  1   
  6   4   7  1   
  7   5   8  1   
  8   5  30  1   
  9   5  31  1   
 10   6   9  1   
 11   6  32  1   
 12   6  33  1   
 13   7  10  1   
 14   7  34  1   
 15   7  35  1   
 16   8  36  1   
 17   8  37  1   
 18   8  38  1   
 19   9  11  1   
 20   9  39  1   
 21   9  40  1   
 22  10  11  1   
 23  10  41  1   
 24  10  42  1   
 25  11  12  am  
 26  12  13  2   
 27  12  14  1   
 28  14  15  ar  
 29  14  16  ar  
 30  15  17  1   
 31  15  18  ar  
 32  16  19  ar  
 33  16  43  1   
 34  17  20  am  
 35  17  44  1   
 36  18  21  ar  
 37  18  45  1   
 38  19  21  ar  
 39  19  46  1   
 40  20  22  2   
 41  20  23  1   
 42  21  47  1   
 43  23  24  ar  
 44  23  25  ar  
 45  24  26  ar  
 46  24  48  1   
 47  25  27  ar  
 48  25  49  1   
 49  26  28  ar  
 50  26  50  1   
 51  27  28  ar  
 52  27  51  1   
 53  28  29  1   
 54  29  52  1   
 55  29  53  1   
 56  29  54  1   
@<TRIPOS>SUBSTRUCTURE
  1 ****  12 GROUP 4 **** **** 0

# MOE 2024.06 (io_trps.svl 2023.06)
