@<TRIPOS>MOLECULE
NONAME
39 40 1 0 0 
SMALL
USER_CHARGES


@<TRIPOS>ATOM
  1 CL      -1.0970     1.6560    -3.1340 Cl    1 <1>  -0.1770 
  2 C       -1.5450     2.1600    -1.5200 C.ar  1 <1>   0.1770 
  3 C       -0.5740     2.4940    -0.5890 C.ar  1 <1>   0.1770 
  4 C       -2.8850     2.2200    -1.1880 C.ar  1 <1>  -0.1500 
  5 CL       1.1270     2.4210    -1.0000 Cl    1 <1>  -0.1770 
  6 C       -0.9370     2.8920     0.6860 C.ar  1 <1>  -0.1500 
  7 C       -3.2630     2.6190     0.0900 C.ar  1 <1>   0.1000 
  8 C       -2.2800     2.9520     1.0170 C.ar  1 <1>  -0.1500 
  9 N       -4.5980     2.6910     0.4600 N.pl3 1 <1>  -0.8380 
 10 C       -5.4380     3.6950    -0.2680 C.3   1 <1>   0.2090 
 11 C       -5.3050     1.3850     0.6310 C.3   1 <1>   0.2090 
 12 C       -6.7930     3.8910     0.4300 C.3   1 <1>   0.1400 
 13 C       -6.6720     1.5690     1.3190 C.3   1 <1>   0.1400 
 14 N       -7.5000     2.5850     0.6000 N.am  1 <1>  -0.6600 
 15 C       -8.5060     2.2310    -0.2530 C.2   1 <1>   0.6900 
 16 O       -8.6730     2.8300    -1.3000 O.2   1 <1>  -0.5700 
 17 N       -9.3200     1.2040     0.0900 N.am  1 <1>  -0.7300 
 18 C      -10.4820     0.7360    -0.6920 C.3   1 <1>   0.1400 
 19 C      -11.7580     0.9830     0.1120 C.3   1 <1>  -0.1600 
 20 C      -12.9990     0.5080    -0.6520 C.3   1 <1>  -0.2400 
 21 H       -3.6300     1.9600    -1.9150 H     1 <1>   0.1500 
 22 H       -0.1790     3.1500     1.4030 H     1 <1>   0.1500 
 23 H       -2.5870     3.2590     2.0000 H     1 <1>   0.1500 
 24 H       -5.6110     3.3640    -1.2780 H     1 <1>   0.0800 
 25 H       -4.9160     4.6360    -0.3080 H     1 <1>   0.0800 
 26 H       -4.6940     0.7250     1.2220 H     1 <1>   0.0800 
 27 H       -5.4550     0.9290    -0.3330 H     1 <1>   0.0800 
 28 H       -7.3980     4.5710    -0.1450 H     1 <1>   0.0800 
 29 H       -6.6310     4.3340     1.3960 H     1 <1>   0.0800 
 30 H       -6.5130     1.8970     2.3310 H     1 <1>   0.0800 
 31 H       -7.1760     0.6210     1.3500 H     1 <1>   0.0800 
 32 H       -9.2890     0.9100     1.0620 H     1 <1>   0.3700 
 33 H      -10.3690    -0.3150    -0.8980 H     1 <1>   0.0800 
 34 H      -10.5320     1.2610    -1.6320 H     1 <1>   0.0800 
 35 H      -11.8500     2.0380     0.3090 H     1 <1>   0.0800 
 36 H      -11.7020     0.4600     1.0500 H     1 <1>   0.0800 
 37 H      -13.0880     1.0330    -1.5880 H     1 <1>   0.0800 
 38 H      -13.8850     0.6970    -0.0710 H     1 <1>   0.0800 
 39 H      -12.9400    -0.5480    -0.8500 H     1 <1>   0.0800 
@<TRIPOS>BOND
  1   1   2  1   
  2   2   3  ar  
  3   2   4  ar  
  4   3   5  1   
  5   3   6  ar  
  6   4   7  ar  
  7   4  21  1   
  8   6   8  ar  
  9   6  22  1   
 10   7   8  ar  
 11   7   9  1   
 12   8  23  1   
 13   9  10  1   
 14   9  11  1   
 15  10  12  1   
 16  10  24  1   
 17  10  25  1   
 18  11  13  1   
 19  11  26  1   
 20  11  27  1   
 21  12  14  1   
 22  12  28  1   
 23  12  29  1   
 24  13  14  1   
 25  13  30  1   
 26  13  31  1   
 27  14  15  am  
 28  15  16  2   
 29  15  17  am  
 30  17  18  1   
 31  17  32  1   
 32  18  19  1   
 33  18  33  1   
 34  18  34  1   
 35  19  20  1   
 36  19  35  1   
 37  19  36  1   
 38  20  37  1   
 39  20  38  1   
 40  20  39  1   
@<TRIPOS>SUBSTRUCTURE
  1 ****  11 GROUP 4 **** **** 0

# MOE 2024.06 (io_trps.svl 2023.06)
