@<TRIPOS>MOLECULE
NONAME
34 34 1 0 0 
SMALL
USER_CHARGES


@<TRIPOS>ATOM
  1 CL      -1.1380     0.2950    -2.2970 Cl    1 <1>  -0.1770 
  2 C       -1.9010    -0.7180    -1.0920 C.ar  1 <1>   0.1770 
  3 C       -1.2040    -1.7580    -0.4900 C.ar  1 <1>  -0.1440 
  4 C       -3.2190    -0.4490    -0.7710 C.ar  1 <1>  -0.1500 
  5 C       -1.8690    -2.5350     0.4490 C.ar  1 <1>  -0.1500 
  6 C        0.2450    -2.0690    -0.8460 C.3   1 <1>   0.2140 
  7 C       -3.8670    -1.2310     0.1680 C.ar  1 <1>  -0.1500 
  8 C       -3.1900    -2.2740     0.7770 C.ar  1 <1>  -0.1500 
  9 S        1.2440    -2.0640     0.6720 S.3   1 <1>  -0.4600 
 10 C        2.8910    -2.5460     0.0800 C.3   1 <1>   0.0700 
 11 C        3.8840    -2.3700     1.2280 C.3   1 <1>   0.1400 
 12 N        5.1970    -2.9600     0.8730 N.am  1 <1>  -0.7300 
 13 C        6.0610    -2.4340    -0.0300 C.2   1 <1>   0.6900 
 14 O        5.7250    -1.4740    -0.6980 O.2   1 <1>  -0.5700 
 15 N        7.3080    -2.9910    -0.1660 N.am  1 <1>  -0.6600 
 16 C        7.6840    -4.3340     0.3520 C.3   1 <1>   0.0600 
 17 C        8.3660    -2.3130    -0.9660 C.3   1 <1>   0.0600 
 18 H       -3.7300     0.3650    -1.2540 H     1 <1>   0.1500 
 19 H       -1.3560    -3.3480     0.9350 H     1 <1>   0.1500 
 20 H        0.6810    -1.3390    -1.5030 H     1 <1>   0.0800 
 21 H        0.3300    -3.0480    -1.2810 H     1 <1>   0.0800 
 22 H       -4.8930    -1.0290     0.4260 H     1 <1>   0.1500 
 23 H       -3.6890    -2.8830     1.5100 H     1 <1>   0.1500 
 24 H        3.1410    -1.9060    -0.7490 H     1 <1>   0.0800 
 25 H        2.8310    -3.5720    -0.2340 H     1 <1>   0.0800 
 26 H        3.5050    -2.8570     2.1100 H     1 <1>   0.0800 
 27 H        4.0070    -1.3210     1.4380 H     1 <1>   0.0800 
 28 H        5.5990    -3.6030     1.5500 H     1 <1>   0.3700 
 29 H        6.8090    -4.9380     0.5180 H     1 <1>   0.0800 
 30 H        8.2250    -4.2260     1.2760 H     1 <1>   0.0800 
 31 H        8.3080    -4.8400    -0.3640 H     1 <1>   0.0800 
 32 H        8.1040    -1.2850    -1.1510 H     1 <1>   0.0800 
 33 H        8.4830    -2.8150    -1.9100 H     1 <1>   0.0800 
 34 H        9.2990    -2.3350    -0.4320 H     1 <1>   0.0800 
@<TRIPOS>BOND
  1   1   2  1   
  2   2   3  ar  
  3   2   4  ar  
  4   3   5  ar  
  5   3   6  1   
  6   4   7  ar  
  7   4  18  1   
  8   5   8  ar  
  9   5  19  1   
 10   6   9  1   
 11   6  20  1   
 12   6  21  1   
 13   7   8  ar  
 14   7  22  1   
 15   8  23  1   
 16   9  10  1   
 17  10  11  1   
 18  10  24  1   
 19  10  25  1   
 20  11  12  1   
 21  11  26  1   
 22  11  27  1   
 23  12  13  am  
 24  12  28  1   
 25  13  14  2   
 26  13  15  am  
 27  15  16  1   
 28  15  17  1   
 29  16  29  1   
 30  16  30  1   
 31  16  31  1   
 32  17  32  1   
 33  17  33  1   
 34  17  34  1   
@<TRIPOS>SUBSTRUCTURE
  1 ****   9 GROUP 4 **** **** 0

# MOE 2024.06 (io_trps.svl 2023.06)
