@<TRIPOS>MOLECULE
NONAME
51 53 1 0 0 
SMALL
USER_CHARGES


@<TRIPOS>ATOM
  1 S       -0.8080    -1.0380    -1.5360 S.o2  1 <1>   1.4470 
  2 O       -0.5500    -1.8820    -2.6830 O.2   1 <1>  -0.6500 
  3 O       -0.9850     0.3820    -1.7500 O.2   1 <1>  -0.6500 
  4 N        0.5200    -1.2000    -0.4970 N.am  1 <1>  -0.8490 
  5 C       -2.1910    -1.7040    -0.5510 C.ar  1 <1>  -0.0090 
  6 C        0.4530    -0.2850     0.6560 C.3   1 <1>   0.1960 
  7 C        1.7860    -0.9800    -1.2110 C.3   1 <1>   0.1960 
  8 C       -2.3440    -3.0610    -0.2550 C.ar  1 <1>  -0.1440 
  9 C       -3.1330    -0.8210    -0.0370 C.ar  1 <1>  -0.1500 
 10 C        1.6850    -0.4520     1.5640 C.3   1 <1>   0.1200 
 11 C        2.9910    -1.1190    -0.2630 C.3   1 <1>   0.1200 
 12 C       -3.4140    -3.4880     0.5170 C.ar  1 <1>  -0.1500 
 13 C       -1.3590    -4.1100    -0.7580 C.3   1 <1>  -0.0960 
 14 C       -4.2130    -1.2240     0.7430 C.ar  1 <1>   0.0860 
 15 O        2.8630    -0.2570     0.8330 O.3   1 <1>  -0.5600 
 16 C       -4.3330    -2.5840     1.0090 C.ar  1 <1>  -0.1500 
 17 C       -5.1630    -0.2520     1.2510 C.2   1 <1>   0.5440 
 18 O       -4.8020     0.8660     1.5580 O.2   1 <1>  -0.5700 
 19 N       -6.4820    -0.5700     1.3730 N.am  1 <1>  -0.7300 
 20 C       -7.5480     0.3940     1.6940 C.3   1 <1>   0.2840 
 21 C       -8.7630     0.0350     0.8510 C.ar  1 <1>  -0.1440 
 22 C       -8.8980     0.4620    -0.4680 C.ar  1 <1>  -0.1440 
 23 C       -9.7570    -0.7480     1.4210 C.ar  1 <1>  -0.1500 
 24 C      -10.0250     0.0980    -1.1900 C.ar  1 <1>  -0.1500 
 25 C       -7.8360     1.3200    -1.1440 C.3   1 <1>  -0.0970 
 26 C      -10.8770    -1.1060     0.6940 C.ar  1 <1>  -0.1500 
 27 C      -11.0110    -0.6820    -0.6140 C.ar  1 <1>  -0.1500 
 28 H       -0.4330    -0.4890     1.2320 H     1 <1>   0.0800 
 29 H        0.4060     0.7390     0.3220 H     1 <1>   0.0800 
 30 H        1.7960     0.0030    -1.6540 H     1 <1>   0.0800 
 31 H        1.8840    -1.7020    -2.0040 H     1 <1>   0.0800 
 32 H       -3.0330     0.2320    -0.2460 H     1 <1>   0.1500 
 33 H        1.7050    -1.4370     1.9970 H     1 <1>   0.0800 
 34 H        1.6650     0.2760     2.3560 H     1 <1>   0.0800 
 35 H        3.9010    -0.8640    -0.7760 H     1 <1>   0.0800 
 36 H        3.0690    -2.1290     0.1010 H     1 <1>   0.0800 
 37 H       -3.5360    -4.5340     0.7420 H     1 <1>   0.1500 
 38 H       -0.3500    -3.8330    -0.5120 H     1 <1>   0.0800 
 39 H       -1.4410    -4.2120    -1.8260 H     1 <1>   0.0800 
 40 H       -1.5540    -5.0710    -0.3160 H     1 <1>   0.0800 
 41 H       -5.1490    -2.9380     1.6150 H     1 <1>   0.1500 
 42 H       -6.8380    -1.4240     0.9420 H     1 <1>   0.3700 
 43 H       -7.2240     1.4000     1.4890 H     1 <1>   0.0800 
 44 H       -7.7840     0.3270     2.7410 H     1 <1>   0.0800 
 45 H       -9.6630    -1.0860     2.4380 H     1 <1>   0.1500 
 46 H      -10.1420     0.4210    -2.2090 H     1 <1>   0.1500 
 47 H       -7.7710     2.2770    -0.6590 H     1 <1>   0.0800 
 48 H       -8.0720     1.4830    -2.1800 H     1 <1>   0.0800 
 49 H       -6.8770     0.8380    -1.0920 H     1 <1>   0.0800 
 50 H      -11.6430    -1.7130     1.1440 H     1 <1>   0.1500 
 51 H      -11.8810    -0.9570    -1.1840 H     1 <1>   0.1500 
@<TRIPOS>BOND
  1   1   2  2   
  2   1   3  2   
  3   1   4  am  
  4   1   5  1   
  5   4   6  1   
  6   4   7  1   
  7   5   8  ar  
  8   5   9  ar  
  9   6  10  1   
 10   6  28  1   
 11   6  29  1   
 12   7  11  1   
 13   7  30  1   
 14   7  31  1   
 15   8  12  ar  
 16   8  13  1   
 17   9  14  ar  
 18   9  32  1   
 19  10  15  1   
 20  10  33  1   
 21  10  34  1   
 22  11  15  1   
 23  11  35  1   
 24  11  36  1   
 25  12  16  ar  
 26  12  37  1   
 27  13  38  1   
 28  13  39  1   
 29  13  40  1   
 30  14  16  ar  
 31  14  17  1   
 32  16  41  1   
 33  17  18  2   
 34  17  19  am  
 35  19  20  1   
 36  19  42  1   
 37  20  21  1   
 38  20  43  1   
 39  20  44  1   
 40  21  22  ar  
 41  21  23  ar  
 42  22  24  ar  
 43  22  25  1   
 44  23  26  ar  
 45  23  45  1   
 46  24  27  ar  
 47  24  46  1   
 48  25  47  1   
 49  25  48  1   
 50  25  49  1   
 51  26  27  ar  
 52  26  50  1   
 53  27  51  1   
@<TRIPOS>SUBSTRUCTURE
  1 ****   9 GROUP 4 **** **** 0

# MOE 2024.06 (io_trps.svl 2023.06)
