@<TRIPOS>MOLECULE
NONAME
38 39 1 0 0 
SMALL
USER_CHARGES


@<TRIPOS>ATOM
  1 BR       0.3480     0.4270    -2.0740 Br    1 <1>  -0.1110 
  2 C       -1.1480     1.0890    -1.0470 C.ar  1 <1>   0.1110 
  3 C       -1.0230     2.2580    -0.3040 C.ar  1 <1>   0.0830 
  4 C       -2.3290     0.3710    -1.0850 C.ar  1 <1>  -0.1500 
  5 O        0.1300     2.9620    -0.2650 O.3   1 <1>  -0.3630 
  6 C       -2.1220     2.7210     0.4020 C.ar  1 <1>  -0.1500 
  7 C       -3.4170     0.8390    -0.3650 C.ar  1 <1>  -0.1500 
  8 C        1.1540     2.4540     0.5520 C.3   1 <1>   0.1200 
  9 C       -3.3130     2.0100     0.3720 C.ar  1 <1>  -0.1500 
 10 C        2.4770     2.9630    -0.0180 C.3   1 <1>  -0.1600 
 11 C        3.6580     2.3790     0.7520 C.3   1 <1>   0.3430 
 12 N        4.9400     2.7320     0.0790 N.4   1 <1>  -0.9590 
 13 C        6.0530     1.8780     0.5890 C.3   1 <1>   0.3430 
 14 C        5.2680     4.1860     0.2000 C.3   1 <1>   0.3430 
 15 C        7.3220     2.1450    -0.2220 C.3   1 <1>  -0.1600 
 16 C        6.5220     4.5020    -0.6170 C.3   1 <1>  -0.1600 
 17 C        7.7110     3.6280    -0.1970 C.3   1 <1>  -0.1600 
 18 H       -2.3960    -0.5310    -1.6660 H     1 <1>   0.1500 
 19 H       -2.0460     3.6320     0.9670 H     1 <1>   0.1500 
 20 H       -4.3470     0.2950    -0.3820 H     1 <1>   0.1500 
 21 H        1.1130     1.3780     0.5370 H     1 <1>   0.0800 
 22 H        0.9840     2.8080     1.5540 H     1 <1>   0.0800 
 23 H       -4.1650     2.3710     0.9240 H     1 <1>   0.1500 
 24 H        2.4790     4.0360     0.0440 H     1 <1>   0.0800 
 25 H        2.5350     2.6610    -1.0490 H     1 <1>   0.0800 
 26 H        3.5540     1.3060     0.7790 H     1 <1>   0.0800 
 27 H        3.6570     2.7430     1.7670 H     1 <1>   0.0800 
 28 H        4.8390     2.5270    -0.9240 H     1 <1>   0.4500 
 29 H        5.7890     0.8360     0.5060 H     1 <1>   0.0800 
 30 H        6.2380     2.1010     1.6280 H     1 <1>   0.0800 
 31 H        5.4400     4.4370     1.2340 H     1 <1>   0.0800 
 32 H        4.4500     4.7860    -0.1640 H     1 <1>   0.0800 
 33 H        7.1730     1.8210    -1.2380 H     1 <1>   0.0800 
 34 H        8.1290     1.5590     0.1850 H     1 <1>   0.0800 
 35 H        6.7780     5.5390    -0.4820 H     1 <1>   0.0800 
 36 H        6.3130     4.3580    -1.6630 H     1 <1>   0.0800 
 37 H        8.5440     3.8000    -0.8590 H     1 <1>   0.0800 
 38 H        8.0230     3.9010     0.7980 H     1 <1>   0.0800 
@<TRIPOS>BOND
  1   1   2  1   
  2   2   3  ar  
  3   2   4  ar  
  4   3   5  1   
  5   3   6  ar  
  6   4   7  ar  
  7   4  18  1   
  8   5   8  1   
  9   6   9  ar  
 10   6  19  1   
 11   7   9  ar  
 12   7  20  1   
 13   8  10  1   
 14   8  21  1   
 15   8  22  1   
 16   9  23  1   
 17  10  11  1   
 18  10  24  1   
 19  10  25  1   
 20  11  12  1   
 21  11  26  1   
 22  11  27  1   
 23  12  13  1   
 24  12  14  1   
 25  12  28  1   
 26  13  15  1   
 27  13  29  1   
 28  13  30  1   
 29  14  16  1   
 30  14  31  1   
 31  14  32  1   
 32  15  17  1   
 33  15  33  1   
 34  15  34  1   
 35  16  17  1   
 36  16  35  1   
 37  16  36  1   
 38  17  37  1   
 39  17  38  1   
@<TRIPOS>SUBSTRUCTURE
  1 ****  10 GROUP 4 **** **** 0

# MOE 2024.06 (io_trps.svl 2023.06)
