@<TRIPOS>MOLECULE
NONAME
45 47 1 0 0 
SMALL
USER_CHARGES


@<TRIPOS>ATOM
  1 O        0.2690     0.0600    -1.2260 O.2   1 <1>  -0.5700 
  2 C        1.0340     0.7000    -0.5420 C.2   1 <1>   0.5690 
  3 N        0.8460     1.9810    -0.1110 N.am  1 <1>  -0.1200 
  4 C        2.3750     0.1640    -0.0700 C.3   1 <1>  -0.0190 
  5 N       -0.4420     2.6680    -0.1490 N.am  1 <1>  -0.4300 
  6 C        1.9240     2.4360     0.5910 C.2   1 <1>   0.5690 
  7 C        2.9870     1.3560     0.7070 C.3   1 <1>  -0.0190 
  8 C        3.2630    -0.3340    -1.2270 C.3   1 <1>  -0.1600 
  9 C       -1.4090     2.5180     0.8020 C.2   1 <1>   0.5440 
 10 O        2.0540     3.5460     1.0540 O.2   1 <1>  -0.5700 
 11 C        4.3570     1.8040     0.1610 C.3   1 <1>  -0.1600 
 12 C        4.7030    -0.5800    -0.7520 C.3   1 <1>  -0.1600 
 13 O       -1.2170     1.7360     1.7180 O.2   1 <1>  -0.5700 
 14 C       -2.6480     3.2650     0.7150 C.ar  1 <1>   0.0860 
 15 C        5.3120     0.6100     0.0170 C.3   1 <1>  -0.1600 
 16 C       -2.6930     4.5760     0.2400 C.ar  1 <1>  -0.1500 
 17 C       -3.8570     2.6950     1.1090 C.ar  1 <1>  -0.1500 
 18 C       -3.8860     5.2690     0.1480 C.ar  1 <1>  -0.1500 
 19 C       -5.0490     3.3890     1.0170 C.ar  1 <1>  -0.1500 
 20 C       -5.1020     4.6960     0.5300 C.ar  1 <1>   0.0860 
 21 C       -6.3610     5.4110     0.4340 C.2   1 <1>   0.6340 
 22 O       -7.4250     4.9320     0.7660 O.2   1 <1>  -0.5700 
 23 O       -6.3390     6.6580    -0.0470 O.3   1 <1>  -0.4300 
 24 C       -7.5160     7.4230    -0.1740 C.3   1 <1>   0.1200 
 25 C       -7.1350     8.7830    -0.7510 C.3   1 <1>  -0.2400 
 26 H        2.1900    -0.6480     0.6110 H     1 <1>   0.0800 
 27 H       -0.6170     3.2470    -0.9710 H     1 <1>   0.3700 
 28 H        3.0860     1.0930     1.7450 H     1 <1>   0.0800 
 29 H        3.2710     0.3960    -2.0190 H     1 <1>   0.0800 
 30 H        2.8510    -1.2420    -1.6330 H     1 <1>   0.0800 
 31 H        4.7860     2.5390     0.8220 H     1 <1>   0.0800 
 32 H        4.2300     2.2740    -0.8000 H     1 <1>   0.0800 
 33 H        5.3190    -0.8090    -1.6050 H     1 <1>   0.0800 
 34 H        4.7140    -1.4480    -0.1130 H     1 <1>   0.0800 
 35 H        5.6010     0.2760     1.0000 H     1 <1>   0.0800 
 36 H        6.2090     0.9370    -0.4810 H     1 <1>   0.0800 
 37 H       -1.7810     5.0680    -0.0510 H     1 <1>   0.1500 
 38 H       -3.8550     1.6880     1.4930 H     1 <1>   0.1500 
 39 H       -3.8760     6.2800    -0.2240 H     1 <1>   0.1500 
 40 H       -5.9630     2.9110     1.3300 H     1 <1>   0.1500 
 41 H       -7.9630     7.5270     0.8010 H     1 <1>   0.0800 
 42 H       -8.1940     6.9010    -0.8280 H     1 <1>   0.0800 
 43 H       -6.4530     9.2880    -0.0910 H     1 <1>   0.0800 
 44 H       -8.0160     9.3890    -0.8590 H     1 <1>   0.0800 
 45 H       -6.6820     8.6620    -1.7180 H     1 <1>   0.0800 
@<TRIPOS>BOND
  1   1   2  2   
  2   2   3  am  
  3   2   4  1   
  4   3   5  1   
  5   3   6  am  
  6   4   7  1   
  7   4   8  1   
  8   4  26  1   
  9   5   9  am  
 10   5  27  1   
 11   6   7  1   
 12   6  10  2   
 13   7  11  1   
 14   7  28  1   
 15   8  12  1   
 16   8  29  1   
 17   8  30  1   
 18   9  13  2   
 19   9  14  1   
 20  11  15  1   
 21  11  31  1   
 22  11  32  1   
 23  12  15  1   
 24  12  33  1   
 25  12  34  1   
 26  14  16  ar  
 27  14  17  ar  
 28  15  35  1   
 29  15  36  1   
 30  16  18  ar  
 31  16  37  1   
 32  17  19  ar  
 33  17  38  1   
 34  18  20  ar  
 35  18  39  1   
 36  19  20  ar  
 37  19  40  1   
 38  20  21  1   
 39  21  22  2   
 40  21  23  1   
 41  23  24  1   
 42  24  25  1   
 43  24  41  1   
 44  24  42  1   
 45  25  43  1   
 46  25  44  1   
 47  25  45  1   
@<TRIPOS>SUBSTRUCTURE
  1 ****   9 GROUP 4 **** **** 0

# MOE 2024.06 (io_trps.svl 2023.06)
