@<TRIPOS>MOLECULE
NONAME
55 57 1 0 0 
SMALL
USER_CHARGES


@<TRIPOS>ATOM
  1 O        0.3320     0.9630    -1.3380 O.2   1 <1>  -0.5700 
  2 C        0.2270     1.7940    -0.4560 C.2   1 <1>   0.5440 
  3 N        1.3540     2.1600     0.2590 N.am  1 <1>  -0.6600 
  4 C       -1.0740     2.3750    -0.1920 C.ar  1 <1>   0.0860 
  5 C        2.6420     1.4290     0.1070 C.3   1 <1>   0.1400 
  6 C        1.4330     3.3920     1.0940 C.3   1 <1>   0.1400 
  7 C       -1.6570     2.3220     1.0740 C.ar  1 <1>  -0.1500 
  8 C       -1.7940     3.0060    -1.2070 C.ar  1 <1>  -0.1500 
  9 C        3.7010     2.3640    -0.4830 C.3   1 <1>  -0.1600 
 10 C        2.4910     4.3360     0.5170 C.3   1 <1>  -0.1600 
 11 C       -2.8930     2.8910     1.3200 C.ar  1 <1>  -0.1500 
 12 C       -3.0310     3.5780    -0.9700 C.ar  1 <1>  -0.1500 
 13 C        3.8610     3.6430     0.3600 C.3   1 <1>  -0.0190 
 14 C       -3.5890     3.5260     0.3050 C.ar  1 <1>   0.0830 
 15 C        4.9290     4.5630    -0.2380 C.2   1 <1>   0.5690 
 16 O       -4.7880     4.0600     0.6250 O.3   1 <1>  -0.3630 
 17 O        4.5940     5.4810    -0.9450 O.2   1 <1>  -0.5700 
 18 N        6.2330     4.2890     0.0760 N.am  1 <1>  -0.5470 
 19 C       -5.5970     4.7000    -0.3380 C.3   1 <1>   0.0400 
 20 C        7.4310     4.9180    -0.3080 C.ar  1 <1>   0.1170 
 21 C        8.5630     4.7120     0.4710 C.ar  1 <1>  -0.1500 
 22 C        7.5420     5.7210    -1.4400 C.ar  1 <1>  -0.1500 
 23 C        9.7760     5.2900     0.1400 C.ar  1 <1>   0.0830 
 24 C        8.7450     6.3200    -1.7710 C.ar  1 <1>  -0.1500 
 25 O       10.8360     5.0080     0.9400 O.3   1 <1>  -0.3630 
 26 C        9.8630     6.1250    -0.9790 C.ar  1 <1>   0.0830 
 27 C       11.9290     4.3470     0.3390 C.3   1 <1>   0.0400 
 28 O       11.0040     6.7690    -1.3300 O.3   1 <1>  -0.3630 
 29 C       11.3990     7.8150    -0.4700 C.3   1 <1>   0.0400 
 30 H        2.5230     0.5710    -0.5330 H     1 <1>   0.0800 
 31 H        2.9570     1.0750     1.0730 H     1 <1>   0.0800 
 32 H        1.6940     3.1160     2.1010 H     1 <1>   0.0800 
 33 H        0.4890     3.9050     1.1200 H     1 <1>   0.0800 
 34 H       -1.1300     1.8240     1.8690 H     1 <1>   0.1500 
 35 H       -1.3660     3.0410    -2.1940 H     1 <1>   0.1500 
 36 H        3.4090     2.6250    -1.4870 H     1 <1>   0.0800 
 37 H        4.6380     1.8400    -0.5430 H     1 <1>   0.0800 
 38 H        2.5920     5.1940     1.1580 H     1 <1>   0.0800 
 39 H        2.1490     4.6880    -0.4410 H     1 <1>   0.0800 
 40 H       -3.3310     2.8450     2.3010 H     1 <1>   0.1500 
 41 H       -3.5440     4.0540    -1.7830 H     1 <1>   0.1500 
 42 H        4.1920     3.3590     1.3420 H     1 <1>   0.0800 
 43 H        6.3640     3.5170     0.7250 H     1 <1>   0.3700 
 44 H       -6.4970     5.0290     0.1480 H     1 <1>   0.0800 
 45 H       -5.8360     3.9960    -1.1150 H     1 <1>   0.0800 
 46 H       -5.0640     5.5460    -0.7340 H     1 <1>   0.0800 
 47 H        8.5140     4.0950     1.3460 H     1 <1>   0.1500 
 48 H        6.6890     5.8860    -2.0720 H     1 <1>   0.1500 
 49 H        8.8190     6.9450    -2.6430 H     1 <1>   0.1500 
 50 H       12.5940     4.0220     1.1170 H     1 <1>   0.0800 
 51 H       12.4410     5.0270    -0.3180 H     1 <1>   0.0800 
 52 H       11.5630     3.4990    -0.2130 H     1 <1>   0.0800 
 53 H       12.2760     8.2790    -0.8850 H     1 <1>   0.0800 
 54 H       11.6210     7.4120     0.5010 H     1 <1>   0.0800 
 55 H       10.5980     8.5300    -0.4040 H     1 <1>   0.0800 
@<TRIPOS>BOND
  1   1   2  2   
  2   2   3  am  
  3   2   4  1   
  4   3   5  1   
  5   3   6  1   
  6   4   7  ar  
  7   4   8  ar  
  8   5   9  1   
  9   5  30  1   
 10   5  31  1   
 11   6  10  1   
 12   6  32  1   
 13   6  33  1   
 14   7  11  ar  
 15   7  34  1   
 16   8  12  ar  
 17   8  35  1   
 18   9  13  1   
 19   9  36  1   
 20   9  37  1   
 21  10  13  1   
 22  10  38  1   
 23  10  39  1   
 24  11  14  ar  
 25  11  40  1   
 26  12  14  ar  
 27  12  41  1   
 28  13  15  1   
 29  13  42  1   
 30  14  16  1   
 31  15  17  2   
 32  15  18  am  
 33  16  19  1   
 34  18  20  1   
 35  18  43  1   
 36  19  44  1   
 37  19  45  1   
 38  19  46  1   
 39  20  21  ar  
 40  20  22  ar  
 41  21  23  ar  
 42  21  47  1   
 43  22  24  ar  
 44  22  48  1   
 45  23  25  1   
 46  23  26  ar  
 47  24  26  ar  
 48  24  49  1   
 49  25  27  1   
 50  26  28  1   
 51  27  50  1   
 52  27  51  1   
 53  27  52  1   
 54  28  29  1   
 55  29  53  1   
 56  29  54  1   
 57  29  55  1   
@<TRIPOS>SUBSTRUCTURE
  1 ****  13 GROUP 4 **** **** 0

# MOE 2024.06 (io_trps.svl 2023.06)
