@<TRIPOS>MOLECULE
NONAME
35 36 1 0 0 
SMALL
USER_CHARGES


@<TRIPOS>ATOM
  1 S       -0.9980     1.7270     2.1990 S.3   1 <1>  -0.0800 
  2 C       -1.1060     1.9210     0.4620 C.2   1 <1>  -0.1400 
  3 C        0.7370     1.5400     2.1090 C.2   1 <1>  -0.1100 
  4 C        0.1150     1.8460    -0.0970 C.2   1 <1>  -0.1500 
  5 C       -2.4870     2.1250    -0.1240 C.3   1 <1>  -0.0600 
  6 C        1.1950     1.6380     0.8370 C.2   1 <1>  -0.0860 
  7 C        2.5820     1.5400     0.4340 C.2   1 <1>   0.7160 
  8 O        3.4130     1.0290     1.1620 O.2   1 <1>  -0.5700 
  9 N        3.0450     2.0960    -0.7350 N.am  1 <1>  -0.6600 
 10 C        4.1340     1.4320    -1.5230 C.3   1 <1>   0.1400 
 11 C        2.8600     3.5440    -0.9970 C.3   1 <1>   0.1400 
 12 C        5.5360     1.5760    -0.8890 C.3   1 <1>   0.3430 
 13 C        3.8420     4.3650    -0.1490 C.3   1 <1>  -0.1600 
 14 N        5.5950     2.6250     0.1800 N.4   1 <1>  -0.9590 
 15 C        5.3210     4.0020    -0.3230 C.3   1 <1>   0.3430 
 16 C        6.8630     2.5420     0.9600 C.3   1 <1>   0.2630 
 17 H        1.2640     1.3720     3.0320 H     1 <1>   0.1500 
 18 H        0.3070     1.9230    -1.1520 H     1 <1>   0.1500 
 19 H       -3.1120     1.2820     0.1110 H     1 <1>   0.0800 
 20 H       -2.4280     2.2270    -1.1920 H     1 <1>   0.0800 
 21 H       -2.9320     3.0140     0.2870 H     1 <1>   0.0800 
 22 H        4.1520     1.8370    -2.5200 H     1 <1>   0.0800 
 23 H        3.9070     0.3830    -1.6170 H     1 <1>   0.0800 
 24 H        1.8520     3.8340    -0.7500 H     1 <1>   0.0800 
 25 H        3.0080     3.7470    -2.0450 H     1 <1>   0.0800 
 26 H        6.2620     1.7800    -1.6580 H     1 <1>   0.0800 
 27 H        5.7910     0.6240    -0.4500 H     1 <1>   0.0800 
 28 H        3.5720     4.2920     0.8890 H     1 <1>   0.0800 
 29 H        3.7220     5.3980    -0.4240 H     1 <1>   0.0800 
 30 H        4.8090     2.3590     0.8110 H     1 <1>   0.4500 
 31 H        5.9090     4.7100     0.2400 H     1 <1>   0.0800 
 32 H        5.6070     4.0840    -1.3590 H     1 <1>   0.0800 
 33 H        7.7080     2.7690     0.3300 H     1 <1>   0.0800 
 34 H        6.9850     1.5500     1.3630 H     1 <1>   0.0800 
 35 H        6.8420     3.2420     1.7790 H     1 <1>   0.0800 
@<TRIPOS>BOND
  1   1   2  1   
  2   1   3  1   
  3   2   4  2   
  4   2   5  1   
  5   3   6  2   
  6   3  17  1   
  7   4   6  1   
  8   4  18  1   
  9   5  19  1   
 10   5  20  1   
 11   5  21  1   
 12   6   7  1   
 13   7   8  2   
 14   7   9  am  
 15   9  10  1   
 16   9  11  1   
 17  10  12  1   
 18  10  22  1   
 19  10  23  1   
 20  11  13  1   
 21  11  24  1   
 22  11  25  1   
 23  12  14  1   
 24  12  26  1   
 25  12  27  1   
 26  13  15  1   
 27  13  28  1   
 28  13  29  1   
 29  14  15  1   
 30  14  16  1   
 31  14  30  1   
 32  15  31  1   
 33  15  32  1   
 34  16  33  1   
 35  16  34  1   
 36  16  35  1   
@<TRIPOS>SUBSTRUCTURE
  1 ****   7 GROUP 4 **** **** 0

# MOE 2024.06 (io_trps.svl 2023.06)
