@<TRIPOS>MOLECULE
NONAME
37 39 1 0 0 
SMALL
USER_CHARGES


@<TRIPOS>ATOM
  1 S        0.7580     0.2000    -0.1250 S.3   1 <1>  -0.0800 
  2 C        1.3130     1.8590    -0.3840 C.2   1 <1>   0.1660 
  3 C       -0.8700     0.7870     0.1750 C.2   1 <1>  -0.1400 
  4 N        2.5890     2.1470    -0.6730 N.2   1 <1>  -0.5760 
  5 C        0.2880     2.7520    -0.2430 C.2   1 <1>  -0.0860 
  6 C       -0.9490     2.1050     0.0790 C.2   1 <1>  -0.1810 
  7 C       -2.1340     0.0620     0.5070 C.3   1 <1>   0.0200 
  8 C        2.8510     3.4130    -0.8120 C.2   1 <1>   0.5600 
  9 C        0.6020     4.1150    -0.4420 C.2   1 <1>   0.7160 
 10 C       -2.3540     2.5770     0.3390 C.3   1 <1>   0.0210 
 11 C       -3.1240     1.2530     0.6230 C.3   1 <1>  -0.1600 
 12 N        1.9110     4.4230    -0.7580 N.am  1 <1>  -0.4200 
 13 N        4.1530     3.6890    -1.0270 N.pl3 1 <1>  -0.8190 
 14 O       -0.2480     4.9980    -0.3620 O.2   1 <1>  -0.5700 
 15 C        2.1980     5.7940    -1.2560 C.3   1 <1>   0.2780 
 16 C        4.9690     4.5160    -0.1040 C.3   1 <1>   0.2090 
 17 C        2.4250     6.7510    -0.0960 C.2   1 <1>  -0.2880 
 18 C        6.0190     3.6500     0.5980 C.3   1 <1>   0.1200 
 19 C        3.4850     7.5510     0.0640 C.2   1 <1>  -0.3000 
 20 O        6.8600     4.4540     1.3570 O.3   1 <1>  -0.6800 
 21 H       -2.0350    -0.4680     1.4380 H     1 <1>   0.0800 
 22 H       -2.4070    -0.6100    -0.2860 H     1 <1>   0.0800 
 23 H       -2.7450     3.0830    -0.5260 H     1 <1>   0.0800 
 24 H       -2.3760     3.2360     1.1890 H     1 <1>   0.0800 
 25 H       -3.5460     1.2820     1.6110 H     1 <1>   0.0800 
 26 H       -3.9220     1.1350    -0.0890 H     1 <1>   0.0800 
 27 H        4.6530     2.8560    -1.3500 H     1 <1>   0.4000 
 28 H        1.3650     6.1410    -1.8420 H     1 <1>   0.0800 
 29 H        3.0570     5.7840    -1.9040 H     1 <1>   0.0800 
 30 H        4.3340     4.9620     0.6430 H     1 <1>   0.0800 
 31 H        5.4510     5.2930    -0.6700 H     1 <1>   0.0800 
 32 H        1.6100     6.7290     0.6100 H     1 <1>   0.1500 
 33 H        6.6220     3.1130    -0.1140 H     1 <1>   0.0800 
 34 H        5.5370     2.9550     1.2650 H     1 <1>   0.0800 
 35 H        4.3130     7.6140    -0.6200 H     1 <1>   0.1500 
 36 H        3.6060     8.2190     0.9000 H     1 <1>   0.1500 
 37 H        7.4710     4.9660     0.7910 H     1 <1>   0.4000 
@<TRIPOS>BOND
  1   1   2  1   
  2   1   3  1   
  3   2   4  1   
  4   2   5  2   
  5   3   6  2   
  6   3   7  1   
  7   4   8  2   
  8   5   6  1   
  9   5   9  1   
 10   6  10  1   
 11   7  11  1   
 12   7  21  1   
 13   7  22  1   
 14   8  12  1   
 15   8  13  1   
 16   9  12  am  
 17   9  14  2   
 18  10  11  1   
 19  10  23  1   
 20  10  24  1   
 21  11  25  1   
 22  11  26  1   
 23  12  15  1   
 24  13  16  1   
 25  13  27  1   
 26  15  17  1   
 27  15  28  1   
 28  15  29  1   
 29  16  18  1   
 30  16  30  1   
 31  16  31  1   
 32  17  19  2   
 33  17  32  1   
 34  18  20  1   
 35  18  33  1   
 36  18  34  1   
 37  19  35  1   
 38  19  36  1   
 39  20  37  1   
@<TRIPOS>SUBSTRUCTURE
  1 ****   9 GROUP 4 **** **** 0

# MOE 2024.06 (io_trps.svl 2023.06)
