@<TRIPOS>MOLECULE
NONAME
28 28 1 0 0 
SMALL
USER_CHARGES


@<TRIPOS>ATOM
  1 O       -0.3000     0.0670    -0.5740 O.3   1 <1>  -0.6800 
  2 C       -1.2640     0.6000     0.2700 C.3   1 <1>   0.1200 
  3 C       -2.6040    -0.1070     0.0270 C.3   1 <1>  -0.1600 
  4 C       -2.5360    -1.6340     0.1600 C.3   1 <1>   0.5660 
  5 N       -1.7820    -2.1950    -0.9550 N.4   1 <1>  -0.8530 
  6 C       -3.9000    -2.2990     0.1410 C.ar  1 <1>  -0.1440 
  7 C       -4.8370    -2.0310    -0.8510 C.ar  1 <1>  -0.1500 
  8 C       -4.2170    -3.2110     1.1370 C.ar  1 <1>  -0.1500 
  9 C       -6.0630    -2.6720    -0.8450 C.ar  1 <1>  -0.1500 
 10 C       -5.4440    -3.8500     1.1390 C.ar  1 <1>  -0.1500 
 11 C       -6.3720    -3.5860     0.1470 C.ar  1 <1>  -0.1440 
 12 C       -7.7200    -4.2860     0.1530 C.3   1 <1>  -0.0970 
 13 H        0.5090     0.6300    -0.5540 H     1 <1>   0.4000 
 14 H       -1.3530     1.6550     0.0620 H     1 <1>   0.0800 
 15 H       -0.9320     0.4720     1.2880 H     1 <1>   0.0800 
 16 H       -2.9890     0.1780    -0.9350 H     1 <1>   0.0800 
 17 H       -3.3010     0.2590     0.7600 H     1 <1>   0.0800 
 18 H       -2.0400    -1.8740     1.0870 H     1 <1>   0.0800 
 19 H       -2.3610    -2.1810    -1.7960 H     1 <1>   0.4500 
 20 H       -1.4930    -3.1530    -0.7580 H     1 <1>   0.4500 
 21 H       -0.9620    -1.5780    -1.0930 H     1 <1>   0.4500 
 22 H       -4.6430    -1.3250    -1.6390 H     1 <1>   0.1500 
 23 H       -3.5210    -3.4410     1.9270 H     1 <1>   0.1500 
 24 H       -6.7840    -2.4560    -1.6160 H     1 <1>   0.1500 
 25 H       -5.6790    -4.5550     1.9190 H     1 <1>   0.1500 
 26 H       -8.4270    -3.7090     0.7210 H     1 <1>   0.0800 
 27 H       -7.6360    -5.2630     0.5940 H     1 <1>   0.0800 
 28 H       -8.0920    -4.3990    -0.8500 H     1 <1>   0.0800 
@<TRIPOS>BOND
  1   1   2  1   
  2   1  13  1   
  3   2   3  1   
  4   2  14  1   
  5   2  15  1   
  6   3   4  1   
  7   3  16  1   
  8   3  17  1   
  9   4   5  1   
 10   4   6  1   
 11   4  18  1   
 12   5  19  1   
 13   5  20  1   
 14   5  21  1   
 15   6   7  ar  
 16   6   8  ar  
 17   7   9  ar  
 18   7  22  1   
 19   8  10  ar  
 20   8  23  1   
 21   9  11  ar  
 22   9  24  1   
 23  10  11  ar  
 24  10  25  1   
 25  11  12  1   
 26  12  26  1   
 27  12  27  1   
 28  12  28  1   
@<TRIPOS>SUBSTRUCTURE
  1 ****   6 GROUP 4 **** **** 0

# MOE 2024.06 (io_trps.svl 2023.06)
