@<TRIPOS>MOLECULE
NONAME
42 43 1 0 0 
SMALL
USER_CHARGES


@<TRIPOS>ATOM
  1 F        1.0380     1.3860     0.6410 F     1 <1>  -0.1900 
  2 C        2.2670     1.0160     0.3860 C.ar  1 <1>   0.1900 
  3 C        3.2790     1.4450     1.2250 C.ar  1 <1>  -0.1500 
  4 C        2.5070     0.2110    -0.7110 C.ar  1 <1>  -0.1500 
  5 C        4.5760     1.0510     0.9490 C.ar  1 <1>  -0.1500 
  6 C        3.8100    -0.1750    -0.9720 C.ar  1 <1>  -0.1500 
  7 C        4.8530     0.2390    -0.1490 C.ar  1 <1>   0.1000 
  8 N        6.1500    -0.1650    -0.4420 N.pl3 1 <1>  -0.8380 
  9 C        6.7990    -1.0590     0.5690 C.3   1 <1>   0.2090 
 10 C        7.0710     0.9110    -0.9190 C.3   1 <1>   0.2090 
 11 C        8.1100    -1.6500     0.0240 C.3   1 <1>   0.1400 
 12 C        8.3910     0.3270    -1.4550 C.3   1 <1>   0.1400 
 13 N        9.0290    -0.5670    -0.4400 N.am  1 <1>  -0.6600 
 14 C       10.0460    -0.1380     0.3650 C.2   1 <1>   0.6900 
 15 O       10.0990    -0.4690     1.5350 O.2   1 <1>  -0.5700 
 16 N       11.0030     0.6600    -0.1640 N.am  1 <1>  -0.7300 
 17 C       12.1650     1.1870     0.5770 C.3   1 <1>   0.1400 
 18 C       12.4990     2.5840     0.0550 C.3   1 <1>  -0.1600 
 19 C       13.6970     3.1830     0.8020 C.3   1 <1>  -0.1600 
 20 C       14.0290     4.5830     0.2780 C.3   1 <1>  -0.2400 
 21 H        3.0520     2.0710     2.0690 H     1 <1>   0.1500 
 22 H        1.6940    -0.1030    -1.3400 H     1 <1>   0.1500 
 23 H        5.3830     1.3690     1.5840 H     1 <1>   0.1500 
 24 H        4.0380    -0.8010    -1.8150 H     1 <1>   0.1500 
 25 H        6.1240    -1.8580     0.8220 H     1 <1>   0.0800 
 26 H        7.0130    -0.5030     1.4650 H     1 <1>   0.0800 
 27 H        7.2880     1.5840    -0.1080 H     1 <1>   0.0800 
 28 H        6.5850     1.4720    -1.6990 H     1 <1>   0.0800 
 29 H        7.8860    -2.3030    -0.8010 H     1 <1>   0.0800 
 30 H        8.5830    -2.2390     0.7910 H     1 <1>   0.0800 
 31 H        9.0480     1.1350    -1.7190 H     1 <1>   0.0800 
 32 H        8.1870    -0.2410    -2.3460 H     1 <1>   0.0800 
 33 H       11.0720     0.6730    -1.1770 H     1 <1>   0.3700 
 34 H       13.0030     0.5240     0.4410 H     1 <1>   0.0800 
 35 H       11.9350     1.2330     1.6300 H     1 <1>   0.0800 
 36 H       11.6420     3.2210     0.1890 H     1 <1>   0.0800 
 37 H       12.7290     2.5260    -0.9950 H     1 <1>   0.0800 
 38 H       14.5570     2.5470     0.6810 H     1 <1>   0.0800 
 39 H       13.4730     3.2440     1.8540 H     1 <1>   0.0800 
 40 H       14.2800     4.5450    -0.7670 H     1 <1>   0.0800 
 41 H       14.8680     4.9870     0.8170 H     1 <1>   0.0800 
 42 H       13.1890     5.2430     0.4100 H     1 <1>   0.0800 
@<TRIPOS>BOND
  1   1   2  1   
  2   2   3  ar  
  3   2   4  ar  
  4   3   5  ar  
  5   3  21  1   
  6   4   6  ar  
  7   4  22  1   
  8   5   7  ar  
  9   5  23  1   
 10   6   7  ar  
 11   6  24  1   
 12   7   8  1   
 13   8   9  1   
 14   8  10  1   
 15   9  11  1   
 16   9  25  1   
 17   9  26  1   
 18  10  12  1   
 19  10  27  1   
 20  10  28  1   
 21  11  13  1   
 22  11  29  1   
 23  11  30  1   
 24  12  13  1   
 25  12  31  1   
 26  12  32  1   
 27  13  14  am  
 28  14  15  2   
 29  14  16  am  
 30  16  17  1   
 31  16  33  1   
 32  17  18  1   
 33  17  34  1   
 34  17  35  1   
 35  18  19  1   
 36  18  36  1   
 37  18  37  1   
 38  19  20  1   
 39  19  38  1   
 40  19  39  1   
 41  20  40  1   
 42  20  41  1   
 43  20  42  1   
@<TRIPOS>SUBSTRUCTURE
  1 ****  10 GROUP 4 **** **** 0

# MOE 2024.06 (io_trps.svl 2023.06)
