@<TRIPOS>MOLECULE
NONAME
51 52 1 0 0 
SMALL
USER_CHARGES


@<TRIPOS>ATOM
  1 O       -4.3780     6.5900     0.0740 O.3   1 <1>  -0.3630 
  2 C       -5.6400     7.0790    -0.0980 C.ar  1 <1>   0.0830 
  3 C       -3.2380     7.3910    -0.1030 C.3   1 <1>   0.1200 
  4 C       -6.7140     6.2080     0.1020 C.ar  1 <1>   0.0830 
  5 C       -5.8880     8.4000    -0.4610 C.ar  1 <1>  -0.1500 
  6 C       -2.0190     6.5080     0.1740 C.3   1 <1>  -0.1600 
  7 O       -6.4350     4.9190     0.4580 O.3   1 <1>  -0.3630 
  8 C       -8.0150     6.6740    -0.0650 C.ar  1 <1>  -0.1500 
  9 C       -7.1880     8.8480    -0.6230 C.ar  1 <1>  -0.1500 
 10 C       -0.7010     7.2800     0.0170 C.3   1 <1>  -0.1600 
 11 C       -7.4570     3.9740     0.6800 C.3   1 <1>   0.0400 
 12 C       -8.2550     7.9890    -0.4280 C.ar  1 <1>  -0.1430 
 13 C        0.4880     6.3570     0.2950 C.3   1 <1>   0.3430 
 14 C       -9.6790     8.4850    -0.6050 C.3   1 <1>  -0.0970 
 15 N        1.7750     7.0620     0.0410 N.4   1 <1>  -0.9590 
 16 C        2.8660     6.0630    -0.1500 C.3   1 <1>   0.3430 
 17 C        2.0710     8.0580     1.1130 C.3   1 <1>   0.3430 
 18 C        3.9290     6.6290    -1.0910 C.3   1 <1>  -0.1600 
 19 C        3.2590     8.9560     0.7630 C.3   1 <1>  -0.1600 
 20 C        5.0180     7.4810    -0.4170 C.3   1 <1>  -0.1600 
 21 C        4.6120     8.2360     0.8560 C.3   1 <1>  -0.1600 
 22 H       -3.2900     8.2100     0.5930 H     1 <1>   0.0800 
 23 H       -3.2340     7.7530    -1.1160 H     1 <1>   0.0800 
 24 H       -5.0910     9.0980    -0.6220 H     1 <1>   0.1500 
 25 H       -2.0400     5.6780    -0.5130 H     1 <1>   0.0800 
 26 H       -2.0990     6.1240     1.1770 H     1 <1>   0.0800 
 27 H       -8.8560     6.0250     0.0850 H     1 <1>   0.1500 
 28 H       -7.3640     9.8720    -0.9020 H     1 <1>   0.1500 
 29 H       -0.7050     8.1070     0.7050 H     1 <1>   0.0800 
 30 H       -0.6390     7.6590    -0.9890 H     1 <1>   0.0800 
 31 H       -6.9940     3.0410     0.9450 H     1 <1>   0.0800 
 32 H       -8.0240     3.8550    -0.2260 H     1 <1>   0.0800 
 33 H       -8.0800     4.3160     1.4870 H     1 <1>   0.0800 
 34 H        0.4120     5.5010    -0.3570 H     1 <1>   0.0800 
 35 H        0.4510     6.0040     1.3140 H     1 <1>   0.0800 
 36 H      -10.3010     7.7040    -1.0040 H     1 <1>   0.0800 
 37 H       -9.7080     9.3180    -1.2840 H     1 <1>   0.0800 
 38 H      -10.0770     8.7960     0.3440 H     1 <1>   0.0800 
 39 H        1.6840     7.5760    -0.8440 H     1 <1>   0.4500 
 40 H        2.4570     5.1760    -0.6070 H     1 <1>   0.0800 
 41 H        3.3040     5.7820     0.7940 H     1 <1>   0.0800 
 42 H        2.2680     7.5480     2.0430 H     1 <1>   0.0800 
 43 H        1.2100     8.6880     1.2610 H     1 <1>   0.0800 
 44 H        3.4560     7.1950    -1.8750 H     1 <1>   0.0800 
 45 H        4.4220     5.8010    -1.5710 H     1 <1>   0.0800 
 46 H        3.2700     9.7520     1.4870 H     1 <1>   0.0800 
 47 H        3.1270     9.4150    -0.2010 H     1 <1>   0.0800 
 48 H        5.3870     8.1900    -1.1410 H     1 <1>   0.0800 
 49 H        5.8510     6.8440    -0.1660 H     1 <1>   0.0800 
 50 H        4.6100     7.5630     1.6970 H     1 <1>   0.0800 
 51 H        5.3770     8.9690     1.0540 H     1 <1>   0.0800 
@<TRIPOS>BOND
  1   1   2  1   
  2   1   3  1   
  3   2   4  ar  
  4   2   5  ar  
  5   3   6  1   
  6   3  22  1   
  7   3  23  1   
  8   4   7  1   
  9   4   8  ar  
 10   5   9  ar  
 11   5  24  1   
 12   6  10  1   
 13   6  25  1   
 14   6  26  1   
 15   7  11  1   
 16   8  12  ar  
 17   8  27  1   
 18   9  12  ar  
 19   9  28  1   
 20  10  13  1   
 21  10  29  1   
 22  10  30  1   
 23  11  31  1   
 24  11  32  1   
 25  11  33  1   
 26  12  14  1   
 27  13  15  1   
 28  13  34  1   
 29  13  35  1   
 30  14  36  1   
 31  14  37  1   
 32  14  38  1   
 33  15  16  1   
 34  15  17  1   
 35  15  39  1   
 36  16  18  1   
 37  16  40  1   
 38  16  41  1   
 39  17  19  1   
 40  17  42  1   
 41  17  43  1   
 42  18  20  1   
 43  18  44  1   
 44  18  45  1   
 45  19  21  1   
 46  19  46  1   
 47  19  47  1   
 48  20  21  1   
 49  20  48  1   
 50  20  49  1   
 51  21  50  1   
 52  21  51  1   
@<TRIPOS>SUBSTRUCTURE
  1 ****   6 GROUP 4 **** **** 0

# MOE 2024.06 (io_trps.svl 2023.06)
