@<TRIPOS>MOLECULE
NONAME
49 50 1 0 0 
SMALL
USER_CHARGES


@<TRIPOS>ATOM
  1 O       -1.9490    -0.8750    -0.5020 O.3   1 <1>  -0.3630 
  2 C       -2.7550     0.1670    -0.1770 C.ar  1 <1>   0.0830 
  3 C       -2.0110    -2.0980     0.1980 C.3   1 <1>   0.0400 
  4 C       -2.5740     1.3410    -0.8880 C.ar  1 <1>  -0.1500 
  5 C       -3.7310     0.1150     0.8140 C.ar  1 <1>  -0.1500 
  6 C       -3.3530     2.4520    -0.6210 C.ar  1 <1>  -0.1500 
  7 C       -4.5110     1.2270     1.0790 C.ar  1 <1>  -0.1500 
  8 C       -4.3300     2.4010     0.3620 C.ar  1 <1>  -0.1430 
  9 C       -5.1930     3.6190     0.6410 C.3   1 <1>  -0.0170 
 10 C       -6.2780     3.7320    -0.4410 C.3   1 <1>  -0.1600 
 11 C       -7.3360     4.8030    -0.1410 C.3   1 <1>   0.4230 
 12 N       -8.3850     4.7500    -1.1900 N.4   1 <1>  -0.6410 
 13 C       -6.7560     6.2150    -0.1490 C.3   1 <1>  -0.2400 
 14 N       -9.6800     4.0880    -0.8270 N.3   1 <1>  -0.3020 
 15 C      -10.4540     4.8070     0.2090 C.3   1 <1>   0.1100 
 16 C       -9.5760     2.6360    -0.5650 C.3   1 <1>   0.1100 
 17 C      -11.8620     4.1950     0.3750 C.3   1 <1>   0.3430 
 18 C      -10.9740     1.9980    -0.4100 C.3   1 <1>   0.3430 
 19 N      -11.8090     2.7100     0.6210 N.4   1 <1>  -0.9590 
 20 C      -13.1950     2.1370     0.6580 C.3   1 <1>   0.2630 
 21 H       -1.2720    -2.7570    -0.2180 H     1 <1>   0.0800 
 22 H       -2.9910    -2.5220     0.0730 H     1 <1>   0.0800 
 23 H       -1.7980    -1.9170     1.2360 H     1 <1>   0.0800 
 24 H       -1.8150     1.3760    -1.6490 H     1 <1>   0.1500 
 25 H       -3.8930    -0.7790     1.3860 H     1 <1>   0.1500 
 26 H       -3.1860     3.3540    -1.1830 H     1 <1>   0.1500 
 27 H       -5.2540     1.1670     1.8530 H     1 <1>   0.1500 
 28 H       -4.5640     4.4930     0.6490 H     1 <1>   0.0800 
 29 H       -5.6380     3.5250     1.6170 H     1 <1>   0.0800 
 30 H       -6.7530     2.7700    -0.5180 H     1 <1>   0.0800 
 31 H       -5.7960     3.9400    -1.3820 H     1 <1>   0.0800 
 32 H       -7.7780     4.6130     0.8230 H     1 <1>   0.0800 
 33 H       -7.9720     4.3030    -2.0240 H     1 <1>   0.4500 
 34 H       -8.5610     5.7200    -1.4950 H     1 <1>   0.4500 
 35 H       -6.2520     6.4280    -1.0760 H     1 <1>   0.0800 
 36 H       -6.0400     6.3250     0.6470 H     1 <1>   0.0800 
 37 H       -7.5260     6.9480     0.0180 H     1 <1>   0.0800 
 38 H      -10.5600     5.8390    -0.0760 H     1 <1>   0.0800 
 39 H       -9.9360     4.7720     1.1520 H     1 <1>   0.0800 
 40 H       -9.0040     2.4590     0.3290 H     1 <1>   0.0800 
 41 H       -9.0710     2.1590    -1.3870 H     1 <1>   0.0800 
 42 H      -12.4280     4.3910    -0.5220 H     1 <1>   0.0800 
 43 H      -12.3690     4.6830     1.1920 H     1 <1>   0.0800 
 44 H      -10.8640     0.9600    -0.1390 H     1 <1>   0.0800 
 45 H      -11.4740     2.0330    -1.3650 H     1 <1>   0.0800 
 46 H      -11.3920     2.5470     1.5510 H     1 <1>   0.4500 
 47 H      -13.6880     2.2760    -0.2900 H     1 <1>   0.0800 
 48 H      -13.7820     2.6190     1.4240 H     1 <1>   0.0800 
 49 H      -13.1600     1.0800     0.8740 H     1 <1>   0.0800 
@<TRIPOS>BOND
  1   1   2  1   
  2   1   3  1   
  3   2   4  ar  
  4   2   5  ar  
  5   3  21  1   
  6   3  22  1   
  7   3  23  1   
  8   4   6  ar  
  9   4  24  1   
 10   5   7  ar  
 11   5  25  1   
 12   6   8  ar  
 13   6  26  1   
 14   7   8  ar  
 15   7  27  1   
 16   8   9  1   
 17   9  10  1   
 18   9  28  1   
 19   9  29  1   
 20  10  11  1   
 21  10  30  1   
 22  10  31  1   
 23  11  12  1   
 24  11  13  1   
 25  11  32  1   
 26  12  14  1   
 27  12  33  1   
 28  12  34  1   
 29  13  35  1   
 30  13  36  1   
 31  13  37  1   
 32  14  15  1   
 33  14  16  1   
 34  15  17  1   
 35  15  38  1   
 36  15  39  1   
 37  16  18  1   
 38  16  40  1   
 39  16  41  1   
 40  17  19  1   
 41  17  42  1   
 42  17  43  1   
 43  18  19  1   
 44  18  44  1   
 45  18  45  1   
 46  19  20  1   
 47  19  46  1   
 48  20  47  1   
 49  20  48  1   
 50  20  49  1   
@<TRIPOS>SUBSTRUCTURE
  1 ****  10 GROUP 4 **** **** 0

# MOE 2024.06 (io_trps.svl 2023.06)
