@<TRIPOS>MOLECULE
NONAME
45 47 1 0 0 
SMALL
USER_CHARGES


@<TRIPOS>ATOM
  1 O        1.6730    -1.3260     1.9960 O.2   1 <1>  -0.5700 
  2 C        2.0690    -1.3380     0.8540 C.2   1 <1>   0.5690 
  3 N        2.5300    -0.2020     0.2480 N.am  1 <1>  -0.6600 
  4 C        2.0250    -2.6810     0.1190 C.3   1 <1>  -0.0190 
  5 C        3.0490    -0.0500    -1.1320 C.3   1 <1>   0.1400 
  6 C        2.5280     1.1020     0.9510 C.3   1 <1>   0.1400 
  7 C        0.5720    -3.1730    -0.0180 C.3   1 <1>  -0.1600 
  8 C        2.8730    -3.7320     0.8620 C.3   1 <1>  -0.1600 
  9 C        3.5790     1.3780    -1.2000 C.3   1 <1>  -0.1600 
 10 C        2.7910     2.1350    -0.1370 C.3   1 <1>  -0.1600 
 11 C        0.4870    -4.5760    -0.6140 C.3   1 <1>   0.3430 
 12 C        2.7420    -5.1220     0.2440 C.3   1 <1>   0.3430 
 13 N        1.3080    -5.5160     0.2050 N.4   1 <1>  -0.9590 
 14 C        1.1400    -6.9300    -0.2410 C.3   1 <1>   0.5230 
 15 C       -0.2320    -7.4420     0.1550 C.2   1 <1>  -0.0400 
 16 O       -1.2950    -6.9950    -0.4870 O.3   1 <1>  -0.2800 
 17 C       -0.5950    -8.3350     1.1020 C.2   1 <1>  -0.1500 
 18 C       -2.3540    -7.5840     0.0300 C.2   1 <1>  -0.0400 
 19 C       -1.9890    -8.4260     1.0200 C.2   1 <1>  -0.1500 
 20 C       -3.7210    -7.2530    -0.5270 C.3   1 <1>  -0.0600 
 21 H        2.4300    -2.5660    -0.8680 H     1 <1>   0.0800 
 22 H        2.2400    -0.1780    -1.8310 H     1 <1>   0.0800 
 23 H        3.8330    -0.7600    -1.3350 H     1 <1>   0.0800 
 24 H        3.3220     1.1090     1.6790 H     1 <1>   0.0800 
 25 H        1.5870     1.2740     1.4450 H     1 <1>   0.0800 
 26 H        0.0240    -2.4910    -0.6440 H     1 <1>   0.0800 
 27 H        0.0910    -3.1740     0.9450 H     1 <1>   0.0800 
 28 H        2.5780    -3.7800     1.8960 H     1 <1>   0.0800 
 29 H        3.9070    -3.4320     0.8420 H     1 <1>   0.0800 
 30 H        3.4600     1.8050    -2.1800 H     1 <1>   0.0800 
 31 H        4.6250     1.3770    -0.9440 H     1 <1>   0.0800 
 32 H        3.3250     2.9880     0.2430 H     1 <1>   0.0800 
 33 H        1.8490     2.4630    -0.5410 H     1 <1>   0.0800 
 34 H        0.8440    -4.5640    -1.6310 H     1 <1>   0.0800 
 35 H       -0.5450    -4.8870    -0.6210 H     1 <1>   0.0800 
 36 H        3.3050    -5.8270     0.8350 H     1 <1>   0.0800 
 37 H        3.1480    -5.1130    -0.7550 H     1 <1>   0.0800 
 38 H        0.9310    -5.4710     1.1610 H     1 <1>   0.4500 
 39 H        1.8820    -7.5500     0.2330 H     1 <1>   0.0800 
 40 H        1.2620    -7.0080    -1.3090 H     1 <1>   0.0800 
 41 H        0.0120    -8.8910     1.7960 H     1 <1>   0.1500 
 42 H       -2.6130    -9.0520     1.6350 H     1 <1>   0.1500 
 43 H       -3.9210    -6.2030    -0.4110 H     1 <1>   0.0800 
 44 H       -4.4790    -7.8110    -0.0070 H     1 <1>   0.0800 
 45 H       -3.7610    -7.5050    -1.5710 H     1 <1>   0.0800 
@<TRIPOS>BOND
  1   1   2  2   
  2   2   3  am  
  3   2   4  1   
  4   3   5  1   
  5   3   6  1   
  6   4   7  1   
  7   4   8  1   
  8   4  21  1   
  9   5   9  1   
 10   5  22  1   
 11   5  23  1   
 12   6  10  1   
 13   6  24  1   
 14   6  25  1   
 15   7  11  1   
 16   7  26  1   
 17   7  27  1   
 18   8  12  1   
 19   8  28  1   
 20   8  29  1   
 21   9  10  1   
 22   9  30  1   
 23   9  31  1   
 24  10  32  1   
 25  10  33  1   
 26  11  13  1   
 27  11  34  1   
 28  11  35  1   
 29  12  13  1   
 30  12  36  1   
 31  12  37  1   
 32  13  14  1   
 33  13  38  1   
 34  14  15  1   
 35  14  39  1   
 36  14  40  1   
 37  15  16  1   
 38  15  17  2   
 39  16  18  1   
 40  17  19  1   
 41  17  41  1   
 42  18  19  2   
 43  18  20  1   
 44  19  42  1   
 45  20  43  1   
 46  20  44  1   
 47  20  45  1   
@<TRIPOS>SUBSTRUCTURE
  1 ****   7 GROUP 4 **** **** 0

# MOE 2024.06 (io_trps.svl 2023.06)
