@<TRIPOS>MOLECULE
NONAME
33 35 1 0 0 
SMALL
USER_CHARGES


@<TRIPOS>ATOM
  1 O       -0.1900    -1.2010     3.0250 O.2   1 <1>  -0.5700 
  2 C        0.3100    -1.9700     2.2420 C.2   1 <1>   0.5700 
  3 N       -0.3030    -2.4350     1.1200 N.am  1 <1>  -0.7300 
  4 C       -1.6550    -2.1210     0.6230 C.3   1 <1>   0.3000 
  5 C       -1.7910    -0.6160     0.3230 C.3   1 <1>  -0.1600 
  6 C       -1.8650    -2.9110    -0.6820 C.3   1 <1>  -0.1600 
  7 C       -2.7260    -2.5500     1.6430 C.3   1 <1>  -0.1600 
  8 C       -3.1940    -0.3080    -0.2440 C.3   1 <1>   0.0000 
  9 C       -3.2650    -2.6270    -1.2580 C.3   1 <1>  -0.0800 
 10 C       -4.1310    -2.2580     1.0820 C.3   1 <1>  -0.0800 
 11 C       -3.3970    -1.1190    -1.5410 C.3   1 <1>  -0.1600 
 12 C       -4.2540    -0.7500     0.7890 C.3   1 <1>  -0.1600 
 13 C       -3.3290     1.1920    -0.5320 C.3   1 <1>  -0.2400 
 14 C       -4.3300    -3.0450    -0.2270 C.3   1 <1>  -0.1600 
 15 H        1.3090    -2.3150     2.4410 H     1 <1>   0.0600 
 16 H        0.2050    -3.0820     0.5200 H     1 <1>   0.3700 
 17 H       -1.0380    -0.3190    -0.3840 H     1 <1>   0.0800 
 18 H       -1.6450    -0.0520     1.2260 H     1 <1>   0.0800 
 19 H       -1.7690    -3.9650    -0.4910 H     1 <1>   0.0800 
 20 H       -1.1220    -2.6260    -1.4050 H     1 <1>   0.0800 
 21 H       -2.5980    -2.0060     2.5620 H     1 <1>   0.0800 
 22 H       -2.6310    -3.5990     1.8570 H     1 <1>   0.0800 
 23 H       -3.4050    -3.1820    -2.1700 H     1 <1>   0.0800 
 24 H       -4.8780    -2.5500     1.8010 H     1 <1>   0.0800 
 25 H       -2.6680    -0.8250    -2.2760 H     1 <1>   0.0800 
 26 H       -4.3720    -0.9150    -1.9500 H     1 <1>   0.0800 
 27 H       -5.2400    -0.5360     0.4150 H     1 <1>   0.0800 
 28 H       -4.1250    -0.1960     1.7030 H     1 <1>   0.0800 
 29 H       -2.5930     1.5060    -1.2500 H     1 <1>   0.0800 
 30 H       -3.1880     1.7610     0.3700 H     1 <1>   0.0800 
 31 H       -4.3060     1.4140    -0.9250 H     1 <1>   0.0800 
 32 H       -4.2570    -4.1010    -0.0320 H     1 <1>   0.0800 
 33 H       -5.3130    -2.8540    -0.6200 H     1 <1>   0.0800 
@<TRIPOS>BOND
  1   1   2  2   
  2   2   3  am  
  3   2  15  1   
  4   3   4  1   
  5   3  16  1   
  6   4   5  1   
  7   4   6  1   
  8   4   7  1   
  9   5   8  1   
 10   5  17  1   
 11   5  18  1   
 12   6   9  1   
 13   6  19  1   
 14   6  20  1   
 15   7  10  1   
 16   7  21  1   
 17   7  22  1   
 18   8  11  1   
 19   8  12  1   
 20   8  13  1   
 21   9  11  1   
 22   9  14  1   
 23   9  23  1   
 24  10  12  1   
 25  10  14  1   
 26  10  24  1   
 27  11  25  1   
 28  11  26  1   
 29  12  27  1   
 30  12  28  1   
 31  13  29  1   
 32  13  30  1   
 33  13  31  1   
 34  14  32  1   
 35  14  33  1   
@<TRIPOS>SUBSTRUCTURE
  1 ****   4 GROUP 4 **** **** 0

# MOE 2024.06 (io_trps.svl 2023.06)
