@<TRIPOS>MOLECULE
NONAME
54 56 1 0 0 
SMALL
USER_CHARGES


@<TRIPOS>ATOM
  1 S       -0.0110    -0.0910     0.2110 S.o2  1 <1>   1.4470 
  2 O       -0.2420    -0.4900     1.5850 O.2   1 <1>  -0.6500 
  3 O        0.2440    -1.1120    -0.7820 O.2   1 <1>  -0.6500 
  4 N       -1.4040     0.7450    -0.2790 N.am  1 <1>  -0.8490 
  5 C        1.2910     1.1700     0.1300 C.ar  1 <1>  -0.0090 
  6 C       -1.8270     1.7340     0.7180 C.3   1 <1>   0.1960 
  7 C       -2.4870    -0.1820    -0.6140 C.3   1 <1>   0.1960 
  8 C        2.1710     1.3690     1.1870 C.ar  1 <1>  -0.1500 
  9 C        1.4420     1.9690    -0.9970 C.ar  1 <1>  -0.1500 
 10 C       -2.9950     2.5620     0.1780 C.3   1 <1>  -0.1600 
 11 C       -3.6880     0.5800    -1.1820 C.3   1 <1>  -0.1600 
 12 C        3.1610     2.3350     1.1250 C.ar  1 <1>  -0.1500 
 13 C        2.4300     2.9360    -1.0660 C.ar  1 <1>  -0.1500 
 14 C       -4.1830     1.6600    -0.2060 C.3   1 <1>  -0.0190 
 15 C        3.2940     3.1260    -0.0020 C.ar  1 <1>  -0.1430 
 16 C       -5.3570     2.4510    -0.8000 C.2   1 <1>   0.5690 
 17 C        4.3800     4.1850    -0.0750 C.3   1 <1>  -0.0970 
 18 O       -5.1060     3.3880    -1.5220 O.2   1 <1>  -0.5700 
 19 N       -6.6560     2.0980    -0.5290 N.am  1 <1>  -0.6600 
 20 C       -7.7920     2.9240    -1.0460 C.3   1 <1>   0.1400 
 21 C       -7.0740     0.9000     0.2640 C.3   1 <1>   0.1400 
 22 C       -8.9700     2.9660    -0.0450 C.3   1 <1>   0.2000 
 23 C       -8.5760     0.5970     0.0970 C.3   1 <1>   0.2000 
 24 O       -9.3490     1.7060     0.4500 O.3   1 <1>  -0.5600 
 25 C      -10.2190     3.5910    -0.6610 C.3   1 <1>  -0.2400 
 26 C       -9.0320    -0.5600     0.9820 C.3   1 <1>  -0.2400 
 27 H       -1.0090     2.3970     0.9440 H     1 <1>   0.0800 
 28 H       -2.1200     1.2390     1.6300 H     1 <1>   0.0800 
 29 H       -2.7760    -0.7370     0.2630 H     1 <1>   0.0800 
 30 H       -2.1460    -0.8840    -1.3580 H     1 <1>   0.0800 
 31 H        2.0800     0.7600     2.0710 H     1 <1>   0.1500 
 32 H        0.7750     1.8300    -1.8320 H     1 <1>   0.1500 
 33 H       -2.6560     3.1160    -0.6810 H     1 <1>   0.0800 
 34 H       -3.3070     3.2720     0.9230 H     1 <1>   0.0800 
 35 H       -4.4810    -0.1140    -1.3940 H     1 <1>   0.0800 
 36 H       -3.3990     1.0390    -2.1120 H     1 <1>   0.0800 
 37 H        3.8280     2.4650     1.9600 H     1 <1>   0.1500 
 38 H        2.5220     3.5390    -1.9530 H     1 <1>   0.1500 
 39 H       -4.5110     1.1800     0.6960 H     1 <1>   0.0800 
 40 H        4.0560     5.0140    -0.6780 H     1 <1>   0.0800 
 41 H        5.2680     3.7640    -0.5100 H     1 <1>   0.0800 
 42 H        4.6150     4.5520     0.9080 H     1 <1>   0.0800 
 43 H       -8.1280     2.5130    -1.9810 H     1 <1>   0.0800 
 44 H       -7.4630     3.9310    -1.2340 H     1 <1>   0.0800 
 45 H       -6.8690     1.0770     1.3060 H     1 <1>   0.0800 
 46 H       -6.5090     0.0430    -0.0550 H     1 <1>   0.0800 
 47 H       -8.6690     3.5520     0.8060 H     1 <1>   0.0800 
 48 H       -8.7870     0.3610    -0.9330 H     1 <1>   0.0800 
 49 H      -10.5600     3.0030    -1.4940 H     1 <1>   0.0800 
 50 H      -10.0040     4.5860    -1.0040 H     1 <1>   0.0800 
 51 H      -10.9990     3.6470     0.0770 H     1 <1>   0.0800 
 52 H       -8.8630    -0.3270     2.0180 H     1 <1>   0.0800 
 53 H       -8.4920    -1.4550     0.7330 H     1 <1>   0.0800 
 54 H      -10.0810    -0.7420     0.8290 H     1 <1>   0.0800 
@<TRIPOS>BOND
  1   1   2  2   
  2   1   3  2   
  3   1   4  am  
  4   1   5  1   
  5   4   6  1   
  6   4   7  1   
  7   5   8  ar  
  8   5   9  ar  
  9   6  10  1   
 10   6  27  1   
 11   6  28  1   
 12   7  11  1   
 13   7  29  1   
 14   7  30  1   
 15   8  12  ar  
 16   8  31  1   
 17   9  13  ar  
 18   9  32  1   
 19  10  14  1   
 20  10  33  1   
 21  10  34  1   
 22  11  14  1   
 23  11  35  1   
 24  11  36  1   
 25  12  15  ar  
 26  12  37  1   
 27  13  15  ar  
 28  13  38  1   
 29  14  16  1   
 30  14  39  1   
 31  15  17  1   
 32  16  18  2   
 33  16  19  am  
 34  17  40  1   
 35  17  41  1   
 36  17  42  1   
 37  19  20  1   
 38  19  21  1   
 39  20  22  1   
 40  20  43  1   
 41  20  44  1   
 42  21  23  1   
 43  21  45  1   
 44  21  46  1   
 45  22  24  1   
 46  22  25  1   
 47  22  47  1   
 48  23  24  1   
 49  23  26  1   
 50  23  48  1   
 51  25  49  1   
 52  25  50  1   
 53  25  51  1   
 54  26  52  1   
 55  26  53  1   
 56  26  54  1   
@<TRIPOS>SUBSTRUCTURE
  1 ****  10 GROUP 4 **** **** 0

# MOE 2024.06 (io_trps.svl 2023.06)
