@<TRIPOS>MOLECULE
NONAME
34 36 1 0 0 
SMALL
USER_CHARGES


@<TRIPOS>ATOM
  1 BR      -0.3760    -0.5250    -1.4660 Br    1 <1>  -0.0580 
  2 C       -2.0330    -0.2710    -0.5180 C.2   1 <1>   0.1980 
  3 O       -3.1200    -0.8000    -1.0350 O.3   1 <1>  -0.2800 
  4 C       -2.2540     0.3890     0.6340 C.2   1 <1>  -0.1500 
  5 C       -4.1030    -0.4830    -0.2060 C.2   1 <1>  -0.0400 
  6 C       -3.6340     0.2450     0.8390 C.2   1 <1>  -0.1500 
  7 C       -5.5080    -0.9670    -0.5370 C.3   1 <1>   0.2900 
  8 N       -6.5320    -0.2830     0.2760 N.3   1 <1>  -0.8100 
  9 C       -7.8170    -1.0190     0.2310 C.3   1 <1>   0.1100 
 10 C       -6.7400     1.1110    -0.1920 C.3   1 <1>   0.1100 
 11 C       -8.9190    -0.3300     1.0590 C.3   1 <1>   0.2090 
 12 C       -7.8110     1.8470     0.6320 C.3   1 <1>   0.2090 
 13 N       -9.0990     1.0870     0.6170 N.pl3 1 <1>  -0.8380 
 14 C      -10.2550     1.5530     0.0270 C.ar  1 <1>   0.7200 
 15 N      -11.3520     0.8080     0.1640 N.ar  1 <1>  -0.6200 
 16 N      -10.1810     2.7100    -0.6330 N.ar  1 <1>  -0.6200 
 17 C      -12.4450     1.2660    -0.3950 C.ar  1 <1>   0.1600 
 18 C      -11.2890     3.1430    -1.1820 C.ar  1 <1>   0.1600 
 19 C      -12.4690     2.4480    -1.0910 C.ar  1 <1>  -0.1500 
 20 H       -1.5580     0.9100     1.2650 H     1 <1>   0.1500 
 21 H       -4.1930     0.6360     1.6710 H     1 <1>   0.1500 
 22 H       -5.5420    -2.0260    -0.3480 H     1 <1>   0.0800 
 23 H       -5.7060    -0.8080    -1.5830 H     1 <1>   0.0800 
 24 H       -7.6710    -2.0130     0.6170 H     1 <1>   0.0800 
 25 H       -8.1570    -1.1010    -0.7880 H     1 <1>   0.0800 
 26 H       -7.0470     1.1110    -1.2240 H     1 <1>   0.0800 
 27 H       -5.8170     1.6590    -0.1200 H     1 <1>   0.0800 
 28 H       -8.6400    -0.3410     2.0970 H     1 <1>   0.0800 
 29 H       -9.8300    -0.8930     0.9610 H     1 <1>   0.0800 
 30 H       -7.9350     2.8430     0.2450 H     1 <1>   0.0800 
 31 H       -7.4710     1.9370     1.6480 H     1 <1>   0.0800 
 32 H      -13.3450     0.6830    -0.2940 H     1 <1>   0.1500 
 33 H      -11.2540     4.0760    -1.7190 H     1 <1>   0.1500 
 34 H      -13.3700     2.8130    -1.5440 H     1 <1>   0.1500 
@<TRIPOS>BOND
  1   1   2  1   
  2   2   3  1   
  3   2   4  2   
  4   3   5  1   
  5   4   6  1   
  6   4  20  1   
  7   5   6  2   
  8   5   7  1   
  9   6  21  1   
 10   7   8  1   
 11   7  22  1   
 12   7  23  1   
 13   8   9  1   
 14   8  10  1   
 15   9  11  1   
 16   9  24  1   
 17   9  25  1   
 18  10  12  1   
 19  10  26  1   
 20  10  27  1   
 21  11  13  1   
 22  11  28  1   
 23  11  29  1   
 24  12  13  1   
 25  12  30  1   
 26  12  31  1   
 27  13  14  1   
 28  14  15  ar  
 29  14  16  ar  
 30  15  17  ar  
 31  16  18  ar  
 32  17  19  ar  
 33  17  32  1   
 34  18  19  ar  
 35  18  33  1   
 36  19  34  1   
@<TRIPOS>SUBSTRUCTURE
  1 ****  10 GROUP 4 **** **** 0

# MOE 2024.06 (io_trps.svl 2023.06)
