@<TRIPOS>MOLECULE
NONAME
30 30 1 0 0 
SMALL
USER_CHARGES


@<TRIPOS>ATOM
  1 O        2.6000    -3.2250     2.0840 O.co2 1 <1>  -0.9000 
  2 C        1.9510    -2.1780     1.9190 C.2   1 <1>   0.9060 
  3 O        1.8030    -1.3810     2.8570 O.co2 1 <1>  -0.9000 
  4 C        1.3210    -1.8550     0.5510 C.3   1 <1>  -0.0430 
  5 C       -0.0100    -2.5840     0.2890 C.ar  1 <1>  -0.1440 
  6 C        2.3060    -2.0740    -0.6310 C.3   1 <1>  -0.2660 
  7 C       -0.9090    -2.0300    -0.6080 C.ar  1 <1>  -0.1500 
  8 C       -0.3400    -3.7830     0.9010 C.ar  1 <1>  -0.1500 
  9 C        1.8760    -1.4660    -1.9500 C.2   1 <1>   0.9060 
 10 C       -2.1040    -2.6650    -0.9240 C.ar  1 <1>   0.0820 
 11 C       -1.5440    -4.4110     0.6300 C.ar  1 <1>  -0.1500 
 12 O        1.8620    -2.1710    -2.9660 O.co2 1 <1>  -0.9000 
 13 O        1.5830    -0.2640    -2.0020 O.co2 1 <1>  -0.9000 
 14 O       -2.9420    -2.1550    -1.8730 O.3   1 <1>  -0.3630 
 15 C       -2.4400    -3.8600    -0.2840 C.ar  1 <1>   0.0820 
 16 C       -2.3650    -1.4480    -2.9530 C.3   1 <1>   0.0400 
 17 O       -3.6350    -4.4490    -0.5900 O.3   1 <1>  -0.3630 
 18 C       -3.9830    -5.7070    -0.0620 C.3   1 <1>   0.0400 
 19 H        1.1080    -0.8030     0.5890 H     1 <1>   0.0800 
 20 H        2.4570    -3.1270    -0.7720 H     1 <1>   0.0800 
 21 H        3.2520    -1.6370    -0.3780 H     1 <1>   0.0800 
 22 H       -0.6480    -1.0940    -1.0670 H     1 <1>   0.1500 
 23 H        0.3480    -4.2350     1.5960 H     1 <1>   0.1500 
 24 H       -1.7520    -5.3280     1.1410 H     1 <1>   0.1500 
 25 H       -3.0960    -1.3740    -3.7360 H     1 <1>   0.0800 
 26 H       -1.4990    -1.9850    -3.3050 H     1 <1>   0.0800 
 27 H       -2.0820    -0.4660    -2.6190 H     1 <1>   0.0800 
 28 H       -4.9380    -5.9850    -0.4690 H     1 <1>   0.0800 
 29 H       -4.0490    -5.6270     1.0080 H     1 <1>   0.0800 
 30 H       -3.2360    -6.4240    -0.3530 H     1 <1>   0.0800 
@<TRIPOS>BOND
  1   1   2  ar  
  2   2   3  ar  
  3   2   4  1   
  4   4   5  1   
  5   4   6  1   
  6   4  19  1   
  7   5   7  ar  
  8   5   8  ar  
  9   6   9  1   
 10   6  20  1   
 11   6  21  1   
 12   7  10  ar  
 13   7  22  1   
 14   8  11  ar  
 15   8  23  1   
 16   9  12  ar  
 17   9  13  ar  
 18  10  14  1   
 19  10  15  ar  
 20  11  15  ar  
 21  11  24  1   
 22  14  16  1   
 23  15  17  1   
 24  16  25  1   
 25  16  26  1   
 26  16  27  1   
 27  17  18  1   
 28  18  28  1   
 29  18  29  1   
 30  18  30  1   
@<TRIPOS>SUBSTRUCTURE
  1 ****   5 GROUP 4 **** **** 0

# MOE 2024.06 (io_trps.svl 2023.06)
