@<TRIPOS>MOLECULE
NONAME
50 52 1 0 0 
SMALL
USER_CHARGES


@<TRIPOS>ATOM
  1 O        1.3380     0.2720    -0.8880 O.2   1 <1>  -0.5700 
  2 C        1.1890    -0.9240    -0.9160 C.2   1 <1>   0.5700 
  3 N        2.2430    -1.7970    -0.9160 N.am  1 <1>  -0.6600 
  4 C        3.6560    -1.3140    -0.9740 C.3   1 <1>   0.1400 
  5 C        2.0680    -3.2680    -0.7700 C.3   1 <1>   0.1400 
  6 C        4.4610    -1.8560     0.2190 C.3   1 <1>   0.3430 
  7 C        2.9060    -3.8010     0.4120 C.3   1 <1>   0.3430 
  8 N        4.3440    -3.3560     0.3440 N.4   1 <1>  -0.9590 
  9 C        5.1380    -3.8680     1.4950 C.3   1 <1>   0.4860 
 10 C        6.6000    -3.5570     1.2410 C.ar  1 <1>  -0.1440 
 11 C        7.3050    -4.2590     0.2730 C.ar  1 <1>  -0.1500 
 12 C        7.2440    -2.5640     1.9660 C.ar  1 <1>  -0.1500 
 13 C        8.6330    -3.9650     0.0180 C.ar  1 <1>   0.0820 
 14 C        8.5690    -2.2590     1.7060 C.ar  1 <1>  -0.1500 
 15 O        9.2630    -4.7090    -0.9200 O.3   1 <1>  -0.3620 
 16 C        9.2680    -2.9370     0.7230 C.ar  1 <1>   0.0820 
 17 C       10.2090    -5.6400    -0.4360 C.3   1 <1>   0.0400 
 18 O       10.5480    -2.5480     0.5030 O.3   1 <1>  -0.3630 
 19 C       10.9420    -2.2540    -0.8240 C.3   1 <1>   0.2640 
 20 C       12.1140    -1.2850    -0.7950 C.ar  1 <1>  -0.1440 
 21 C       12.0770    -0.1170    -1.5430 C.ar  1 <1>  -0.1500 
 22 C       13.2360    -1.5620    -0.0280 C.ar  1 <1>  -0.1500 
 23 C       13.1480     0.7610    -1.5240 C.ar  1 <1>  -0.1500 
 24 C       14.3070    -0.6850    -0.0080 C.ar  1 <1>  -0.1500 
 25 C       14.2640     0.4770    -0.7570 C.ar  1 <1>  -0.1500 
 26 H        0.1880    -1.3190    -0.9230 H     1 <1>   0.0600 
 27 H        3.6880    -0.2370    -0.9580 H     1 <1>   0.0800 
 28 H        4.1060    -1.6360    -1.8970 H     1 <1>   0.0800 
 29 H        2.3730    -3.7530    -1.6820 H     1 <1>   0.0800 
 30 H        1.0290    -3.4990    -0.6060 H     1 <1>   0.0800 
 31 H        4.0950    -1.3840     1.1170 H     1 <1>   0.0800 
 32 H        5.4950    -1.5740     0.0970 H     1 <1>   0.0800 
 33 H        2.8540    -4.8780     0.4210 H     1 <1>   0.0800 
 34 H        2.4630    -3.4430     1.3270 H     1 <1>   0.0800 
 35 H        4.7710    -3.7530    -0.5020 H     1 <1>   0.4500 
 36 H        5.0130    -4.9340     1.5910 H     1 <1>   0.0800 
 37 H        4.8140    -3.4000     2.4110 H     1 <1>   0.0800 
 38 H        6.8480    -5.0510    -0.2950 H     1 <1>   0.1500 
 39 H        6.7310    -2.0150     2.7390 H     1 <1>   0.1500 
 40 H        9.0740    -1.4870     2.2620 H     1 <1>   0.1500 
 41 H       10.6410    -6.1520    -1.2780 H     1 <1>   0.0800 
 42 H        9.7090    -6.3430     0.2060 H     1 <1>   0.0800 
 43 H       10.9760    -5.1190     0.1100 H     1 <1>   0.0800 
 44 H       10.1030    -1.8230    -1.3420 H     1 <1>   0.0800 
 45 H       11.2330    -3.1680    -1.3070 H     1 <1>   0.0800 
 46 H       11.2170     0.1170    -2.1440 H     1 <1>   0.1500 
 47 H       13.2750    -2.4620     0.5610 H     1 <1>   0.1500 
 48 H       13.1120     1.6650    -2.1060 H     1 <1>   0.1500 
 49 H       15.1720    -0.9080     0.5910 H     1 <1>   0.1500 
 50 H       15.0960     1.1590    -0.7420 H     1 <1>   0.1500 
@<TRIPOS>BOND
  1   1   2  2   
  2   2   3  am  
  3   2  26  1   
  4   3   4  1   
  5   3   5  1   
  6   4   6  1   
  7   4  27  1   
  8   4  28  1   
  9   5   7  1   
 10   5  29  1   
 11   5  30  1   
 12   6   8  1   
 13   6  31  1   
 14   6  32  1   
 15   7   8  1   
 16   7  33  1   
 17   7  34  1   
 18   8   9  1   
 19   8  35  1   
 20   9  10  1   
 21   9  36  1   
 22   9  37  1   
 23  10  11  ar  
 24  10  12  ar  
 25  11  13  ar  
 26  11  38  1   
 27  12  14  ar  
 28  12  39  1   
 29  13  15  1   
 30  13  16  ar  
 31  14  16  ar  
 32  14  40  1   
 33  15  17  1   
 34  16  18  1   
 35  17  41  1   
 36  17  42  1   
 37  17  43  1   
 38  18  19  1   
 39  19  20  1   
 40  19  44  1   
 41  19  45  1   
 42  20  21  ar  
 43  20  22  ar  
 44  21  23  ar  
 45  21  46  1   
 46  22  24  ar  
 47  22  47  1   
 48  23  25  ar  
 49  23  48  1   
 50  24  25  ar  
 51  24  49  1   
 52  25  50  1   
@<TRIPOS>SUBSTRUCTURE
  1 ****  16 GROUP 4 **** **** 0

# MOE 2024.06 (io_trps.svl 2023.06)
