@<TRIPOS>MOLECULE
NONAME
47 49 1 0 0 
SMALL
USER_CHARGES


@<TRIPOS>ATOM
  1 O        0.8740    -1.8450    -1.8790 O.2   1 <1>  -0.5700 
  2 C        0.9540    -1.2130    -0.8420 C.2   1 <1>   0.6900 
  3 N        2.0760    -0.4730    -0.5730 N.am  1 <1>  -0.6600 
  4 N       -0.0590    -1.2050     0.0690 N.am  1 <1>  -0.5470 
  5 C        3.1150    -0.2360    -1.6260 C.3   1 <1>   0.1400 
  6 C        2.5880    -0.2190     0.8120 C.3   1 <1>   0.1400 
  7 C       -1.2750    -1.9000     0.1910 C.ar  1 <1>   0.1170 
  8 C        4.3840    -1.0550    -1.3430 C.3   1 <1>   0.2090 
  9 C        3.8700    -1.0280     1.0850 C.3   1 <1>   0.2090 
 10 C       -2.1850    -1.4670     1.1620 C.ar  1 <1>   0.0820 
 11 C       -1.6070    -2.9980    -0.5950 C.ar  1 <1>  -0.1500 
 12 N        4.9020    -0.7830     0.0340 N.pl3 1 <1>  -0.8380 
 13 O       -1.8200    -0.3900     1.9260 O.3   1 <1>  -0.3630 
 14 C       -3.4000    -2.1270     1.3200 C.ar  1 <1>  -0.1500 
 15 C       -2.8170    -3.6530    -0.4390 C.ar  1 <1>  -0.1430 
 16 C        6.1760    -1.2640     0.3140 C.ar  1 <1>   0.1000 
 17 C       -2.7150     0.1770     2.8580 C.3   1 <1>   0.0400 
 18 C       -3.7110    -3.2130     0.5220 C.ar  1 <1>  -0.1500 
 19 C       -3.1620    -4.8470    -1.3110 C.3   1 <1>  -0.0970 
 20 C        7.2050    -0.3690     0.5700 C.ar  1 <1>  -0.1500 
 21 C        6.4510    -2.6260     0.3470 C.ar  1 <1>  -0.1500 
 22 C        8.4810    -0.8190     0.8550 C.ar  1 <1>  -0.1500 
 23 C        7.7250    -3.0830     0.6310 C.ar  1 <1>  -0.1500 
 24 C        8.7430    -2.1790     0.8850 C.ar  1 <1>  -0.1500 
 25 H        0.0160    -0.4480     0.7430 H     1 <1>   0.3700 
 26 H        3.3690     0.8090    -1.6390 H     1 <1>   0.0800 
 27 H        2.7330    -0.4930    -2.5980 H     1 <1>   0.0800 
 28 H        1.8530    -0.4810     1.5500 H     1 <1>   0.0800 
 29 H        2.8090     0.8280     0.9180 H     1 <1>   0.0800 
 30 H        5.1420    -0.8020    -2.0630 H     1 <1>   0.0800 
 31 H        4.1570    -2.1020    -1.4470 H     1 <1>   0.0800 
 32 H        3.6280    -2.0760     1.1140 H     1 <1>   0.0800 
 33 H        4.2710    -0.7510     2.0450 H     1 <1>   0.0800 
 34 H       -0.9140    -3.3480    -1.3360 H     1 <1>   0.1500 
 35 H       -4.1170    -1.8170     2.0550 H     1 <1>   0.1500 
 36 H       -2.2360     1.0290     3.3060 H     1 <1>   0.0800 
 37 H       -2.9420    -0.5530     3.6140 H     1 <1>   0.0800 
 38 H       -3.6060     0.4890     2.3420 H     1 <1>   0.0800 
 39 H       -4.6530    -3.7170     0.6510 H     1 <1>   0.1500 
 40 H       -2.5640    -4.8480    -2.2050 H     1 <1>   0.0800 
 41 H       -4.1970    -4.8130    -1.5960 H     1 <1>   0.0800 
 42 H       -2.9780    -5.7580    -0.7700 H     1 <1>   0.0800 
 43 H        6.9900     0.6830     0.5430 H     1 <1>   0.1500 
 44 H        5.6600    -3.3260     0.1500 H     1 <1>   0.1500 
 45 H        9.2700    -0.1140     1.0520 H     1 <1>   0.1500 
 46 H        7.9270    -4.1390     0.6530 H     1 <1>   0.1500 
 47 H        9.7360    -2.5320     1.1060 H     1 <1>   0.1500 
@<TRIPOS>BOND
  1   1   2  2   
  2   2   3  am  
  3   2   4  am  
  4   3   5  1   
  5   3   6  1   
  6   4   7  1   
  7   4  25  1   
  8   5   8  1   
  9   5  26  1   
 10   5  27  1   
 11   6   9  1   
 12   6  28  1   
 13   6  29  1   
 14   7  10  ar  
 15   7  11  ar  
 16   8  12  1   
 17   8  30  1   
 18   8  31  1   
 19   9  12  1   
 20   9  32  1   
 21   9  33  1   
 22  10  13  1   
 23  10  14  ar  
 24  11  15  ar  
 25  11  34  1   
 26  12  16  1   
 27  13  17  1   
 28  14  18  ar  
 29  14  35  1   
 30  15  18  ar  
 31  15  19  1   
 32  16  20  ar  
 33  16  21  ar  
 34  17  36  1   
 35  17  37  1   
 36  17  38  1   
 37  18  39  1   
 38  19  40  1   
 39  19  41  1   
 40  19  42  1   
 41  20  22  ar  
 42  20  43  1   
 43  21  23  ar  
 44  21  44  1   
 45  22  24  ar  
 46  22  45  1   
 47  23  24  ar  
 48  23  46  1   
 49  24  47  1   
@<TRIPOS>SUBSTRUCTURE
  1 ****   3 GROUP 4 **** **** 0

# MOE 2024.06 (io_trps.svl 2023.06)
