@<TRIPOS>MOLECULE
NONAME
41 42 1 0 0 
SMALL
USER_CHARGES


@<TRIPOS>ATOM
  1 P        0.9190     0.8020    -2.2990 P.3   1 <1>   0.9000 
  2 O        2.0160     1.8060    -2.4620 O.co2 1 <1>  -0.9500 
  3 O       -0.1530     0.7030    -3.3350 O.co2 1 <1>  -0.9500 
  4 C        1.6280    -0.8510    -2.0340 C.3   1 <1>   0.1400 
  5 C        0.1200     1.1470    -0.7340 C.3   1 <1>  -0.1600 
  6 N        2.6200    -0.9990    -0.9020 N.am  1 <1>  -0.6600 
  7 C       -0.5900     2.5010    -0.7360 C.3   1 <1>  -0.0160 
  8 C        2.2650    -1.5920     0.2770 C.2   1 <1>   0.5690 
  9 C        3.8670    -0.2140    -1.0990 C.3   1 <1>   0.1400 
 10 C       -1.2210     2.7920     0.6190 C.ar  1 <1>  -0.1440 
 11 O        1.2300    -2.2040     0.4070 O.2   1 <1>  -0.5700 
 12 C        3.1680    -1.4910     1.4930 C.3   1 <1>  -0.0990 
 13 C        5.1100    -1.0990    -0.9510 C.3   1 <1>  -0.1600 
 14 C       -2.4910     2.3250     0.9120 C.ar  1 <1>  -0.1500 
 15 C       -0.5270     3.5230     1.5710 C.ar  1 <1>  -0.1500 
 16 C        4.5230    -2.1940     1.3090 C.3   1 <1>  -0.1600 
 17 C        5.5300    -1.3630     0.5030 C.3   1 <1>  -0.1600 
 18 C       -3.0660     2.5870     2.1450 C.ar  1 <1>  -0.1500 
 19 C       -1.0990     3.7860     2.8040 C.ar  1 <1>  -0.1500 
 20 C       -2.3700     3.3190     3.0910 C.ar  1 <1>  -0.1500 
 21 H        2.1240    -1.1710    -2.9300 H     1 <1>   0.0800 
 22 H        0.8340    -1.5560    -1.8790 H     1 <1>   0.0800 
 23 H        0.8410     1.1510     0.0600 H     1 <1>   0.0800 
 24 H       -0.6030     0.3880    -0.5040 H     1 <1>   0.0800 
 25 H       -1.3440     2.5010    -1.5050 H     1 <1>   0.0800 
 26 H        0.1210     3.2690    -0.9880 H     1 <1>   0.0800 
 27 H        3.8910     0.6140    -0.4110 H     1 <1>   0.0800 
 28 H        3.8680     0.2030    -2.0930 H     1 <1>   0.0800 
 29 H        2.6550    -1.9530     2.3170 H     1 <1>   0.0800 
 30 H        3.3070    -0.4560     1.7450 H     1 <1>   0.0800 
 31 H        5.9230    -0.5900    -1.4370 H     1 <1>   0.0800 
 32 H        4.9550    -2.0250    -1.4760 H     1 <1>   0.0800 
 33 H       -3.0310     1.7530     0.1770 H     1 <1>   0.1500 
 34 H        0.4620     3.8840     1.3480 H     1 <1>   0.1500 
 35 H        4.3700    -3.1490     0.8360 H     1 <1>   0.0800 
 36 H        4.9440    -2.3780     2.2820 H     1 <1>   0.0800 
 37 H        5.6980    -0.4220     1.0000 H     1 <1>   0.0800 
 38 H        6.4680    -1.8890     0.4910 H     1 <1>   0.0800 
 39 H       -4.0520     2.2200     2.3640 H     1 <1>   0.1500 
 40 H       -0.5540     4.3540     3.5360 H     1 <1>   0.1500 
 41 H       -2.8150     3.5220     4.0480 H     1 <1>   0.1500 
@<TRIPOS>BOND
  1   1   2  ar  
  2   1   3  ar  
  3   1   4  1   
  4   1   5  1   
  5   4   6  1   
  6   4  21  1   
  7   4  22  1   
  8   5   7  1   
  9   5  23  1   
 10   5  24  1   
 11   6   8  am  
 12   6   9  1   
 13   7  10  1   
 14   7  25  1   
 15   7  26  1   
 16   8  11  2   
 17   8  12  1   
 18   9  13  1   
 19   9  27  1   
 20   9  28  1   
 21  10  14  ar  
 22  10  15  ar  
 23  12  16  1   
 24  12  29  1   
 25  12  30  1   
 26  13  17  1   
 27  13  31  1   
 28  13  32  1   
 29  14  18  ar  
 30  14  33  1   
 31  15  19  ar  
 32  15  34  1   
 33  16  17  1   
 34  16  35  1   
 35  16  36  1   
 36  17  37  1   
 37  17  38  1   
 38  18  20  ar  
 39  18  39  1   
 40  19  20  ar  
 41  19  40  1   
 42  20  41  1   
@<TRIPOS>SUBSTRUCTURE
  1 ****   5 GROUP 4 **** **** 0

# MOE 2024.06 (io_trps.svl 2023.06)
