@<TRIPOS>MOLECULE
NONAME
48 50 1 0 0 
SMALL
USER_CHARGES


@<TRIPOS>ATOM
  1 O       -0.2030    -1.6950     2.6920 O.2   1 <1>  -0.5700 
  2 C        0.2660    -1.6010     1.5830 C.2   1 <1>   0.5690 
  3 N       -0.4360    -1.2450     0.4670 N.am  1 <1>  -0.5470 
  4 C        1.7530    -1.8930     1.3750 C.3   1 <1>   0.1710 
  5 C       -1.7750    -0.9030     0.2310 C.ar  1 <1>   0.1170 
  6 N        2.3260    -1.2420     0.1570 N.3   1 <1>  -0.8100 
  7 C       -2.1340    -0.4770    -1.0420 C.ar  1 <1>  -0.1500 
  8 C       -2.7660    -0.9680     1.2050 C.ar  1 <1>  -0.1500 
  9 C        2.5270     0.2110     0.3910 C.3   1 <1>   0.1100 
 10 C        3.6350    -1.8490    -0.1790 C.3   1 <1>   0.1100 
 11 C       -3.4390    -0.1260    -1.3360 C.ar  1 <1>  -0.1500 
 12 C       -4.0720    -0.6170     0.9140 C.ar  1 <1>  -0.1500 
 13 C        3.1220     0.9240    -0.8380 C.3   1 <1>   0.2090 
 14 C        4.2890    -1.1940    -1.4140 C.3   1 <1>   0.2090 
 15 C       -4.4190    -0.1940    -0.3590 C.ar  1 <1>  -0.1430 
 16 N        4.4010     0.2910    -1.2690 N.pl3 1 <1>  -0.8380 
 17 C       -5.8550     0.1910    -0.6780 C.3   1 <1>  -0.0170 
 18 C        5.5670     0.8240    -0.7550 C.ar  1 <1>   0.4100 
 19 C       -6.0810     1.6820    -0.4180 C.3   1 <1>  -0.2400 
 20 N        6.1730     0.1540     0.2190 N.ar  1 <1>  -0.6200 
 21 C        6.0420     2.0310    -1.2600 C.ar  1 <1>  -0.1500 
 22 C        7.2760     0.7040     0.6970 C.ar  1 <1>   0.1600 
 23 C        7.1900     2.5930    -0.7530 C.ar  1 <1>  -0.1500 
 24 C        7.8200     1.8980     0.2590 C.ar  1 <1>  -0.1500 
 25 H        0.1920    -1.1790    -0.3400 H     1 <1>   0.3700 
 26 H        1.8510    -2.9600     1.2860 H     1 <1>   0.0800 
 27 H        2.2970    -1.5840     2.2500 H     1 <1>   0.0800 
 28 H       -1.3880    -0.4190    -1.8120 H     1 <1>   0.1500 
 29 H       -2.5260    -1.2950     2.1990 H     1 <1>   0.1500 
 30 H        3.1960     0.3580     1.2230 H     1 <1>   0.0800 
 31 H        1.5880     0.6760     0.6360 H     1 <1>   0.0800 
 32 H        3.5040    -2.8970    -0.3790 H     1 <1>   0.0800 
 33 H        4.3090    -1.7520     0.6550 H     1 <1>   0.0800 
 34 H       -3.6920     0.2030    -2.3290 H     1 <1>   0.1500 
 35 H       -4.8190    -0.6750     1.6860 H     1 <1>   0.1500 
 36 H        3.2920     1.9590    -0.5970 H     1 <1>   0.0800 
 37 H        2.4170     0.8830    -1.6500 H     1 <1>   0.0800 
 38 H        3.7010    -1.4170    -2.2850 H     1 <1>   0.0800 
 39 H        5.2690    -1.6150    -1.5620 H     1 <1>   0.0800 
 40 H       -6.5280    -0.3870    -0.0700 H     1 <1>   0.0800 
 41 H       -6.0700    -0.0340    -1.7080 H     1 <1>   0.0800 
 42 H       -5.8820     1.9120     0.6130 H     1 <1>   0.0800 
 43 H       -7.0980     1.9480    -0.6430 H     1 <1>   0.0800 
 44 H       -5.4230     2.2690    -1.0350 H     1 <1>   0.0800 
 45 H        5.4970     2.5060    -2.0530 H     1 <1>   0.1500 
 46 H        7.7780     0.1710     1.4870 H     1 <1>   0.1500 
 47 H        7.5790     3.5240    -1.1260 H     1 <1>   0.1500 
 48 H        8.7230     2.2780     0.7020 H     1 <1>   0.1500 
@<TRIPOS>BOND
  1   1   2  2   
  2   2   3  am  
  3   2   4  1   
  4   3   5  1   
  5   3  25  1   
  6   4   6  1   
  7   4  26  1   
  8   4  27  1   
  9   5   7  ar  
 10   5   8  ar  
 11   6   9  1   
 12   6  10  1   
 13   7  11  ar  
 14   7  28  1   
 15   8  12  ar  
 16   8  29  1   
 17   9  13  1   
 18   9  30  1   
 19   9  31  1   
 20  10  14  1   
 21  10  32  1   
 22  10  33  1   
 23  11  15  ar  
 24  11  34  1   
 25  12  15  ar  
 26  12  35  1   
 27  13  16  1   
 28  13  36  1   
 29  13  37  1   
 30  14  16  1   
 31  14  38  1   
 32  14  39  1   
 33  15  17  1   
 34  16  18  1   
 35  17  19  1   
 36  17  40  1   
 37  17  41  1   
 38  18  20  ar  
 39  18  21  ar  
 40  19  42  1   
 41  19  43  1   
 42  19  44  1   
 43  20  22  ar  
 44  21  23  ar  
 45  21  45  1   
 46  22  24  ar  
 47  22  46  1   
 48  23  24  ar  
 49  23  47  1   
 50  24  48  1   
@<TRIPOS>SUBSTRUCTURE
  1 ****   9 GROUP 4 **** **** 0

# MOE 2024.06 (io_trps.svl 2023.06)
