@<TRIPOS>MOLECULE
NONAME
45 47 1 0 0 
SMALL
USER_CHARGES


@<TRIPOS>ATOM
  1 S       -0.7690     0.8670     1.8500 S.o2  1 <1>   1.4470 
  2 O       -1.6880     1.2510     2.8990 O.2   1 <1>  -0.6500 
  3 O        0.0800    -0.2890     2.0330 O.2   1 <1>  -0.6500 
  4 N       -1.7010     0.5790     0.4660 N.am  1 <1>  -0.8490 
  5 C        0.2660     2.2810     1.3700 C.ar  1 <1>  -0.0090 
  6 C       -2.3540    -0.7430     0.5380 C.3   1 <1>   0.1960 
  7 C       -2.7200     1.6270     0.2480 C.3   1 <1>   0.1960 
  8 C        0.9540     2.2830     0.1620 C.ar  1 <1>  -0.1500 
  9 C        0.4050     3.3870     2.1980 C.ar  1 <1>  -0.1500 
 10 C       -3.2010    -1.0670    -0.7100 C.3   1 <1>   0.2090 
 11 C       -3.5520     1.3890    -1.0270 C.3   1 <1>   0.2090 
 12 C        1.7590     3.3430    -0.2370 C.ar  1 <1>  -0.0090 
 13 C        1.1980     4.4570     1.8270 C.ar  1 <1>  -0.1500 
 14 N       -4.1610     0.0260    -1.0540 N.pl3 1 <1>  -0.8380 
 15 S        2.6600     3.2870    -1.8080 S.o2  1 <1>   1.2040 
 16 C        1.8680     4.4310     0.6180 C.ar  1 <1>  -0.1500 
 17 C       -5.4880    -0.1090    -0.6640 C.ar  1 <1>   0.1000 
 18 O        3.0930     4.6200    -2.1610 O.2   1 <1>  -0.6500 
 19 O        1.9050     2.4970    -2.7530 O.2   1 <1>  -0.6500 
 20 C        4.1150     2.3530    -1.3750 C.3   1 <1>  -0.1350 
 21 C       -5.8670    -0.0570     0.6770 C.ar  1 <1>  -0.1500 
 22 C       -6.4610    -0.2970    -1.6400 C.ar  1 <1>  -0.1500 
 23 C       -7.1960    -0.1930     1.0390 C.ar  1 <1>  -0.1500 
 24 C       -7.7940    -0.4350    -1.2950 C.ar  1 <1>  -0.1500 
 25 C       -8.1360    -0.3800     0.0430 C.ar  1 <1>   0.1900 
 26 F       -9.3940    -0.5100     0.3790 F     1 <1>  -0.1900 
 27 H       -2.9830    -0.7910     1.4100 H     1 <1>   0.0800 
 28 H       -1.6040    -1.5090     0.6390 H     1 <1>   0.0800 
 29 H       -2.2380     2.5860     0.1630 H     1 <1>   0.0800 
 30 H       -3.3910     1.6720     1.0890 H     1 <1>   0.0800 
 31 H        0.8510     1.4290    -0.4890 H     1 <1>   0.1500 
 32 H       -0.1130     3.4120     3.1430 H     1 <1>   0.1500 
 33 H       -3.7440    -1.9820    -0.5440 H     1 <1>   0.0800 
 34 H       -2.5430    -1.2250    -1.5460 H     1 <1>   0.0800 
 35 H       -2.9190     1.5050    -1.8890 H     1 <1>   0.0800 
 36 H       -4.3310     2.1290    -1.0890 H     1 <1>   0.0800 
 37 H        1.2930     5.3100     2.4790 H     1 <1>   0.1500 
 38 H        2.4820     5.2720     0.3340 H     1 <1>   0.1500 
 39 H        4.6700     2.8580    -0.6080 H     1 <1>   0.0800 
 40 H        4.7470     2.2420    -2.2350 H     1 <1>   0.0800 
 41 H        3.8440     1.3770    -1.0230 H     1 <1>   0.0800 
 42 H       -5.1220     0.0910     1.4340 H     1 <1>   0.1500 
 43 H       -6.1550    -0.3350    -2.6700 H     1 <1>   0.1500 
 44 H       -7.5020    -0.1550     2.0680 H     1 <1>   0.1500 
 45 H       -8.5530    -0.5810    -2.0420 H     1 <1>   0.1500 
@<TRIPOS>BOND
  1   1   2  2   
  2   1   3  2   
  3   1   4  am  
  4   1   5  1   
  5   4   6  1   
  6   4   7  1   
  7   5   8  ar  
  8   5   9  ar  
  9   6  10  1   
 10   6  27  1   
 11   6  28  1   
 12   7  11  1   
 13   7  29  1   
 14   7  30  1   
 15   8  12  ar  
 16   8  31  1   
 17   9  13  ar  
 18   9  32  1   
 19  10  14  1   
 20  10  33  1   
 21  10  34  1   
 22  11  14  1   
 23  11  35  1   
 24  11  36  1   
 25  12  15  1   
 26  12  16  ar  
 27  13  16  ar  
 28  13  37  1   
 29  14  17  1   
 30  15  18  2   
 31  15  19  2   
 32  15  20  1   
 33  16  38  1   
 34  17  21  ar  
 35  17  22  ar  
 36  20  39  1   
 37  20  40  1   
 38  20  41  1   
 39  21  23  ar  
 40  21  42  1   
 41  22  24  ar  
 42  22  43  1   
 43  23  25  ar  
 44  23  44  1   
 45  24  25  ar  
 46  24  45  1   
 47  25  26  1   
@<TRIPOS>SUBSTRUCTURE
  1 ****   7 GROUP 4 **** **** 0

# MOE 2024.06 (io_trps.svl 2023.06)
