@<TRIPOS>MOLECULE
NONAME
40 42 1 0 0 
SMALL
USER_CHARGES


@<TRIPOS>ATOM
  1 BR      -0.4180    -0.5780     1.2130 Br    1 <1>  -0.1110 
  2 C       -1.0330     1.2080     0.8350 C.ar  1 <1>   0.1110 
  3 C       -0.1250     2.2440     0.8580 C.ar  1 <1>  -0.1500 
  4 C       -2.3690     1.4010     0.5540 C.ar  1 <1>  -0.1500 
  5 C       -0.5370     3.5490     0.5880 C.ar  1 <1>   0.0280 
  6 C       -2.8010     2.6880     0.2860 C.ar  1 <1>  -0.1500 
  7 C       -1.9010     3.7540     0.3010 C.ar  1 <1>   0.0830 
  8 C        0.3970     4.6510     0.6130 C.2   1 <1>  -0.1780 
  9 O       -2.3000     5.0300     0.0330 O.3   1 <1>  -0.3630 
 10 C        1.7340     4.6900     0.3960 C.2   1 <1>  -0.0380 
 11 C       -3.6240     5.3490    -0.3220 C.3   1 <1>   0.1200 
 12 N        2.5450     3.6000     0.0710 N.pl3 1 <1>  -0.8380 
 13 C        2.5160     6.0180     0.4570 C.3   1 <1>   0.3380 
 14 C       -3.6910     6.8520    -0.5780 C.3   1 <1>  -0.2400 
 15 C        3.1450     3.7570    -1.2880 C.3   1 <1>   0.2090 
 16 C        3.6470     3.4160     1.0650 C.3   1 <1>   0.2090 
 17 O        1.9620     6.8880    -0.4610 O.3   1 <1>  -0.6800 
 18 C        3.9900     5.7310     0.0770 C.3   1 <1>  -0.0800 
 19 C        4.0310     5.0270    -1.3040 C.3   1 <1>  -0.1600 
 20 C        4.5170     4.6970     1.1000 C.3   1 <1>  -0.1600 
 21 H        0.9010     2.0360     1.0900 H     1 <1>   0.1500 
 22 H       -3.0490     0.5680     0.5460 H     1 <1>   0.1500 
 23 H       -3.8410     2.8340     0.0690 H     1 <1>   0.1500 
 24 H       -0.0780     5.5900     0.8350 H     1 <1>   0.1500 
 25 H       -3.8810     4.8000    -1.2120 H     1 <1>   0.0800 
 26 H       -4.2720     5.0730     0.4920 H     1 <1>   0.0800 
 27 H        2.4450     6.4660     1.4330 H     1 <1>   0.0800 
 28 H       -3.0260     7.1190    -1.3800 H     1 <1>   0.0800 
 29 H       -3.4150     7.3900     0.3110 H     1 <1>   0.0800 
 30 H       -4.6920     7.1310    -0.8530 H     1 <1>   0.0800 
 31 H        3.7260     2.8850    -1.5330 H     1 <1>   0.0800 
 32 H        2.3530     3.8470    -2.0120 H     1 <1>   0.0800 
 33 H        3.2170     3.2320     2.0350 H     1 <1>   0.0800 
 34 H        4.2420     2.5610     0.7920 H     1 <1>   0.0800 
 35 H        1.4690     6.3380    -1.1000 H     1 <1>   0.4000 
 36 H        4.5770     6.6320     0.0940 H     1 <1>   0.0800 
 37 H        5.0410     4.7540    -1.5520 H     1 <1>   0.0800 
 38 H        3.6850     5.6930    -2.0740 H     1 <1>   0.0800 
 39 H        4.4920     5.1130     2.0920 H     1 <1>   0.0800 
 40 H        5.5380     4.4420     0.8830 H     1 <1>   0.0800 
@<TRIPOS>BOND
  1   1   2  1   
  2   2   3  ar  
  3   2   4  ar  
  4   3   5  ar  
  5   3  21  1   
  6   4   6  ar  
  7   4  22  1   
  8   5   7  ar  
  9   5   8  1   
 10   6   7  ar  
 11   6  23  1   
 12   7   9  1   
 13   8  10  2   
 14   8  24  1   
 15   9  11  1   
 16  10  12  1   
 17  10  13  1   
 18  11  14  1   
 19  11  25  1   
 20  11  26  1   
 21  12  15  1   
 22  12  16  1   
 23  13  17  1   
 24  13  18  1   
 25  13  27  1   
 26  14  28  1   
 27  14  29  1   
 28  14  30  1   
 29  15  19  1   
 30  15  31  1   
 31  15  32  1   
 32  16  20  1   
 33  16  33  1   
 34  16  34  1   
 35  17  35  1   
 36  18  19  1   
 37  18  20  1   
 38  18  36  1   
 39  19  37  1   
 40  19  38  1   
 41  20  39  1   
 42  20  40  1   
@<TRIPOS>SUBSTRUCTURE
  1 ****   8 GROUP 4 **** **** 0

# MOE 2024.06 (io_trps.svl 2023.06)
