@<TRIPOS>MOLECULE
NONAME
37 38 1 0 0 
SMALL
USER_CHARGES


@<TRIPOS>ATOM
  1 CL      -0.8550     0.9700     1.6580 Cl    1 <1>  -0.1770 
  2 C       -2.4780     0.8480     1.0200 C.ar  1 <1>   0.1770 
  3 C       -2.6870     0.7820    -0.3460 C.ar  1 <1>   0.1600 
  4 C       -3.5490     0.8200     1.8840 C.ar  1 <1>  -0.1500 
  5 N       -3.8790     0.6860    -0.9150 N.ar  1 <1>  -0.6200 
  6 C       -4.7930     0.7240     1.2990 C.ar  1 <1>  -0.1500 
  7 C       -4.9210     0.6550    -0.0910 C.ar  1 <1>   0.4270 
  8 N       -6.1500     0.5710    -0.7080 N.am  1 <1>  -0.5470 
  9 C       -7.3190     0.0090    -0.2900 C.2   1 <1>   0.5690 
 10 O       -7.3780    -0.6130     0.7480 O.2   1 <1>  -0.5700 
 11 C       -8.5550     0.1130    -1.2060 C.3   1 <1>  -0.0190 
 12 C       -9.0050     1.5640    -1.5140 C.3   1 <1>  -0.1860 
 13 C       -9.7740    -0.6530    -0.6530 C.3   1 <1>  -0.0220 
 14 C       -7.9990     2.3750    -2.3170 C.2   1 <1>   0.9060 
 15 C       -9.4110     2.2780    -0.2140 C.3   1 <1>  -0.0220 
 16 C      -10.5100     0.1080     0.4520 C.2   1 <1>  -0.2760 
 17 O       -8.0800     3.6050    -2.3250 O.co2 1 <1>  -0.9000 
 18 O       -7.1180     1.7740    -2.9450 O.co2 1 <1>  -0.9000 
 19 C      -10.3290     1.4220     0.6610 C.2   1 <1>  -0.2760 
 20 C      -11.4280    -0.8210     1.2380 C.3   1 <1>  -0.1020 
 21 C      -10.9640     2.2650     1.7600 C.3   1 <1>  -0.1020 
 22 H       -1.8320     0.8100    -0.9980 H     1 <1>   0.1500 
 23 H       -3.4160     0.8720     2.9490 H     1 <1>   0.1500 
 24 H       -5.6760     0.7070     1.9110 H     1 <1>   0.1500 
 25 H       -6.1860     1.0020    -1.6530 H     1 <1>   0.3700 
 26 H       -8.2810    -0.3580    -2.1330 H     1 <1>   0.0800 
 27 H       -9.8770     1.5110    -2.1370 H     1 <1>   0.0800 
 28 H       -9.4500    -1.6130    -0.2910 H     1 <1>   0.0800 
 29 H      -10.4680    -0.8320    -1.4550 H     1 <1>   0.0800 
 30 H       -9.9110     3.1940    -0.4790 H     1 <1>   0.0800 
 31 H       -8.5300     2.5400     0.3440 H     1 <1>   0.0800 
 32 H      -10.8360    -1.5440     1.7720 H     1 <1>   0.0800 
 33 H      -12.0830    -1.3420     0.5630 H     1 <1>   0.0800 
 34 H      -12.0390    -0.3000     1.9460 H     1 <1>   0.0800 
 35 H      -10.1940     2.7750     2.3110 H     1 <1>   0.0800 
 36 H      -11.5290     1.6830     2.4580 H     1 <1>   0.0800 
 37 H      -11.6160     3.0000     1.3230 H     1 <1>   0.0800 
@<TRIPOS>BOND
  1   1   2  1   
  2   2   3  ar  
  3   2   4  ar  
  4   3   5  ar  
  5   3  22  1   
  6   4   6  ar  
  7   4  23  1   
  8   5   7  ar  
  9   6   7  ar  
 10   6  24  1   
 11   7   8  1   
 12   8   9  am  
 13   8  25  1   
 14   9  10  2   
 15   9  11  1   
 16  11  12  1   
 17  11  13  1   
 18  11  26  1   
 19  12  14  1   
 20  12  15  1   
 21  12  27  1   
 22  13  16  1   
 23  13  28  1   
 24  13  29  1   
 25  14  17  ar  
 26  14  18  ar  
 27  15  19  1   
 28  15  30  1   
 29  15  31  1   
 30  16  19  2   
 31  16  20  1   
 32  19  21  1   
 33  20  32  1   
 34  20  33  1   
 35  20  34  1   
 36  21  35  1   
 37  21  36  1   
 38  21  37  1   
@<TRIPOS>SUBSTRUCTURE
  1 ****   9 GROUP 4 **** **** 0

# MOE 2024.06 (io_trps.svl 2023.06)
