@<TRIPOS>MOLECULE
NONAME
52 54 1 0 0 
SMALL
USER_CHARGES


@<TRIPOS>ATOM
  1 CL      -0.8850     1.8260     0.3650 Cl    1 <1>  -0.1770 
  2 C       -2.3340     1.2270     1.1490 C.ar  1 <1>   0.1770 
  3 C       -3.5750     1.4750     0.5660 C.ar  1 <1>   0.1170 
  4 C       -2.2030     0.5220     2.3290 C.ar  1 <1>  -0.1500 
  5 N       -3.6400     2.2020    -0.6380 N.am  1 <1>  -0.5470 
  6 C       -4.6990     0.9680     1.2130 C.ar  1 <1>  -0.1500 
  7 C       -3.3370     0.0390     2.9570 C.ar  1 <1>  -0.1500 
  8 C       -4.6370     2.9510    -1.1760 C.2   1 <1>   0.6900 
  9 C       -4.5870     0.2610     2.4000 C.ar  1 <1>  -0.1440 
 10 O       -5.7050     3.1130    -0.6190 O.2   1 <1>  -0.5700 
 11 N       -4.4010     3.5870    -2.3510 N.am  1 <1>  -0.7300 
 12 C       -5.8280    -0.2780     3.0900 C.3   1 <1>  -0.0970 
 13 C       -5.4360     4.2480    -3.2050 C.3   1 <1>   0.1400 
 14 C       -5.7890     5.6720    -2.7210 C.3   1 <1>   0.3430 
 15 N       -6.3750     5.6600    -1.3500 N.4   1 <1>  -0.9590 
 16 C       -7.8350     5.2860    -1.3290 C.3   1 <1>   0.3430 
 17 C       -6.1150     6.9210    -0.5690 C.3   1 <1>   0.3430 
 18 C       -8.3830     5.1610     0.1080 C.3   1 <1>   0.2090 
 19 C       -6.6570     6.8480     0.8760 C.3   1 <1>   0.2090 
 20 N       -8.0790     6.3870     0.9060 N.pl3 1 <1>  -0.8380 
 21 C       -9.1170     7.2400     1.2730 C.ar  1 <1>   0.1000 
 22 C      -10.1140     6.7750     2.1270 C.ar  1 <1>  -0.1500 
 23 C       -9.1920     8.5490     0.8030 C.ar  1 <1>  -0.1500 
 24 C      -11.1650     7.5920     2.5030 C.ar  1 <1>  -0.1500 
 25 C      -10.2390     9.3750     1.1750 C.ar  1 <1>  -0.1500 
 26 C      -11.2160     8.8870     2.0220 C.ar  1 <1>   0.1770 
 27 CL     -12.5400     9.9250     2.4930 Cl    1 <1>  -0.1770 
 28 H       -1.2280     0.3530     2.7490 H     1 <1>   0.1500 
 29 H       -2.7380     2.2820    -1.1050 H     1 <1>   0.3700 
 30 H       -5.6730     1.1200     0.7860 H     1 <1>   0.1500 
 31 H       -3.2440    -0.5120     3.8780 H     1 <1>   0.1500 
 32 H       -3.5410     3.3340    -2.8430 H     1 <1>   0.3700 
 33 H       -5.7180    -0.2220     4.1580 H     1 <1>   0.0800 
 34 H       -5.9830    -1.3050     2.8110 H     1 <1>   0.0800 
 35 H       -6.6960     0.2910     2.8100 H     1 <1>   0.0800 
 36 H       -6.3240     3.6390    -3.2270 H     1 <1>   0.0800 
 37 H       -5.0610     4.3070    -4.2130 H     1 <1>   0.0800 
 38 H       -6.4820     6.1290    -3.4090 H     1 <1>   0.0800 
 39 H       -4.8850     6.2590    -2.7250 H     1 <1>   0.0800 
 40 H       -5.9100     4.8750    -0.8460 H     1 <1>   0.4500 
 41 H       -7.9770     4.3440    -1.8300 H     1 <1>   0.0800 
 42 H       -8.4110     6.0340    -1.8470 H     1 <1>   0.0800 
 43 H       -6.5880     7.7520    -1.0640 H     1 <1>   0.0800 
 44 H       -5.0560     7.1150    -0.5320 H     1 <1>   0.0800 
 45 H       -7.9420     4.3050     0.5890 H     1 <1>   0.0800 
 46 H       -9.4480     5.0050     0.0690 H     1 <1>   0.0800 
 47 H       -6.5760     7.8130     1.3450 H     1 <1>   0.0800 
 48 H       -6.0580     6.1600     1.4480 H     1 <1>   0.0800 
 49 H      -10.0540     5.7700     2.5020 H     1 <1>   0.1500 
 50 H       -8.4370     8.9260     0.1420 H     1 <1>   0.1500 
 51 H      -11.9340     7.2360     3.1640 H     1 <1>   0.1500 
 52 H      -10.3040    10.3860     0.8170 H     1 <1>   0.1500 
@<TRIPOS>BOND
  1   1   2  1   
  2   2   3  ar  
  3   2   4  ar  
  4   3   5  1   
  5   3   6  ar  
  6   4   7  ar  
  7   4  28  1   
  8   5   8  am  
  9   5  29  1   
 10   6   9  ar  
 11   6  30  1   
 12   7   9  ar  
 13   7  31  1   
 14   8  10  2   
 15   8  11  am  
 16   9  12  1   
 17  11  13  1   
 18  11  32  1   
 19  12  33  1   
 20  12  34  1   
 21  12  35  1   
 22  13  14  1   
 23  13  36  1   
 24  13  37  1   
 25  14  15  1   
 26  14  38  1   
 27  14  39  1   
 28  15  16  1   
 29  15  17  1   
 30  15  40  1   
 31  16  18  1   
 32  16  41  1   
 33  16  42  1   
 34  17  19  1   
 35  17  43  1   
 36  17  44  1   
 37  18  20  1   
 38  18  45  1   
 39  18  46  1   
 40  19  20  1   
 41  19  47  1   
 42  19  48  1   
 43  20  21  1   
 44  21  22  ar  
 45  21  23  ar  
 46  22  24  ar  
 47  22  49  1   
 48  23  25  ar  
 49  23  50  1   
 50  24  26  ar  
 51  24  51  1   
 52  25  26  ar  
 53  25  52  1   
 54  26  27  1   
@<TRIPOS>SUBSTRUCTURE
  1 ****  10 GROUP 4 **** **** 0

# MOE 2024.06 (io_trps.svl 2023.06)
