@<TRIPOS>MOLECULE
NONAME
48 50 1 0 0 
SMALL
USER_CHARGES


@<TRIPOS>ATOM
  1 S        0.0130    -0.3590    -0.1660 S.3   1 <1>  -0.0800 
  2 C        0.2330     1.3700    -0.3470 C.2   1 <1>   0.1040 
  3 C        1.7170    -0.6680    -0.4420 C.2   1 <1>  -0.1400 
  4 N       -0.8580     2.2220    -0.2760 N.am  1 <1>  -0.4940 
  5 C        1.5490     1.6740    -0.5580 C.2   1 <1>  -0.0860 
  6 C        2.3820     0.4870    -0.6460 C.2   1 <1>  -0.1810 
  7 C        2.1120    -2.1330    -0.4180 C.3   1 <1>  -0.0600 
  8 C       -2.1540     2.0780     0.1450 C.2   1 <1>   0.5690 
  9 C        2.0100     3.0380    -0.6510 C.2   1 <1>   0.7160 
 10 C        3.8690     0.5490    -0.9770 C.3   1 <1>  -0.0590 
 11 O       -2.6170     1.0510     0.5820 O.2   1 <1>  -0.5700 
 12 C       -3.0450     3.3270     0.0860 C.3   1 <1>   0.2610 
 13 O        1.2900     3.9080    -1.1110 O.2   1 <1>  -0.5700 
 14 N        3.2430     3.3670    -0.1530 N.am  1 <1>  -0.5470 
 15 O       -2.4730     4.3390    -0.7160 O.3   1 <1>  -0.5600 
 16 C       -3.2830     3.9620     1.4590 C.3   1 <1>  -0.1600 
 17 C        4.0470     4.5200    -0.1620 C.ar  1 <1>   0.1170 
 18 C       -2.2310     5.5020     0.0080 C.3   1 <1>   0.1200 
 19 C       -3.1870     5.4510     1.1870 C.3   1 <1>  -0.1600 
 20 C        5.2700     4.4650     0.5180 C.ar  1 <1>   0.0820 
 21 C        3.6950     5.6980    -0.8120 C.ar  1 <1>  -0.1500 
 22 O        5.5880     3.2860     1.1360 O.3   1 <1>  -0.3620 
 23 C        6.1050     5.5780     0.5430 C.ar  1 <1>  -0.1500 
 24 C        4.5300     6.8010    -0.7850 C.ar  1 <1>  -0.1500 
 25 C        6.7570     3.1630     1.9170 C.3   1 <1>   0.0400 
 26 C        5.7340     6.7420    -0.1070 C.ar  1 <1>  -0.1500 
 27 H       -0.6740     3.1720    -0.6290 H     1 <1>   0.3700 
 28 H        1.6060    -2.6570    -1.2090 H     1 <1>   0.0800 
 29 H        1.8240    -2.5680     0.5230 H     1 <1>   0.0800 
 30 H        3.1700    -2.2560    -0.5410 H     1 <1>   0.0800 
 31 H        4.2380    -0.4140    -1.2760 H     1 <1>   0.0800 
 32 H        4.4350     0.8710    -0.1220 H     1 <1>   0.0800 
 33 H        4.0410     1.2280    -1.7940 H     1 <1>   0.0800 
 34 H       -3.9840     3.0630    -0.3660 H     1 <1>   0.0800 
 35 H        3.6810     2.6060     0.3660 H     1 <1>   0.3700 
 36 H       -2.5060     3.6580     2.1390 H     1 <1>   0.0800 
 37 H       -4.2350     3.6740     1.8680 H     1 <1>   0.0800 
 38 H       -2.3960     6.3570    -0.6250 H     1 <1>   0.0800 
 39 H       -1.2050     5.4790     0.3380 H     1 <1>   0.0800 
 40 H       -2.8200     6.0070     2.0310 H     1 <1>   0.0800 
 41 H       -4.1430     5.8430     0.8860 H     1 <1>   0.0800 
 42 H        2.7680     5.7680    -1.3490 H     1 <1>   0.1500 
 43 H        7.0470     5.5640     1.0580 H     1 <1>   0.1500 
 44 H        4.2410     7.7050    -1.2930 H     1 <1>   0.1500 
 45 H        6.7820     2.1700     2.3300 H     1 <1>   0.0800 
 46 H        6.7250     3.8870     2.7110 H     1 <1>   0.0800 
 47 H        7.6160     3.3170     1.2880 H     1 <1>   0.0800 
 48 H        6.3810     7.6020    -0.0860 H     1 <1>   0.1500 
@<TRIPOS>BOND
  1   1   2  1   
  2   1   3  1   
  3   2   4  1   
  4   2   5  2   
  5   3   6  2   
  6   3   7  1   
  7   4   8  am  
  8   4  27  1   
  9   5   6  1   
 10   5   9  1   
 11   6  10  1   
 12   7  28  1   
 13   7  29  1   
 14   7  30  1   
 15   8  11  2   
 16   8  12  1   
 17   9  13  2   
 18   9  14  am  
 19  10  31  1   
 20  10  32  1   
 21  10  33  1   
 22  12  15  1   
 23  12  16  1   
 24  12  34  1   
 25  14  17  1   
 26  14  35  1   
 27  15  18  1   
 28  16  19  1   
 29  16  36  1   
 30  16  37  1   
 31  17  20  ar  
 32  17  21  ar  
 33  18  19  1   
 34  18  38  1   
 35  18  39  1   
 36  19  40  1   
 37  19  41  1   
 38  20  22  1   
 39  20  23  ar  
 40  21  24  ar  
 41  21  42  1   
 42  22  25  1   
 43  23  26  ar  
 44  23  43  1   
 45  24  26  ar  
 46  24  44  1   
 47  25  45  1   
 48  25  46  1   
 49  25  47  1   
 50  26  48  1   
@<TRIPOS>SUBSTRUCTURE
  1 ****   9 GROUP 4 **** **** 0

# MOE 2024.06 (io_trps.svl 2023.06)
