@<TRIPOS>MOLECULE
NONAME
47 49 1 0 0 
SMALL
USER_CHARGES


@<TRIPOS>ATOM
  1 CL       1.1780     3.0250    -1.7130 Cl    1 <1>  -0.1770 
  2 C        2.5540     2.2830    -0.9380 C.ar  1 <1>   0.1770 
  3 C        3.1340     1.1690    -1.5090 C.ar  1 <1>  -0.1500 
  4 C        3.0400     2.8280     0.2370 C.ar  1 <1>  -0.1500 
  5 C        4.2340     0.5790    -0.9020 C.ar  1 <1>   0.1990 
  6 C        4.1320     2.2380     0.8530 C.ar  1 <1>  -0.1500 
  7 N        4.8380    -0.5320    -1.4690 N.am  1 <1>  -0.6930 
  8 C        4.7200     1.1210     0.2850 C.ar  1 <1>  -0.1500 
  9 S        4.2080    -2.1260    -1.2470 S.o2  1 <1>   1.3330 
 10 C        6.0240    -0.3710    -2.3340 C.3   1 <1>   0.3390 
 11 O        4.7920    -2.9670    -2.2650 O.2   1 <1>  -0.6500 
 12 O        2.7760    -2.0080    -1.1270 O.2   1 <1>  -0.6500 
 13 C        4.8830    -2.5780     0.3370 C.3   1 <1>  -0.1350 
 14 C        7.2840    -0.7240    -1.5570 C.ar  1 <1>  -0.1430 
 15 C        7.9050     0.2220    -0.7570 C.ar  1 <1>  -0.1500 
 16 C        7.8250    -1.9990    -1.6320 C.ar  1 <1>  -0.1500 
 17 C        9.0350    -0.1070    -0.0310 C.ar  1 <1>  -0.1500 
 18 C        8.9540    -2.3230    -0.9030 C.ar  1 <1>  -0.1500 
 19 C        9.5850    -1.3860    -0.0880 C.ar  1 <1>   0.0860 
 20 C       10.7630    -1.7430     0.6790 C.2   1 <1>   0.5440 
 21 O       10.7070    -2.6690     1.4650 O.2   1 <1>  -0.5700 
 22 N       11.9490    -1.0610     0.5330 N.am  1 <1>  -0.6600 
 23 C       12.2670    -0.1500    -0.5890 C.3   1 <1>   0.1400 
 24 C       13.1730    -1.4270     1.2810 C.3   1 <1>   0.1400 
 25 C       13.7360     0.2130    -0.3980 C.3   1 <1>  -0.1600 
 26 C       14.3220    -0.9460     0.4030 C.3   1 <1>  -0.1600 
 27 H        2.7330     0.7540    -2.4150 H     1 <1>   0.1500 
 28 H        2.5670     3.6960     0.6590 H     1 <1>   0.1500 
 29 H        4.5190     2.6480     1.7710 H     1 <1>   0.1500 
 30 H        5.5630     0.6580     0.7650 H     1 <1>   0.1500 
 31 H        6.0830     0.6500    -2.6700 H     1 <1>   0.0800 
 32 H        5.9310    -0.9940    -3.2070 H     1 <1>   0.0800 
 33 H        5.9540    -2.5470     0.3130 H     1 <1>   0.0800 
 34 H        4.5740    -3.5710     0.5960 H     1 <1>   0.0800 
 35 H        4.5350    -1.9030     1.0920 H     1 <1>   0.0800 
 36 H        7.5060     1.2210    -0.6920 H     1 <1>   0.1500 
 37 H        7.3660    -2.7500    -2.2550 H     1 <1>   0.1500 
 38 H        9.5010     0.6300     0.5990 H     1 <1>   0.1500 
 39 H        9.3610    -3.3190    -0.9560 H     1 <1>   0.1500 
 40 H       11.6460     0.7280    -0.5670 H     1 <1>   0.0800 
 41 H       12.1280    -0.6740    -1.5200 H     1 <1>   0.0800 
 42 H       13.2240    -2.4890     1.4520 H     1 <1>   0.0800 
 43 H       13.1720    -0.9100     2.2250 H     1 <1>   0.0800 
 44 H       13.7990     1.1210     0.1760 H     1 <1>   0.0800 
 45 H       14.2390     0.3580    -1.3380 H     1 <1>   0.0800 
 46 H       14.6090    -1.7430    -0.2610 H     1 <1>   0.0800 
 47 H       15.1760    -0.6530     0.9890 H     1 <1>   0.0800 
@<TRIPOS>BOND
  1   1   2  1   
  2   2   3  ar  
  3   2   4  ar  
  4   3   5  ar  
  5   3  27  1   
  6   4   6  ar  
  7   4  28  1   
  8   5   7  1   
  9   5   8  ar  
 10   6   8  ar  
 11   6  29  1   
 12   7   9  am  
 13   7  10  1   
 14   8  30  1   
 15   9  11  2   
 16   9  12  2   
 17   9  13  1   
 18  10  14  1   
 19  10  31  1   
 20  10  32  1   
 21  13  33  1   
 22  13  34  1   
 23  13  35  1   
 24  14  15  ar  
 25  14  16  ar  
 26  15  17  ar  
 27  15  36  1   
 28  16  18  ar  
 29  16  37  1   
 30  17  19  ar  
 31  17  38  1   
 32  18  19  ar  
 33  18  39  1   
 34  19  20  1   
 35  20  21  2   
 36  20  22  am  
 37  22  23  1   
 38  22  24  1   
 39  23  25  1   
 40  23  40  1   
 41  23  41  1   
 42  24  26  1   
 43  24  42  1   
 44  24  43  1   
 45  25  26  1   
 46  25  44  1   
 47  25  45  1   
 48  26  46  1   
 49  26  47  1   
@<TRIPOS>SUBSTRUCTURE
  1 ****  15 GROUP 4 **** **** 0

# MOE 2024.06 (io_trps.svl 2023.06)
