@<TRIPOS>MOLECULE
NONAME
39 41 1 0 0 
SMALL
USER_CHARGES


@<TRIPOS>ATOM
  1 S       -0.1460    -1.1770     1.2270 S.3   1 <1>  -0.4600 
  2 C        0.5160    -2.7110     0.5290 C.3   1 <1>   0.0700 
  3 C        1.3560    -0.2570     1.6500 C.3   1 <1>   0.0700 
  4 C        1.5100    -2.3610    -0.5870 C.3   1 <1>   0.3430 
  5 C        2.2620    -0.1820     0.4150 C.3   1 <1>   0.3430 
  6 N        2.6720    -1.5430    -0.0960 N.4   1 <1>  -0.9590 
  7 C        3.7210    -1.4360    -1.1520 C.3   1 <1>   0.4860 
  8 C        4.9670    -0.8200    -0.5440 C.ar  1 <1>  -0.1440 
  9 C        5.2400     0.5650    -0.6880 C.ar  1 <1>   0.0000 
 10 C        5.8150    -1.6320     0.1640 C.ar  1 <1>  -0.1500 
 11 C        6.3740     1.1010    -0.0290 C.ar  1 <1>   0.0000 
 12 C        4.4370     1.4500    -1.4510 C.ar  1 <1>  -0.1500 
 13 C        6.9480    -1.1080     0.7840 C.ar  1 <1>  -0.1500 
 14 C        7.2260     0.2350     0.7020 C.ar  1 <1>   0.0820 
 15 C        6.6170     2.4890    -0.1280 C.ar  1 <1>  -0.1500 
 16 C        4.7070     2.7870    -1.5290 C.ar  1 <1>  -0.1500 
 17 O        8.3080     0.7940     1.3000 O.3   1 <1>  -0.3620 
 18 C        5.8080     3.3150    -0.8540 C.ar  1 <1>  -0.1500 
 19 C        9.2880     0.0310     1.9700 C.3   1 <1>   0.0400 
 20 H       -0.3220    -3.2660     0.1440 H     1 <1>   0.0800 
 21 H        0.9800    -3.2650     1.3250 H     1 <1>   0.0800 
 22 H        1.8350    -0.7590     2.4710 H     1 <1>   0.0800 
 23 H        1.0460     0.7250     1.9620 H     1 <1>   0.0800 
 24 H        0.9850    -1.8200    -1.3580 H     1 <1>   0.0800 
 25 H        1.8720    -3.2810    -1.0180 H     1 <1>   0.0800 
 26 H        3.1390     0.3860     0.6820 H     1 <1>   0.0800 
 27 H        1.7460     0.3590    -0.3620 H     1 <1>   0.0800 
 28 H        3.1120    -2.0320     0.6940 H     1 <1>   0.4500 
 29 H        3.3680    -0.8530    -1.9850 H     1 <1>   0.0800 
 30 H        3.9680    -2.4190    -1.5200 H     1 <1>   0.0800 
 31 H        5.6370    -2.6900     0.2650 H     1 <1>   0.1500 
 32 H        3.5910     1.0860    -1.9990 H     1 <1>   0.1500 
 33 H        7.5840    -1.7850     1.3250 H     1 <1>   0.1500 
 34 H        7.4700     2.9010     0.3840 H     1 <1>   0.1500 
 35 H        4.0900     3.4520    -2.1100 H     1 <1>   0.1500 
 36 H        6.0110     4.3710    -0.9190 H     1 <1>   0.1500 
 37 H       10.0530     0.7020     2.3170 H     1 <1>   0.0800 
 38 H        9.7110    -0.6790     1.2810 H     1 <1>   0.0800 
 39 H        8.8330    -0.4660     2.8090 H     1 <1>   0.0800 
@<TRIPOS>BOND
  1   1   2  1   
  2   1   3  1   
  3   2   4  1   
  4   2  20  1   
  5   2  21  1   
  6   3   5  1   
  7   3  22  1   
  8   3  23  1   
  9   4   6  1   
 10   4  24  1   
 11   4  25  1   
 12   5   6  1   
 13   5  26  1   
 14   5  27  1   
 15   6   7  1   
 16   6  28  1   
 17   7   8  1   
 18   7  29  1   
 19   7  30  1   
 20   8   9  ar  
 21   8  10  ar  
 22   9  11  ar  
 23   9  12  ar  
 24  10  13  ar  
 25  10  31  1   
 26  11  14  ar  
 27  11  15  ar  
 28  12  16  ar  
 29  12  32  1   
 30  13  14  ar  
 31  13  33  1   
 32  14  17  1   
 33  15  18  ar  
 34  15  34  1   
 35  16  18  ar  
 36  16  35  1   
 37  17  19  1   
 38  18  36  1   
 39  19  37  1   
 40  19  38  1   
 41  19  39  1   
@<TRIPOS>SUBSTRUCTURE
  1 ****   8 GROUP 4 **** **** 0

# MOE 2024.06 (io_trps.svl 2023.06)
