@<TRIPOS>MOLECULE
NONAME
40 40 1 0 0 
SMALL
USER_CHARGES


@<TRIPOS>ATOM
  1 S       -0.0690    -0.3670    -0.8480 S.o2  1 <1>   1.2040 
  2 O        0.4640    -0.8840    -2.0940 O.2   1 <1>  -0.6500 
  3 O       -0.1470     1.0740    -0.7290 O.2   1 <1>  -0.6500 
  4 C       -1.6830    -1.1620    -0.5960 C.ar  1 <1>  -0.0090 
  5 C        1.0030    -1.0260     0.4950 C.3   1 <1>   0.1050 
  6 C       -2.6700    -0.7000     0.2740 C.ar  1 <1>   0.1020 
  7 C       -1.9740    -2.3310    -1.2960 C.ar  1 <1>  -0.1500 
  8 C        1.0890    -2.5680     0.4650 C.3   1 <1>  -0.2400 
  9 C        2.4440    -0.4930     0.3410 C.3   1 <1>  -0.2400 
 10 C        0.5300    -0.6260     1.9080 C.3   1 <1>  -0.2400 
 11 S       -2.4660     0.7980     1.2450 S.3   1 <1>  -0.3310 
 12 C       -3.8670    -1.3720     0.4560 C.ar  1 <1>  -0.1500 
 13 C       -3.1710    -3.0090    -1.1330 C.ar  1 <1>  -0.1500 
 14 C       -3.4620     2.1200     0.4090 C.3   1 <1>   0.2300 
 15 C       -4.1220    -2.5300    -0.2520 C.ar  1 <1>  -0.1500 
 16 C       -3.5410     1.8500    -1.0960 C.3   1 <1>  -0.2400 
 17 C       -4.8490     2.1250     1.0530 C.3   1 <1>  -0.2400 
 18 C       -2.7240     3.4290     0.6850 C.3   1 <1>  -0.2400 
 19 H       -1.2510    -2.7270    -1.9900 H     1 <1>   0.1500 
 20 H        1.7630    -2.9310     1.2210 H     1 <1>   0.0800 
 21 H        0.1230    -3.0080     0.6390 H     1 <1>   0.0800 
 22 H        1.4450    -2.9030    -0.4940 H     1 <1>   0.0800 
 23 H        2.8460    -0.7790    -0.6150 H     1 <1>   0.0800 
 24 H        3.0890    -0.8740     1.1120 H     1 <1>   0.0800 
 25 H        2.4460     0.5830     0.3930 H     1 <1>   0.0800 
 26 H       -0.4280    -1.0600     2.1270 H     1 <1>   0.0800 
 27 H        0.4440     0.4440     1.9810 H     1 <1>   0.0800 
 28 H        1.2250    -0.9610     2.6580 H     1 <1>   0.0800 
 29 H       -4.5950    -0.9920     1.1500 H     1 <1>   0.1500 
 30 H       -3.3610    -3.9090    -1.6930 H     1 <1>   0.1500 
 31 H       -5.0520    -3.0560    -0.1180 H     1 <1>   0.1500 
 32 H       -4.0830     0.9460    -1.3020 H     1 <1>   0.0800 
 33 H       -2.5550     1.7730    -1.5160 H     1 <1>   0.0800 
 34 H       -4.0510     2.6590    -1.5860 H     1 <1>   0.0800 
 35 H       -5.3620     1.2040     0.8530 H     1 <1>   0.0800 
 36 H       -5.4370     2.9330     0.6560 H     1 <1>   0.0800 
 37 H       -4.7650     2.2530     2.1170 H     1 <1>   0.0800 
 38 H       -1.7330     3.3850     0.2680 H     1 <1>   0.0800 
 39 H       -2.6430     3.5970     1.7440 H     1 <1>   0.0800 
 40 H       -3.2470     4.2560     0.2420 H     1 <1>   0.0800 
@<TRIPOS>BOND
  1   1   2  2   
  2   1   3  2   
  3   1   4  1   
  4   1   5  1   
  5   4   6  ar  
  6   4   7  ar  
  7   5   8  1   
  8   5   9  1   
  9   5  10  1   
 10   6  11  1   
 11   6  12  ar  
 12   7  13  ar  
 13   7  19  1   
 14   8  20  1   
 15   8  21  1   
 16   8  22  1   
 17   9  23  1   
 18   9  24  1   
 19   9  25  1   
 20  10  26  1   
 21  10  27  1   
 22  10  28  1   
 23  11  14  1   
 24  12  15  ar  
 25  12  29  1   
 26  13  15  ar  
 27  13  30  1   
 28  14  16  1   
 29  14  17  1   
 30  14  18  1   
 31  15  31  1   
 32  16  32  1   
 33  16  33  1   
 34  16  34  1   
 35  17  35  1   
 36  17  36  1   
 37  17  37  1   
 38  18  38  1   
 39  18  39  1   
 40  18  40  1   
@<TRIPOS>SUBSTRUCTURE
  1 ****   4 GROUP 4 **** **** 0

# MOE 2024.06 (io_trps.svl 2023.06)
