@<TRIPOS>MOLECULE
NONAME
36 37 1 0 0 
SMALL
USER_CHARGES


@<TRIPOS>ATOM
  1 S       -2.1580     0.5280     2.3080 S.3   1 <1>  -0.0800 
  2 C       -1.9500     0.9680     0.6170 C.2   1 <1>  -0.1400 
  3 C       -0.8170     1.5480     2.7870 C.2   1 <1>  -0.1100 
  4 C       -0.9210     1.8300     0.4770 C.2   1 <1>  -0.1810 
  5 C       -2.9190     0.3360    -0.3670 C.3   1 <1>   0.2900 
  6 C       -0.2800     2.1570     1.7150 C.2   1 <1>  -0.1500 
  7 C       -0.4070     2.4490    -0.8100 C.3   1 <1>  -0.0590 
  8 N       -4.3040     0.7560    -0.0730 N.3   1 <1>  -0.8100 
  9 C       -4.4860     2.2280    -0.1510 C.3   1 <1>   0.1100 
 10 C       -5.3010     0.0540    -0.9100 C.3   1 <1>   0.1100 
 11 C       -5.9390     2.6550     0.1720 C.3   1 <1>   0.3430 
 12 C       -6.7520     0.4340    -0.5190 C.3   1 <1>   0.3430 
 13 N       -6.7710     1.4720     0.5690 N.4   1 <1>  -0.9590 
 14 C       -8.1170     1.8470     1.0620 C.3   1 <1>   0.3430 
 15 C       -8.7430     0.6670     1.7970 C.3   1 <1>  -0.2400 
 16 H       -0.5680     1.5820     3.8330 H     1 <1>   0.1500 
 17 H       -2.8420    -0.7350    -0.2790 H     1 <1>   0.0800 
 18 H       -2.6570     0.6100    -1.3740 H     1 <1>   0.0800 
 19 H        0.5570     2.8340     1.7450 H     1 <1>   0.1500 
 20 H        0.6180     2.1630    -0.9660 H     1 <1>   0.0800 
 21 H       -0.9840     2.1260    -1.6560 H     1 <1>   0.0800 
 22 H       -0.4600     3.5210    -0.7470 H     1 <1>   0.0800 
 23 H       -4.2190     2.5820    -1.1320 H     1 <1>   0.0800 
 24 H       -3.8310     2.7110     0.5540 H     1 <1>   0.0800 
 25 H       -5.1800    -1.0100    -0.7940 H     1 <1>   0.0800 
 26 H       -5.1390     0.2890    -1.9490 H     1 <1>   0.0800 
 27 H       -6.3680     3.1350    -0.6910 H     1 <1>   0.0800 
 28 H       -5.9170     3.3760     0.9730 H     1 <1>   0.0800 
 29 H       -7.2600    -0.4550    -0.1840 H     1 <1>   0.0800 
 30 H       -7.2710     0.8000    -1.3890 H     1 <1>   0.0800 
 31 H       -6.2210     1.0400     1.3300 H     1 <1>   0.4500 
 32 H       -8.7460     2.1480     0.2380 H     1 <1>   0.0800 
 33 H       -8.0330     2.6770     1.7440 H     1 <1>   0.0800 
 34 H       -8.9410    -0.1520     1.1310 H     1 <1>   0.0800 
 35 H       -9.6810     0.9760     2.2230 H     1 <1>   0.0800 
 36 H       -8.1070     0.3380     2.6000 H     1 <1>   0.0800 
@<TRIPOS>BOND
  1   1   2  1   
  2   1   3  1   
  3   2   4  2   
  4   2   5  1   
  5   3   6  2   
  6   3  16  1   
  7   4   6  1   
  8   4   7  1   
  9   5   8  1   
 10   5  17  1   
 11   5  18  1   
 12   6  19  1   
 13   7  20  1   
 14   7  21  1   
 15   7  22  1   
 16   8   9  1   
 17   8  10  1   
 18   9  11  1   
 19   9  23  1   
 20   9  24  1   
 21  10  12  1   
 22  10  25  1   
 23  10  26  1   
 24  11  13  1   
 25  11  27  1   
 26  11  28  1   
 27  12  13  1   
 28  12  29  1   
 29  12  30  1   
 30  13  14  1   
 31  13  31  1   
 32  14  15  1   
 33  14  32  1   
 34  14  33  1   
 35  15  34  1   
 36  15  35  1   
 37  15  36  1   
@<TRIPOS>SUBSTRUCTURE
  1 ****   8 GROUP 4 **** **** 0

# MOE 2024.06 (io_trps.svl 2023.06)
