@<TRIPOS>MOLECULE
NONAME
45 45 1 0 0 
SMALL
USER_CHARGES


@<TRIPOS>ATOM
  1 O        0.3750    -0.5520     1.3520 O.2   1 <1>  -0.5700 
  2 C        0.6560    -1.4030     0.5410 C.2   1 <1>   0.5690 
  3 N       -0.2950    -2.1850    -0.0600 N.am  1 <1>  -0.5470 
  4 C        2.1500    -1.6210     0.1800 C.3   1 <1>   0.0610 
  5 C       -1.6960    -2.1790     0.0530 C.ar  1 <1>   0.1170 
  6 C        2.7340    -0.3260    -0.4160 C.3   1 <1>  -0.2400 
  7 C        2.3700    -2.7540    -0.8480 C.3   1 <1>  -0.2400 
  8 C        2.9470    -1.9780     1.4490 C.3   1 <1>  -0.2400 
  9 C       -2.3930    -3.3570    -0.1800 C.ar  1 <1>  -0.1500 
 10 C       -2.4180    -1.0350     0.3690 C.ar  1 <1>  -0.1500 
 11 C       -3.7810    -3.3970    -0.0980 C.ar  1 <1>   0.0830 
 12 C       -3.7980    -1.0640     0.4510 C.ar  1 <1>  -0.1500 
 13 O       -4.5040    -4.5390    -0.3120 O.3   1 <1>  -0.3630 
 14 C       -4.5010    -2.2390     0.2160 C.ar  1 <1>   0.1170 
 15 C       -3.8710    -5.7740    -0.5700 C.3   1 <1>   0.0400 
 16 N       -5.9070    -2.3310     0.2830 N.am  1 <1>  -0.5470 
 17 C       -6.9010    -1.4100     0.4550 C.2   1 <1>   0.5690 
 18 O       -6.7030    -0.2260     0.5850 O.2   1 <1>  -0.5700 
 19 C       -8.3450    -1.9270     0.4740 C.3   1 <1>  -0.0190 
 20 C       -9.1620    -1.3580    -0.6970 C.3   1 <1>  -0.2400 
 21 C       -9.0420    -1.6070     1.8070 C.3   1 <1>  -0.2400 
 22 H        0.0840    -2.9040    -0.6700 H     1 <1>   0.3700 
 23 H        2.1990    -0.0510    -1.3070 H     1 <1>   0.0800 
 24 H        3.7740    -0.4480    -0.6610 H     1 <1>   0.0800 
 25 H        2.6440     0.4810     0.2900 H     1 <1>   0.0800 
 26 H        3.4180    -2.8620    -1.0650 H     1 <1>   0.0800 
 27 H        2.0150    -3.6940    -0.4620 H     1 <1>   0.0800 
 28 H        1.8630    -2.5350    -1.7710 H     1 <1>   0.0800 
 29 H        2.8610    -1.1890     2.1760 H     1 <1>   0.0800 
 30 H        3.9890    -2.1200     1.2240 H     1 <1>   0.0800 
 31 H        2.5620    -2.8800     1.8910 H     1 <1>   0.0800 
 32 H       -1.8300    -4.2360    -0.4200 H     1 <1>   0.1500 
 33 H       -1.9040    -0.1080     0.5520 H     1 <1>   0.1500 
 34 H       -4.3190    -0.1590     0.7010 H     1 <1>   0.1500 
 35 H       -4.6320    -6.5250    -0.6760 H     1 <1>   0.0800 
 36 H       -3.2300    -6.0190     0.2580 H     1 <1>   0.0800 
 37 H       -3.3100    -5.6950    -1.4850 H     1 <1>   0.0800 
 38 H       -6.2170    -3.2930     0.1420 H     1 <1>   0.3700 
 39 H       -8.3220    -2.9970     0.3670 H     1 <1>   0.0800 
 40 H       -9.2240    -0.2860    -0.6210 H     1 <1>   0.0800 
 41 H      -10.1590    -1.7630    -0.6970 H     1 <1>   0.0800 
 42 H       -8.6910    -1.6040    -1.6320 H     1 <1>   0.0800 
 43 H       -9.1040    -0.5410     1.9480 H     1 <1>   0.0800 
 44 H       -8.4830    -2.0240     2.6260 H     1 <1>   0.0800 
 45 H      -10.0360    -2.0170     1.8230 H     1 <1>   0.0800 
@<TRIPOS>BOND
  1   1   2  2   
  2   2   3  am  
  3   2   4  1   
  4   3   5  1   
  5   3  22  1   
  6   4   6  1   
  7   4   7  1   
  8   4   8  1   
  9   5   9  ar  
 10   5  10  ar  
 11   6  23  1   
 12   6  24  1   
 13   6  25  1   
 14   7  26  1   
 15   7  27  1   
 16   7  28  1   
 17   8  29  1   
 18   8  30  1   
 19   8  31  1   
 20   9  11  ar  
 21   9  32  1   
 22  10  12  ar  
 23  10  33  1   
 24  11  13  1   
 25  11  14  ar  
 26  12  14  ar  
 27  12  34  1   
 28  13  15  1   
 29  14  16  1   
 30  15  35  1   
 31  15  36  1   
 32  15  37  1   
 33  16  17  am  
 34  16  38  1   
 35  17  18  2   
 36  17  19  1   
 37  19  20  1   
 38  19  21  1   
 39  19  39  1   
 40  20  40  1   
 41  20  41  1   
 42  20  42  1   
 43  21  43  1   
 44  21  44  1   
 45  21  45  1   
@<TRIPOS>SUBSTRUCTURE
  1 ****  10 GROUP 4 **** **** 0

# MOE 2024.06 (io_trps.svl 2023.06)
