@<TRIPOS>MOLECULE
NONAME
31 32 1 0 0 
SMALL
USER_CHARGES


@<TRIPOS>ATOM
  1 S        0.2960    -0.1380     0.4840 S.3   1 <1>  -0.0800 
  2 C        1.1820     1.3890     0.5570 C.2   1 <1>  -0.0450 
  3 C       -1.2530     0.6750     0.4620 C.2   1 <1>  -0.1100 
  4 C        2.6230     1.3580     0.5950 C.2   1 <1>   0.7150 
  5 C        0.2830     2.4080     0.5660 C.2   1 <1>  -0.1500 
  6 C       -1.0840     2.0090     0.5100 C.2   1 <1>  -0.1500 
  7 O        3.2510     0.3570     0.8610 O.2   1 <1>  -0.5700 
  8 N        3.3680     2.4650     0.3480 N.am  1 <1>  -0.7300 
  9 C        3.7570     2.8320    -1.0480 C.3   1 <1>   0.2810 
 10 C        4.7930     3.9680    -1.0680 C.2   1 <1>   0.5690 
 11 C        2.5140     3.2220    -1.8580 C.3   1 <1>  -0.2400 
 12 O        5.7090     3.8970    -1.8460 O.2   1 <1>  -0.5700 
 13 N        4.6120     4.9930    -0.1850 N.am  1 <1>  -0.4900 
 14 C        5.2850     6.1580     0.0610 C.2   1 <1>   0.6510 
 15 S        6.6640     6.6390    -0.9260 S.3   1 <1>  -0.3710 
 16 N        4.9850     6.9690     0.9770 N.2   1 <1>  -0.6960 
 17 C        6.9380     8.1820     0.0010 C.3   1 <1>   0.0700 
 18 C        5.8340     8.1730     1.0730 C.3   1 <1>   0.0860 
 19 H       -2.1360     0.0630     0.4160 H     1 <1>   0.1500 
 20 H        0.5450     3.4510     0.6150 H     1 <1>   0.1500 
 21 H       -1.8780     2.7350     0.5110 H     1 <1>   0.1500 
 22 H        4.2200     2.4060     0.9120 H     1 <1>   0.3700 
 23 H        4.2120     1.9710    -1.5110 H     1 <1>   0.0800 
 24 H        1.9950     4.0410    -1.3950 H     1 <1>   0.0800 
 25 H        1.8500     2.3840    -1.9670 H     1 <1>   0.0800 
 26 H        2.8150     3.5280    -2.8450 H     1 <1>   0.0800 
 27 H        3.8230     4.8890     0.4470 H     1 <1>   0.3700 
 28 H        6.8400     9.0070    -0.6820 H     1 <1>   0.0800 
 29 H        7.9250     8.1480     0.4270 H     1 <1>   0.0800 
 30 H        6.2830     8.2050     2.0510 H     1 <1>   0.0800 
 31 H        5.2150     9.0460     0.9610 H     1 <1>   0.0800 
@<TRIPOS>BOND
  1   1   2  1   
  2   1   3  1   
  3   2   4  1   
  4   2   5  2   
  5   3   6  2   
  6   3  19  1   
  7   4   7  2   
  8   4   8  am  
  9   5   6  1   
 10   5  20  1   
 11   6  21  1   
 12   8   9  1   
 13   8  22  1   
 14   9  10  1   
 15   9  11  1   
 16   9  23  1   
 17  10  12  2   
 18  10  13  am  
 19  11  24  1   
 20  11  25  1   
 21  11  26  1   
 22  13  14  1   
 23  13  27  1   
 24  14  15  1   
 25  14  16  2   
 26  15  17  1   
 27  16  18  1   
 28  17  18  1   
 29  17  28  1   
 30  17  29  1   
 31  18  30  1   
 32  18  31  1   
@<TRIPOS>SUBSTRUCTURE
  1 ****   8 GROUP 4 **** **** 0

# MOE 2024.06 (io_trps.svl 2023.06)
