@<TRIPOS>MOLECULE
NONAME
35 36 1 0 0 
SMALL
USER_CHARGES


@<TRIPOS>ATOM
  1 CL      -1.7740     1.2440     2.1040 Cl    1 <1>  -0.1770 
  2 C       -0.8380     2.3430     1.1200 C.ar  1 <1>   0.1770 
  3 C       -1.2460     2.6230    -0.1760 C.ar  1 <1>  -0.1440 
  4 C        0.2930     2.9220     1.6630 C.ar  1 <1>  -0.1500 
  5 C       -0.4900     3.5040    -0.9370 C.ar  1 <1>  -0.1500 
  6 C       -2.4910     1.9730    -0.7460 C.3   1 <1>   0.4870 
  7 C        1.0370     3.8020     0.8970 C.ar  1 <1>  -0.1500 
  8 C        0.6450     4.0900    -0.4000 C.ar  1 <1>  -0.1500 
  9 N       -3.6960     2.5080    -0.0520 N.4   1 <1>  -0.9590 
 10 C       -4.9220     1.7570    -0.4320 C.3   1 <1>   0.3430 
 11 C       -3.8470     3.9810    -0.2300 C.3   1 <1>   0.3430 
 12 C       -6.0890     2.2150     0.4400 C.3   1 <1>  -0.1600 
 13 C       -4.9930     4.4830     0.6450 C.3   1 <1>  -0.1600 
 14 C       -6.3130     3.7380     0.3660 C.3   1 <1>  -0.0190 
 15 C       -7.3950     4.1720     1.3510 C.2   1 <1>   0.5690 
 16 O       -7.2380     3.9680     2.5260 O.2   1 <1>  -0.5700 
 17 N       -8.5140     4.7750     0.9140 N.am  1 <1>  -0.8000 
 18 H        0.5890     2.6880     2.6710 H     1 <1>   0.1500 
 19 H       -0.7650     3.7430    -1.9520 H     1 <1>   0.1500 
 20 H       -2.4270     0.9070    -0.5990 H     1 <1>   0.0800 
 21 H       -2.5540     2.1680    -1.8040 H     1 <1>   0.0800 
 22 H        1.9220     4.2600     1.3070 H     1 <1>   0.1500 
 23 H        1.2330     4.7730    -0.9930 H     1 <1>   0.1500 
 24 H       -3.5350     2.3450     0.9550 H     1 <1>   0.4500 
 25 H       -4.7670     0.6990    -0.2910 H     1 <1>   0.0800 
 26 H       -5.1540     1.9330    -1.4700 H     1 <1>   0.0800 
 27 H       -4.0520     4.2070    -1.2640 H     1 <1>   0.0800 
 28 H       -2.9370     4.4870     0.0550 H     1 <1>   0.0800 
 29 H       -5.9000     1.9210     1.4590 H     1 <1>   0.0800 
 30 H       -6.9850     1.7080     0.1260 H     1 <1>   0.0800 
 31 H       -5.1340     5.5360     0.4720 H     1 <1>   0.0800 
 32 H       -4.7190     4.3670     1.6800 H     1 <1>   0.0800 
 33 H       -6.6420     3.9870    -0.6280 H     1 <1>   0.0800 
 34 H       -9.2200     5.0530     1.6010 H     1 <1>   0.3700 
 35 H       -8.7350     4.9880    -0.0580 H     1 <1>   0.3700 
@<TRIPOS>BOND
  1   1   2  1   
  2   2   3  ar  
  3   2   4  ar  
  4   3   5  ar  
  5   3   6  1   
  6   4   7  ar  
  7   4  18  1   
  8   5   8  ar  
  9   5  19  1   
 10   6   9  1   
 11   6  20  1   
 12   6  21  1   
 13   7   8  ar  
 14   7  22  1   
 15   8  23  1   
 16   9  10  1   
 17   9  11  1   
 18   9  24  1   
 19  10  12  1   
 20  10  25  1   
 21  10  26  1   
 22  11  13  1   
 23  11  27  1   
 24  11  28  1   
 25  12  14  1   
 26  12  29  1   
 27  12  30  1   
 28  13  14  1   
 29  13  31  1   
 30  13  32  1   
 31  14  15  1   
 32  14  33  1   
 33  15  16  2   
 34  15  17  am  
 35  17  34  1   
 36  17  35  1   
@<TRIPOS>SUBSTRUCTURE
  1 ****   9 GROUP 4 **** **** 0

# MOE 2024.06 (io_trps.svl 2023.06)
