@<TRIPOS>MOLECULE
NONAME
53 56 1 0 0 
SMALL
USER_CHARGES


@<TRIPOS>ATOM
  1 O       -1.3720     0.5380     0.6100 O.3   1 <1>  -0.3630 
  2 C       -2.3610    -0.3490     0.3260 C.ar  1 <1>   0.0830 
  3 C       -0.2300     0.1820     1.3570 C.3   1 <1>   0.0400 
  4 C       -3.4350     0.1170    -0.4760 C.ar  1 <1>   0.0000 
  5 C       -2.3460    -1.6450     0.7820 C.ar  1 <1>  -0.1500 
  6 C       -4.4900    -0.7710    -0.8010 C.ar  1 <1>   0.0000 
  7 C       -3.4910     1.4400    -0.9690 C.ar  1 <1>  -0.1500 
  8 C       -3.3920    -2.5140     0.4720 C.ar  1 <1>  -0.1500 
  9 C       -4.4500    -2.0960    -0.2930 C.ar  1 <1>  -0.1440 
 10 C       -5.5350    -0.2830    -1.6220 C.ar  1 <1>  -0.1500 
 11 C       -4.5200     1.8770    -1.7530 C.ar  1 <1>  -0.1500 
 12 C       -5.5810    -3.0830    -0.5690 C.3   1 <1>   0.2530 
 13 C       -5.5550     1.0020    -2.0860 C.ar  1 <1>  -0.1500 
 14 N       -6.8290    -2.6380     0.0840 N.3   1 <1>  -0.8100 
 15 C       -7.9900    -3.4910    -0.2540 C.3   1 <1>   0.1100 
 16 C       -6.6940    -2.4830     1.5560 C.3   1 <1>   0.1100 
 17 C       -9.3060    -2.9420     0.3540 C.3   1 <1>   0.3430 
 18 C       -7.9970    -1.9640     2.2120 C.3   1 <1>   0.3430 
 19 N       -9.0450    -1.7110     1.1750 N.4   1 <1>  -0.9590 
 20 C      -10.2670    -1.0370     1.6800 C.3   1 <1>   0.4860 
 21 C      -11.1450    -0.6800     0.4970 C.ar  1 <1>  -0.1430 
 22 C      -10.7650     0.3250    -0.3820 C.ar  1 <1>  -0.1500 
 23 C      -12.3340    -1.3630     0.2790 C.ar  1 <1>  -0.1500 
 24 C      -11.5600     0.6350    -1.4710 C.ar  1 <1>  -0.1500 
 25 C      -13.1270    -1.0510    -0.8110 C.ar  1 <1>  -0.1500 
 26 C      -12.7400    -0.0530    -1.6860 C.ar  1 <1>  -0.1500 
 27 H        0.4040     1.0470     1.4280 H     1 <1>   0.0800 
 28 H        0.2890    -0.6090     0.8450 H     1 <1>   0.0800 
 29 H       -0.5370    -0.1280     2.3390 H     1 <1>   0.0800 
 30 H       -1.5430    -2.0270     1.3830 H     1 <1>   0.1500 
 31 H       -2.6920     2.1150    -0.7180 H     1 <1>   0.1500 
 32 H       -3.3430    -3.5180     0.8550 H     1 <1>   0.1500 
 33 H       -6.3380    -0.9400    -1.8930 H     1 <1>   0.1500 
 34 H       -4.5440     2.8880    -2.1220 H     1 <1>   0.1500 
 35 H       -5.3140    -4.0630    -0.2110 H     1 <1>   0.0800 
 36 H       -5.7300    -3.1520    -1.6330 H     1 <1>   0.0800 
 37 H       -6.3560     1.3560    -2.7120 H     1 <1>   0.1500 
 38 H       -7.8250    -4.4950     0.1010 H     1 <1>   0.0800 
 39 H       -8.1000    -3.5400    -1.3250 H     1 <1>   0.0800 
 40 H       -5.9090    -1.7780     1.7770 H     1 <1>   0.0800 
 41 H       -6.4170    -3.4230     2.0030 H     1 <1>   0.0800 
 42 H       -9.7650    -3.7040     0.9610 H     1 <1>   0.0800 
 43 H       -9.9860    -2.7080    -0.4500 H     1 <1>   0.0800 
 44 H       -7.7760    -1.0540     2.7450 H     1 <1>   0.0800 
 45 H       -8.3490    -2.6890     2.9270 H     1 <1>   0.0800 
 46 H       -8.5800    -1.0820     0.5010 H     1 <1>   0.4500 
 47 H      -10.0020    -0.1370     2.2100 H     1 <1>   0.0800 
 48 H      -10.8010    -1.6880     2.3520 H     1 <1>   0.0800 
 49 H       -9.8530     0.8790    -0.2320 H     1 <1>   0.1500 
 50 H      -12.6590    -2.1400     0.9500 H     1 <1>   0.1500 
 51 H      -11.2650     1.4160    -2.1530 H     1 <1>   0.1500 
 52 H      -14.0510    -1.5800    -0.9790 H     1 <1>   0.1500 
 53 H      -13.3590     0.1900    -2.5340 H     1 <1>   0.1500 
@<TRIPOS>BOND
  1   1   2  1   
  2   1   3  1   
  3   2   4  ar  
  4   2   5  ar  
  5   3  27  1   
  6   3  28  1   
  7   3  29  1   
  8   4   6  ar  
  9   4   7  ar  
 10   5   8  ar  
 11   5  30  1   
 12   6   9  ar  
 13   6  10  ar  
 14   7  11  ar  
 15   7  31  1   
 16   8   9  ar  
 17   8  32  1   
 18   9  12  1   
 19  10  13  ar  
 20  10  33  1   
 21  11  13  ar  
 22  11  34  1   
 23  12  14  1   
 24  12  35  1   
 25  12  36  1   
 26  13  37  1   
 27  14  15  1   
 28  14  16  1   
 29  15  17  1   
 30  15  38  1   
 31  15  39  1   
 32  16  18  1   
 33  16  40  1   
 34  16  41  1   
 35  17  19  1   
 36  17  42  1   
 37  17  43  1   
 38  18  19  1   
 39  18  44  1   
 40  18  45  1   
 41  19  20  1   
 42  19  46  1   
 43  20  21  1   
 44  20  47  1   
 45  20  48  1   
 46  21  22  ar  
 47  21  23  ar  
 48  22  24  ar  
 49  22  49  1   
 50  23  25  ar  
 51  23  50  1   
 52  24  26  ar  
 53  24  51  1   
 54  25  26  ar  
 55  25  52  1   
 56  26  53  1   
@<TRIPOS>SUBSTRUCTURE
  1 ****  14 GROUP 4 **** **** 0

# MOE 2024.06 (io_trps.svl 2023.06)
