@<TRIPOS>MOLECULE
NONAME
33 35 1 0 0 
SMALL
USER_CHARGES


@<TRIPOS>ATOM
  1 BR       0.9140     0.6680     1.6660 Br    1 <1>  -0.1110 
  2 C        0.2310     2.3590     1.0350 C.ar  1 <1>   0.1110 
  3 C        1.0930     3.3150     0.5240 C.ar  1 <1>   0.1770 
  4 C       -1.1320     2.5840     1.1060 C.ar  1 <1>  -0.1500 
  5 CL       2.8140     3.0110     0.4380 Cl    1 <1>  -0.1770 
  6 C        0.5920     4.5210     0.0750 C.ar  1 <1>  -0.1500 
  7 C       -1.6260     3.7950     0.6520 C.ar  1 <1>  -0.1500 
  8 C       -0.7740     4.7720     0.1360 C.ar  1 <1>   0.1170 
  9 N       -1.2360     6.0010    -0.3420 N.am  1 <1>  -0.5470 
 10 C       -2.2700     6.7950     0.0650 C.2   1 <1>   0.5690 
 11 O       -3.0460     6.4290     0.9190 O.2   1 <1>  -0.5700 
 12 C       -2.5230     8.1450    -0.6360 C.3   1 <1>  -0.0190 
 13 C       -1.3090     9.0810    -1.0040 C.3   1 <1>  -0.1860 
 14 C       -3.4060     9.0880     0.2210 C.3   1 <1>   0.0580 
 15 C        0.0800     8.5650    -0.6870 C.2   1 <1>   0.9060 
 16 C       -1.6420    10.3990    -0.2740 C.3   1 <1>   0.0580 
 17 C       -3.8960    10.1960    -0.6960 C.2   1 <1>  -0.2880 
 18 C       -2.3380     9.8710     0.9760 C.3   1 <1>  -0.1600 
 19 O        0.6820     8.9350     0.3210 O.co2 1 <1>  -0.9000 
 20 O        0.5490     7.7150    -1.4530 O.co2 1 <1>  -0.9000 
 21 C       -2.8550    10.9720    -0.9840 C.2   1 <1>  -0.2880 
 22 H       -1.7880     1.8330     1.5070 H     1 <1>   0.1500 
 23 H        1.2550     5.2750    -0.3180 H     1 <1>   0.1500 
 24 H       -2.6830     3.9900     0.6970 H     1 <1>   0.1500 
 25 H       -0.5340     6.5030    -0.9230 H     1 <1>   0.3700 
 26 H       -3.0590     7.9110    -1.5370 H     1 <1>   0.0800 
 27 H       -1.3140     9.2670    -2.0620 H     1 <1>   0.0800 
 28 H       -4.1680     8.6460     0.8400 H     1 <1>   0.0800 
 29 H       -0.8280    11.0820    -0.0970 H     1 <1>   0.0800 
 30 H       -4.9240    10.2370    -1.0090 H     1 <1>   0.1500 
 31 H       -1.6980     9.2480     1.5800 H     1 <1>   0.0800 
 32 H       -2.7550    10.6640     1.5720 H     1 <1>   0.0800 
 33 H       -2.7630    11.8440    -1.6060 H     1 <1>   0.1500 
@<TRIPOS>BOND
  1   1   2  1   
  2   2   3  ar  
  3   2   4  ar  
  4   3   5  1   
  5   3   6  ar  
  6   4   7  ar  
  7   4  22  1   
  8   6   8  ar  
  9   6  23  1   
 10   7   8  ar  
 11   7  24  1   
 12   8   9  1   
 13   9  10  am  
 14   9  25  1   
 15  10  11  2   
 16  10  12  1   
 17  12  13  1   
 18  12  14  1   
 19  12  26  1   
 20  13  15  1   
 21  13  16  1   
 22  13  27  1   
 23  14  17  1   
 24  14  18  1   
 25  14  28  1   
 26  15  19  ar  
 27  15  20  ar  
 28  16  18  1   
 29  16  21  1   
 30  16  29  1   
 31  17  21  2   
 32  17  30  1   
 33  18  31  1   
 34  18  32  1   
 35  21  33  1   
@<TRIPOS>SUBSTRUCTURE
  1 ****   9 GROUP 4 **** **** 0

# MOE 2024.06 (io_trps.svl 2023.06)
