@<TRIPOS>MOLECULE
NONAME
44 45 1 0 0 
SMALL
USER_CHARGES


@<TRIPOS>ATOM
  1 BR      -0.3610    -1.9850    -0.7770 Br    1 <1>  -0.1110 
  2 C       -1.8450    -0.7770    -0.5630 C.ar  1 <1>   0.1110 
  3 C       -2.4070    -0.6250     0.6900 C.ar  1 <1>  -0.1500 
  4 C       -2.3140    -0.0920    -1.6680 C.ar  1 <1>  -0.1500 
  5 C       -3.4730     0.2460     0.8350 C.ar  1 <1>  -0.1500 
  6 C       -3.3810     0.7740    -1.5060 C.ar  1 <1>  -0.1500 
  7 C       -3.9710     0.9570    -0.2550 C.ar  1 <1>   0.1170 
  8 N       -5.0590     1.8160    -0.0440 N.am  1 <1>  -0.5470 
  9 C       -5.5280     2.8910    -0.7510 C.2   1 <1>   0.5690 
 10 O       -4.9830     3.3090    -1.7430 O.2   1 <1>  -0.5700 
 11 C       -6.7840     3.6210    -0.2980 C.3   1 <1>   0.0420 
 12 C       -6.7920     3.7610     1.2250 C.2   1 <1>   0.6590 
 13 C       -8.0800     3.0090    -0.8950 C.3   1 <1>  -0.0800 
 14 O       -6.6980     2.7910     1.9320 O.2   1 <1>  -0.5700 
 15 O       -6.9150     4.9560     1.8000 O.3   1 <1>  -0.4300 
 16 C       -9.3090     3.8810    -0.5640 C.3   1 <1>  -0.1600 
 17 C       -8.3420     1.5440    -0.4820 C.3   1 <1>  -0.1600 
 18 C       -6.8820     6.2200     1.1770 C.3   1 <1>   0.1200 
 19 C      -10.5840     3.3310    -1.2150 C.3   1 <1>  -0.1600 
 20 C       -9.6190     0.9970    -1.1340 C.3   1 <1>  -0.1600 
 21 C       -7.0030     7.2780     2.2680 C.3   1 <1>  -0.2400 
 22 C      -10.8320     1.8750    -0.8030 C.3   1 <1>  -0.1600 
 23 H       -2.0170    -1.1740     1.5280 H     1 <1>   0.1500 
 24 H       -1.8550    -0.2330    -2.6290 H     1 <1>   0.1500 
 25 H       -3.9210     0.3780     1.8040 H     1 <1>   0.1500 
 26 H       -3.7560     1.3060    -2.3610 H     1 <1>   0.1500 
 27 H       -5.5540     1.6650     0.8460 H     1 <1>   0.3700 
 28 H       -6.6980     4.5960    -0.7320 H     1 <1>   0.0800 
 29 H       -7.9610     3.0180    -1.9670 H     1 <1>   0.0800 
 30 H       -9.1510     4.8860    -0.9150 H     1 <1>   0.0800 
 31 H       -9.4570     3.9190     0.5020 H     1 <1>   0.0800 
 32 H       -8.4480     1.4710     0.5860 H     1 <1>   0.0800 
 33 H       -7.5200     0.9170    -0.7790 H     1 <1>   0.0800 
 34 H       -7.7080     6.2910     0.4910 H     1 <1>   0.0800 
 35 H       -5.9470     6.3230     0.6520 H     1 <1>   0.0800 
 36 H      -10.4930     3.3860    -2.2870 H     1 <1>   0.0800 
 37 H      -11.4280     3.9330    -0.9250 H     1 <1>   0.0800 
 38 H       -9.7980    -0.0070    -0.7870 H     1 <1>   0.0800 
 39 H       -9.4880     0.9570    -2.2020 H     1 <1>   0.0800 
 40 H       -7.9310     7.1610     2.7980 H     1 <1>   0.0800 
 41 H       -6.9810     8.2590     1.8290 H     1 <1>   0.0800 
 42 H       -6.1830     7.1940     2.9590 H     1 <1>   0.0800 
 43 H      -11.7010     1.4980    -1.3140 H     1 <1>   0.0800 
 44 H      -11.0260     1.8310     0.2550 H     1 <1>   0.0800 
@<TRIPOS>BOND
  1   1   2  1   
  2   2   3  ar  
  3   2   4  ar  
  4   3   5  ar  
  5   3  23  1   
  6   4   6  ar  
  7   4  24  1   
  8   5   7  ar  
  9   5  25  1   
 10   6   7  ar  
 11   6  26  1   
 12   7   8  1   
 13   8   9  am  
 14   8  27  1   
 15   9  10  2   
 16   9  11  1   
 17  11  12  1   
 18  11  13  1   
 19  11  28  1   
 20  12  14  2   
 21  12  15  1   
 22  13  16  1   
 23  13  17  1   
 24  13  29  1   
 25  15  18  1   
 26  16  19  1   
 27  16  30  1   
 28  16  31  1   
 29  17  20  1   
 30  17  32  1   
 31  17  33  1   
 32  18  21  1   
 33  18  34  1   
 34  18  35  1   
 35  19  22  1   
 36  19  36  1   
 37  19  37  1   
 38  20  22  1   
 39  20  38  1   
 40  20  39  1   
 41  21  40  1   
 42  21  41  1   
 43  21  42  1   
 44  22  43  1   
 45  22  44  1   
@<TRIPOS>SUBSTRUCTURE
  1 ****   9 GROUP 4 **** **** 0

# MOE 2024.06 (io_trps.svl 2023.06)
