@<TRIPOS>MOLECULE
NONAME
31 33 1 0 0 
SMALL
USER_CHARGES


@<TRIPOS>ATOM
  1 O       -0.0610    -0.3550     0.3680 O.3   1 <1>  -0.6920 
  2 N       -0.0580    -1.5990     0.1690 N.pl3 1 <1>  -0.5080 
  3 C       -1.2870    -2.2500     0.0730 C.ar  1 <1>   0.1000 
  4 C        1.1430    -2.2420     0.0910 C.2   1 <1>  -0.0380 
  5 C       -1.2910    -3.6320    -0.0670 C.ar  1 <1>  -0.0040 
  6 C       -2.5060    -1.5710     0.1110 C.ar  1 <1>  -0.1500 
  7 C        1.1570    -3.5930    -0.0240 C.2   1 <1>  -0.1510 
  8 C        2.4140    -1.3970     0.1520 C.3   1 <1>  -0.0220 
  9 N       -0.0450    -4.2490    -0.1000 N.2   1 <1>   1.5820 
 10 C       -2.5190    -4.3130    -0.1650 C.ar  1 <1>  -0.1500 
 11 C       -3.7070    -2.2380     0.0150 C.ar  1 <1>  -0.1440 
 12 C        2.4700    -4.3910    -0.0800 C.3   1 <1>  -0.0220 
 13 C        3.6690    -2.1800    -0.2530 C.3   1 <1>  -0.1600 
 14 O       -0.0270    -5.5280    -0.2310 O.2   1 <1>  -0.5640 
 15 C       -3.7080    -3.6230    -0.1240 C.ar  1 <1>  -0.1500 
 16 C       -5.0230    -1.4830     0.0590 C.3   1 <1>  -0.0970 
 17 C        3.6750    -3.5680     0.3910 C.3   1 <1>  -0.1600 
 18 H       -2.4730    -0.5000     0.2200 H     1 <1>   0.1500 
 19 H        2.5160    -1.0220     1.1550 H     1 <1>   0.0800 
 20 H        2.3060    -0.5450    -0.4970 H     1 <1>   0.0800 
 21 H       -2.5480    -5.3860    -0.2730 H     1 <1>   0.1500 
 22 H        2.6410    -4.7110    -1.0950 H     1 <1>   0.0800 
 23 H        2.4100    -5.2720     0.5380 H     1 <1>   0.0800 
 24 H        4.5420    -1.6270     0.0460 H     1 <1>   0.0800 
 25 H        3.6910    -2.2790    -1.3250 H     1 <1>   0.0800 
 26 H       -4.6470    -4.1450    -0.2000 H     1 <1>   0.1500 
 27 H       -4.8510    -0.4270     0.1700 H     1 <1>   0.0800 
 28 H       -5.6140    -1.8230     0.8900 H     1 <1>   0.0800 
 29 H       -5.5710    -1.6460    -0.8520 H     1 <1>   0.0800 
 30 H        4.5880    -4.0830     0.1410 H     1 <1>   0.0800 
 31 H        3.6400    -3.4560     1.4620 H     1 <1>   0.0800 
@<TRIPOS>BOND
  1   1   2  1   
  2   2   3  1   
  3   2   4  1   
  4   3   5  ar  
  5   3   6  ar  
  6   4   7  2   
  7   4   8  1   
  8   5   9  1   
  9   5  10  ar  
 10   6  11  ar  
 11   6  18  1   
 12   7   9  1   
 13   7  12  1   
 14   8  13  1   
 15   8  19  1   
 16   8  20  1   
 17   9  14  2   
 18  10  15  ar  
 19  10  21  1   
 20  11  15  ar  
 21  11  16  1   
 22  12  17  1   
 23  12  22  1   
 24  12  23  1   
 25  13  17  1   
 26  13  24  1   
 27  13  25  1   
 28  15  26  1   
 29  16  27  1   
 30  16  28  1   
 31  16  29  1   
 32  17  30  1   
 33  17  31  1   
@<TRIPOS>SUBSTRUCTURE
  1 ****   3 GROUP 4 **** **** 0

# MOE 2024.06 (io_trps.svl 2023.06)
