@<TRIPOS>MOLECULE
NONAME
51 53 1 0 0 
SMALL
USER_CHARGES


@<TRIPOS>ATOM
  1 O       -0.0710    -0.2350     1.0020 O.2   1 <1>  -0.5700 
  2 C        0.5170    -0.9130     0.1920 C.2   1 <1>   0.5690 
  3 N        1.8380    -0.6700    -0.1040 N.am  1 <1>  -0.6600 
  4 C       -0.2250    -2.0530    -0.5060 C.3   1 <1>   0.0440 
  5 C        2.5870     0.4530     0.5520 C.3   1 <1>   0.1400 
  6 C        2.7020    -1.4740    -1.0280 C.3   1 <1>   0.1400 
  7 C       -1.7250    -2.1470    -0.2280 C.ar  1 <1>  -0.1440 
  8 C        3.8570    -0.0420     1.2660 C.3   1 <1>   0.2090 
  9 C        3.9570    -2.0060    -0.3130 C.3   1 <1>   0.2090 
 10 C       -2.2540    -3.2470     0.4330 C.ar  1 <1>  -0.1500 
 11 C       -2.5780    -1.1380    -0.6490 C.ar  1 <1>  -0.1500 
 12 N        4.6960    -0.9280     0.4010 N.pl3 1 <1>  -0.8380 
 13 C       -3.6160    -3.3350     0.6620 C.ar  1 <1>  -0.1500 
 14 C       -3.9410    -1.2230    -0.4200 C.ar  1 <1>  -0.1500 
 15 C        5.8390    -0.4020    -0.2030 C.ar  1 <1>   0.1000 
 16 C       -4.4690    -2.3290     0.2390 C.ar  1 <1>   0.0830 
 17 C        7.1200    -0.8220     0.1720 C.ar  1 <1>  -0.1430 
 18 C        5.7040     0.5470    -1.2090 C.ar  1 <1>  -0.1500 
 19 O       -5.7900    -2.4930     0.5030 O.3   1 <1>  -0.3630 
 20 C        8.2370    -0.3000    -0.4770 C.ar  1 <1>  -0.1440 
 21 C        7.2620    -1.8580     1.2890 C.3   1 <1>  -0.0970 
 22 C        6.8110     1.0720    -1.8420 C.ar  1 <1>  -0.1500 
 23 C       -6.7270    -1.4910     0.1790 C.3   1 <1>   0.0400 
 24 C        8.0730     0.6470    -1.4770 C.ar  1 <1>  -0.1500 
 25 C        9.6560    -0.7350    -0.1320 C.3   1 <1>  -0.0970 
 26 H        0.2440    -2.9740    -0.2190 H     1 <1>   0.0800 
 27 H       -0.1000    -1.9340    -1.5650 H     1 <1>   0.0800 
 28 H        1.9650     0.9590     1.2690 H     1 <1>   0.0800 
 29 H        2.8620     1.1730    -0.1970 H     1 <1>   0.0800 
 30 H        3.0120    -0.8490    -1.8470 H     1 <1>   0.0800 
 31 H        2.1650    -2.3070    -1.4410 H     1 <1>   0.0800 
 32 H        3.5720    -0.5890     2.1470 H     1 <1>   0.0800 
 33 H        4.4420     0.8050     1.5820 H     1 <1>   0.0800 
 34 H        4.6120    -2.4670    -1.0330 H     1 <1>   0.0800 
 35 H        3.6700    -2.7590     0.3990 H     1 <1>   0.0800 
 36 H       -1.6140    -4.0400     0.7750 H     1 <1>   0.1500 
 37 H       -2.1800    -0.2740    -1.1520 H     1 <1>   0.1500 
 38 H       -4.0280    -4.1850     1.1740 H     1 <1>   0.1500 
 39 H       -4.5690    -0.4220    -0.7580 H     1 <1>   0.1500 
 40 H        4.7240     0.8710    -1.4980 H     1 <1>   0.1500 
 41 H        6.5130    -1.7030     2.0430 H     1 <1>   0.0800 
 42 H        8.2160    -1.7980     1.7770 H     1 <1>   0.0800 
 43 H        7.1380    -2.8430     0.8800 H     1 <1>   0.0800 
 44 H        6.6940     1.8070    -2.6180 H     1 <1>   0.1500 
 45 H       -7.6960    -1.8240     0.5020 H     1 <1>   0.0800 
 46 H       -6.7260    -1.3440    -0.8860 H     1 <1>   0.0800 
 47 H       -6.4590    -0.5850     0.6940 H     1 <1>   0.0800 
 48 H        8.9290     1.0600    -1.9800 H     1 <1>   0.1500 
 49 H        9.7280    -1.8080    -0.1470 H     1 <1>   0.0800 
 50 H        9.9200    -0.3760     0.8460 H     1 <1>   0.0800 
 51 H       10.3640    -0.3440    -0.8390 H     1 <1>   0.0800 
@<TRIPOS>BOND
  1   1   2  2   
  2   2   3  am  
  3   2   4  1   
  4   3   5  1   
  5   3   6  1   
  6   4   7  1   
  7   4  26  1   
  8   4  27  1   
  9   5   8  1   
 10   5  28  1   
 11   5  29  1   
 12   6   9  1   
 13   6  30  1   
 14   6  31  1   
 15   7  10  ar  
 16   7  11  ar  
 17   8  12  1   
 18   8  32  1   
 19   8  33  1   
 20   9  12  1   
 21   9  34  1   
 22   9  35  1   
 23  10  13  ar  
 24  10  36  1   
 25  11  14  ar  
 26  11  37  1   
 27  12  15  1   
 28  13  16  ar  
 29  13  38  1   
 30  14  16  ar  
 31  14  39  1   
 32  15  17  ar  
 33  15  18  ar  
 34  16  19  1   
 35  17  20  ar  
 36  17  21  1   
 37  18  22  ar  
 38  18  40  1   
 39  19  23  1   
 40  20  24  ar  
 41  20  25  1   
 42  21  41  1   
 43  21  42  1   
 44  21  43  1   
 45  22  24  ar  
 46  22  44  1   
 47  23  45  1   
 48  23  46  1   
 49  23  47  1   
 50  24  48  1   
 51  25  49  1   
 52  25  50  1   
 53  25  51  1   
@<TRIPOS>SUBSTRUCTURE
  1 ****   3 GROUP 4 **** **** 0

# MOE 2024.06 (io_trps.svl 2023.06)
