@<TRIPOS>MOLECULE
NONAME
52 54 1 0 0 
SMALL
USER_CHARGES


@<TRIPOS>ATOM
  1 O        0.8930     0.8150     0.7760 O.2   1 <1>  -0.5700 
  2 C        1.0020     1.9800     0.4810 C.2   1 <1>   0.5690 
  3 N        0.0030     2.8390     0.1200 N.am  1 <1>  -0.4770 
  4 C        2.3400     2.6650     0.4820 C.3   1 <1>  -0.0990 
  5 C       -1.3840     2.5960     0.0440 C.ar  1 <1>   0.1170 
  6 C        0.5570     4.1780    -0.1690 C.3   1 <1>   0.1400 
  7 C        1.9670     4.1550     0.4380 C.3   1 <1>  -0.0190 
  8 C       -2.0120     1.7230     0.9260 C.ar  1 <1>  -0.1500 
  9 C       -2.1710     3.2350    -0.9110 C.ar  1 <1>  -0.1500 
 10 C        2.9670     5.0340    -0.3020 C.2   1 <1>   0.5690 
 11 C       -3.3760     1.4990     0.8620 C.ar  1 <1>  -0.1500 
 12 C       -3.5350     3.0150    -0.9760 C.ar  1 <1>  -0.1500 
 13 O        2.5600     5.8430    -1.0980 O.2   1 <1>  -0.5700 
 14 N        4.2910     4.8540    -0.0130 N.am  1 <1>  -0.5470 
 15 C       -4.1480     2.1450    -0.0900 C.ar  1 <1>  -0.1430 
 16 C        5.4790     5.4250    -0.4980 C.ar  1 <1>   0.1170 
 17 C       -5.6460     1.9000    -0.1610 C.3   1 <1>  -0.0170 
 18 C        6.7110     4.7630    -0.3040 C.ar  1 <1>   0.0860 
 19 C        5.4610     6.6500    -1.1640 C.ar  1 <1>  -0.1500 
 20 C       -6.3970     2.9030     0.7180 C.3   1 <1>  -0.2400 
 21 C        6.8110     3.4900     0.3900 C.2   1 <1>   0.6340 
 22 C        7.8660     5.3720    -0.8110 C.ar  1 <1>  -0.1500 
 23 C        6.6160     7.2240    -1.6500 C.ar  1 <1>  -0.1500 
 24 O        5.9270     3.0220     1.0860 O.2   1 <1>  -0.5700 
 25 O        7.9430     2.7900     0.2500 O.3   1 <1>  -0.4300 
 26 C        7.8260     6.5810    -1.4740 C.ar  1 <1>  -0.1500 
 27 C        8.1520     1.5210     0.8360 C.3   1 <1>   0.1200 
 28 C        7.5520     0.4510    -0.0740 C.3   1 <1>  -0.2400 
 29 H        2.8760     2.3620    -0.4000 H     1 <1>   0.0800 
 30 H        2.9020     2.4100     1.3620 H     1 <1>   0.0800 
 31 H       -0.0480     4.9510     0.2730 H     1 <1>   0.0800 
 32 H        0.5970     4.3120    -1.2370 H     1 <1>   0.0800 
 33 H        1.8900     4.5220     1.4460 H     1 <1>   0.0800 
 34 H       -1.4310     1.2120     1.6720 H     1 <1>   0.1500 
 35 H       -1.7200     3.9070    -1.6160 H     1 <1>   0.1500 
 36 H       -3.8330     0.8190     1.5580 H     1 <1>   0.1500 
 37 H       -4.1200     3.5230    -1.7220 H     1 <1>   0.1500 
 38 H        4.4750     4.0770     0.6380 H     1 <1>   0.3700 
 39 H       -5.8660     0.8980     0.1660 H     1 <1>   0.0800 
 40 H       -5.9810     1.9910    -1.1790 H     1 <1>   0.0800 
 41 H        4.5340     7.1730    -1.3080 H     1 <1>   0.1500 
 42 H       -6.0800     2.8080     1.7420 H     1 <1>   0.0800 
 43 H       -7.4550     2.7250     0.6640 H     1 <1>   0.0800 
 44 H       -6.1960     3.9070     0.3880 H     1 <1>   0.0800 
 45 H        8.8210     4.8920    -0.6830 H     1 <1>   0.1500 
 46 H        6.5760     8.1700    -2.1650 H     1 <1>   0.1500 
 47 H        8.7310     7.0250    -1.8530 H     1 <1>   0.1500 
 48 H        7.7080     1.5020     1.8180 H     1 <1>   0.0800 
 49 H        9.2140     1.3780     0.9310 H     1 <1>   0.0800 
 50 H        6.4870     0.5810    -0.1550 H     1 <1>   0.0800 
 51 H        7.7420    -0.5230     0.3400 H     1 <1>   0.0800 
 52 H        7.9970     0.5000    -1.0520 H     1 <1>   0.0800 
@<TRIPOS>BOND
  1   1   2  2   
  2   2   3  am  
  3   2   4  1   
  4   3   5  1   
  5   3   6  1   
  6   4   7  1   
  7   4  29  1   
  8   4  30  1   
  9   5   8  ar  
 10   5   9  ar  
 11   6   7  1   
 12   6  31  1   
 13   6  32  1   
 14   7  10  1   
 15   7  33  1   
 16   8  11  ar  
 17   8  34  1   
 18   9  12  ar  
 19   9  35  1   
 20  10  13  2   
 21  10  14  am  
 22  11  15  ar  
 23  11  36  1   
 24  12  15  ar  
 25  12  37  1   
 26  14  16  1   
 27  14  38  1   
 28  15  17  1   
 29  16  18  ar  
 30  16  19  ar  
 31  17  20  1   
 32  17  39  1   
 33  17  40  1   
 34  18  21  1   
 35  18  22  ar  
 36  19  23  ar  
 37  19  41  1   
 38  20  42  1   
 39  20  43  1   
 40  20  44  1   
 41  21  24  2   
 42  21  25  1   
 43  22  26  ar  
 44  22  45  1   
 45  23  26  ar  
 46  23  46  1   
 47  25  27  1   
 48  26  47  1   
 49  27  28  1   
 50  27  48  1   
 51  27  49  1   
 52  28  50  1   
 53  28  51  1   
 54  28  52  1   
@<TRIPOS>SUBSTRUCTURE
  1 ****   7 GROUP 4 **** **** 0

# MOE 2024.06 (io_trps.svl 2023.06)
