@<TRIPOS>MOLECULE
NONAME
39 41 1 0 0 
SMALL
USER_CHARGES


@<TRIPOS>ATOM
  1 S        0.7520     1.2120    -2.3200 S.3   1 <1>  -0.3320 
  2 C        2.1860     1.6870    -1.3400 C.ar  1 <1>   0.1020 
  3 C       -0.4260     0.3780    -1.1680 C.3   1 <1>  -0.0100 
  4 C        3.2120     2.3390    -1.9970 C.ar  1 <1>  -0.1500 
  5 C        2.2800     1.4200     0.0160 C.ar  1 <1>  -0.1500 
  6 C        4.3380     2.7260    -1.2930 C.ar  1 <1>  -0.1500 
  7 C        3.4120     1.8120     0.7080 C.ar  1 <1>  -0.1500 
  8 C        4.4710     2.4730     0.0750 C.ar  1 <1>   0.0540 
  9 C        5.6630     2.8790     0.8020 C.2   1 <1>   0.4620 
 10 N        5.7850     2.7420     2.1280 N.2   1 <1>  -0.2270 
 11 N        6.7150     3.4030     0.2600 N.2   1 <1>  -0.7070 
 12 N        6.9350     3.1820     2.4410 N.2   1 <1>  -0.4180 
 13 N        7.4930     3.5680     1.3100 N.pl3 1 <1>   0.5800 
 14 C        8.8240     4.1670     1.2200 C.3   1 <1>   0.1570 
 15 C        9.8730     3.1060     1.4510 C.2   1 <1>   0.5690 
 16 O       10.5540     3.2310     2.4410 O.2   1 <1>  -0.5700 
 17 N       10.0740     2.0660     0.5730 N.am  1 <1>  -0.6600 
 18 C       11.0010     0.9410     0.9120 C.3   1 <1>   0.1400 
 19 C        9.3700     1.8650    -0.7340 C.3   1 <1>   0.1400 
 20 C       11.8930     0.5800    -0.2860 C.3   1 <1>   0.1200 
 21 C       10.3540     1.4330    -1.8350 C.3   1 <1>   0.1200 
 22 O       11.1140     0.3350    -1.4220 O.3   1 <1>  -0.5600 
 23 H       -1.2900     0.0900    -1.7410 H     1 <1>   0.0800 
 24 H       -0.6950     1.0810    -0.4010 H     1 <1>   0.0800 
 25 H        0.0650    -0.4870    -0.7590 H     1 <1>   0.0800 
 26 H        3.1240     2.5400    -3.0500 H     1 <1>   0.1500 
 27 H        1.4910     0.9160     0.5390 H     1 <1>   0.1500 
 28 H        5.1310     3.2340    -1.8140 H     1 <1>   0.1500 
 29 H        3.4760     1.5990     1.7610 H     1 <1>   0.1500 
 30 H        8.9060     4.9250     1.9740 H     1 <1>   0.0800 
 31 H        8.9520     4.6140     0.2550 H     1 <1>   0.0800 
 32 H       10.4210     0.0790     1.1910 H     1 <1>   0.0800 
 33 H       11.6270     1.2010     1.7480 H     1 <1>   0.0800 
 34 H        8.8840     2.7680    -1.0550 H     1 <1>   0.0800 
 35 H        8.6160     1.1050    -0.6170 H     1 <1>   0.0800 
 36 H       12.4540    -0.3130    -0.0740 H     1 <1>   0.0800 
 37 H       12.5810     1.3780    -0.5020 H     1 <1>   0.0800 
 38 H       11.0230     2.2390    -2.0840 H     1 <1>   0.0800 
 39 H        9.8160     1.1450    -2.7210 H     1 <1>   0.0800 
@<TRIPOS>BOND
  1   1   2  1   
  2   1   3  1   
  3   2   4  ar  
  4   2   5  ar  
  5   3  23  1   
  6   3  24  1   
  7   3  25  1   
  8   4   6  ar  
  9   4  26  1   
 10   5   7  ar  
 11   5  27  1   
 12   6   8  ar  
 13   6  28  1   
 14   7   8  ar  
 15   7  29  1   
 16   8   9  1   
 17   9  10  1   
 18   9  11  2   
 19  10  12  2   
 20  11  13  1   
 21  12  13  1   
 22  13  14  1   
 23  14  15  1   
 24  14  30  1   
 25  14  31  1   
 26  15  16  2   
 27  15  17  am  
 28  17  18  1   
 29  17  19  1   
 30  18  20  1   
 31  18  32  1   
 32  18  33  1   
 33  19  21  1   
 34  19  34  1   
 35  19  35  1   
 36  20  22  1   
 37  20  36  1   
 38  20  37  1   
 39  21  22  1   
 40  21  38  1   
 41  21  39  1   
@<TRIPOS>SUBSTRUCTURE
  1 ****  11 GROUP 4 **** **** 0

# MOE 2024.06 (io_trps.svl 2023.06)
