@<TRIPOS>MOLECULE
NONAME
41 42 1 0 0 
SMALL
USER_CHARGES


@<TRIPOS>ATOM
  1 BR      -1.4380     2.9090    -1.9580 Br    1 <1>  -0.1110 
  2 C       -2.8810     1.9380    -1.1270 C.ar  1 <1>   0.1110 
  3 C       -4.0520     1.7480    -1.8360 C.ar  1 <1>  -0.1500 
  4 C       -2.7080     1.4570     0.1580 C.ar  1 <1>  -0.1500 
  5 C       -5.0840     1.0520    -1.2320 C.ar  1 <1>  -0.1500 
  6 C       -3.7490     0.7630     0.7470 C.ar  1 <1>  -0.1500 
  7 C       -4.9440     0.5590     0.0620 C.ar  1 <1>   0.1000 
  8 N       -5.9900    -0.1270     0.6580 N.pl3 1 <1>  -0.8690 
  9 C       -6.6850     0.5570     1.7650 C.3   1 <1>   0.3530 
 10 C       -8.1010     0.8520     1.3050 C.ar  1 <1>  -0.1430 
 11 C       -8.3460     1.9280     0.4680 C.ar  1 <1>  -0.1500 
 12 C       -9.1610     0.0550     1.7030 C.ar  1 <1>  -0.1500 
 13 C       -9.6240     2.2240     0.0250 C.ar  1 <1>   0.0830 
 14 C      -10.4450     0.3300     1.2670 C.ar  1 <1>  -0.1500 
 15 O       -9.7000     3.3190    -0.7850 O.3   1 <1>  -0.3630 
 16 C      -10.6990     1.4080     0.4210 C.ar  1 <1>   0.0830 
 17 C      -10.8740     4.0890    -0.8920 C.3   1 <1>   0.1200 
 18 O      -11.9590     1.6690    -0.0340 O.3   1 <1>  -0.3620 
 19 C      -10.4980     5.4420    -1.4880 C.3   1 <1>  -0.2400 
 20 C      -13.0470     0.8100     0.2170 C.3   1 <1>   0.1200 
 21 C      -14.2660     1.3760    -0.5050 C.3   1 <1>  -0.2400 
 22 H       -4.1510     2.1360    -2.8340 H     1 <1>   0.1500 
 23 H       -1.7810     1.6200     0.6780 H     1 <1>   0.1500 
 24 H       -6.0060     0.8930    -1.7610 H     1 <1>   0.1500 
 25 H       -3.6450     0.3660     1.7400 H     1 <1>   0.1500 
 26 H       -6.7050    -0.4150    -0.0190 H     1 <1>   0.4000 
 27 H       -6.1800     1.4740     2.0190 H     1 <1>   0.0800 
 28 H       -6.6910    -0.0820     2.6300 H     1 <1>   0.0800 
 29 H       -7.5330     2.5540     0.1460 H     1 <1>   0.1500 
 30 H       -8.9900    -0.7880     2.3510 H     1 <1>   0.1500 
 31 H      -11.2330    -0.3170     1.6010 H     1 <1>   0.1500 
 32 H      -11.2980     4.2070     0.0910 H     1 <1>   0.0800 
 33 H      -11.5630     3.5700    -1.5340 H     1 <1>   0.0800 
 34 H       -9.7970     5.9450    -0.8470 H     1 <1>   0.0800 
 35 H      -11.3770     6.0530    -1.5850 H     1 <1>   0.0800 
 36 H      -10.0630     5.3070    -2.4620 H     1 <1>   0.0800 
 37 H      -13.2170     0.7760     1.2790 H     1 <1>   0.0800 
 38 H      -12.8030    -0.1690    -0.1580 H     1 <1>   0.0800 
 39 H      -14.4920     2.3600    -0.1350 H     1 <1>   0.0800 
 40 H      -15.1170     0.7420    -0.3360 H     1 <1>   0.0800 
 41 H      -14.0780     1.4240    -1.5630 H     1 <1>   0.0800 
@<TRIPOS>BOND
  1   1   2  1   
  2   2   3  ar  
  3   2   4  ar  
  4   3   5  ar  
  5   3  22  1   
  6   4   6  ar  
  7   4  23  1   
  8   5   7  ar  
  9   5  24  1   
 10   6   7  ar  
 11   6  25  1   
 12   7   8  1   
 13   8   9  1   
 14   8  26  1   
 15   9  10  1   
 16   9  27  1   
 17   9  28  1   
 18  10  11  ar  
 19  10  12  ar  
 20  11  13  ar  
 21  11  29  1   
 22  12  14  ar  
 23  12  30  1   
 24  13  15  1   
 25  13  16  ar  
 26  14  16  ar  
 27  14  31  1   
 28  15  17  1   
 29  16  18  1   
 30  17  19  1   
 31  17  32  1   
 32  17  33  1   
 33  18  20  1   
 34  19  34  1   
 35  19  35  1   
 36  19  36  1   
 37  20  21  1   
 38  20  37  1   
 39  20  38  1   
 40  21  39  1   
 41  21  40  1   
 42  21  41  1   
@<TRIPOS>SUBSTRUCTURE
  1 ****  11 GROUP 4 **** **** 0

# MOE 2024.06 (io_trps.svl 2023.06)
