@<TRIPOS>MOLECULE
NONAME
57 58 1 0 0 
SMALL
USER_CHARGES


@<TRIPOS>ATOM
  1 O        1.8460    -1.1030     2.1460 O.2   1 <1>  -0.5700 
  2 C        1.9730    -1.2830     0.9580 C.2   1 <1>   0.5690 
  3 N        1.0110    -1.9230     0.2150 N.am  1 <1>  -0.6600 
  4 C        3.2670    -0.7760     0.3240 C.3   1 <1>  -0.0190 
  5 C        0.9680    -1.9570    -1.2750 C.3   1 <1>   0.1400 
  6 C       -0.1970    -2.4780     0.8920 C.3   1 <1>   0.1400 
  7 C        4.3980    -0.9460     1.3580 C.3   1 <1>   0.3430 
  8 C        3.1230     0.6860    -0.1680 C.3   1 <1>  -0.1600 
  9 C        1.4900    -3.2970    -1.7870 C.3   1 <1>  -0.2400 
 10 C        0.1270    -3.8360     1.5120 C.3   1 <1>  -0.2400 
 11 N        5.5590    -0.0340     1.0980 N.4   1 <1>  -0.9590 
 12 C        3.7020     1.6730     0.8550 C.3   1 <1>  -0.1600 
 13 C        5.1870     1.4210     1.1600 C.3   1 <1>   0.3430 
 14 C        6.2880    -0.3740    -0.1530 C.3   1 <1>   0.4860 
 15 C        7.6460     0.3000    -0.1000 C.ar  1 <1>  -0.1440 
 16 C        8.6700    -0.1320     0.7460 C.ar  1 <1>  -0.1440 
 17 C        7.8470     1.3940    -0.9270 C.ar  1 <1>  -0.1500 
 18 C        9.8730     0.5760     0.7840 C.ar  1 <1>  -0.1440 
 19 C        8.5040    -1.3760     1.6250 C.3   1 <1>  -0.0970 
 20 C        9.0440     2.0770    -0.9080 C.ar  1 <1>  -0.1500 
 21 C       10.0620     1.6760    -0.0530 C.ar  1 <1>   0.0820 
 22 C       11.0070     0.1550     1.7280 C.3   1 <1>  -0.0970 
 23 O       11.2570     2.3250    -0.0090 O.3   1 <1>  -0.3620 
 24 C       11.5800     3.3810    -0.8860 C.3   1 <1>   0.0400 
 25 H        3.4960    -1.4060    -0.5130 H     1 <1>   0.0800 
 26 H        1.5570    -1.1570    -1.6860 H     1 <1>   0.0800 
 27 H       -0.0440    -1.8080    -1.6130 H     1 <1>   0.0800 
 28 H       -1.0070    -2.5830     0.1910 H     1 <1>   0.0800 
 29 H       -0.5190    -1.7990     1.6660 H     1 <1>   0.0800 
 30 H        4.7180    -1.9750     1.3760 H     1 <1>   0.0800 
 31 H        4.0090    -0.7150     2.3370 H     1 <1>   0.0800 
 32 H        2.0850     0.9170    -0.3470 H     1 <1>   0.0800 
 33 H        3.6420     0.8050    -1.1030 H     1 <1>   0.0800 
 34 H        2.4740    -3.4980    -1.4050 H     1 <1>   0.0800 
 35 H        1.5350    -3.2800    -2.8610 H     1 <1>   0.0800 
 36 H        0.8260    -4.0920    -1.4970 H     1 <1>   0.0800 
 37 H        0.4400    -4.5370     0.7620 H     1 <1>   0.0800 
 38 H       -0.7500    -4.2270     1.9960 H     1 <1>   0.0800 
 39 H        0.9000    -3.7330     2.2520 H     1 <1>   0.0800 
 40 H        6.2580    -0.1750     1.8390 H     1 <1>   0.4500 
 41 H        3.1420     1.6010     1.7730 H     1 <1>   0.0800 
 42 H        3.5850     2.6820     0.4990 H     1 <1>   0.0800 
 43 H        5.7910     1.9770     0.4610 H     1 <1>   0.0800 
 44 H        5.4040     1.8080     2.1430 H     1 <1>   0.0800 
 45 H        5.7370    -0.0340    -1.0140 H     1 <1>   0.0800 
 46 H        6.4220    -1.4400    -0.2340 H     1 <1>   0.0800 
 47 H        7.0760     1.7300    -1.5990 H     1 <1>   0.1500 
 48 H        7.6920    -2.0060     1.3200 H     1 <1>   0.0800 
 49 H        8.3540    -1.0870     2.6500 H     1 <1>   0.0800 
 50 H        9.3920    -1.9820     1.5720 H     1 <1>   0.0800 
 51 H        9.1660     2.9180    -1.5640 H     1 <1>   0.1500 
 52 H       10.6260    -0.1830     2.6730 H     1 <1>   0.0800 
 53 H       11.6720     0.9720     1.9410 H     1 <1>   0.0800 
 54 H       11.5800    -0.6340     1.2750 H     1 <1>   0.0800 
 55 H       12.5890     3.6910    -0.6760 H     1 <1>   0.0800 
 56 H       10.9050     4.2000    -0.7120 H     1 <1>   0.0800 
 57 H       11.5110     3.0280    -1.8990 H     1 <1>   0.0800 
@<TRIPOS>BOND
  1   1   2  2   
  2   2   3  am  
  3   2   4  1   
  4   3   5  1   
  5   3   6  1   
  6   4   7  1   
  7   4   8  1   
  8   4  25  1   
  9   5   9  1   
 10   5  26  1   
 11   5  27  1   
 12   6  10  1   
 13   6  28  1   
 14   6  29  1   
 15   7  11  1   
 16   7  30  1   
 17   7  31  1   
 18   8  12  1   
 19   8  32  1   
 20   8  33  1   
 21   9  34  1   
 22   9  35  1   
 23   9  36  1   
 24  10  37  1   
 25  10  38  1   
 26  10  39  1   
 27  11  13  1   
 28  11  14  1   
 29  11  40  1   
 30  12  13  1   
 31  12  41  1   
 32  12  42  1   
 33  13  43  1   
 34  13  44  1   
 35  14  15  1   
 36  14  45  1   
 37  14  46  1   
 38  15  16  ar  
 39  15  17  ar  
 40  16  18  ar  
 41  16  19  1   
 42  17  20  ar  
 43  17  47  1   
 44  18  21  ar  
 45  18  22  1   
 46  19  48  1   
 47  19  49  1   
 48  19  50  1   
 49  20  21  ar  
 50  20  51  1   
 51  21  23  1   
 52  22  52  1   
 53  22  53  1   
 54  22  54  1   
 55  23  24  1   
 56  24  55  1   
 57  24  56  1   
 58  24  57  1   
@<TRIPOS>SUBSTRUCTURE
  1 ****  11 GROUP 4 **** **** 0

# MOE 2024.06 (io_trps.svl 2023.06)
