@<TRIPOS>MOLECULE
NONAME
57 59 1 0 0 
SMALL
USER_CHARGES


@<TRIPOS>ATOM
  1 O       -4.9070    -8.1750    -1.0600 O.3   1 <1>  -0.3630 
  2 C       -6.2340    -8.3850    -0.8860 C.ar  1 <1>   0.0830 
  3 C       -3.9130    -8.6620    -0.1730 C.3   1 <1>   0.1200 
  4 C       -7.0720    -7.8540    -1.8540 C.ar  1 <1>  -0.1500 
  5 C       -6.7870    -9.0710     0.1910 C.ar  1 <1>  -0.1500 
  6 C       -2.6570    -7.7760    -0.2670 C.3   1 <1>   0.2000 
  7 C       -8.4450    -7.9850    -1.7460 C.ar  1 <1>  -0.1500 
  8 C       -8.1610    -9.1950     0.2990 C.ar  1 <1>  -0.1500 
  9 O       -1.5840    -8.4780     0.2700 O.3   1 <1>  -0.6800 
 10 C       -2.7470    -6.4190     0.4710 C.3   1 <1>   0.1100 
 11 C       -8.9980    -8.6560    -0.6660 C.ar  1 <1>  -0.1430 
 12 N       -3.9190    -5.6310     0.0380 N.3   1 <1>  -0.8100 
 13 C      -10.5060    -8.8210    -0.5530 C.3   1 <1>  -0.0170 
 14 C       -3.6260    -4.2770    -0.4490 C.3   1 <1>   0.1100 
 15 C       -5.0500    -5.6530     0.9840 C.3   1 <1>   0.1100 
 16 C      -11.1490    -7.5800     0.0670 C.3   1 <1>  -0.2400 
 17 C       -4.8720    -3.6830    -1.1400 C.3   1 <1>   0.3430 
 18 C       -6.3160    -5.0990     0.3080 C.3   1 <1>   0.3430 
 19 N       -6.0910    -3.7190    -0.2570 N.4   1 <1>  -0.9590 
 20 C       -7.3000    -3.2370    -0.9690 C.3   1 <1>   0.4860 
 21 C       -8.4210    -3.0840     0.0400 C.ar  1 <1>  -0.1430 
 22 C       -8.4740    -1.9680     0.8640 C.ar  1 <1>  -0.1500 
 23 C       -9.3980    -4.0630     0.1510 C.ar  1 <1>  -0.1500 
 24 C       -9.4880    -1.8410     1.7970 C.ar  1 <1>  -0.1500 
 25 C      -10.4110    -3.9330     1.0840 C.ar  1 <1>  -0.1500 
 26 C      -10.4550    -2.8230     1.9080 C.ar  1 <1>  -0.1500 
 27 H       -3.6890    -9.6710    -0.4710 H     1 <1>   0.0800 
 28 H       -4.2830    -8.6410     0.8330 H     1 <1>   0.0800 
 29 H       -6.6390    -7.3470    -2.6970 H     1 <1>   0.1500 
 30 H       -6.1760    -9.5200     0.9490 H     1 <1>   0.1500 
 31 H       -2.4230    -7.6080    -1.3040 H     1 <1>   0.0800 
 32 H       -9.0840    -7.5760    -2.5090 H     1 <1>   0.1500 
 33 H       -8.5810    -9.7260     1.1360 H     1 <1>   0.1500 
 34 H       -1.7330    -8.6980     1.2090 H     1 <1>   0.4000 
 35 H       -1.8440    -5.8710     0.2600 H     1 <1>   0.0800 
 36 H       -2.7950    -6.5850     1.5330 H     1 <1>   0.0800 
 37 H      -10.7320    -9.6820     0.0530 H     1 <1>   0.0800 
 38 H      -10.9240    -8.9970    -1.5290 H     1 <1>   0.0800 
 39 H       -2.8230    -4.3230    -1.1660 H     1 <1>   0.0800 
 40 H       -3.3120    -3.6480     0.3670 H     1 <1>   0.0800 
 41 H       -4.8140    -5.0740     1.8610 H     1 <1>   0.0800 
 42 H       -5.2480    -6.6630     1.2950 H     1 <1>   0.0800 
 43 H      -10.7150    -7.3780     1.0300 H     1 <1>   0.0800 
 44 H      -12.2060    -7.7370     0.1900 H     1 <1>   0.0800 
 45 H      -11.0020    -6.7280    -0.5720 H     1 <1>   0.0800 
 46 H       -5.0580    -4.2590    -2.0310 H     1 <1>   0.0800 
 47 H       -4.6610    -2.6690    -1.4380 H     1 <1>   0.0800 
 48 H       -7.1190    -5.0800     1.0250 H     1 <1>   0.0800 
 49 H       -6.5940    -5.7750    -0.4830 H     1 <1>   0.0800 
 50 H       -5.9400    -3.0970     0.5440 H     1 <1>   0.4500 
 51 H       -7.5860    -3.9390    -1.7350 H     1 <1>   0.0800 
 52 H       -7.1060    -2.2830    -1.4310 H     1 <1>   0.0800 
 53 H       -7.7370    -1.1860     0.7920 H     1 <1>   0.1500 
 54 H       -9.3820    -4.9340    -0.4830 H     1 <1>   0.1500 
 55 H       -9.5310    -0.9760     2.4370 H     1 <1>   0.1500 
 56 H      -11.1700    -4.6920     1.1720 H     1 <1>   0.1500 
 57 H      -11.2440    -2.7220     2.6340 H     1 <1>   0.1500 
@<TRIPOS>BOND
  1   1   2  1   
  2   1   3  1   
  3   2   4  ar  
  4   2   5  ar  
  5   3   6  1   
  6   3  27  1   
  7   3  28  1   
  8   4   7  ar  
  9   4  29  1   
 10   5   8  ar  
 11   5  30  1   
 12   6   9  1   
 13   6  10  1   
 14   6  31  1   
 15   7  11  ar  
 16   7  32  1   
 17   8  11  ar  
 18   8  33  1   
 19   9  34  1   
 20  10  12  1   
 21  10  35  1   
 22  10  36  1   
 23  11  13  1   
 24  12  14  1   
 25  12  15  1   
 26  13  16  1   
 27  13  37  1   
 28  13  38  1   
 29  14  17  1   
 30  14  39  1   
 31  14  40  1   
 32  15  18  1   
 33  15  41  1   
 34  15  42  1   
 35  16  43  1   
 36  16  44  1   
 37  16  45  1   
 38  17  19  1   
 39  17  46  1   
 40  17  47  1   
 41  18  19  1   
 42  18  48  1   
 43  18  49  1   
 44  19  20  1   
 45  19  50  1   
 46  20  21  1   
 47  20  51  1   
 48  20  52  1   
 49  21  22  ar  
 50  21  23  ar  
 51  22  24  ar  
 52  22  53  1   
 53  23  25  ar  
 54  23  54  1   
 55  24  26  ar  
 56  24  55  1   
 57  25  26  ar  
 58  25  56  1   
 59  26  57  1   
@<TRIPOS>SUBSTRUCTURE
  1 ****  18 GROUP 4 **** **** 0

# MOE 2024.06 (io_trps.svl 2023.06)
