@<TRIPOS>MOLECULE
NONAME
53 55 1 0 0 
SMALL
USER_CHARGES


@<TRIPOS>ATOM
  1 O       -4.1950     2.5140     0.5930 O.co2 1 <1>  -0.9000 
  2 C       -3.1150     2.8580     1.0930 C.2   1 <1>   0.9060 
  3 O       -3.0300     3.1910     2.2830 O.co2 1 <1>  -0.9000 
  4 C       -1.8350     2.9260     0.2630 C.3   1 <1>  -0.1860 
  5 C       -1.1070     4.3130     0.3100 C.3   1 <1>  -0.0190 
  6 C       -1.9780     2.4400    -1.1930 C.3   1 <1>  -0.1600 
  7 C       -2.0380     5.5460     0.2380 C.2   1 <1>   0.5690 
  8 C        0.0460     4.3820    -0.7360 C.3   1 <1>  -0.1600 
  9 C       -0.6010     2.2070    -1.8480 C.3   1 <1>  -0.1600 
 10 O       -1.9730     6.3150    -0.6950 O.2   1 <1>  -0.5700 
 11 N       -2.9120     5.7430     1.2660 N.am  1 <1>  -0.5470 
 12 C        0.5400     3.0010    -1.1830 C.3   1 <1>  -0.1600 
 13 C       -4.2920     5.9080     1.1430 C.ar  1 <1>   0.1170 
 14 C       -4.9250     6.2820    -0.0370 C.ar  1 <1>  -0.1500 
 15 C       -5.0660     5.4920     2.2150 C.ar  1 <1>  -0.1500 
 16 C       -6.2790     6.0600    -0.2000 C.ar  1 <1>  -0.1500 
 17 C       -6.4180     5.2760     2.0660 C.ar  1 <1>  -0.1500 
 18 C       -7.0080     5.4820     0.8300 C.ar  1 <1>  -0.1430 
 19 C       -8.3840     4.9210     0.5790 C.3   1 <1>   0.4860 
 20 N       -8.2070     3.6620    -0.2090 N.4   1 <1>  -0.9590 
 21 C       -9.5040     3.0190    -0.5380 C.3   1 <1>   0.3430 
 22 C       -7.2310     2.7070     0.4340 C.3   1 <1>   0.3430 
 23 C       -9.2790     1.8410    -1.4870 C.3   1 <1>  -0.1600 
 24 C       -6.9940     1.5100    -0.4860 C.3   1 <1>  -0.1600 
 25 C       -8.3000     0.8190    -0.8980 C.3   1 <1>  -0.1600 
 26 H       -1.1940     2.2180     0.7540 H     1 <1>   0.0800 
 27 H       -0.6460     4.3620     1.2810 H     1 <1>   0.0800 
 28 H       -2.5280     3.1830    -1.7470 H     1 <1>   0.0800 
 29 H       -2.5490     1.5270    -1.2220 H     1 <1>   0.0800 
 30 H        0.8610     4.9560    -0.3310 H     1 <1>   0.0800 
 31 H       -0.2860     4.8880    -1.6260 H     1 <1>   0.0800 
 32 H       -0.6690     2.4790    -2.8870 H     1 <1>   0.0800 
 33 H       -0.3590     1.1590    -1.8020 H     1 <1>   0.0800 
 34 H       -2.7470     5.0380     2.0070 H     1 <1>   0.3700 
 35 H        0.9060     2.4630    -0.3250 H     1 <1>   0.0800 
 36 H        1.3570     3.1070    -1.8750 H     1 <1>   0.0800 
 37 H       -4.3520     6.6910    -0.8480 H     1 <1>   0.1500 
 38 H       -4.5860     5.2590     3.1500 H     1 <1>   0.1500 
 39 H       -6.7320     6.2940    -1.1460 H     1 <1>   0.1500 
 40 H       -6.9720     4.8840     2.9010 H     1 <1>   0.1500 
 41 H       -8.9760     5.6330     0.0280 H     1 <1>   0.0800 
 42 H       -8.8690     4.7090     1.5170 H     1 <1>   0.0800 
 43 H       -7.7310     3.9320    -1.0770 H     1 <1>   0.4500 
 44 H      -10.1640     3.7330    -1.0040 H     1 <1>   0.0800 
 45 H       -9.9700     2.6630     0.3670 H     1 <1>   0.0800 
 46 H       -7.6120     2.3660     1.3820 H     1 <1>   0.0800 
 47 H       -6.2850     3.1950     0.6130 H     1 <1>   0.0800 
 48 H       -8.9030     2.2070    -2.4270 H     1 <1>   0.0800 
 49 H      -10.2210     1.3590    -1.6810 H     1 <1>   0.0800 
 50 H       -6.3540     0.8120     0.0260 H     1 <1>   0.0800 
 51 H       -6.4520     1.8440    -1.3540 H     1 <1>   0.0800 
 52 H       -8.0890     0.0490    -1.6210 H     1 <1>   0.0800 
 53 H       -8.7410     0.3490    -0.0350 H     1 <1>   0.0800 
@<TRIPOS>BOND
  1   1   2  ar  
  2   2   3  ar  
  3   2   4  1   
  4   4   5  1   
  5   4   6  1   
  6   4  26  1   
  7   5   7  1   
  8   5   8  1   
  9   5  27  1   
 10   6   9  1   
 11   6  28  1   
 12   6  29  1   
 13   7  10  2   
 14   7  11  am  
 15   8  12  1   
 16   8  30  1   
 17   8  31  1   
 18   9  12  1   
 19   9  32  1   
 20   9  33  1   
 21  11  13  1   
 22  11  34  1   
 23  12  35  1   
 24  12  36  1   
 25  13  14  ar  
 26  13  15  ar  
 27  14  16  ar  
 28  14  37  1   
 29  15  17  ar  
 30  15  38  1   
 31  16  18  ar  
 32  16  39  1   
 33  17  18  ar  
 34  17  40  1   
 35  18  19  1   
 36  19  20  1   
 37  19  41  1   
 38  19  42  1   
 39  20  21  1   
 40  20  22  1   
 41  20  43  1   
 42  21  23  1   
 43  21  44  1   
 44  21  45  1   
 45  22  24  1   
 46  22  46  1   
 47  22  47  1   
 48  23  25  1   
 49  23  48  1   
 50  23  49  1   
 51  24  25  1   
 52  24  50  1   
 53  24  51  1   
 54  25  52  1   
 55  25  53  1   
@<TRIPOS>SUBSTRUCTURE
  1 ****   1 GROUP 4 **** **** 0

# MOE 2024.06 (io_trps.svl 2023.06)
