@<TRIPOS>MOLECULE
NONAME
36 39 1 0 0 
SMALL
USER_CHARGES


@<TRIPOS>ATOM
  1 O       -0.7500    -0.0530    -0.7930 O.3   1 <1>  -0.2800 
  2 C       -2.0530    -0.1200    -1.0680 C.ar  1 <1>   0.1400 
  3 C       -0.2640    -1.3000    -0.7670 C.2   1 <1>   0.0950 
  4 C       -2.4410    -1.4360    -1.2300 C.ar  1 <1>   0.0000 
  5 C       -2.9490     0.9310    -1.1910 C.ar  1 <1>  -0.1500 
  6 C       -1.2650    -2.1770    -1.0300 C.2   1 <1>  -0.1500 
  7 C        1.1210    -1.5630    -0.5010 C.2   1 <1>  -0.1050 
  8 C       -3.7740    -1.7260    -1.5270 C.ar  1 <1>  -0.1500 
  9 C       -4.2670     0.6390    -1.4850 C.ar  1 <1>  -0.1500 
 10 C        2.1390    -0.7290    -0.1740 C.2   1 <1>  -0.0380 
 11 C       -4.6760    -0.6870    -1.6520 C.ar  1 <1>  -0.1500 
 12 N        2.0400     0.6510     0.0050 N.pl3 1 <1>  -0.8380 
 13 C        3.5700    -1.2550     0.0570 C.3   1 <1>   0.3380 
 14 C        2.3230     1.0160     1.4230 C.3   1 <1>   0.2090 
 15 C        2.9540     1.4130    -0.8920 C.3   1 <1>   0.2090 
 16 O        3.5680    -2.2570     1.0210 O.3   1 <1>  -0.6800 
 17 C        4.4490    -0.0690     0.5360 C.3   1 <1>  -0.0800 
 18 C        3.7720     0.5880     1.7670 C.3   1 <1>  -0.1600 
 19 C        4.4140     0.9920    -0.5920 C.3   1 <1>  -0.1600 
 20 H       -2.6020     1.9390    -1.0560 H     1 <1>   0.1500 
 21 H       -1.2060    -3.2470    -1.0830 H     1 <1>   0.1500 
 22 H        1.3580    -2.6070    -0.5750 H     1 <1>   0.1500 
 23 H       -4.0790    -2.7490    -1.6530 H     1 <1>   0.1500 
 24 H       -4.9860     1.4330    -1.5870 H     1 <1>   0.1500 
 25 H       -5.7070    -0.8940    -1.8810 H     1 <1>   0.1500 
 26 H        3.9590    -1.6720    -0.8550 H     1 <1>   0.0800 
 27 H        2.1910     2.0750     1.5600 H     1 <1>   0.0800 
 28 H        1.6230     0.5020     2.0600 H     1 <1>   0.0800 
 29 H        2.7020     1.1910    -1.9150 H     1 <1>   0.0800 
 30 H        2.8200     2.4690    -0.7320 H     1 <1>   0.0800 
 31 H        4.4840    -2.4900     1.2510 H     1 <1>   0.4000 
 32 H        5.4570    -0.3800     0.7410 H     1 <1>   0.0800 
 33 H        4.3310     1.4480     2.0890 H     1 <1>   0.0800 
 34 H        3.7440    -0.1030     2.5910 H     1 <1>   0.0800 
 35 H        4.8570     0.5960    -1.4880 H     1 <1>   0.0800 
 36 H        4.9830     1.8590    -0.3060 H     1 <1>   0.0800 
@<TRIPOS>BOND
  1   1   2  1   
  2   1   3  1   
  3   2   4  ar  
  4   2   5  ar  
  5   3   6  2   
  6   3   7  1   
  7   4   6  1   
  8   4   8  ar  
  9   5   9  ar  
 10   5  20  1   
 11   6  21  1   
 12   7  10  2   
 13   7  22  1   
 14   8  11  ar  
 15   8  23  1   
 16   9  11  ar  
 17   9  24  1   
 18  10  12  1   
 19  10  13  1   
 20  11  25  1   
 21  12  14  1   
 22  12  15  1   
 23  13  16  1   
 24  13  17  1   
 25  13  26  1   
 26  14  18  1   
 27  14  27  1   
 28  14  28  1   
 29  15  19  1   
 30  15  29  1   
 31  15  30  1   
 32  16  31  1   
 33  17  18  1   
 34  17  19  1   
 35  17  32  1   
 36  18  33  1   
 37  18  34  1   
 38  19  35  1   
 39  19  36  1   
@<TRIPOS>SUBSTRUCTURE
  1 ****   3 GROUP 4 **** **** 0

# MOE 2024.06 (io_trps.svl 2023.06)
