@<TRIPOS>MOLECULE
NONAME
48 50 1 0 0 
SMALL
USER_CHARGES


@<TRIPOS>ATOM
  1 S       -0.3000    -0.0420     0.1690 S.o2  1 <1>   1.4470 
  2 O       -0.5010    -0.9280    -0.9580 O.2   1 <1>  -0.6500 
  3 O       -0.8230    -0.4350     1.4590 O.2   1 <1>  -0.6500 
  4 N       -1.0590     1.4160    -0.2430 N.am  1 <1>  -0.8490 
  5 C        1.4510     0.4080     0.3300 C.ar  1 <1>  -0.0090 
  6 C       -2.5300     1.3000    -0.0560 C.3   1 <1>   0.2570 
  7 C       -0.7250     1.8670    -1.6020 C.3   1 <1>   0.1160 
  8 C        1.8340     1.5510     1.0230 C.ar  1 <1>  -0.1500 
  9 C        2.4520    -0.3810    -0.2260 C.ar  1 <1>  -0.1500 
 10 C       -3.4030     2.5480    -0.3210 C.2   1 <1>   0.5690 
 11 C        3.1670     1.9000     1.1530 C.ar  1 <1>  -0.1500 
 12 C        3.7880    -0.0410    -0.1000 C.ar  1 <1>  -0.1500 
 13 O       -2.9010     3.6480    -0.2420 O.2   1 <1>  -0.5700 
 14 N       -4.7350     2.4090    -0.6410 N.am  1 <1>  -0.6600 
 15 C        4.1460     1.1030     0.5900 C.ar  1 <1>  -0.1500 
 16 C       -5.5230     1.1290    -0.5940 C.3   1 <1>   0.1400 
 17 C       -5.5650     3.5970    -1.0400 C.3   1 <1>   0.1400 
 18 C       -6.8160     1.2770     0.2300 C.3   1 <1>   0.2090 
 19 C       -6.8430     3.7140    -0.1930 C.3   1 <1>   0.2090 
 20 N       -7.6220     2.4440    -0.2350 N.pl3 1 <1>  -0.8380 
 21 C       -8.9550     2.5100     0.1270 C.ar  1 <1>   0.4100 
 22 N       -9.3060     1.9410     1.2750 N.ar  1 <1>  -0.6200 
 23 C       -9.8590     3.1640    -0.7060 C.ar  1 <1>  -0.1500 
 24 C      -10.5850     2.0340     1.5990 C.ar  1 <1>   0.1600 
 25 C      -11.1860     3.2530    -0.3580 C.ar  1 <1>  -0.1500 
 26 C      -11.5510     2.6660     0.8370 C.ar  1 <1>  -0.1500 
 27 H       -2.7260     1.0120     0.9610 H     1 <1>   0.0800 
 28 H       -2.8780     0.5070    -0.6920 H     1 <1>   0.0800 
 29 H        0.3440     1.9220    -1.7210 H     1 <1>   0.0800 
 30 H       -1.1240     2.8500    -1.7830 H     1 <1>   0.0800 
 31 H       -1.1200     1.1860    -2.3370 H     1 <1>   0.0800 
 32 H        1.0750     2.1770     1.4640 H     1 <1>   0.1500 
 33 H        2.1820    -1.2750    -0.7640 H     1 <1>   0.1500 
 34 H        3.4390     2.7910     1.6920 H     1 <1>   0.1500 
 35 H        4.5480    -0.6650    -0.5380 H     1 <1>   0.1500 
 36 H        5.1840     1.3710     0.6900 H     1 <1>   0.1500 
 37 H       -4.9460     0.3320    -0.1660 H     1 <1>   0.0800 
 38 H       -5.7890     0.8470    -1.5970 H     1 <1>   0.0800 
 39 H       -5.8420     3.4970    -2.0740 H     1 <1>   0.0800 
 40 H       -5.0010     4.5080    -0.9400 H     1 <1>   0.0800 
 41 H       -6.5690     1.4080     1.2700 H     1 <1>   0.0800 
 42 H       -7.4040     0.3800     0.1400 H     1 <1>   0.0800 
 43 H       -7.4440     4.5250    -0.5640 H     1 <1>   0.0800 
 44 H       -6.5770     3.9350     0.8260 H     1 <1>   0.0800 
 45 H       -9.5020     3.5880    -1.6240 H     1 <1>   0.1500 
 46 H      -10.8810     1.5780     2.5280 H     1 <1>   0.1500 
 47 H      -11.9050     3.7520    -0.9840 H     1 <1>   0.1500 
 48 H      -12.5720     2.6970     1.1720 H     1 <1>   0.1500 
@<TRIPOS>BOND
  1   1   2  2   
  2   1   3  2   
  3   1   4  am  
  4   1   5  1   
  5   4   6  1   
  6   4   7  1   
  7   5   8  ar  
  8   5   9  ar  
  9   6  10  1   
 10   6  27  1   
 11   6  28  1   
 12   7  29  1   
 13   7  30  1   
 14   7  31  1   
 15   8  11  ar  
 16   8  32  1   
 17   9  12  ar  
 18   9  33  1   
 19  10  13  2   
 20  10  14  am  
 21  11  15  ar  
 22  11  34  1   
 23  12  15  ar  
 24  12  35  1   
 25  14  16  1   
 26  14  17  1   
 27  15  36  1   
 28  16  18  1   
 29  16  37  1   
 30  16  38  1   
 31  17  19  1   
 32  17  39  1   
 33  17  40  1   
 34  18  20  1   
 35  18  41  1   
 36  18  42  1   
 37  19  20  1   
 38  19  43  1   
 39  19  44  1   
 40  20  21  1   
 41  21  22  ar  
 42  21  23  ar  
 43  22  24  ar  
 44  23  25  ar  
 45  23  45  1   
 46  24  26  ar  
 47  24  46  1   
 48  25  26  ar  
 49  25  47  1   
 50  26  48  1   
@<TRIPOS>SUBSTRUCTURE
  1 ****  10 GROUP 4 **** **** 0

# MOE 2024.06 (io_trps.svl 2023.06)
