@<TRIPOS>MOLECULE
NONAME
31 32 1 0 0 
SMALL
USER_CHARGES


@<TRIPOS>ATOM
  1 S       -0.0320     0.2880    -0.8550 S.o2  1 <1>   1.5010 
  2 O        0.5160     0.3450    -2.1940 O.2   1 <1>  -0.6500 
  3 O       -0.1820     1.5100    -0.0950 O.2   1 <1>  -0.6500 
  4 N        0.9890    -0.7260     0.0360 N.am  1 <1>  -0.8490 
  5 C       -1.5800    -0.6220    -0.8650 C.2   1 <1>  -0.0630 
  6 C        2.1510    -0.0040     0.5880 C.3   1 <1>   0.1960 
  7 C        1.4110    -1.9280    -0.6900 C.3   1 <1>   0.1960 
  8 C       -2.2920    -0.9360    -2.0140 C.2   1 <1>   0.1390 
  9 C       -2.3270    -1.1570     0.1330 C.2   1 <1>  -0.3020 
 10 C        3.3590    -0.9150     0.9070 C.3   1 <1>   0.1200 
 11 C        2.2290    -2.8760     0.2170 C.3   1 <1>   0.1200 
 12 N       -3.3740    -1.6100    -1.7670 N.2   1 <1>  -0.7070 
 13 N       -3.3980    -1.7440    -0.4300 N.pl3 1 <1>   0.3140 
 14 O        2.9490    -2.2130     1.2260 O.3   1 <1>  -0.5600 
 15 C       -4.4880    -2.4540     0.2690 C.3   1 <1>   0.0960 
 16 C       -4.0490    -3.8600     0.6970 C.3   1 <1>  -0.2400 
 17 H        1.8430     0.4980     1.4890 H     1 <1>   0.0800 
 18 H        2.4790     0.7550    -0.1030 H     1 <1>   0.0800 
 19 H        2.0130    -1.6470    -1.5380 H     1 <1>   0.0800 
 20 H        0.5510    -2.4580    -1.0630 H     1 <1>   0.0800 
 21 H       -1.9830    -0.6570    -3.0090 H     1 <1>   0.1500 
 22 H       -2.1440    -1.1460     1.1920 H     1 <1>   0.1500 
 23 H        3.9100    -0.5230     1.7430 H     1 <1>   0.0800 
 24 H        4.0210    -0.9710     0.0600 H     1 <1>   0.0800 
 25 H        2.9260    -3.4440    -0.3750 H     1 <1>   0.0800 
 26 H        1.5660    -3.5660     0.7090 H     1 <1>   0.0800 
 27 H       -5.3280    -2.5190    -0.3990 H     1 <1>   0.0800 
 28 H       -4.7770    -1.8750     1.1270 H     1 <1>   0.0800 
 29 H       -3.7650    -4.4360    -0.1670 H     1 <1>   0.0800 
 30 H       -4.8630    -4.3620     1.1890 H     1 <1>   0.0800 
 31 H       -3.2180    -3.8050     1.3780 H     1 <1>   0.0800 
@<TRIPOS>BOND
  1   1   2  2   
  2   1   3  2   
  3   1   4  am  
  4   1   5  1   
  5   4   6  1   
  6   4   7  1   
  7   5   8  1   
  8   5   9  2   
  9   6  10  1   
 10   6  17  1   
 11   6  18  1   
 12   7  11  1   
 13   7  19  1   
 14   7  20  1   
 15   8  12  2   
 16   8  21  1   
 17   9  13  1   
 18   9  22  1   
 19  10  14  1   
 20  10  23  1   
 21  10  24  1   
 22  11  14  1   
 23  11  25  1   
 24  11  26  1   
 25  12  13  1   
 26  13  15  1   
 27  15  16  1   
 28  15  27  1   
 29  15  28  1   
 30  16  29  1   
 31  16  30  1   
 32  16  31  1   
@<TRIPOS>SUBSTRUCTURE
  1 ****   5 GROUP 4 **** **** 0

# MOE 2024.06 (io_trps.svl 2023.06)
