@<TRIPOS>MOLECULE
NONAME
45 46 1 0 0 
SMALL
USER_CHARGES


@<TRIPOS>ATOM
  1 O        7.1690     5.6570     0.9950 O.2   1 <1>  -0.5700 
  2 C        7.4730     4.6890     0.3490 C.2   1 <1>   0.6590 
  3 O        8.7280     4.3800     0.0690 O.3   1 <1>  -0.4300 
  4 C        6.4200     3.7410    -0.1970 C.3   1 <1>  -0.0190 
  5 C        9.8040     5.1700     0.5240 C.3   1 <1>   0.1200 
  6 C        5.0490     4.4470    -0.2110 C.3   1 <1>   0.3430 
  7 C        6.3750     2.4160     0.5900 C.3   1 <1>  -0.1600 
  8 C       11.0990     4.5310     0.0330 C.3   1 <1>  -0.2400 
  9 N        3.8960     3.5130     0.0470 N.4   1 <1>  -0.9590 
 10 C        5.2910     1.4730     0.0300 C.3   1 <1>  -0.1600 
 11 C        4.1010     2.1940    -0.6190 C.3   1 <1>   0.3430 
 12 C        2.6050     4.1780    -0.3370 C.3   1 <1>   0.3430 
 13 C        1.3680     3.4360     0.1800 C.3   1 <1>   0.1200 
 14 O        0.2410     4.1630    -0.2430 O.3   1 <1>  -0.3630 
 15 C       -1.0190     3.7710     0.0610 C.ar  1 <1>   0.0820 
 16 C       -1.3230     2.6450     0.8200 C.ar  1 <1>  -0.1500 
 17 C       -2.0510     4.5580    -0.4250 C.ar  1 <1>  -0.1500 
 18 C       -2.6440     2.3220     1.0800 C.ar  1 <1>  -0.1500 
 19 C       -3.3680     4.2300    -0.1610 C.ar  1 <1>  -0.1500 
 20 C       -3.6860     3.1070     0.5950 C.ar  1 <1>   0.0730 
 21 C       -5.0540     2.7660     0.8690 C.1   1 <1>   0.4840 
 22 N       -6.1390     2.4940     1.0880 N.1   1 <1>  -0.5570 
 23 H        6.6930     3.5260    -1.2140 H     1 <1>   0.0800 
 24 H        9.7750     5.2040     1.6000 H     1 <1>   0.0800 
 25 H        9.6900     6.1650     0.1280 H     1 <1>   0.0800 
 26 H        4.9260     4.9320    -1.1660 H     1 <1>   0.0800 
 27 H        5.0350     5.2190     0.5430 H     1 <1>   0.0800 
 28 H        6.1660     2.6300     1.6250 H     1 <1>   0.0800 
 29 H        7.3360     1.9280     0.5530 H     1 <1>   0.0800 
 30 H       11.1980     3.5360     0.4290 H     1 <1>   0.0800 
 31 H       11.9390     5.1150     0.3660 H     1 <1>   0.0800 
 32 H       11.1140     4.4960    -1.0420 H     1 <1>   0.0800 
 33 H        3.8870     3.3400     1.0630 H     1 <1>   0.4500 
 34 H        4.9360     0.8330     0.8190 H     1 <1>   0.0800 
 35 H        5.7290     0.8290    -0.7140 H     1 <1>   0.0800 
 36 H        4.3030     2.3520    -1.6670 H     1 <1>   0.0800 
 37 H        3.2210     1.5770    -0.5350 H     1 <1>   0.0800 
 38 H        2.5440     4.2510    -1.4110 H     1 <1>   0.0800 
 39 H        2.5860     5.1760     0.0700 H     1 <1>   0.0800 
 40 H        1.3600     3.4050     1.2560 H     1 <1>   0.0800 
 41 H        1.2980     2.4470    -0.2370 H     1 <1>   0.0800 
 42 H       -0.5560     2.0080     1.2170 H     1 <1>   0.1500 
 43 H       -1.8190     5.4300    -1.0110 H     1 <1>   0.1500 
 44 H       -2.8720     1.4490     1.6680 H     1 <1>   0.1500 
 45 H       -4.1580     4.8530    -0.5470 H     1 <1>   0.1500 
@<TRIPOS>BOND
  1   1   2  2   
  2   2   3  1   
  3   2   4  1   
  4   3   5  1   
  5   4   6  1   
  6   4   7  1   
  7   4  23  1   
  8   5   8  1   
  9   5  24  1   
 10   5  25  1   
 11   6   9  1   
 12   6  26  1   
 13   6  27  1   
 14   7  10  1   
 15   7  28  1   
 16   7  29  1   
 17   8  30  1   
 18   8  31  1   
 19   8  32  1   
 20   9  11  1   
 21   9  12  1   
 22   9  33  1   
 23  10  11  1   
 24  10  34  1   
 25  10  35  1   
 26  11  36  1   
 27  11  37  1   
 28  12  13  1   
 29  12  38  1   
 30  12  39  1   
 31  13  14  1   
 32  13  40  1   
 33  13  41  1   
 34  14  15  1   
 35  15  16  ar  
 36  15  17  ar  
 37  16  18  ar  
 38  16  42  1   
 39  17  19  ar  
 40  17  43  1   
 41  18  20  ar  
 42  18  44  1   
 43  19  20  ar  
 44  19  45  1   
 45  20  21  1   
 46  21  22  3   
@<TRIPOS>SUBSTRUCTURE
  1 ****  12 GROUP 4 **** **** 0

# MOE 2024.06 (io_trps.svl 2023.06)
