@<TRIPOS>MOLECULE
NONAME
29 31 1 0 0 
SMALL
USER_CHARGES


@<TRIPOS>ATOM
  1 S       -0.2580     0.2810    -0.7700 S.o2  1 <1>   1.3450 
  2 O        0.4970     0.2930    -2.0510 O.co2 1 <1>  -0.8170 
  3 O       -1.6560     0.7610    -0.9110 O.co2 1 <1>  -0.8170 
  4 O        0.4780     0.9240     0.3480 O.co2 1 <1>  -0.8170 
  5 C       -0.3970    -1.5060    -0.3030 C.3   1 <1>   0.1050 
  6 C       -1.1710    -1.6800     1.0300 C.3   1 <1>  -0.1600 
  7 C        1.0020    -2.1510    -0.1220 C.3   1 <1>  -0.1600 
  8 C       -1.1500    -2.3150    -1.3910 C.3   1 <1>  -0.1600 
  9 C       -1.2920    -3.1640     1.4280 C.3   1 <1>  -0.0800 
 10 C        0.8960    -3.6380     0.2670 C.3   1 <1>  -0.0800 
 11 C       -1.2710    -3.8040    -1.0110 C.3   1 <1>  -0.0800 
 12 C        0.1190    -3.7580     1.5910 C.3   1 <1>  -0.1600 
 13 C       -2.0400    -3.9230     0.3170 C.3   1 <1>  -0.1600 
 14 C        0.1400    -4.3960    -0.8390 C.3   1 <1>  -0.1600 
 15 H       -2.1500    -1.2460     0.9270 H     1 <1>   0.0800 
 16 H       -0.6620    -1.1330     1.8050 H     1 <1>   0.0800 
 17 H        1.5420    -1.6100     0.6360 H     1 <1>   0.0800 
 18 H        1.5560    -2.0490    -1.0390 H     1 <1>   0.0800 
 19 H       -0.6260    -2.2160    -2.3260 H     1 <1>   0.0800 
 20 H       -2.1290    -1.8900    -1.5300 H     1 <1>   0.0800 
 21 H       -1.8320    -3.2470     2.3550 H     1 <1>   0.0800 
 22 H        1.8830    -4.0520     0.3840 H     1 <1>   0.0800 
 23 H       -1.7970    -4.3330    -1.7870 H     1 <1>   0.0800 
 24 H        0.6460    -3.2340     2.3690 H     1 <1>   0.0800 
 25 H        0.0490    -4.7920     1.8800 H     1 <1>   0.0800 
 26 H       -3.0280    -3.5140     0.2010 H     1 <1>   0.0800 
 27 H       -2.1420    -4.9590     0.5880 H     1 <1>   0.0800 
 28 H        0.0700    -5.4390    -0.5860 H     1 <1>   0.0800 
 29 H        0.6810    -4.3180    -1.7660 H     1 <1>   0.0800 
@<TRIPOS>BOND
  1   1   2  ar  
  2   1   3  ar  
  3   1   4  ar  
  4   1   5  1   
  5   5   6  1   
  6   5   7  1   
  7   5   8  1   
  8   6   9  1   
  9   6  15  1   
 10   6  16  1   
 11   7  10  1   
 12   7  17  1   
 13   7  18  1   
 14   8  11  1   
 15   8  19  1   
 16   8  20  1   
 17   9  12  1   
 18   9  13  1   
 19   9  21  1   
 20  10  12  1   
 21  10  14  1   
 22  10  22  1   
 23  11  13  1   
 24  11  14  1   
 25  11  23  1   
 26  12  24  1   
 27  12  25  1   
 28  13  26  1   
 29  13  27  1   
 30  14  28  1   
 31  14  29  1   
@<TRIPOS>SUBSTRUCTURE
  1 ****   5 GROUP 4 **** **** 0

# MOE 2024.06 (io_trps.svl 2023.06)
