@<TRIPOS>MOLECULE
NONAME
35 36 1 0 0 
SMALL
USER_CHARGES


@<TRIPOS>ATOM
  1 O        0.6270     1.7660    -2.0890 O.2   1 <1>  -0.5700 
  2 C        0.3270     1.7310    -0.9210 C.2   1 <1>   0.6300 
  3 N        1.1320     1.2490     0.0590 N.am  1 <1>  -0.7300 
  4 C       -1.0210     2.2890    -0.4870 C.3   1 <1>  -0.1000 
  5 C        2.5210     0.7470     0.0030 C.3   1 <1>   0.3640 
  6 C       -2.0740     1.4670     0.2010 C.3   1 <1>  -0.1900 
  7 C       -2.2870     1.8900    -1.2130 C.3   1 <1>  -0.2000 
  8 C        3.4830     1.8930     0.2970 C.ar  1 <1>  -0.1440 
  9 C        2.8600     0.0280    -1.3020 C.3   1 <1>  -0.2400 
 10 C       -2.9180     2.1320     1.2930 C.3   1 <1>  -0.1450 
 11 C       -1.8630    -0.0280     0.4670 C.3   1 <1>  -0.1450 
 12 C        3.5250     3.0160    -0.5180 C.ar  1 <1>  -0.1500 
 13 C        4.3350     1.8250     1.3910 C.ar  1 <1>  -0.1500 
 14 C        4.3990     4.0540    -0.2450 C.ar  1 <1>  -0.1500 
 15 C        5.2100     2.8620     1.6670 C.ar  1 <1>  -0.1500 
 16 C        5.2420     3.9770     0.8490 C.ar  1 <1>  -0.1500 
 17 H        0.7990     1.3830     1.0110 H     1 <1>   0.3700 
 18 H       -0.9330     3.3270    -0.2260 H     1 <1>   0.1000 
 19 H        2.6170     0.0180     0.7890 H     1 <1>   0.0800 
 20 H       -2.2000     1.1680    -2.0070 H     1 <1>   0.1000 
 21 H       -3.0050     2.6590    -1.4380 H     1 <1>   0.1000 
 22 H        2.9080     0.7190    -2.1230 H     1 <1>   0.0800 
 23 H        2.1260    -0.7270    -1.5130 H     1 <1>   0.0800 
 24 H        3.8230    -0.4400    -1.2120 H     1 <1>   0.0800 
 25 H       -3.0830     3.1720     1.0700 H     1 <1>   0.0800 
 26 H       -2.4190     2.0630     2.2430 H     1 <1>   0.0800 
 27 H       -3.8750     1.6470     1.3690 H     1 <1>   0.0800 
 28 H       -1.3060    -0.4880    -0.3300 H     1 <1>   0.0800 
 29 H       -2.8130    -0.5270     0.5410 H     1 <1>   0.0800 
 30 H       -1.3260    -0.1730     1.3870 H     1 <1>   0.0800 
 31 H        2.8720     3.0850    -1.3720 H     1 <1>   0.1500 
 32 H        4.3240     0.9650     2.0380 H     1 <1>   0.1500 
 33 H        4.4200     4.9180    -0.8840 H     1 <1>   0.1500 
 34 H        5.8660     2.8020     2.5170 H     1 <1>   0.1500 
 35 H        5.9220     4.7840     1.0620 H     1 <1>   0.1500 
@<TRIPOS>BOND
  1   1   2  2   
  2   2   3  am  
  3   2   4  1   
  4   3   5  1   
  5   3  17  1   
  6   4   6  1   
  7   4   7  1   
  8   4  18  1   
  9   5   8  1   
 10   5   9  1   
 11   5  19  1   
 12   6   7  1   
 13   6  10  1   
 14   6  11  1   
 15   7  20  1   
 16   7  21  1   
 17   8  12  ar  
 18   8  13  ar  
 19   9  22  1   
 20   9  23  1   
 21   9  24  1   
 22  10  25  1   
 23  10  26  1   
 24  10  27  1   
 25  11  28  1   
 26  11  29  1   
 27  11  30  1   
 28  12  14  ar  
 29  12  31  1   
 30  13  15  ar  
 31  13  32  1   
 32  14  16  ar  
 33  14  33  1   
 34  15  16  ar  
 35  15  34  1   
 36  16  35  1   
@<TRIPOS>SUBSTRUCTURE
  1 ****   3 GROUP 4 **** **** 0

# MOE 2024.06 (io_trps.svl 2023.06)
