@<TRIPOS>MOLECULE
Structure1891
45 46 1 0 0 
SMALL
USER_CHARGES


@<TRIPOS>ATOM
  1 O       -0.7390     1.5150     1.6550 O.2   1 <1>  -0.5700 
  2 C       -0.4660     1.3460     0.4830 C.2   1 <1>   0.7800 
  3 O        0.7640     1.5430     0.0110 O.3   1 <1>  -0.4300 
  4 N       -1.3790     0.9620    -0.4280 N.am  1 <1>  -0.7300 
  5 C        1.9060     1.9270     0.7450 C.3   1 <1>   0.2800 
  6 C       -2.7220     0.3450    -0.1500 C.3   1 <1>   0.1140 
  7 C        3.0370     1.9870    -0.2820 C.3   1 <1>  -0.2400 
  8 C        1.7020     3.3190     1.3540 C.3   1 <1>  -0.2400 
  9 C        2.2390     0.8670     1.8010 C.3   1 <1>  -0.2400 
 10 C       -2.9660    -0.8630    -1.0750 C.2   1 <1>   0.9060 
 11 C       -3.7910     1.4350    -0.3300 C.3   1 <1>   0.0210 
 12 O       -2.6650    -0.7440    -2.2740 O.co2 1 <1>  -0.9000 
 13 O       -3.3720    -1.9360    -0.6090 O.co2 1 <1>  -0.9000 
 14 C       -5.1550     1.1070     0.2640 C.2   1 <1>  -0.1810 
 15 C       -6.2130     2.0430     0.3500 C.ar  1 <1>   0.0000 
 16 C       -5.6060    -0.0570     0.7880 C.2   1 <1>  -0.3020 
 17 C       -7.2840     1.3800     0.9390 C.ar  1 <1>  -0.1520 
 18 C       -6.3560     3.3850    -0.0190 C.ar  1 <1>  -0.1500 
 19 N       -6.8980     0.0910     1.2010 N.pl3 1 <1>   0.0330 
 20 C       -8.4960     2.0350     1.1670 C.ar  1 <1>  -0.1500 
 21 C       -7.5490     4.0330     0.2050 C.ar  1 <1>  -0.1500 
 22 C       -8.6310     3.3560     0.8030 C.ar  1 <1>   0.0820 
 23 O       -9.8330     3.9430     1.0490 O.3   1 <1>  -0.3620 
 24 C      -10.0680     5.2930     0.7190 C.3   1 <1>   0.0400 
 25 H       -1.0490     0.7020    -1.3640 H     1 <1>   0.3700 
 26 H       -2.7410    -0.0060     0.8660 H     1 <1>   0.0800 
 27 H        3.9590     2.2740     0.1910 H     1 <1>   0.0800 
 28 H        2.8080     2.7080    -1.0470 H     1 <1>   0.0800 
 29 H        3.1740     1.0240    -0.7400 H     1 <1>   0.0800 
 30 H        1.3980     4.0170     0.5950 H     1 <1>   0.0800 
 31 H        2.6190     3.6660     1.7920 H     1 <1>   0.0800 
 32 H        0.9590     3.2960     2.1300 H     1 <1>   0.0800 
 33 H        2.2980    -0.1050     1.3470 H     1 <1>   0.0800 
 34 H        1.4960     0.8470     2.5770 H     1 <1>   0.0800 
 35 H        3.1840     1.0890     2.2610 H     1 <1>   0.0800 
 36 H       -3.9090     1.6360    -1.3800 H     1 <1>   0.0800 
 37 H       -3.4400     2.3300     0.1500 H     1 <1>   0.0800 
 38 H       -5.0870    -0.9970     0.8850 H     1 <1>   0.1500 
 39 H       -5.5220     3.8860    -0.4740 H     1 <1>   0.1500 
 40 H       -7.4830    -0.6420     1.6100 H     1 <1>   0.2700 
 41 H       -9.3170     1.5130     1.6220 H     1 <1>   0.1500 
 42 H       -7.6400     5.0610    -0.0840 H     1 <1>   0.1500 
 43 H      -11.0760     5.5350     1.0050 H     1 <1>   0.0800 
 44 H       -9.9500     5.4180    -0.3430 H     1 <1>   0.0800 
 45 H       -9.3750     5.9110     1.2610 H     1 <1>   0.0800 
@<TRIPOS>BOND
  1   1   2  2   
  2   2   3  1   
  3   2   4  am  
  4   3   5  1   
  5   4   6  1   
  6   4  25  1   
  7   5   7  1   
  8   5   8  1   
  9   5   9  1   
 10   6  10  1   
 11   6  11  1   
 12   6  26  1   
 13   7  27  1   
 14   7  28  1   
 15   7  29  1   
 16   8  30  1   
 17   8  31  1   
 18   8  32  1   
 19   9  33  1   
 20   9  34  1   
 21   9  35  1   
 22  10  12  ar  
 23  10  13  ar  
 24  11  14  1   
 25  11  36  1   
 26  11  37  1   
 27  14  15  1   
 28  14  16  2   
 29  15  17  ar  
 30  15  18  ar  
 31  16  19  1   
 32  16  38  1   
 33  17  19  1   
 34  17  20  ar  
 35  18  21  ar  
 36  18  39  1   
 37  19  40  1   
 38  20  22  ar  
 39  20  41  1   
 40  21  22  ar  
 41  21  42  1   
 42  22  23  1   
 43  23  24  1   
 44  24  43  1   
 45  24  44  1   
 46  24  45  1   
@<TRIPOS>SUBSTRUCTURE
  1 ****  11 GROUP 4 **** **** 0

# MOE 2024.06 (io_trps.svl 2023.06)
