@<TRIPOS>MOLECULE
NONAME
46 48 1 0 0 
SMALL
USER_CHARGES


@<TRIPOS>ATOM
  1 S        0.0340    -0.7620    -0.2620 S.3   1 <1>  -0.0800 
  2 C        1.0780     0.6180     0.0300 C.2   1 <1>   0.1040 
  3 C       -1.4000     0.2250    -0.0790 C.2   1 <1>  -0.1400 
  4 N        2.4330     0.3670    -0.0540 N.am  1 <1>  -0.4940 
  5 C        0.3420     1.7440     0.2980 C.2   1 <1>  -0.0860 
  6 C       -1.0790     1.4980     0.1900 C.2   1 <1>  -0.1810 
  7 C       -2.7740    -0.3890    -0.2250 C.3   1 <1>   0.0200 
  8 C        3.4550     1.2230    -0.3890 C.2   1 <1>   0.6160 
  9 C        0.9070     2.9980     0.7040 C.2   1 <1>   0.8060 
 10 C       -2.1670     2.5490     0.3840 C.3   1 <1>   0.0210 
 11 C       -3.8230     0.5950     0.3200 C.3   1 <1>  -0.1600 
 12 O        3.2080     2.2600    -0.9730 O.2   1 <1>  -0.5700 
 13 C        4.8040     0.8570    -0.0870 C.2   1 <1>  -0.1360 
 14 O        1.7240     3.0990     1.6020 O.2   1 <1>  -0.5700 
 15 O        0.4970     4.1090     0.0800 O.3   1 <1>  -0.4300 
 16 C       -3.5380     2.0460    -0.1250 C.3   1 <1>  -0.0800 
 17 C        5.9240     1.5520    -0.3950 C.2   1 <1>  -0.1050 
 18 C        1.0890     5.3570     0.3510 C.3   1 <1>   0.1200 
 19 C       -4.6620     2.9830     0.3360 C.3   1 <1>  -0.2400 
 20 C        7.2700     1.1800    -0.0900 C.2   1 <1>   0.0950 
 21 C        0.4000     6.4040    -0.5180 C.3   1 <1>  -0.2400 
 22 O        7.5260     0.0430     0.5440 O.3   1 <1>  -0.2800 
 23 C        8.4470     1.8140    -0.3420 C.2   1 <1>  -0.1500 
 24 C        8.8260    -0.0660     0.7040 C.2   1 <1>  -0.0100 
 25 C        9.4580     1.0030     0.1750 C.2   1 <1>  -0.1500 
 26 H        2.7060    -0.6060     0.0570 H     1 <1>   0.3700 
 27 H       -2.9570    -0.5890    -1.2660 H     1 <1>   0.0800 
 28 H       -2.8260    -1.3170     0.3180 H     1 <1>   0.0800 
 29 H       -2.2250     2.7900     1.4300 H     1 <1>   0.0800 
 30 H       -1.9170     3.4440    -0.1560 H     1 <1>   0.0800 
 31 H       -3.8120     0.5530     1.3960 H     1 <1>   0.0800 
 32 H       -4.8000     0.2880    -0.0120 H     1 <1>   0.0800 
 33 H        4.9040    -0.0700     0.4440 H     1 <1>   0.1500 
 34 H       -3.5130     2.0600    -1.2030 H     1 <1>   0.0800 
 35 H        5.8300     2.4870    -0.9220 H     1 <1>   0.1500 
 36 H        0.9640     5.5770     1.3980 H     1 <1>   0.0800 
 37 H        2.1390     5.2890     0.1170 H     1 <1>   0.0800 
 38 H       -4.7350     2.9890     1.4100 H     1 <1>   0.0800 
 39 H       -5.6050     2.6620    -0.0690 H     1 <1>   0.0800 
 40 H       -4.4740     3.9870    -0.0020 H     1 <1>   0.0800 
 41 H       -0.6480     6.4500    -0.2830 H     1 <1>   0.0800 
 42 H        0.5270     6.1610    -1.5580 H     1 <1>   0.0800 
 43 H        0.8360     7.3700    -0.3360 H     1 <1>   0.0800 
 44 H        8.5930     2.7560    -0.8390 H     1 <1>   0.1500 
 45 H        9.2200    -0.9340     1.2040 H     1 <1>   0.1500 
 46 H       10.5130     1.2130     0.1440 H     1 <1>   0.1500 
@<TRIPOS>BOND
  1   1   2  1   
  2   1   3  1   
  3   2   4  1   
  4   2   5  2   
  5   3   6  2   
  6   3   7  1   
  7   4   8  am  
  8   4  26  1   
  9   5   6  1   
 10   5   9  1   
 11   6  10  1   
 12   7  11  1   
 13   7  27  1   
 14   7  28  1   
 15   8  12  2   
 16   8  13  1   
 17   9  14  2   
 18   9  15  1   
 19  10  16  1   
 20  10  29  1   
 21  10  30  1   
 22  11  16  1   
 23  11  31  1   
 24  11  32  1   
 25  13  17  2   
 26  13  33  1   
 27  15  18  1   
 28  16  19  1   
 29  16  34  1   
 30  17  20  1   
 31  17  35  1   
 32  18  21  1   
 33  18  36  1   
 34  18  37  1   
 35  19  38  1   
 36  19  39  1   
 37  19  40  1   
 38  20  22  1   
 39  20  23  2   
 40  21  41  1   
 41  21  42  1   
 42  21  43  1   
 43  22  24  1   
 44  23  25  1   
 45  23  44  1   
 46  24  25  2   
 47  24  45  1   
 48  25  46  1   
@<TRIPOS>SUBSTRUCTURE
  1 ****   2 GROUP 4 **** **** 0

# MOE 2024.06 (io_trps.svl 2023.06)
