@<TRIPOS>MOLECULE
NONAME
43 45 1 0 0 
SMALL
USER_CHARGES


@<TRIPOS>ATOM
  1 O        0.1980    -0.3830    -0.4070 O.2   1 <1>  -0.5700 
  2 C        0.9350    -1.3370    -0.2460 C.2   1 <1>   0.8060 
  3 O        2.2540    -1.1230    -0.1810 O.3   1 <1>  -0.4300 
  4 C        0.4340    -2.6850    -0.1240 C.2   1 <1>  -0.0860 
  5 C        2.8070     0.1740    -0.2940 C.3   1 <1>   0.0400 
  6 C        1.1840    -3.8800     0.0660 C.ar  1 <1>   0.0000 
  7 C       -0.8720    -3.0780    -0.1680 C.2   1 <1>  -0.3020 
  8 C        0.2730    -4.9330     0.1260 C.ar  1 <1>  -0.1520 
  9 C        2.5520    -4.1470     0.1910 C.ar  1 <1>  -0.1500 
 10 N       -1.0240    -4.4380    -0.0210 N.pl3 1 <1>   0.2940 
 11 C        0.7220    -6.2450     0.3090 C.ar  1 <1>  -0.1500 
 12 C        2.9860    -5.4400     0.3710 C.ar  1 <1>  -0.1500 
 13 C       -2.2380    -5.1570    -0.0200 C.2   1 <1>   0.5180 
 14 C        2.0710    -6.4900     0.4300 C.ar  1 <1>  -0.1500 
 15 O       -2.3060    -6.3560     0.1090 O.2   1 <1>  -0.5700 
 16 C       -3.5370    -4.3660    -0.1910 C.3   1 <1>  -0.0990 
 17 C       -4.8180    -5.2240    -0.1730 C.3   1 <1>  -0.1600 
 18 C       -6.0880    -4.3900    -0.4040 C.3   1 <1>  -0.0800 
 19 C       -6.3740    -3.3640     0.6920 C.3   1 <1>  -0.1600 
 20 C       -7.3510    -5.2470    -0.4230 C.3   1 <1>  -0.1600 
 21 C       -7.8770    -3.0880     0.6050 C.3   1 <1>  -0.1600 
 22 C       -8.4920    -4.2660    -0.1590 C.3   1 <1>  -0.1600 
 23 H        3.8760     0.0970    -0.2130 H     1 <1>   0.0800 
 24 H        2.4180     0.7890     0.4990 H     1 <1>   0.0800 
 25 H        2.5370     0.5870    -1.2510 H     1 <1>   0.0800 
 26 H       -1.7110    -2.4190    -0.3020 H     1 <1>   0.1500 
 27 H        3.2650    -3.3450     0.1470 H     1 <1>   0.1500 
 28 H        0.0230    -7.0620     0.3560 H     1 <1>   0.1500 
 29 H        4.0370    -5.6520     0.4680 H     1 <1>   0.1500 
 30 H        2.4270    -7.4960     0.5720 H     1 <1>   0.1500 
 31 H       -3.4910    -3.8380    -1.1260 H     1 <1>   0.0800 
 32 H       -3.5920    -3.6420     0.6020 H     1 <1>   0.0800 
 33 H       -4.8880    -5.7410     0.7690 H     1 <1>   0.0800 
 34 H       -4.7490    -5.9710    -0.9470 H     1 <1>   0.0800 
 35 H       -6.0180    -3.8760    -1.3490 H     1 <1>   0.0800 
 36 H       -5.7990    -2.4640     0.5640 H     1 <1>   0.0800 
 37 H       -6.1520    -3.7910     1.6560 H     1 <1>   0.0800 
 38 H       -7.3150    -5.9680     0.3760 H     1 <1>   0.0800 
 39 H       -7.4730    -5.7650    -1.3580 H     1 <1>   0.0800 
 40 H       -8.0540    -2.1740     0.0640 H     1 <1>   0.0800 
 41 H       -8.3030    -2.9970     1.5890 H     1 <1>   0.0800 
 42 H       -9.2830    -4.7330     0.4020 H     1 <1>   0.0800 
 43 H       -8.8910    -3.9150    -1.0960 H     1 <1>   0.0800 
@<TRIPOS>BOND
  1   1   2  2   
  2   2   3  1   
  3   2   4  1   
  4   3   5  1   
  5   4   6  1   
  6   4   7  2   
  7   5  23  1   
  8   5  24  1   
  9   5  25  1   
 10   6   8  ar  
 11   6   9  ar  
 12   7  10  1   
 13   7  26  1   
 14   8  10  1   
 15   8  11  ar  
 16   9  12  ar  
 17   9  27  1   
 18  10  13  1   
 19  11  14  ar  
 20  11  28  1   
 21  12  14  ar  
 22  12  29  1   
 23  13  15  2   
 24  13  16  1   
 25  14  30  1   
 26  16  17  1   
 27  16  31  1   
 28  16  32  1   
 29  17  18  1   
 30  17  33  1   
 31  17  34  1   
 32  18  19  1   
 33  18  20  1   
 34  18  35  1   
 35  19  21  1   
 36  19  36  1   
 37  19  37  1   
 38  20  22  1   
 39  20  38  1   
 40  20  39  1   
 41  21  22  1   
 42  21  40  1   
 43  21  41  1   
 44  22  42  1   
 45  22  43  1   
@<TRIPOS>SUBSTRUCTURE
  1 ****  10 GROUP 4 **** **** 0

# MOE 2024.06 (io_trps.svl 2023.06)
