@<TRIPOS>MOLECULE
NONAME
50 52 1 0 0 
SMALL
USER_CHARGES


@<TRIPOS>ATOM
  1 O       -1.5420    -1.1420     3.7190 O.2   1 <1>  -0.5700 
  2 C       -1.1040    -1.5530     2.6710 C.2   1 <1>   0.5690 
  3 N       -1.4900    -1.0300     1.4830 N.am  1 <1>  -0.7300 
  4 C       -0.0870    -2.7000     2.6740 C.3   1 <1>   0.1710 
  5 C       -2.4800     0.0390     1.3020 C.3   1 <1>   0.2840 
  6 N        0.8640    -2.6920     1.5250 N.3   1 <1>  -0.8100 
  7 C       -2.9690     0.0010    -0.1350 C.ar  1 <1>  -0.1440 
  8 C        1.6210    -3.9640     1.4670 C.3   1 <1>   0.1100 
  9 C        1.8200    -1.5610     1.6400 C.3   1 <1>   0.1100 
 10 C       -4.0110    -0.8410    -0.4940 C.ar  1 <1>  -0.1500 
 11 C       -2.3790     0.8020    -1.1000 C.ar  1 <1>  -0.1500 
 12 C        2.6360    -3.9890     0.3080 C.3   1 <1>   0.2090 
 13 C        2.8410    -1.5370     0.4870 C.3   1 <1>   0.2090 
 14 C       -4.4630    -0.8760    -1.8020 C.ar  1 <1>  -0.1500 
 15 C       -2.8300     0.7670    -2.4090 C.ar  1 <1>  -0.1500 
 16 N        3.5730    -2.8320     0.3930 N.pl3 1 <1>  -0.8380 
 17 C       -3.8730    -0.0720    -2.7600 C.ar  1 <1>  -0.1500 
 18 C        4.6640    -2.8580    -0.4680 C.ar  1 <1>   0.1000 
 19 C        5.9450    -2.9670     0.0500 C.ar  1 <1>  -0.1500 
 20 C        4.5050    -2.7740    -1.8470 C.ar  1 <1>  -0.1500 
 21 C        7.0540    -2.9940    -0.7790 C.ar  1 <1>   0.0820 
 22 C        5.6040    -2.8000    -2.6870 C.ar  1 <1>  -0.1500 
 23 O        8.2680    -3.1030    -0.1790 O.3   1 <1>  -0.3630 
 24 C        6.8790    -2.9090    -2.1590 C.ar  1 <1>  -0.1500 
 25 C        9.4560    -3.1400    -0.9350 C.3   1 <1>   0.0400 
 26 H       -1.0610    -1.4050     0.6320 H     1 <1>   0.3700 
 27 H       -0.6510    -3.6150     2.6560 H     1 <1>   0.0800 
 28 H        0.4600    -2.6700     3.6000 H     1 <1>   0.0800 
 29 H       -2.0230     0.9890     1.5190 H     1 <1>   0.0800 
 30 H       -3.3000    -0.1070     1.9840 H     1 <1>   0.0800 
 31 H        0.9340    -4.7820     1.3390 H     1 <1>   0.0800 
 32 H        2.1550    -4.1150     2.3900 H     1 <1>   0.0800 
 33 H        2.3600    -1.6310     2.5690 H     1 <1>   0.0800 
 34 H        1.2820    -0.6290     1.6390 H     1 <1>   0.0800 
 35 H       -4.4730    -1.4720     0.2460 H     1 <1>   0.1500 
 36 H       -1.5670     1.4570    -0.8380 H     1 <1>   0.1500 
 37 H        2.1060    -3.9580    -0.6270 H     1 <1>   0.0800 
 38 H        3.2020    -4.9040     0.3450 H     1 <1>   0.0800 
 39 H        3.5490    -0.7430     0.6500 H     1 <1>   0.0800 
 40 H        2.3270    -1.3440    -0.4380 H     1 <1>   0.0800 
 41 H       -5.2740    -1.5300    -2.0730 H     1 <1>   0.1500 
 42 H       -2.3700     1.3920    -3.1540 H     1 <1>   0.1500 
 43 H       -4.2250    -0.0980    -3.7760 H     1 <1>   0.1500 
 44 H        6.0730    -3.0310     1.1130 H     1 <1>   0.1500 
 45 H        3.5160    -2.6880    -2.2560 H     1 <1>   0.1500 
 46 H        5.4670    -2.7350    -3.7520 H     1 <1>   0.1500 
 47 H        7.7150    -2.9270    -2.8300 H     1 <1>   0.1500 
 48 H       10.2830    -3.2300    -0.2540 H     1 <1>   0.0800 
 49 H        9.5420    -2.2270    -1.4960 H     1 <1>   0.0800 
 50 H        9.4270    -3.9940    -1.5890 H     1 <1>   0.0800 
@<TRIPOS>BOND
  1   1   2  2   
  2   2   3  am  
  3   2   4  1   
  4   3   5  1   
  5   3  26  1   
  6   4   6  1   
  7   4  27  1   
  8   4  28  1   
  9   5   7  1   
 10   5  29  1   
 11   5  30  1   
 12   6   8  1   
 13   6   9  1   
 14   7  10  ar  
 15   7  11  ar  
 16   8  12  1   
 17   8  31  1   
 18   8  32  1   
 19   9  13  1   
 20   9  33  1   
 21   9  34  1   
 22  10  14  ar  
 23  10  35  1   
 24  11  15  ar  
 25  11  36  1   
 26  12  16  1   
 27  12  37  1   
 28  12  38  1   
 29  13  16  1   
 30  13  39  1   
 31  13  40  1   
 32  14  17  ar  
 33  14  41  1   
 34  15  17  ar  
 35  15  42  1   
 36  16  18  1   
 37  17  43  1   
 38  18  19  ar  
 39  18  20  ar  
 40  19  21  ar  
 41  19  44  1   
 42  20  22  ar  
 43  20  45  1   
 44  21  23  1   
 45  21  24  ar  
 46  22  24  ar  
 47  22  46  1   
 48  23  25  1   
 49  24  47  1   
 50  25  48  1   
 51  25  49  1   
 52  25  50  1   
@<TRIPOS>SUBSTRUCTURE
  1 ****  13 GROUP 4 **** **** 0

# MOE 2024.06 (io_trps.svl 2023.06)
