@<TRIPOS>MOLECULE
NONAME
33 34 1 0 0 
SMALL
USER_CHARGES


@<TRIPOS>ATOM
  1 BR      -0.1880     0.1860    -0.4240 Br    1 <1>  -0.1110 
  2 C        1.5440    -0.6200    -0.1470 C.ar  1 <1>   0.1110 
  3 C        1.6600    -1.7730     0.6190 C.ar  1 <1>   0.0830 
  4 C        2.6400    -0.0120    -0.7240 C.ar  1 <1>  -0.1500 
  5 O        0.5950    -2.3690     1.1900 O.3   1 <1>  -0.3630 
  6 C        2.9220    -2.3090     0.8120 C.ar  1 <1>  -0.1500 
  7 C        3.9180    -0.5430    -0.5400 C.ar  1 <1>   0.0860 
  8 C       -0.1490    -3.2480     0.3780 C.3   1 <1>   0.0400 
  9 C        4.0280    -1.7040     0.2370 C.ar  1 <1>  -0.1500 
 10 C        5.0770     0.0960    -1.1370 C.2   1 <1>   0.5440 
 11 O        4.9660     0.7450    -2.1580 O.2   1 <1>  -0.5700 
 12 N        6.3080    -0.0080    -0.5540 N.am  1 <1>  -0.7300 
 13 C        7.5540     0.5920    -1.0610 C.3   1 <1>   0.2200 
 14 C        8.6340    -0.4820    -1.0990 C.3   1 <1>  -0.1600 
 15 C        8.0790     1.5790    -0.0270 C.3   1 <1>  -0.1600 
 16 C        9.1710    -0.5870     0.3340 C.3   1 <1>  -0.1600 
 17 C        8.8120     0.7360     1.0230 C.3   1 <1>  -0.1600 
 18 H        2.5110     0.8770    -1.3170 H     1 <1>   0.1500 
 19 H        3.0290    -3.1960     1.4100 H     1 <1>   0.1500 
 20 H       -0.9590    -3.6420     0.9650 H     1 <1>   0.0800 
 21 H        0.4930    -4.0460     0.0490 H     1 <1>   0.0800 
 22 H       -0.5370    -2.7060    -0.4660 H     1 <1>   0.0800 
 23 H        4.9960    -2.1470     0.3880 H     1 <1>   0.1500 
 24 H        6.4030    -0.4410     0.3620 H     1 <1>   0.3700 
 25 H        7.3990     1.0500    -2.0250 H     1 <1>   0.0800 
 26 H        9.4250    -0.1430    -1.7440 H     1 <1>   0.0800 
 27 H        8.2620    -1.4190    -1.4770 H     1 <1>   0.0800 
 28 H        7.2930     2.1820     0.3940 H     1 <1>   0.0800 
 29 H        8.7870     2.2300    -0.5090 H     1 <1>   0.0800 
 30 H       10.2350    -0.7540     0.3320 H     1 <1>   0.0800 
 31 H        8.6940    -1.4050     0.8460 H     1 <1>   0.0800 
 32 H        8.1620     0.5460     1.8590 H     1 <1>   0.0800 
 33 H        9.6920     1.2460     1.3770 H     1 <1>   0.0800 
@<TRIPOS>BOND
  1   1   2  1   
  2   2   3  ar  
  3   2   4  ar  
  4   3   5  1   
  5   3   6  ar  
  6   4   7  ar  
  7   4  18  1   
  8   5   8  1   
  9   6   9  ar  
 10   6  19  1   
 11   7   9  ar  
 12   7  10  1   
 13   8  20  1   
 14   8  21  1   
 15   8  22  1   
 16   9  23  1   
 17  10  11  2   
 18  10  12  am  
 19  12  13  1   
 20  12  24  1   
 21  13  14  1   
 22  13  15  1   
 23  13  25  1   
 24  14  16  1   
 25  14  26  1   
 26  14  27  1   
 27  15  17  1   
 28  15  28  1   
 29  15  29  1   
 30  16  17  1   
 31  16  30  1   
 32  16  31  1   
 33  17  32  1   
 34  17  33  1   
@<TRIPOS>SUBSTRUCTURE
  1 ****   7 GROUP 4 **** **** 0

# MOE 2024.06 (io_trps.svl 2023.06)
