@<TRIPOS>MOLECULE
NONAME
23 24 1 0 0 
SMALL
USER_CHARGES


@<TRIPOS>ATOM
  1 S       -0.3860     0.2940    -0.7000 S.3   1 <1>  -0.4600 
  2 C       -2.0660    -0.3830    -0.5100 C.3   1 <1>   0.0700 
  3 C       -0.6830     2.0880    -0.5800 C.3   1 <1>   0.0700 
  4 C       -2.7200     0.2120     0.7420 C.3   1 <1>   0.2090 
  5 C       -1.5010     2.3890     0.6810 C.3   1 <1>   0.2090 
  6 N       -2.8250     1.6980     0.6200 N.pl3 1 <1>  -0.8380 
  7 C       -3.9490     2.3120     0.0990 C.ar  1 <1>   0.7200 
  8 N       -5.0220     1.5470    -0.1070 N.ar  1 <1>  -0.6200 
  9 N       -3.8640     3.6160    -0.1660 N.ar  1 <1>  -0.6200 
 10 C       -6.0800     2.1430    -0.6000 C.ar  1 <1>   0.1600 
 11 C       -4.9360     4.1850    -0.6580 C.ar  1 <1>   0.1600 
 12 C       -6.0900     3.4830    -0.8980 C.ar  1 <1>  -0.1500 
 13 H       -1.9720    -1.4510    -0.4310 H     1 <1>   0.0800 
 14 H       -2.6260    -0.1280    -1.3920 H     1 <1>   0.0800 
 15 H       -1.2140     2.3930    -1.4630 H     1 <1>   0.0800 
 16 H        0.2780     2.5680    -0.5460 H     1 <1>   0.0800 
 17 H       -2.1270    -0.0330     1.6060 H     1 <1>   0.0800 
 18 H       -3.6900    -0.2310     0.8870 H     1 <1>   0.0800 
 19 H       -1.6280     3.4530     0.7820 H     1 <1>   0.0800 
 20 H       -0.9620     2.0490     1.5470 H     1 <1>   0.0800 
 21 H       -6.9600     1.5470    -0.7710 H     1 <1>   0.1500 
 22 H       -4.8930     5.2390    -0.8760 H     1 <1>   0.1500 
 23 H       -6.9630     3.9600    -1.3010 H     1 <1>   0.1500 
@<TRIPOS>BOND
  1   1   2  1   
  2   1   3  1   
  3   2   4  1   
  4   2  13  1   
  5   2  14  1   
  6   3   5  1   
  7   3  15  1   
  8   3  16  1   
  9   4   6  1   
 10   4  17  1   
 11   4  18  1   
 12   5   6  1   
 13   5  19  1   
 14   5  20  1   
 15   6   7  1   
 16   7   8  ar  
 17   7   9  ar  
 18   8  10  ar  
 19   9  11  ar  
 20  10  12  ar  
 21  10  21  1   
 22  11  12  ar  
 23  11  22  1   
 24  12  23  1   
@<TRIPOS>SUBSTRUCTURE
  1 ****   7 GROUP 4 **** **** 0

# MOE 2024.06 (io_trps.svl 2023.06)
