@<TRIPOS>MOLECULE
NONAME
39 40 1 0 0 
SMALL
USER_CHARGES


@<TRIPOS>ATOM
  1 CL       0.4100     0.4200    -0.1490 Cl    1 <1>  -0.1770 
  2 C       -0.6930     1.7720    -0.0200 C.ar  1 <1>   0.1770 
  3 C       -0.3530     2.9150     0.6870 C.ar  1 <1>  -0.0090 
  4 C       -1.9140     1.6440    -0.6570 C.ar  1 <1>  -0.1500 
  5 S        1.2490     3.0780     1.5070 S.o2  1 <1>   1.4470 
  6 C       -1.2940     3.9380     0.7440 C.ar  1 <1>  -0.1500 
  7 C       -2.8400     2.6700    -0.5980 C.ar  1 <1>  -0.1430 
  8 O        1.4220     1.9940     2.4490 O.2   1 <1>  -0.6500 
  9 O        1.3940     4.4370     1.9850 O.2   1 <1>  -0.6500 
 10 N        2.3840     2.8930     0.2600 N.am  1 <1>  -0.8490 
 11 C       -2.5300     3.8270     0.1110 C.ar  1 <1>   0.0830 
 12 C       -4.1820     2.5170    -1.3010 C.3   1 <1>  -0.0970 
 13 C        2.4670     4.0930    -0.5950 C.3   1 <1>   0.1960 
 14 C        3.7080     2.5130     0.7890 C.3   1 <1>   0.1960 
 15 O       -3.4700     4.8070     0.1500 O.3   1 <1>  -0.3630 
 16 C        3.2340     3.8300    -1.8970 C.3   1 <1>   0.0700 
 17 C        4.6640     2.0350    -0.3110 C.3   1 <1>   0.0700 
 18 C       -3.3220     5.9640     0.9690 C.3   1 <1>   0.1810 
 19 S        4.9400     3.3760    -1.4970 S.3   1 <1>  -0.4600 
 20 C       -4.5510     6.8670     0.8920 C.2   1 <1>   0.5690 
 21 O       -4.5710     7.8870     1.5310 O.2   1 <1>  -0.5700 
 22 N       -5.6060     6.5370     0.1190 N.am  1 <1>  -0.8000 
 23 H       -2.1280     0.7360    -1.1940 H     1 <1>   0.1500 
 24 H       -1.0390     4.8260     1.2940 H     1 <1>   0.1500 
 25 H       -4.2540     1.5680    -1.8000 H     1 <1>   0.0800 
 26 H       -4.3020     3.2970    -2.0320 H     1 <1>   0.0800 
 27 H       -4.9800     2.5870    -0.5840 H     1 <1>   0.0800 
 28 H        2.9390     4.8990    -0.0570 H     1 <1>   0.0800 
 29 H        1.4730     4.4120    -0.8590 H     1 <1>   0.0800 
 30 H        3.5990     1.6980     1.4850 H     1 <1>   0.0800 
 31 H        4.1450     3.3420     1.3210 H     1 <1>   0.0800 
 32 H        3.2770     4.7100    -2.5120 H     1 <1>   0.0800 
 33 H        2.7980     3.0160    -2.4490 H     1 <1>   0.0800 
 34 H        4.2470     1.2010    -0.8470 H     1 <1>   0.0800 
 35 H        5.6230     1.7670     0.0950 H     1 <1>   0.0800 
 36 H       -2.4630     6.5120     0.6320 H     1 <1>   0.0800 
 37 H       -3.1820     5.6460     1.9850 H     1 <1>   0.0800 
 38 H       -6.4220     7.1480     0.0730 H     1 <1>   0.3700 
 39 H       -5.6200     5.6810    -0.4360 H     1 <1>   0.3700 
@<TRIPOS>BOND
  1   1   2  1   
  2   2   3  ar  
  3   2   4  ar  
  4   3   5  1   
  5   3   6  ar  
  6   4   7  ar  
  7   4  23  1   
  8   5   8  2   
  9   5   9  2   
 10   5  10  am  
 11   6  11  ar  
 12   6  24  1   
 13   7  11  ar  
 14   7  12  1   
 15  10  13  1   
 16  10  14  1   
 17  11  15  1   
 18  12  25  1   
 19  12  26  1   
 20  12  27  1   
 21  13  16  1   
 22  13  28  1   
 23  13  29  1   
 24  14  17  1   
 25  14  30  1   
 26  14  31  1   
 27  15  18  1   
 28  16  19  1   
 29  16  32  1   
 30  16  33  1   
 31  17  19  1   
 32  17  34  1   
 33  17  35  1   
 34  18  20  1   
 35  18  36  1   
 36  18  37  1   
 37  20  21  2   
 38  20  22  am  
 39  22  38  1   
 40  22  39  1   
@<TRIPOS>SUBSTRUCTURE
  1 ****   3 GROUP 4 **** **** 0

# MOE 2024.06 (io_trps.svl 2023.06)
