@<TRIPOS>MOLECULE
NONAME
33 33 1 0 0 
SMALL
USER_CHARGES


@<TRIPOS>ATOM
  1 N       -0.3450     0.5720    -1.6050 N.2   1 <1>  -0.7070 
  2 N       -1.6660     0.5980    -1.3250 N.pl3 1 <1>   0.3000 
  3 C        0.1660     1.5240    -0.8830 C.2   1 <1>   0.1080 
  4 C       -1.9590     1.5590    -0.4240 C.2   1 <1>  -0.3320 
  5 C       -0.7980     2.1760    -0.1200 C.2   1 <1>  -0.1500 
  6 C        1.6510     1.8690    -0.8790 C.3   1 <1>   0.5240 
  7 C       -3.3590     1.8370     0.0930 C.3   1 <1>   0.0200 
  8 N        2.4310     0.8900    -0.0510 N.4   1 <1>  -0.9590 
  9 C       -3.8730     0.6590     0.9210 C.3   1 <1>  -0.2400 
 10 C        3.8020     1.3940     0.2160 C.3   1 <1>   0.3430 
 11 C        2.4120    -0.4580    -0.6830 C.3   1 <1>   0.3430 
 12 C        4.4450     0.5950     1.3430 C.3   1 <1>  -0.2400 
 13 C        1.7740    -1.4370     0.2930 C.3   1 <1>  -0.2400 
 14 H       -2.3410    -0.0440    -1.7610 H     1 <1>   0.2700 
 15 H       -0.6450     2.9970     0.5600 H     1 <1>   0.1500 
 16 H        1.7690     2.8620    -0.4820 H     1 <1>   0.0800 
 17 H        2.0110     1.8630    -1.8940 H     1 <1>   0.0800 
 18 H       -4.0240     2.0220    -0.7340 H     1 <1>   0.0800 
 19 H       -3.3450     2.7210     0.7070 H     1 <1>   0.0800 
 20 H        1.9190     0.8000     0.8350 H     1 <1>   0.4500 
 21 H       -3.9420    -0.2290     0.3190 H     1 <1>   0.0800 
 22 H       -4.8490     0.8830     1.3120 H     1 <1>   0.0800 
 23 H       -3.2090     0.4690     1.7460 H     1 <1>   0.0800 
 24 H        3.7570     2.4310     0.5110 H     1 <1>   0.0800 
 25 H        4.4050     1.3240    -0.6760 H     1 <1>   0.0800 
 26 H        3.4140    -0.7780    -0.9210 H     1 <1>   0.0800 
 27 H        1.8380    -0.4420    -1.5970 H     1 <1>   0.0800 
 28 H        3.8410     0.6330     2.2330 H     1 <1>   0.0800 
 29 H        5.4040     1.0230     1.5750 H     1 <1>   0.0800 
 30 H        4.6060    -0.4280     1.0570 H     1 <1>   0.0800 
 31 H        0.7580    -1.1530     0.5020 H     1 <1>   0.0800 
 32 H        2.3330    -1.4990     1.2090 H     1 <1>   0.0800 
 33 H        1.7560    -2.4160    -0.1530 H     1 <1>   0.0800 
@<TRIPOS>BOND
  1   1   2  1   
  2   1   3  2   
  3   2   4  1   
  4   2  14  1   
  5   3   5  1   
  6   3   6  1   
  7   4   5  2   
  8   4   7  1   
  9   5  15  1   
 10   6   8  1   
 11   6  16  1   
 12   6  17  1   
 13   7   9  1   
 14   7  18  1   
 15   7  19  1   
 16   8  10  1   
 17   8  11  1   
 18   8  20  1   
 19   9  21  1   
 20   9  22  1   
 21   9  23  1   
 22  10  12  1   
 23  10  24  1   
 24  10  25  1   
 25  11  13  1   
 26  11  26  1   
 27  11  27  1   
 28  12  28  1   
 29  12  29  1   
 30  12  30  1   
 31  13  31  1   
 32  13  32  1   
 33  13  33  1   
@<TRIPOS>SUBSTRUCTURE
  1 ****   3 GROUP 4 **** **** 0

# MOE 2024.06 (io_trps.svl 2023.06)
