@<TRIPOS>MOLECULE
NONAME
46 48 1 0 0 
SMALL
USER_CHARGES


@<TRIPOS>ATOM
  1 F       -2.0920    -0.1000    -2.2690 F     1 <1>  -0.1900 
  2 C       -2.5600     0.7910    -1.4390 C.ar  1 <1>   0.1900 
  3 C       -3.6270     0.4460    -0.6320 C.ar  1 <1>  -0.1500 
  4 C       -1.9760     2.0410    -1.4010 C.ar  1 <1>  -0.1500 
  5 C       -4.1380     1.3930     0.2460 C.ar  1 <1>  -0.1440 
  6 C       -2.4820     2.9790    -0.5170 C.ar  1 <1>  -0.1500 
  7 C       -3.5550     2.6550     0.3010 C.ar  1 <1>  -0.1500 
  8 C       -5.3220     1.0560     1.1330 C.3   1 <1>   0.4870 
  9 N       -6.5470     1.0050     0.2910 N.4   1 <1>  -0.9590 
 10 C       -6.8420     2.3390    -0.3570 C.3   1 <1>   0.3430 
 11 C       -7.7410     0.5090     1.0670 C.3   1 <1>   0.3430 
 12 C       -8.1070     2.3110    -1.2410 C.3   1 <1>   0.2090 
 13 C       -9.0120     0.4130     0.1990 C.3   1 <1>   0.2090 
 14 N       -9.2640     1.6850    -0.5350 N.pl3 1 <1>  -0.8380 
 15 C      -10.2900     2.5030    -0.0590 C.ar  1 <1>   0.1000 
 16 C      -11.6070     2.3600    -0.5100 C.ar  1 <1>  -0.1430 
 17 C      -10.0030     3.4650     0.9030 C.ar  1 <1>  -0.1500 
 18 C      -12.6110     3.1650     0.0230 C.ar  1 <1>  -0.1430 
 19 C      -11.9400     1.3220    -1.5840 C.3   1 <1>  -0.0970 
 20 C      -10.9960     4.2700     1.4190 C.ar  1 <1>  -0.1500 
 21 C      -12.2970     4.1170     0.9810 C.ar  1 <1>  -0.1500 
 22 C      -14.0670     3.0410    -0.4090 C.3   1 <1>  -0.0970 
 23 H       -4.0280    -0.5500    -0.7050 H     1 <1>   0.1500 
 24 H       -1.1450     2.2700    -2.0450 H     1 <1>   0.1500 
 25 H       -2.0360     3.9590    -0.4660 H     1 <1>   0.1500 
 26 H       -3.9230     3.4040     0.9830 H     1 <1>   0.1500 
 27 H       -5.4290     1.8010     1.9040 H     1 <1>   0.0800 
 28 H       -5.1530     0.1000     1.6020 H     1 <1>   0.0800 
 29 H       -6.3660     0.3440    -0.4740 H     1 <1>   0.4500 
 30 H       -6.0060     2.6470    -0.9640 H     1 <1>   0.0800 
 31 H       -6.9840     3.0850     0.4060 H     1 <1>   0.0800 
 32 H       -7.9480     1.1830     1.8820 H     1 <1>   0.0800 
 33 H       -7.5330    -0.4620     1.4860 H     1 <1>   0.0800 
 34 H       -7.9080     1.7590    -2.1430 H     1 <1>   0.0800 
 35 H       -8.3660     3.3160    -1.5300 H     1 <1>   0.0800 
 36 H       -9.8580     0.1910     0.8280 H     1 <1>   0.0800 
 37 H       -8.9150    -0.3890    -0.5100 H     1 <1>   0.0800 
 38 H       -9.0000     3.5880     1.2570 H     1 <1>   0.1500 
 39 H      -11.0860     1.1010    -2.1950 H     1 <1>   0.0800 
 40 H      -12.7080     1.6810    -2.2440 H     1 <1>   0.0800 
 41 H      -12.2760     0.4150    -1.1180 H     1 <1>   0.0800 
 42 H      -10.7670     5.0140     2.1620 H     1 <1>   0.1500 
 43 H      -13.0660     4.7470     1.3930 H     1 <1>   0.1500 
 44 H      -14.3800     2.0130    -0.3730 H     1 <1>   0.0800 
 45 H      -14.1840     3.4120    -1.4110 H     1 <1>   0.0800 
 46 H      -14.7120     3.6060     0.2390 H     1 <1>   0.0800 
@<TRIPOS>BOND
  1   1   2  1   
  2   2   3  ar  
  3   2   4  ar  
  4   3   5  ar  
  5   3  23  1   
  6   4   6  ar  
  7   4  24  1   
  8   5   7  ar  
  9   5   8  1   
 10   6   7  ar  
 11   6  25  1   
 12   7  26  1   
 13   8   9  1   
 14   8  27  1   
 15   8  28  1   
 16   9  10  1   
 17   9  11  1   
 18   9  29  1   
 19  10  12  1   
 20  10  30  1   
 21  10  31  1   
 22  11  13  1   
 23  11  32  1   
 24  11  33  1   
 25  12  14  1   
 26  12  34  1   
 27  12  35  1   
 28  13  14  1   
 29  13  36  1   
 30  13  37  1   
 31  14  15  1   
 32  15  16  ar  
 33  15  17  ar  
 34  16  18  ar  
 35  16  19  1   
 36  17  20  ar  
 37  17  38  1   
 38  18  21  ar  
 39  18  22  1   
 40  19  39  1   
 41  19  40  1   
 42  19  41  1   
 43  20  21  ar  
 44  20  42  1   
 45  21  43  1   
 46  22  44  1   
 47  22  45  1   
 48  22  46  1   
@<TRIPOS>SUBSTRUCTURE
  1 ****  10 GROUP 4 **** **** 0

# MOE 2024.06 (io_trps.svl 2023.06)
