@<TRIPOS>MOLECULE
NONAME
56 58 1 0 0 
SMALL
USER_CHARGES


@<TRIPOS>ATOM
  1 N        0.0800     0.2070    -0.3720 N.4   1 <1>  -0.9590 
  2 C        1.3630     0.9790    -0.5780 C.3   1 <1>   0.4230 
  3 C       -1.1140     1.0040    -0.8730 C.3   1 <1>   0.3430 
  4 C       -0.1390    -0.2430     1.0410 C.3   1 <1>   0.3430 
  5 C        2.5760     0.0500    -0.4550 C.3   1 <1>  -0.1600 
  6 C        1.5160     2.1760     0.3730 C.3   1 <1>  -0.1600 
  7 C       -2.4530     0.2280    -1.0760 C.3   1 <1>   0.3430 
  8 C       -0.8190    -1.6120     1.1170 C.3   1 <1>  -0.1600 
  9 C        3.8790     0.8110    -0.7170 C.3   1 <1>   0.3430 
 10 C        2.8290     2.9190     0.1020 C.3   1 <1>   0.3430 
 11 N       -2.8950    -0.6850     0.0470 N.4   1 <1>  -0.9590 
 12 C       -2.0180    -1.8810     0.2030 C.3   1 <1>   0.3430 
 13 N        3.9870     1.9830     0.2050 N.4   1 <1>  -0.9590 
 14 C       -4.2960    -1.1560    -0.2350 C.3   1 <1>   0.2630 
 15 C        5.2580     2.7530    -0.0390 C.3   1 <1>   0.3430 
 16 C        6.5070     1.9750     0.3830 C.3   1 <1>  -0.0170 
 17 C        7.7090     2.8780     0.1920 C.ar  1 <1>  -0.1430 
 18 C        8.1310     3.7060     1.2220 C.ar  1 <1>  -0.1500 
 19 C        8.3880     2.8930    -1.0170 C.ar  1 <1>  -0.1500 
 20 C        9.2150     4.5460     1.0410 C.ar  1 <1>  -0.1500 
 21 C        9.4720     3.7340    -1.1970 C.ar  1 <1>  -0.1500 
 22 C        9.8850     4.5620    -0.1690 C.ar  1 <1>  -0.1500 
 23 H        0.1750    -0.6370    -0.9570 H     1 <1>   0.4500 
 24 H        1.3620     1.3640    -1.5870 H     1 <1>   0.0800 
 25 H       -0.8630     1.4540    -1.8200 H     1 <1>   0.0800 
 26 H       -1.3040     1.8170    -0.1900 H     1 <1>   0.0800 
 27 H       -0.7360     0.4880     1.5640 H     1 <1>   0.0800 
 28 H        0.8030    -0.3120     1.5610 H     1 <1>   0.0800 
 29 H        2.5040    -0.7410    -1.1810 H     1 <1>   0.0800 
 30 H        2.6350    -0.3950     0.5220 H     1 <1>   0.0800 
 31 H        1.5150     1.8660     1.4030 H     1 <1>   0.0800 
 32 H        0.7100     2.8730     0.2290 H     1 <1>   0.0800 
 33 H       -2.3730    -0.3510    -1.9820 H     1 <1>   0.0800 
 34 H       -3.2270     0.9590    -1.2520 H     1 <1>   0.0800 
 35 H       -1.1400    -1.7600     2.1340 H     1 <1>   0.0800 
 36 H       -0.0830    -2.3750     0.9330 H     1 <1>   0.0800 
 37 H        3.9040     1.1520    -1.7400 H     1 <1>   0.0800 
 38 H        4.7160     0.1460    -0.5690 H     1 <1>   0.0800 
 39 H        2.9430     3.7220     0.8150 H     1 <1>   0.0800 
 40 H        2.8040     3.3570    -0.8840 H     1 <1>   0.0800 
 41 H       -2.9520    -0.1770     0.9450 H     1 <1>   0.4500 
 42 H       -2.5850    -2.6970     0.6260 H     1 <1>   0.0800 
 43 H       -1.6760    -2.2040    -0.7680 H     1 <1>   0.0800 
 44 H        4.0500     1.6440     1.1780 H     1 <1>   0.4500 
 45 H       -4.3320    -1.7170    -1.1560 H     1 <1>   0.0800 
 46 H       -4.9690    -0.3170    -0.3200 H     1 <1>   0.0800 
 47 H       -4.6490    -1.7900     0.5640 H     1 <1>   0.0800 
 48 H        5.2380     3.6720     0.5250 H     1 <1>   0.0800 
 49 H        5.3420     3.0160    -1.0820 H     1 <1>   0.0800 
 50 H        6.6370     1.0910    -0.2150 H     1 <1>   0.0800 
 51 H        6.4420     1.6880     1.4180 H     1 <1>   0.0800 
 52 H        7.6290     3.7070     2.1740 H     1 <1>   0.1500 
 53 H        8.0890     2.2550    -1.8300 H     1 <1>   0.1500 
 54 H        9.5420     5.1880     1.8410 H     1 <1>   0.1500 
 55 H        9.9990     3.7450    -2.1360 H     1 <1>   0.1500 
 56 H       10.7300     5.2150    -0.3090 H     1 <1>   0.1500 
@<TRIPOS>BOND
  1   1   2  1   
  2   1   3  1   
  3   1   4  1   
  4   1  23  1   
  5   2   5  1   
  6   2   6  1   
  7   2  24  1   
  8   3   7  1   
  9   3  25  1   
 10   3  26  1   
 11   4   8  1   
 12   4  27  1   
 13   4  28  1   
 14   5   9  1   
 15   5  29  1   
 16   5  30  1   
 17   6  10  1   
 18   6  31  1   
 19   6  32  1   
 20   7  11  1   
 21   7  33  1   
 22   7  34  1   
 23   8  12  1   
 24   8  35  1   
 25   8  36  1   
 26   9  13  1   
 27   9  37  1   
 28   9  38  1   
 29  10  13  1   
 30  10  39  1   
 31  10  40  1   
 32  11  12  1   
 33  11  14  1   
 34  11  41  1   
 35  12  42  1   
 36  12  43  1   
 37  13  15  1   
 38  13  44  1   
 39  14  45  1   
 40  14  46  1   
 41  14  47  1   
 42  15  16  1   
 43  15  48  1   
 44  15  49  1   
 45  16  17  1   
 46  16  50  1   
 47  16  51  1   
 48  17  18  ar  
 49  17  19  ar  
 50  18  20  ar  
 51  18  52  1   
 52  19  21  ar  
 53  19  53  1   
 54  20  22  ar  
 55  20  54  1   
 56  21  22  ar  
 57  21  55  1   
 58  22  56  1   
@<TRIPOS>SUBSTRUCTURE
  1 ****  13 GROUP 4 **** **** 0

# MOE 2024.06 (io_trps.svl 2023.06)
