@<TRIPOS>MOLECULE
NONAME
38 38 1 0 0 
SMALL
USER_CHARGES


@<TRIPOS>ATOM
  1 CL       0.0580     0.1750     0.0410 Cl    1 <1>  -0.1770 
  2 C        1.7010     0.7650     0.0360 C.ar  1 <1>   0.1770 
  3 C        1.9320     2.1280     0.0380 C.ar  1 <1>  -0.1500 
  4 C        2.7450    -0.1390     0.0310 C.ar  1 <1>  -0.1500 
  5 C        3.2340     2.6040     0.0340 C.ar  1 <1>  -0.1440 
  6 C        4.0470     0.3290     0.0260 C.ar  1 <1>  -0.1500 
  7 C        4.2980     1.7030     0.0280 C.ar  1 <1>   0.0830 
  8 C        3.4830     4.1060     0.0360 C.3   1 <1>  -0.0960 
  9 O        5.5560     2.2210     0.0240 O.3   1 <1>  -0.3630 
 10 C        6.6970     1.4030     0.0180 C.3   1 <1>   0.1200 
 11 C        7.9120     2.3300     0.0150 C.3   1 <1>  -0.1600 
 12 C        9.2100     1.5320     0.0070 C.3   1 <1>   0.3430 
 13 N       10.3540     2.4750     0.0040 N.4   1 <1>  -0.9060 
 14 C       11.6680     1.7620    -0.0030 C.3   1 <1>   0.3430 
 15 C       12.8500     2.7350    -0.0060 C.3   1 <1>   0.1200 
 16 O       14.0020     1.9650    -0.0130 O.3   1 <1>  -0.5600 
 17 C       15.1890     2.6970    -0.0170 C.3   1 <1>   0.0400 
 18 H        1.0930     2.7990     0.0420 H     1 <1>   0.1500 
 19 H        2.5350    -1.1930     0.0300 H     1 <1>   0.1500 
 20 H        4.8420    -0.3910     0.0220 H     1 <1>   0.1500 
 21 H        2.5580     4.6540     0.0400 H     1 <1>   0.0800 
 22 H        4.0410     4.3840    -0.8400 H     1 <1>   0.0800 
 23 H        4.0470     4.3810     0.9080 H     1 <1>   0.0800 
 24 H        6.6670     0.7910    -0.8690 H     1 <1>   0.0800 
 25 H        6.6740     0.7880     0.9020 H     1 <1>   0.0800 
 26 H        7.8680     2.9470     0.8950 H     1 <1>   0.0800 
 27 H        7.8610     2.9510    -0.8630 H     1 <1>   0.0800 
 28 H        9.2460     0.9040    -0.8700 H     1 <1>   0.0800 
 29 H        9.2540     0.9000     0.8820 H     1 <1>   0.0800 
 30 H       10.2940     3.0820     0.8330 H     1 <1>   0.4500 
 31 H       10.2870     3.0850    -0.8210 H     1 <1>   0.4500 
 32 H       11.7380     1.1370    -0.8790 H     1 <1>   0.0800 
 33 H       11.7460     1.1340     0.8700 H     1 <1>   0.0800 
 34 H       12.8550     3.3440     0.8820 H     1 <1>   0.0800 
 35 H       12.8470     3.3470    -0.8920 H     1 <1>   0.0800 
 36 H       16.0120     2.0020    -0.0220 H     1 <1>   0.0800 
 37 H       15.2400     3.3060     0.8700 H     1 <1>   0.0800 
 38 H       15.2320     3.3100    -0.9010 H     1 <1>   0.0800 
@<TRIPOS>BOND
  1   1   2  1   
  2   2   3  ar  
  3   2   4  ar  
  4   3   5  ar  
  5   3  18  1   
  6   4   6  ar  
  7   4  19  1   
  8   5   7  ar  
  9   5   8  1   
 10   6   7  ar  
 11   6  20  1   
 12   7   9  1   
 13   8  21  1   
 14   8  22  1   
 15   8  23  1   
 16   9  10  1   
 17  10  11  1   
 18  10  24  1   
 19  10  25  1   
 20  11  12  1   
 21  11  26  1   
 22  11  27  1   
 23  12  13  1   
 24  12  28  1   
 25  12  29  1   
 26  13  14  1   
 27  13  30  1   
 28  13  31  1   
 29  14  15  1   
 30  14  32  1   
 31  14  33  1   
 32  15  16  1   
 33  15  34  1   
 34  15  35  1   
 35  16  17  1   
 36  17  36  1   
 37  17  37  1   
 38  17  38  1   
@<TRIPOS>SUBSTRUCTURE
  1 ****  10 GROUP 4 **** **** 0

# MOE 2024.06 (io_trps.svl 2023.06)
