@<TRIPOS>MOLECULE
NONAME
41 44 1 0 0 
SMALL
USER_CHARGES


@<TRIPOS>ATOM
  1 CL      -0.5410     0.0110     1.0870 Cl    1 <1>  -0.1770 
  2 C       -1.6970     1.2280     0.6080 C.ar  1 <1>   0.1770 
  3 C       -3.0230     1.0850     0.9690 C.ar  1 <1>  -0.1500 
  4 C       -1.2710     2.3170    -0.1280 C.ar  1 <1>  -0.1500 
  5 C       -3.9370     2.0520     0.5880 C.ar  1 <1>  -0.1500 
  6 C       -2.1910     3.2800    -0.5050 C.ar  1 <1>  -0.1500 
  7 C       -3.5360     3.1670    -0.1500 C.ar  1 <1>  -0.0230 
  8 N       -4.4690     4.1710    -0.5440 N.pl3 1 <1>   0.5930 
  9 N       -4.3630     4.8440    -1.7350 N.2   1 <1>  -0.7070 
 10 C       -5.5620     4.6370     0.1540 C.ar  1 <1>   0.1050 
 11 C       -5.3490     5.6740    -1.7600 C.2   1 <1>   0.1390 
 12 N       -6.0540     4.2960     1.3610 N.ar  1 <1>  -0.5670 
 13 C       -6.1440     5.6030    -0.6120 C.ar  1 <1>   0.0000 
 14 C       -7.1230     4.9570     1.7300 C.ar  1 <1>   0.4700 
 15 C       -7.2850     6.2340    -0.1110 C.ar  1 <1>   0.4100 
 16 N       -7.7830     5.9160     1.0590 N.ar  1 <1>  -0.6200 
 17 N       -7.9320     7.2080    -0.8280 N.pl3 1 <1>  -0.8380 
 18 C       -9.2340     6.8260    -1.4510 C.3   1 <1>   0.2090 
 19 C       -7.9090     8.5900    -0.2600 C.3   1 <1>   0.2090 
 20 C      -10.4110     7.0780    -0.4820 C.3   1 <1>   0.3430 
 21 C       -9.1030     8.8240     0.6930 C.3   1 <1>   0.3430 
 22 N      -10.4320     8.4900     0.0560 N.4   1 <1>  -0.9590 
 23 C      -11.5490     8.6720     1.0300 C.3   1 <1>   0.2630 
 24 H       -3.3310     0.2280     1.5400 H     1 <1>   0.1500 
 25 H       -0.2350     2.4060    -0.4010 H     1 <1>   0.1500 
 26 H       -4.9700     1.9320     0.8700 H     1 <1>   0.1500 
 27 H       -1.8620     4.1290    -1.0830 H     1 <1>   0.1500 
 28 H       -5.5470     6.3550    -2.5720 H     1 <1>   0.1500 
 29 H       -7.5320     4.7010     2.6940 H     1 <1>   0.1500 
 30 H       -9.2120     5.7810    -1.7140 H     1 <1>   0.0800 
 31 H       -9.3760     7.3870    -2.3580 H     1 <1>   0.0800 
 32 H       -7.9300     9.3070    -1.0620 H     1 <1>   0.0800 
 33 H       -6.9910     8.7360     0.2850 H     1 <1>   0.0800 
 34 H      -10.3150     6.3850     0.3390 H     1 <1>   0.0800 
 35 H      -11.3370     6.8630    -0.9880 H     1 <1>   0.0800 
 36 H       -9.0980     9.8510     1.0170 H     1 <1>   0.0800 
 37 H       -8.9570     8.2020     1.5610 H     1 <1>   0.0800 
 38 H      -10.5690     9.1280    -0.7400 H     1 <1>   0.4500 
 39 H      -11.4220     8.0100     1.8720 H     1 <1>   0.0800 
 40 H      -12.4960     8.4540     0.5620 H     1 <1>   0.0800 
 41 H      -11.5710     9.6880     1.3910 H     1 <1>   0.0800 
@<TRIPOS>BOND
  1   1   2  1   
  2   2   3  ar  
  3   2   4  ar  
  4   3   5  ar  
  5   3  24  1   
  6   4   6  ar  
  7   4  25  1   
  8   5   7  ar  
  9   5  26  1   
 10   6   7  ar  
 11   6  27  1   
 12   7   8  1   
 13   8   9  1   
 14   8  10  1   
 15   9  11  2   
 16  10  12  ar  
 17  10  13  ar  
 18  11  13  1   
 19  11  28  1   
 20  12  14  ar  
 21  13  15  ar  
 22  14  16  ar  
 23  14  29  1   
 24  15  16  ar  
 25  15  17  1   
 26  17  18  1   
 27  17  19  1   
 28  18  20  1   
 29  18  30  1   
 30  18  31  1   
 31  19  21  1   
 32  19  32  1   
 33  19  33  1   
 34  20  22  1   
 35  20  34  1   
 36  20  35  1   
 37  21  22  1   
 38  21  36  1   
 39  21  37  1   
 40  22  23  1   
 41  22  38  1   
 42  23  39  1   
 43  23  40  1   
 44  23  41  1   
@<TRIPOS>SUBSTRUCTURE
  1 ****  10 GROUP 4 **** **** 0

# MOE 2024.06 (io_trps.svl 2023.06)
