@<TRIPOS>MOLECULE
NONAME
49 49 1 0 0 
SMALL
USER_CHARGES


@<TRIPOS>ATOM
  1 N        0.4580    -0.2750    -0.0240 N.4   1 <1>  -0.9590 
  2 C        1.6700     0.6200    -0.1500 C.3   1 <1>   0.3430 
  3 C        0.6290    -1.6240    -0.6490 C.3   1 <1>   0.3430 
  4 C       -0.7360     0.4070    -0.6080 C.3   1 <1>   0.3430 
  5 C        2.9380     0.1270     0.6070 C.3   1 <1>   0.3430 
  6 C        0.9520    -2.6380     0.4410 C.3   1 <1>  -0.2400 
  7 C       -2.0040    -0.1940    -0.0120 C.3   1 <1>  -0.2400 
  8 N        4.1180     1.0690     0.5770 N.4   1 <1>  -0.9590 
  9 C        4.7360     1.2410    -0.7680 C.3   1 <1>   0.4810 
 10 C        3.8800     2.3840     1.2610 C.3   1 <1>   0.2630 
 11 C        6.1870     1.5970    -0.5320 C.2   1 <1>  -0.2760 
 12 C        7.0810     0.6830    -0.1070 C.2   1 <1>  -0.1780 
 13 C        6.5320     3.0490    -0.8640 C.3   1 <1>  -0.1020 
 14 C        8.4840     0.8570     0.1860 C.ar  1 <1>   0.0280 
 15 C        9.4280     0.0130    -0.3890 C.ar  1 <1>  -0.1500 
 16 C        8.9350     1.8440     1.0590 C.ar  1 <1>  -0.1500 
 17 C       10.7760     0.1520    -0.1100 C.ar  1 <1>  -0.1500 
 18 C       10.2810     1.9890     1.3400 C.ar  1 <1>  -0.1500 
 19 C       11.2050     1.1420     0.7550 C.ar  1 <1>  -0.1500 
 20 H        0.2190    -0.4290     0.9680 H     1 <1>   0.4500 
 21 H        1.9100     0.7320    -1.1950 H     1 <1>   0.0800 
 22 H        1.4110     1.5930     0.2350 H     1 <1>   0.0800 
 23 H       -0.2860    -1.9270    -1.1350 H     1 <1>   0.0800 
 24 H        1.4070    -1.6060    -1.3950 H     1 <1>   0.0800 
 25 H       -0.7150     1.4590    -0.3710 H     1 <1>   0.0800 
 26 H       -0.7450     0.3040    -1.6830 H     1 <1>   0.0800 
 27 H        3.2430    -0.8170     0.1850 H     1 <1>   0.0800 
 28 H        2.6700    -0.0460     1.6360 H     1 <1>   0.0800 
 29 H        0.1560    -2.6870     1.1640 H     1 <1>   0.0800 
 30 H        1.8800    -2.4250     0.9370 H     1 <1>   0.0800 
 31 H        1.0390    -3.6130    -0.0070 H     1 <1>   0.0800 
 32 H       -2.0200    -0.0820     1.0570 H     1 <1>   0.0800 
 33 H       -2.1150    -1.2320    -0.2690 H     1 <1>   0.0800 
 34 H       -2.8580     0.3290    -0.4070 H     1 <1>   0.0800 
 35 H        4.8870     0.6250     1.1110 H     1 <1>   0.4500 
 36 H        4.6960     0.3140    -1.3160 H     1 <1>   0.0800 
 37 H        4.2380     2.0090    -1.3390 H     1 <1>   0.0800 
 38 H        3.1850     2.9890     0.7020 H     1 <1>   0.0800 
 39 H        4.8070     2.9270     1.3520 H     1 <1>   0.0800 
 40 H        3.4880     2.2280     2.2540 H     1 <1>   0.0800 
 41 H        6.7790    -0.3400     0.0470 H     1 <1>   0.1500 
 42 H        7.5940     3.2170    -0.8290 H     1 <1>   0.0800 
 43 H        6.2120     3.2910    -1.8630 H     1 <1>   0.0800 
 44 H        6.0660     3.7320    -0.1780 H     1 <1>   0.0800 
 45 H        9.1080    -0.7600    -1.0640 H     1 <1>   0.1500 
 46 H        8.2280     2.5040     1.5260 H     1 <1>   0.1500 
 47 H       11.4930    -0.5090    -0.5670 H     1 <1>   0.1500 
 48 H       10.6140     2.7590     2.0150 H     1 <1>   0.1500 
 49 H       12.2530     1.2530     0.9720 H     1 <1>   0.1500 
@<TRIPOS>BOND
  1   1   2  1   
  2   1   3  1   
  3   1   4  1   
  4   1  20  1   
  5   2   5  1   
  6   2  21  1   
  7   2  22  1   
  8   3   6  1   
  9   3  23  1   
 10   3  24  1   
 11   4   7  1   
 12   4  25  1   
 13   4  26  1   
 14   5   8  1   
 15   5  27  1   
 16   5  28  1   
 17   6  29  1   
 18   6  30  1   
 19   6  31  1   
 20   7  32  1   
 21   7  33  1   
 22   7  34  1   
 23   8   9  1   
 24   8  10  1   
 25   8  35  1   
 26   9  11  1   
 27   9  36  1   
 28   9  37  1   
 29  10  38  1   
 30  10  39  1   
 31  10  40  1   
 32  11  12  2   
 33  11  13  1   
 34  12  14  1   
 35  12  41  1   
 36  13  42  1   
 37  13  43  1   
 38  13  44  1   
 39  14  15  ar  
 40  14  16  ar  
 41  15  17  ar  
 42  15  45  1   
 43  16  18  ar  
 44  16  46  1   
 45  17  19  ar  
 46  17  47  1   
 47  18  19  ar  
 48  18  48  1   
 49  19  49  1   
@<TRIPOS>SUBSTRUCTURE
  1 ****   9 GROUP 4 **** **** 0

# MOE 2024.06 (io_trps.svl 2023.06)
