@<TRIPOS>MOLECULE
NONAME
50 52 1 0 0 
SMALL
USER_CHARGES


@<TRIPOS>ATOM
  1 S        0.7920    -0.0490     1.5220 S.o2  1 <1>   1.4470 
  2 O        1.8170     0.0860     2.5390 O.2   1 <1>  -0.6500 
  3 O       -0.5170     0.4940     1.8150 O.2   1 <1>  -0.6500 
  4 N        1.4050     0.8380     0.2100 N.am  1 <1>  -0.8490 
  5 C        0.6190    -1.7660     0.8860 C.ar  1 <1>  -0.0090 
  6 C        2.7730     0.4230    -0.1370 C.3   1 <1>   0.1960 
  7 C        1.3210     2.2790     0.4620 C.3   1 <1>   0.1960 
  8 C        1.1350    -2.8730     1.5780 C.ar  1 <1>  -0.1440 
  9 C       -0.0490    -2.0200    -0.3220 C.ar  1 <1>  -0.1430 
 10 C        3.2680     1.1490    -1.3930 C.3   1 <1>  -0.0190 
 11 C        1.7460     3.0600    -0.7860 C.3   1 <1>  -0.1600 
 12 C        1.0250    -4.1530     1.0550 C.ar  1 <1>  -0.1500 
 13 C        1.8310    -2.7600     2.9300 C.3   1 <1>  -0.0970 
 14 C       -0.1460    -3.3080    -0.8260 C.ar  1 <1>  -0.1500 
 15 C       -0.7100    -0.9240    -1.1550 C.3   1 <1>  -0.0970 
 16 C        4.6750     0.6770    -1.7270 C.2   1 <1>   0.5690 
 17 C        3.1630     2.6790    -1.2310 C.3   1 <1>  -0.1600 
 18 C        0.3900    -4.3800    -0.1470 C.ar  1 <1>  -0.1430 
 19 O        4.8220    -0.0710    -2.6630 O.2   1 <1>  -0.5700 
 20 N        5.7180     1.0930    -0.9570 N.am  1 <1>  -0.5790 
 21 C        0.2810    -5.7840    -0.7150 C.3   1 <1>  -0.0970 
 22 C        7.1240     0.7130    -1.1500 C.3   1 <1>   0.0490 
 23 C        7.9790     0.5490     0.0620 C.3   1 <1>  -0.2000 
 24 C        8.1720     1.7290    -0.8410 C.3   1 <1>  -0.2000 
 25 H        2.7910    -0.6390    -0.3240 H     1 <1>   0.0800 
 26 H        3.4370     0.6270     0.6880 H     1 <1>   0.0800 
 27 H        1.9460     2.5420     1.3000 H     1 <1>   0.0800 
 28 H        0.3050     2.5460     0.7050 H     1 <1>   0.0800 
 29 H        2.6300     0.8510    -2.2070 H     1 <1>   0.0800 
 30 H        1.7020     4.1140    -0.5770 H     1 <1>   0.0800 
 31 H        1.0460     2.8540    -1.5770 H     1 <1>   0.0800 
 32 H        1.4360    -4.9910     1.5900 H     1 <1>   0.1500 
 33 H        2.7870    -2.2820     2.8170 H     1 <1>   0.0800 
 34 H        1.9950    -3.7270     3.3690 H     1 <1>   0.0800 
 35 H        1.2290    -2.1930     3.6170 H     1 <1>   0.0800 
 36 H       -0.6480    -3.4830    -1.7620 H     1 <1>   0.1500 
 37 H       -1.2500    -0.2340    -0.5340 H     1 <1>   0.0800 
 38 H       -1.4150    -1.3410    -1.8510 H     1 <1>   0.0800 
 39 H        0.0320    -0.3860    -1.7170 H     1 <1>   0.0800 
 40 H        3.3970     3.1610    -2.1650 H     1 <1>   0.0800 
 41 H        3.8620     3.0250    -0.4900 H     1 <1>   0.0800 
 42 H        5.5550     1.7370    -0.1860 H     1 <1>   0.3700 
 43 H        1.0920    -5.9630    -1.3970 H     1 <1>   0.0800 
 44 H       -0.6500    -5.9040    -1.2400 H     1 <1>   0.0800 
 45 H        0.3210    -6.5150     0.0730 H     1 <1>   0.0800 
 46 H        7.2780     0.0470    -1.9860 H     1 <1>   0.1000 
 47 H        8.7320    -0.2200     0.0610 H     1 <1>   0.1000 
 48 H        7.5400     0.6960     1.0340 H     1 <1>   0.1000 
 49 H        7.8710     2.7040    -0.5020 H     1 <1>   0.1000 
 50 H        9.0550     1.7600    -1.4550 H     1 <1>   0.1000 
@<TRIPOS>BOND
  1   1   2  2   
  2   1   3  2   
  3   1   4  am  
  4   1   5  1   
  5   4   6  1   
  6   4   7  1   
  7   5   8  ar  
  8   5   9  ar  
  9   6  10  1   
 10   6  25  1   
 11   6  26  1   
 12   7  11  1   
 13   7  27  1   
 14   7  28  1   
 15   8  12  ar  
 16   8  13  1   
 17   9  14  ar  
 18   9  15  1   
 19  10  16  1   
 20  10  17  1   
 21  10  29  1   
 22  11  17  1   
 23  11  30  1   
 24  11  31  1   
 25  12  18  ar  
 26  12  32  1   
 27  13  33  1   
 28  13  34  1   
 29  13  35  1   
 30  14  18  ar  
 31  14  36  1   
 32  15  37  1   
 33  15  38  1   
 34  15  39  1   
 35  16  19  2   
 36  16  20  am  
 37  17  40  1   
 38  17  41  1   
 39  18  21  1   
 40  20  22  1   
 41  20  42  1   
 42  21  43  1   
 43  21  44  1   
 44  21  45  1   
 45  22  23  1   
 46  22  24  1   
 47  22  46  1   
 48  23  24  1   
 49  23  47  1   
 50  23  48  1   
 51  24  49  1   
 52  24  50  1   
@<TRIPOS>SUBSTRUCTURE
  1 ****   6 GROUP 4 **** **** 0

# MOE 2024.06 (io_trps.svl 2023.06)
