@<TRIPOS>MOLECULE
NONAME
47 48 1 0 0 
SMALL
USER_CHARGES


@<TRIPOS>ATOM
  1 CL       0.1450    -1.5200     0.3750 Cl    1 <1>  -0.1770 
  2 C        1.6870    -0.8220    -0.0410 C.ar  1 <1>   0.1770 
  3 C        2.6420    -0.6460     0.9430 C.ar  1 <1>  -0.1500 
  4 C        1.9370    -0.4510    -1.3490 C.ar  1 <1>  -0.1500 
  5 C        3.8660    -0.0960     0.6070 C.ar  1 <1>  -0.1500 
  6 C        3.1640     0.0970    -1.6740 C.ar  1 <1>  -0.1500 
  7 C        4.1550     0.2740    -0.7090 C.ar  1 <1>   0.0280 
  8 C        5.4250     0.8320    -1.0750 C.2   1 <1>  -0.1780 
  9 C        6.6700     0.3690    -0.7870 C.2   1 <1>   0.1230 
 10 N        6.7850    -0.8520    -0.0800 N.am  1 <1>  -0.5390 
 11 C        7.8570     1.1010    -1.2110 C.2   1 <1>   0.6160 
 12 C        7.7930    -1.3730     0.6800 C.2   1 <1>   0.5690 
 13 O        7.9090     2.3150    -1.1340 O.2   1 <1>  -0.5700 
 14 N        8.9620     0.4490    -1.6800 N.am  1 <1>  -0.7300 
 15 O        8.8770    -0.8560     0.8060 O.2   1 <1>  -0.5700 
 16 C        7.5200    -2.6720     1.3950 C.3   1 <1>  -0.1790 
 17 C       10.3070     1.0640    -1.6910 C.3   1 <1>   0.1400 
 18 C       10.6880     1.4780    -0.2570 C.3   1 <1>   0.3430 
 19 N       12.0110     2.1730    -0.1770 N.4   1 <1>  -0.9590 
 20 C       13.1870     1.2890    -0.4890 C.3   1 <1>   0.3430 
 21 C       12.1930     2.8370     1.1550 C.3   1 <1>   0.3430 
 22 C       14.5310     1.9990    -0.2030 C.3   1 <1>   0.1200 
 23 C       13.5450     3.5860     1.2310 C.3   1 <1>   0.1200 
 24 O       14.3330     3.3540     0.0920 O.3   1 <1>  -0.5600 
 25 H        2.4190    -0.9320     1.9560 H     1 <1>   0.1500 
 26 H        1.1760    -0.5910    -2.0960 H     1 <1>   0.1500 
 27 H        4.6010     0.0640     1.3760 H     1 <1>   0.1500 
 28 H        3.3610     0.3890    -2.6920 H     1 <1>   0.1500 
 29 H        5.3440     1.7340    -1.6600 H     1 <1>   0.1500 
 30 H        5.9080    -1.3750    -0.0420 H     1 <1>   0.3700 
 31 H        8.9490    -0.5670    -1.5430 H     1 <1>   0.3700 
 32 H        6.7140    -2.5430     2.0920 H     1 <1>   0.0800 
 33 H        8.3960    -2.9830     1.9350 H     1 <1>   0.0800 
 34 H        7.2630    -3.4360     0.6850 H     1 <1>   0.0800 
 35 H       11.0120     0.3540    -2.0840 H     1 <1>   0.0800 
 36 H       10.2810     1.9330    -2.3280 H     1 <1>   0.0800 
 37 H       10.6980     0.6030     0.3720 H     1 <1>   0.0800 
 38 H        9.9220     2.1420     0.1090 H     1 <1>   0.0800 
 39 H       12.0390     2.9440    -0.8620 H     1 <1>   0.4500 
 40 H       13.1390     0.3880     0.1010 H     1 <1>   0.0800 
 41 H       13.1610     0.9990    -1.5260 H     1 <1>   0.0800 
 42 H       11.3920     3.5360     1.3340 H     1 <1>   0.0800 
 43 H       12.1590     2.0980     1.9390 H     1 <1>   0.0800 
 44 H       15.1740     1.9390    -1.0640 H     1 <1>   0.0800 
 45 H       15.0380     1.5370     0.6270 H     1 <1>   0.0800 
 46 H       14.0990     3.2800     2.1020 H     1 <1>   0.0800 
 47 H       13.3750     4.6470     1.2980 H     1 <1>   0.0800 
@<TRIPOS>BOND
  1   1   2  1   
  2   2   3  ar  
  3   2   4  ar  
  4   3   5  ar  
  5   3  25  1   
  6   4   6  ar  
  7   4  26  1   
  8   5   7  ar  
  9   5  27  1   
 10   6   7  ar  
 11   6  28  1   
 12   7   8  1   
 13   8   9  2   
 14   8  29  1   
 15   9  10  1   
 16   9  11  1   
 17  10  12  am  
 18  10  30  1   
 19  11  13  2   
 20  11  14  am  
 21  12  15  2   
 22  12  16  1   
 23  14  17  1   
 24  14  31  1   
 25  16  32  1   
 26  16  33  1   
 27  16  34  1   
 28  17  18  1   
 29  17  35  1   
 30  17  36  1   
 31  18  19  1   
 32  18  37  1   
 33  18  38  1   
 34  19  20  1   
 35  19  21  1   
 36  19  39  1   
 37  20  22  1   
 38  20  40  1   
 39  20  41  1   
 40  21  23  1   
 41  21  42  1   
 42  21  43  1   
 43  22  24  1   
 44  22  44  1   
 45  22  45  1   
 46  23  24  1   
 47  23  46  1   
 48  23  47  1   
@<TRIPOS>SUBSTRUCTURE
  1 ****  11 GROUP 4 **** **** 0

# MOE 2024.06 (io_trps.svl 2023.06)
