@<TRIPOS>MOLECULE
NONAME
52 54 1 0 0 
SMALL
USER_CHARGES


@<TRIPOS>ATOM
  1 S       -1.3250     0.8560    -2.9100 S.3   1 <1>  -0.0800 
  2 C       -0.0610     1.4130    -1.8240 C.2   1 <1>   0.1040 
  3 C       -2.4790     0.7160    -1.5960 C.2   1 <1>  -0.1400 
  4 N        1.2020     1.6980    -2.3140 N.am  1 <1>  -0.4940 
  5 C       -0.5260     1.4840    -0.5400 C.2   1 <1>  -0.0860 
  6 C       -1.9050     1.0780    -0.4360 C.2   1 <1>  -0.1500 
  7 C       -3.8690     0.2340    -1.9510 C.3   1 <1>  -0.0600 
  8 C        1.7250     1.8610    -3.5690 C.2   1 <1>   0.5690 
  9 C        0.2440     1.9210     0.5900 C.2   1 <1>   0.8060 
 10 O        1.0960     1.7740    -4.5940 O.2   1 <1>  -0.5700 
 11 C        3.2190     2.1910    -3.6360 C.3   1 <1>   0.1710 
 12 O        1.3930     2.3200     0.5060 O.2   1 <1>  -0.5700 
 13 O       -0.3350     1.8910     1.7960 O.3   1 <1>  -0.4300 
 14 N        3.8030     2.5930    -2.3220 N.3   1 <1>  -0.8100 
 15 C        0.3530     2.3040     2.9550 C.3   1 <1>   0.1200 
 16 C        5.2780     2.4730    -2.3260 C.3   1 <1>   0.1100 
 17 C        3.4310     3.9840    -1.9540 C.3   1 <1>   0.1100 
 18 C       -0.5870     2.1430     4.1450 C.3   1 <1>  -0.2400 
 19 C        5.8890     2.8460    -0.9600 C.3   1 <1>   0.2090 
 20 C        3.9950     4.3830    -0.5780 C.3   1 <1>   0.2090 
 21 N        5.4780     4.2170    -0.5390 N.pl3 1 <1>  -0.8380 
 22 C        6.1090     4.7110     0.5970 C.ar  1 <1>   0.1000 
 23 C        6.9970     5.7710     0.4810 C.ar  1 <1>  -0.1500 
 24 C        5.8740     4.1690     1.8560 C.ar  1 <1>  -0.1500 
 25 C        7.6370     6.2830     1.5950 C.ar  1 <1>  -0.1500 
 26 C        6.5120     4.6770     2.9730 C.ar  1 <1>  -0.1500 
 27 C        7.3950     5.7350     2.8440 C.ar  1 <1>  -0.1500 
 28 H        1.9210     1.8970    -1.6020 H     1 <1>   0.3700 
 29 H       -2.4070     1.0780     0.5160 H     1 <1>   0.1500 
 30 H       -4.3200     0.9080    -2.6570 H     1 <1>   0.0800 
 31 H       -4.4840     0.1890    -1.0710 H     1 <1>   0.0800 
 32 H       -3.8150    -0.7460    -2.3900 H     1 <1>   0.0800 
 33 H        3.3730     2.9680    -4.3640 H     1 <1>   0.0800 
 34 H        3.7160     1.3050    -3.9900 H     1 <1>   0.0800 
 35 H        0.6460     3.3340     2.8320 H     1 <1>   0.0800 
 36 H        1.2300     1.6890     3.0710 H     1 <1>   0.0800 
 37 H        5.6980     3.1180    -3.0790 H     1 <1>   0.0800 
 38 H        5.5550     1.4590    -2.5580 H     1 <1>   0.0800 
 39 H        2.3600     4.0850    -1.9230 H     1 <1>   0.0800 
 40 H        3.8080     4.6720    -2.6900 H     1 <1>   0.0800 
 41 H       -1.4620     2.7550     4.0120 H     1 <1>   0.0800 
 42 H       -0.0880     2.4520     5.0460 H     1 <1>   0.0800 
 43 H       -0.8790     1.1140     4.2510 H     1 <1>   0.0800 
 44 H        6.9620     2.8040    -1.0230 H     1 <1>   0.0800 
 45 H        5.5670     2.1310    -0.2230 H     1 <1>   0.0800 
 46 H        3.5420     3.7710     0.1820 H     1 <1>   0.0800 
 47 H        3.7500     5.4100    -0.3720 H     1 <1>   0.0800 
 48 H        7.1750     6.1860    -0.4930 H     1 <1>   0.1500 
 49 H        5.1880     3.3490     1.9540 H     1 <1>   0.1500 
 50 H        8.3220     7.1050     1.4900 H     1 <1>   0.1500 
 51 H        6.3220     4.2500     3.9420 H     1 <1>   0.1500 
 52 H        7.8930     6.1320     3.7120 H     1 <1>   0.1500 
@<TRIPOS>BOND
  1   1   2  1   
  2   1   3  1   
  3   2   4  1   
  4   2   5  2   
  5   3   6  2   
  6   3   7  1   
  7   4   8  am  
  8   4  28  1   
  9   5   6  1   
 10   5   9  1   
 11   6  29  1   
 12   7  30  1   
 13   7  31  1   
 14   7  32  1   
 15   8  10  2   
 16   8  11  1   
 17   9  12  2   
 18   9  13  1   
 19  11  14  1   
 20  11  33  1   
 21  11  34  1   
 22  13  15  1   
 23  14  16  1   
 24  14  17  1   
 25  15  18  1   
 26  15  35  1   
 27  15  36  1   
 28  16  19  1   
 29  16  37  1   
 30  16  38  1   
 31  17  20  1   
 32  17  39  1   
 33  17  40  1   
 34  18  41  1   
 35  18  42  1   
 36  18  43  1   
 37  19  21  1   
 38  19  44  1   
 39  19  45  1   
 40  20  21  1   
 41  20  46  1   
 42  20  47  1   
 43  21  22  1   
 44  22  23  ar  
 45  22  24  ar  
 46  23  25  ar  
 47  23  48  1   
 48  24  26  ar  
 49  24  49  1   
 50  25  27  ar  
 51  25  50  1   
 52  26  27  ar  
 53  26  51  1   
 54  27  52  1   
@<TRIPOS>SUBSTRUCTURE
  1 ****  12 GROUP 4 **** **** 0

# MOE 2024.06 (io_trps.svl 2023.06)
