@<TRIPOS>MOLECULE
NONAME
37 38 1 0 0 
SMALL
USER_CHARGES


@<TRIPOS>ATOM
  1 S       -0.0580     0.0700    -0.5650 S.3   1 <1>  -0.0800 
  2 C        1.2050     0.2140     0.6180 C.2   1 <1>   0.4420 
  3 C       -1.1850    -0.0560     0.7470 C.2   1 <1>   0.1980 
  4 N        0.7490     0.1590     1.8150 N.2   1 <1>  -0.3380 
  5 N        2.5310     0.3560     0.2720 N.am  1 <1>  -0.4940 
  6 N       -0.6080     0.0080     1.8820 N.2   1 <1>  -0.3380 
  7 C       -2.6790    -0.2220     0.4200 C.3   1 <1>   0.1800 
  8 C        3.1920     0.5100    -0.9200 C.2   1 <1>   0.5440 
  9 C       -3.5070    -0.3130     1.7140 C.3   1 <1>  -0.2400 
 10 C       -2.9070    -1.5090    -0.3900 C.3   1 <1>  -0.2400 
 11 C       -3.1830     0.9840    -0.3900 C.3   1 <1>  -0.2400 
 12 O        2.5410     0.6110    -1.9400 O.2   1 <1>  -0.5700 
 13 C        4.6490     0.5410    -0.9760 C.ar  1 <1>   0.0860 
 14 C        5.4890     0.7460     0.1380 C.ar  1 <1>   0.0830 
 15 C        5.2760     0.3540    -2.2140 C.ar  1 <1>  -0.1500 
 16 O        4.9280     0.9430     1.3600 O.3   1 <1>  -0.3630 
 17 C        6.8760     0.7500    -0.0150 C.ar  1 <1>  -0.1500 
 18 C        6.6490     0.3620    -2.3580 C.ar  1 <1>  -0.1500 
 19 C        5.6760     1.2340     2.5230 C.3   1 <1>   0.0400 
 20 C        7.4530     0.5590    -1.2540 C.ar  1 <1>  -0.1500 
 21 H        3.1520     0.4020     1.0820 H     1 <1>   0.3700 
 22 H       -3.3770     0.5780     2.3020 H     1 <1>   0.0800 
 23 H       -3.1850    -1.1540     2.3030 H     1 <1>   0.0800 
 24 H       -4.5530    -0.4290     1.4940 H     1 <1>   0.0800 
 25 H       -2.5360    -2.3580     0.1560 H     1 <1>   0.0800 
 26 H       -2.3960    -1.4630    -1.3340 H     1 <1>   0.0800 
 27 H       -3.9550    -1.6560    -0.5810 H     1 <1>   0.0800 
 28 H       -3.0080     1.8950     0.1550 H     1 <1>   0.0800 
 29 H       -4.2380     0.8980    -0.5820 H     1 <1>   0.0800 
 30 H       -2.6740     1.0510    -1.3350 H     1 <1>   0.0800 
 31 H        4.6690     0.1980    -3.0900 H     1 <1>   0.1500 
 32 H        7.5320     0.9010     0.8210 H     1 <1>   0.1500 
 33 H        7.0920     0.2140    -3.3290 H     1 <1>   0.1500 
 34 H        4.9870     1.3780     3.3370 H     1 <1>   0.0800 
 35 H        6.2400     2.1360     2.3610 H     1 <1>   0.0800 
 36 H        6.3260     0.4050     2.7390 H     1 <1>   0.0800 
 37 H        8.5240     0.5650    -1.3620 H     1 <1>   0.1500 
@<TRIPOS>BOND
  1   1   2  1   
  2   1   3  1   
  3   2   4  2   
  4   2   5  1   
  5   3   6  2   
  6   3   7  1   
  7   4   6  1   
  8   5   8  am  
  9   5  21  1   
 10   7   9  1   
 11   7  10  1   
 12   7  11  1   
 13   8  12  2   
 14   8  13  1   
 15   9  22  1   
 16   9  23  1   
 17   9  24  1   
 18  10  25  1   
 19  10  26  1   
 20  10  27  1   
 21  11  28  1   
 22  11  29  1   
 23  11  30  1   
 24  13  14  ar  
 25  13  15  ar  
 26  14  16  1   
 27  14  17  ar  
 28  15  18  ar  
 29  15  31  1   
 30  16  19  1   
 31  17  20  ar  
 32  17  32  1   
 33  18  20  ar  
 34  18  33  1   
 35  19  34  1   
 36  19  35  1   
 37  19  36  1   
 38  20  37  1   
@<TRIPOS>SUBSTRUCTURE
  1 ****   5 GROUP 4 **** **** 0

# MOE 2024.06 (io_trps.svl 2023.06)
