@<TRIPOS>MOLECULE
NONAME
43 44 1 0 0 
SMALL
USER_CHARGES


@<TRIPOS>ATOM
  1 CL      -2.9740    -1.9920    -1.5690 Cl    1 <1>  -0.1770 
  2 C       -2.3170    -1.9850     0.0560 C.ar  1 <1>   0.1770 
  3 C       -0.9890    -2.3680     0.2680 C.ar  1 <1>   0.1990 
  4 C       -3.1440    -1.5950     1.0930 C.ar  1 <1>  -0.1500 
  5 N       -0.1570    -2.7570    -0.7830 N.am  1 <1>  -0.6930 
  6 C       -0.5080    -2.3480     1.5720 C.ar  1 <1>  -0.1500 
  7 C       -2.6480    -1.5800     2.3870 C.ar  1 <1>  -0.1500 
  8 S        0.1980    -4.4290    -1.0570 S.o2  1 <1>   1.3330 
  9 C        0.8320    -1.7550    -1.2920 C.3   1 <1>   0.2570 
 10 C       -1.3340    -1.9580     2.6080 C.ar  1 <1>   0.1770 
 11 O        1.3190    -4.4740    -1.9670 O.2   1 <1>  -0.6500 
 12 O        0.2830    -5.0670     0.2320 O.2   1 <1>  -0.6500 
 13 C       -1.2550    -4.9920    -1.9140 C.3   1 <1>  -0.1350 
 14 C        2.1150    -1.6880    -0.4570 C.2   1 <1>   0.5690 
 15 CL      -0.7120    -1.9420     4.2380 Cl    1 <1>  -0.1770 
 16 O        2.2920    -0.7320     0.2600 O.2   1 <1>  -0.5700 
 17 N        3.0050    -2.7110    -0.5290 N.am  1 <1>  -0.7300 
 18 C        4.1710    -2.8980     0.3410 C.3   1 <1>   0.2200 
 19 C        5.3920    -3.2080    -0.5290 C.3   1 <1>  -0.1600 
 20 C        3.8710    -4.0460     1.3100 C.3   1 <1>  -0.1600 
 21 C        6.6200    -3.5360     0.3340 C.3   1 <1>  -0.1600 
 22 C        5.0950    -4.3760     2.1770 C.3   1 <1>  -0.1600 
 23 C        6.3220    -4.6840     1.3080 C.3   1 <1>  -0.1600 
 24 H       -4.1610    -1.3060     0.8920 H     1 <1>   0.1500 
 25 H        0.5070    -2.6380     1.7790 H     1 <1>   0.1500 
 26 H       -3.2650    -1.2820     3.2160 H     1 <1>   0.1500 
 27 H        0.3770    -0.7800    -1.2830 H     1 <1>   0.0800 
 28 H        1.0900    -1.9830    -2.3100 H     1 <1>   0.0800 
 29 H       -1.3990    -4.4240    -2.8120 H     1 <1>   0.0800 
 30 H       -2.1200    -4.8800    -1.2910 H     1 <1>   0.0800 
 31 H       -1.1510    -6.0270    -2.1730 H     1 <1>   0.0800 
 32 H        2.7740    -3.5240    -1.1180 H     1 <1>   0.3700 
 33 H        4.3550    -1.9960     0.9030 H     1 <1>   0.0800 
 34 H        5.6100    -2.3580    -1.1510 H     1 <1>   0.0800 
 35 H        5.1760    -4.0500    -1.1630 H     1 <1>   0.0800 
 36 H        3.5870    -4.9220     0.7540 H     1 <1>   0.0800 
 37 H        3.0490    -3.7680     1.9460 H     1 <1>   0.0800 
 38 H        6.9050    -2.6600     0.8930 H     1 <1>   0.0800 
 39 H        7.4460    -3.8060    -0.3010 H     1 <1>   0.0800 
 40 H        4.8730    -5.2230     2.8040 H     1 <1>   0.0800 
 41 H        5.3130    -3.5390     2.8180 H     1 <1>   0.0800 
 42 H        7.1770    -4.8530     1.9390 H     1 <1>   0.0800 
 43 H        6.1430    -5.5870     0.7480 H     1 <1>   0.0800 
@<TRIPOS>BOND
  1   1   2  1   
  2   2   3  ar  
  3   2   4  ar  
  4   3   5  1   
  5   3   6  ar  
  6   4   7  ar  
  7   4  24  1   
  8   5   8  am  
  9   5   9  1   
 10   6  10  ar  
 11   6  25  1   
 12   7  10  ar  
 13   7  26  1   
 14   8  11  2   
 15   8  12  2   
 16   8  13  1   
 17   9  14  1   
 18   9  27  1   
 19   9  28  1   
 20  10  15  1   
 21  13  29  1   
 22  13  30  1   
 23  13  31  1   
 24  14  16  2   
 25  14  17  am  
 26  17  18  1   
 27  17  32  1   
 28  18  19  1   
 29  18  20  1   
 30  18  33  1   
 31  19  21  1   
 32  19  34  1   
 33  19  35  1   
 34  20  22  1   
 35  20  36  1   
 36  20  37  1   
 37  21  23  1   
 38  21  38  1   
 39  21  39  1   
 40  22  23  1   
 41  22  40  1   
 42  22  41  1   
 43  23  42  1   
 44  23  43  1   
@<TRIPOS>SUBSTRUCTURE
  1 ****   5 GROUP 4 **** **** 0

# MOE 2024.06 (io_trps.svl 2023.06)
