@<TRIPOS>MOLECULE
NONAME
36 37 1 0 0 
SMALL
USER_CHARGES


@<TRIPOS>ATOM
  1 O       -0.7000     2.6800    -0.3020 O.2   1 <1>  -0.5700 
  2 C       -1.7460     2.1260    -0.1140 C.2   1 <1>   0.6590 
  3 O       -2.5320     1.6900    -1.0800 O.3   1 <1>  -0.4300 
  4 C       -2.3590     1.8870     1.2360 C.3   1 <1>  -0.0990 
  5 C       -3.6870     1.0580    -0.5980 C.3   1 <1>   0.2800 
  6 C       -3.8100     1.5690     0.8560 C.3   1 <1>  -0.0190 
  7 C       -3.4110    -0.4510    -0.6380 C.3   1 <1>  -0.2400 
  8 C       -4.8470     1.3930    -1.5440 C.3   1 <1>  -0.2400 
  9 C       -4.7060     2.7960     0.9920 C.2   1 <1>   0.5690 
 10 O       -5.7310     2.6660     1.6130 O.2   1 <1>  -0.5700 
 11 N       -4.3110     3.9750     0.4220 N.am  1 <1>  -0.5470 
 12 C       -4.8620     5.2680     0.3800 C.ar  1 <1>   0.1170 
 13 C       -4.1910     6.2280    -0.3850 C.ar  1 <1>   0.0820 
 14 C       -6.0200     5.6370     1.0550 C.ar  1 <1>  -0.1500 
 15 O       -3.0550     5.8210    -1.0270 O.3   1 <1>  -0.3630 
 16 C       -4.6830     7.5260    -0.4660 C.ar  1 <1>  -0.1500 
 17 C       -6.5050     6.9300     0.9720 C.ar  1 <1>  -0.1500 
 18 C       -2.2450     6.7280    -1.7400 C.3   1 <1>   0.0400 
 19 C       -5.8390     7.8740     0.2130 C.ar  1 <1>  -0.1500 
 20 H       -2.2640     2.7490     1.8720 H     1 <1>   0.0800 
 21 H       -1.8810     1.0400     1.6910 H     1 <1>   0.0800 
 22 H       -4.2100     0.8020     1.4950 H     1 <1>   0.0800 
 23 H       -2.5730    -0.7140    -0.0190 H     1 <1>   0.0800 
 24 H       -3.2070    -0.7650    -1.6470 H     1 <1>   0.0800 
 25 H       -4.2720    -0.9910    -0.2870 H     1 <1>   0.0800 
 26 H       -4.9500     2.4530    -1.6880 H     1 <1>   0.0800 
 27 H       -5.7710     1.0110    -1.1470 H     1 <1>   0.0800 
 28 H       -4.6840     0.9420    -2.5070 H     1 <1>   0.0800 
 29 H       -3.4610     3.9390    -0.1500 H     1 <1>   0.3700 
 30 H       -6.5520     4.9200     1.6520 H     1 <1>   0.1500 
 31 H       -4.1870     8.2780    -1.0490 H     1 <1>   0.1500 
 32 H       -7.4040     7.1980     1.5010 H     1 <1>   0.1500 
 33 H       -1.3930     6.1900    -2.1160 H     1 <1>   0.0800 
 34 H       -1.9180     7.5050    -1.0720 H     1 <1>   0.0800 
 35 H       -2.8110     7.1340    -2.5600 H     1 <1>   0.0800 
 36 H       -6.2200     8.8790     0.1500 H     1 <1>   0.1500 
@<TRIPOS>BOND
  1   1   2  2   
  2   2   3  1   
  3   2   4  1   
  4   3   5  1   
  5   4   6  1   
  6   4  20  1   
  7   4  21  1   
  8   5   6  1   
  9   5   7  1   
 10   5   8  1   
 11   6   9  1   
 12   6  22  1   
 13   7  23  1   
 14   7  24  1   
 15   7  25  1   
 16   8  26  1   
 17   8  27  1   
 18   8  28  1   
 19   9  10  2   
 20   9  11  am  
 21  11  12  1   
 22  11  29  1   
 23  12  13  ar  
 24  12  14  ar  
 25  13  15  1   
 26  13  16  ar  
 27  14  17  ar  
 28  14  30  1   
 29  15  18  1   
 30  16  19  ar  
 31  16  31  1   
 32  17  19  ar  
 33  17  32  1   
 34  18  33  1   
 35  18  34  1   
 36  18  35  1   
 37  19  36  1   
@<TRIPOS>SUBSTRUCTURE
  1 ****  11 GROUP 4 **** **** 0

# MOE 2024.06 (io_trps.svl 2023.06)
