@<TRIPOS>MOLECULE
NONAME
39 41 1 0 0 
SMALL
USER_CHARGES


@<TRIPOS>ATOM
  1 N       -3.0480    -0.2670     1.8330 N.1   1 <1>  -0.5570 
  2 C       -3.6930    -0.6080     0.9640 C.1   1 <1>   0.3570 
  3 C       -4.6060    -1.0380    -0.1190 C.3   1 <1>   0.0400 
  4 C       -6.0380    -0.9060     0.4050 C.3   1 <1>   0.3430 
  5 N       -7.0890    -1.2190    -0.6330 N.4   1 <1>  -0.9590 
  6 C       -8.4700    -0.7500    -0.2470 C.3   1 <1>   0.5030 
  7 C       -7.0410    -2.6790    -1.0000 C.3   1 <1>   0.2630 
  8 C       -9.4760    -1.0910    -1.3740 C.3   1 <1>  -0.1600 
  9 C       -8.4630     0.7890    -0.0710 C.3   1 <1>  -0.1600 
 10 C       -8.9540    -1.4030     1.0690 C.3   1 <1>  -0.1600 
 11 C      -10.8870    -0.5850    -1.0220 C.3   1 <1>  -0.0800 
 12 C       -9.8680     1.3050     0.2900 C.3   1 <1>  -0.0800 
 13 C      -10.3650    -0.8940     1.4290 C.3   1 <1>  -0.0800 
 14 C      -10.8480     0.9400    -0.8370 C.3   1 <1>  -0.1600 
 15 C      -11.3430    -1.2460     0.2920 C.3   1 <1>  -0.1600 
 16 C      -10.3270     0.6360     1.5990 C.3   1 <1>  -0.1600 
 17 H       -4.3700    -2.0540    -0.3730 H     1 <1>   0.0800 
 18 H       -4.4510    -0.4010    -0.9700 H     1 <1>   0.0800 
 19 H       -6.1580     0.1040     0.7560 H     1 <1>   0.0800 
 20 H       -6.1650    -1.5570     1.2560 H     1 <1>   0.0800 
 21 H       -6.8730    -0.6760    -1.4800 H     1 <1>   0.4500 
 22 H       -7.3290    -3.2880    -0.1580 H     1 <1>   0.0800 
 23 H       -6.0480    -2.9640    -1.3050 H     1 <1>   0.0800 
 24 H       -7.7080    -2.8880    -1.8200 H     1 <1>   0.0800 
 25 H       -9.1660    -0.6410    -2.3000 H     1 <1>   0.0800 
 26 H       -9.5540    -2.1520    -1.5200 H     1 <1>   0.0800 
 27 H       -8.1410     1.2660    -0.9800 H     1 <1>   0.0800 
 28 H       -7.8080     1.0930     0.7230 H     1 <1>   0.0800 
 29 H       -8.2950    -1.1630     1.8820 H     1 <1>   0.0800 
 30 H       -8.9960    -2.4720     0.9690 H     1 <1>   0.0800 
 31 H      -11.5770    -0.8360    -1.8110 H     1 <1>   0.0800 
 32 H       -9.8470     2.3750     0.4180 H     1 <1>   0.0800 
 33 H      -10.6980    -1.3510     2.3460 H     1 <1>   0.0800 
 34 H      -11.8340     1.3010    -0.5930 H     1 <1>   0.0800 
 35 H      -10.5520     1.4180    -1.7560 H     1 <1>   0.0800 
 36 H      -11.3990    -2.3140     0.1710 H     1 <1>   0.0800 
 37 H      -12.3310    -0.9010     0.5460 H     1 <1>   0.0800 
 38 H      -11.3090     0.9950     1.8630 H     1 <1>   0.0800 
 39 H       -9.6640     0.9030     2.4040 H     1 <1>   0.0800 
@<TRIPOS>BOND
  1   1   2  3   
  2   2   3  1   
  3   3   4  1   
  4   3  17  1   
  5   3  18  1   
  6   4   5  1   
  7   4  19  1   
  8   4  20  1   
  9   5   6  1   
 10   5   7  1   
 11   5  21  1   
 12   6   8  1   
 13   6   9  1   
 14   6  10  1   
 15   7  22  1   
 16   7  23  1   
 17   7  24  1   
 18   8  11  1   
 19   8  25  1   
 20   8  26  1   
 21   9  12  1   
 22   9  27  1   
 23   9  28  1   
 24  10  13  1   
 25  10  29  1   
 26  10  30  1   
 27  11  14  1   
 28  11  15  1   
 29  11  31  1   
 30  12  14  1   
 31  12  16  1   
 32  12  32  1   
 33  13  15  1   
 34  13  16  1   
 35  13  33  1   
 36  14  34  1   
 37  14  35  1   
 38  15  36  1   
 39  15  37  1   
 40  16  38  1   
 41  16  39  1   
@<TRIPOS>SUBSTRUCTURE
  1 ****   6 GROUP 4 **** **** 0

# MOE 2024.06 (io_trps.svl 2023.06)
