@<TRIPOS>MOLECULE
NONAME
32 32 1 0 0 
SMALL
USER_CHARGES


@<TRIPOS>ATOM
  1 CL      -0.4090    -0.5630     0.8150 Cl    1 <1>  -0.1770 
  2 C       -1.5160     0.7260     0.3770 C.ar  1 <1>   0.1770 
  3 C       -1.1170     1.9960    -0.0680 C.ar  1 <1>   0.0830 
  4 C       -2.8590     0.4100     0.4950 C.ar  1 <1>  -0.1500 
  5 O        0.1530     2.4640    -0.2350 O.3   1 <1>  -0.3630 
  6 C       -2.1060     2.9170    -0.3850 C.ar  1 <1>  -0.1500 
  7 C       -3.8280     1.3450     0.1730 C.ar  1 <1>  -0.1500 
  8 C        1.3150     1.7410     0.0870 C.3   1 <1>   0.1200 
  9 C       -3.4480     2.6000    -0.2670 C.ar  1 <1>  -0.1500 
 10 C        2.5240     2.6340    -0.1840 C.3   1 <1>  -0.1600 
 11 C        3.8220     1.8990     0.1480 C.3   1 <1>   0.0700 
 12 S        5.1990     3.0220    -0.2040 S.3   1 <1>  -0.4600 
 13 C        6.6610     2.0990     0.3320 C.3   1 <1>   0.1500 
 14 C        7.7860     3.1150     0.5070 C.3   1 <1>  -0.2400 
 15 C        6.9810     1.0600    -0.7410 C.3   1 <1>  -0.2400 
 16 H       -3.1440    -0.5680     0.8370 H     1 <1>   0.1500 
 17 H       -1.8140     3.8940    -0.7280 H     1 <1>   0.1500 
 18 H       -4.8710     1.0960     0.2660 H     1 <1>   0.1500 
 19 H        1.3510     0.8630    -0.5350 H     1 <1>   0.0800 
 20 H        1.2710     1.4730     1.1280 H     1 <1>   0.0800 
 21 H       -4.1970     3.3310    -0.5200 H     1 <1>   0.1500 
 22 H        2.4550     3.5210     0.4210 H     1 <1>   0.0800 
 23 H        2.5340     2.9170    -1.2220 H     1 <1>   0.0800 
 24 H        3.9500     1.0250    -0.4660 H     1 <1>   0.0800 
 25 H        3.8770     1.6390     1.1910 H     1 <1>   0.0800 
 26 H        6.4200     1.6320     1.2720 H     1 <1>   0.0800 
 27 H        7.9830     3.6180    -0.4230 H     1 <1>   0.0800 
 28 H        8.6840     2.6230     0.8330 H     1 <1>   0.0800 
 29 H        7.5080     3.8470     1.2450 H     1 <1>   0.0800 
 30 H        7.1390     1.5420    -1.6900 H     1 <1>   0.0800 
 31 H        6.1740     0.3570    -0.8380 H     1 <1>   0.0800 
 32 H        7.8710     0.5200    -0.4760 H     1 <1>   0.0800 
@<TRIPOS>BOND
  1   1   2  1   
  2   2   3  ar  
  3   2   4  ar  
  4   3   5  1   
  5   3   6  ar  
  6   4   7  ar  
  7   4  16  1   
  8   5   8  1   
  9   6   9  ar  
 10   6  17  1   
 11   7   9  ar  
 12   7  18  1   
 13   8  10  1   
 14   8  19  1   
 15   8  20  1   
 16   9  21  1   
 17  10  11  1   
 18  10  22  1   
 19  10  23  1   
 20  11  12  1   
 21  11  24  1   
 22  11  25  1   
 23  12  13  1   
 24  13  14  1   
 25  13  15  1   
 26  13  26  1   
 27  14  27  1   
 28  14  28  1   
 29  14  29  1   
 30  15  30  1   
 31  15  31  1   
 32  15  32  1   
@<TRIPOS>SUBSTRUCTURE
  1 ****   8 GROUP 4 **** **** 0

# MOE 2024.06 (io_trps.svl 2023.06)
