@<TRIPOS>MOLECULE
NONAME
47 48 1 0 0 
SMALL
USER_CHARGES


@<TRIPOS>ATOM
  1 S       -0.2330    -0.2430    -0.5030 S.o2  1 <1>   1.3330 
  2 O        0.6480     0.7890    -0.0090 O.2   1 <1>  -0.6500 
  3 O       -1.6530     0.0100    -0.5590 O.2   1 <1>  -0.6500 
  4 N        0.0730    -1.6590     0.4530 N.am  1 <1>  -0.6930 
  5 C        0.3290    -0.7140    -2.1270 C.3   1 <1>  -0.1350 
  6 C        1.3580    -2.1780     0.5450 C.ar  1 <1>   0.1990 
  7 C       -1.0560    -2.4890     0.9800 C.3   1 <1>   0.3370 
  8 C        1.6790    -3.3820    -0.0700 C.ar  1 <1>  -0.1500 
  9 C        2.3460    -1.5090     1.2510 C.ar  1 <1>  -0.1500 
 10 C       -1.8890    -3.2470    -0.0900 C.2   1 <1>   0.5690 
 11 C       -1.8980    -1.6570     1.9660 C.3   1 <1>  -0.2400 
 12 C        2.9520    -3.9210     0.0200 C.ar  1 <1>  -0.1440 
 13 C        3.6190    -2.0360     1.3470 C.ar  1 <1>  -0.1500 
 14 O       -1.7580    -2.9500    -1.2580 O.2   1 <1>  -0.5700 
 15 N       -2.7320    -4.2820     0.2580 N.am  1 <1>  -0.6600 
 16 C        3.9330    -3.2420     0.7370 C.ar  1 <1>  -0.1430 
 17 C        3.2470    -5.2430    -0.6740 C.3   1 <1>  -0.0970 
 18 C       -3.6820    -4.8720    -0.7360 C.3   1 <1>   0.1400 
 19 C       -2.8240    -4.9580     1.5880 C.3   1 <1>   0.1400 
 20 C        5.3470    -3.7900     0.8670 C.3   1 <1>  -0.0970 
 21 C       -5.0990    -4.9530    -0.1450 C.3   1 <1>   0.1200 
 22 C       -4.2870    -5.0140     2.0590 C.3   1 <1>   0.1200 
 23 O       -5.0870    -5.6230     1.0860 O.3   1 <1>  -0.5600 
 24 H        0.2320     0.1150    -2.7990 H     1 <1>   0.0800 
 25 H       -0.2500    -1.5290    -2.5100 H     1 <1>   0.0800 
 26 H        1.3590    -1.0080    -2.0910 H     1 <1>   0.0800 
 27 H       -0.5930    -3.2580     1.5710 H     1 <1>   0.0800 
 28 H        0.9180    -3.8920    -0.6320 H     1 <1>   0.1500 
 29 H        2.1100    -0.5720     1.7230 H     1 <1>   0.1500 
 30 H       -2.5720    -1.0040     1.4450 H     1 <1>   0.0800 
 31 H       -1.2550    -1.0720     2.5990 H     1 <1>   0.0800 
 32 H       -2.4930    -2.2940     2.5890 H     1 <1>   0.0800 
 33 H        4.3670    -1.4970     1.9010 H     1 <1>   0.1500 
 34 H        2.3770    -5.6150    -1.1850 H     1 <1>   0.0800 
 35 H        3.5540    -5.9780     0.0480 H     1 <1>   0.0800 
 36 H        4.0310    -5.1120    -1.3980 H     1 <1>   0.0800 
 37 H       -3.3490    -5.8590    -1.0040 H     1 <1>   0.0800 
 38 H       -3.7130    -4.2780    -1.6340 H     1 <1>   0.0800 
 39 H       -2.2280    -4.4630     2.3300 H     1 <1>   0.0800 
 40 H       -2.4540    -5.9640     1.4940 H     1 <1>   0.0800 
 41 H        5.7950    -3.8850    -0.1050 H     1 <1>   0.0800 
 42 H        5.3270    -4.7540     1.3410 H     1 <1>   0.0800 
 43 H        5.9610    -3.1360     1.4600 H     1 <1>   0.0800 
 44 H       -5.7470    -5.4970    -0.8080 H     1 <1>   0.0800 
 45 H       -5.5040    -3.9670     0.0020 H     1 <1>   0.0800 
 46 H       -4.6660    -4.0250     2.2500 H     1 <1>   0.0800 
 47 H       -4.3670    -5.5970     2.9590 H     1 <1>   0.0800 
@<TRIPOS>BOND
  1   1   2  2   
  2   1   3  2   
  3   1   4  am  
  4   1   5  1   
  5   4   6  1   
  6   4   7  1   
  7   5  24  1   
  8   5  25  1   
  9   5  26  1   
 10   6   8  ar  
 11   6   9  ar  
 12   7  10  1   
 13   7  11  1   
 14   7  27  1   
 15   8  12  ar  
 16   8  28  1   
 17   9  13  ar  
 18   9  29  1   
 19  10  14  2   
 20  10  15  am  
 21  11  30  1   
 22  11  31  1   
 23  11  32  1   
 24  12  16  ar  
 25  12  17  1   
 26  13  16  ar  
 27  13  33  1   
 28  15  18  1   
 29  15  19  1   
 30  16  20  1   
 31  17  34  1   
 32  17  35  1   
 33  17  36  1   
 34  18  21  1   
 35  18  37  1   
 36  18  38  1   
 37  19  22  1   
 38  19  39  1   
 39  19  40  1   
 40  20  41  1   
 41  20  42  1   
 42  20  43  1   
 43  21  23  1   
 44  21  44  1   
 45  21  45  1   
 46  22  23  1   
 47  22  46  1   
 48  22  47  1   
@<TRIPOS>SUBSTRUCTURE
  1 ****   7 GROUP 4 **** **** 0

# MOE 2024.06 (io_trps.svl 2023.06)
