@<TRIPOS>MOLECULE
NONAME
28 29 1 0 0 
SMALL
USER_CHARGES


@<TRIPOS>ATOM
  1 O        0.3730    -0.7710    -1.1260 O.3   1 <1>  -0.3630 
  2 C        1.5360    -0.7890    -0.4710 C.ar  1 <1>   0.0830 
  3 C       -0.4870    -1.6960    -0.4590 C.3   1 <1>   0.4000 
  4 C        1.4790    -1.6720     0.5660 C.ar  1 <1>   0.0830 
  5 C        2.6750    -0.0570    -0.7370 C.ar  1 <1>  -0.1500 
  6 O        0.2760    -2.2510     0.6120 O.3   1 <1>  -0.3630 
  7 C        2.5620    -1.8710     1.3970 C.ar  1 <1>  -0.1500 
  8 C        3.7860    -0.2390     0.0830 C.ar  1 <1>  -0.1440 
  9 C        3.7200    -1.1460     1.1470 C.ar  1 <1>  -0.1500 
 10 C        5.0460     0.5540    -0.2220 C.3   1 <1>   0.5660 
 11 N        6.0240    -0.3900    -0.7510 N.4   1 <1>  -0.8530 
 12 C        5.6250     1.2680     1.0060 C.3   1 <1>  -0.1600 
 13 C        6.7510     2.2590     0.6770 C.3   1 <1>   0.1200 
 14 O        7.7440     1.6070    -0.0400 O.3   1 <1>  -0.6800 
 15 H       -0.7770    -2.4770    -1.1390 H     1 <1>   0.0800 
 16 H       -1.3410    -1.1750    -0.0620 H     1 <1>   0.0800 
 17 H        2.6640     0.6290    -1.5670 H     1 <1>   0.1500 
 18 H        2.4900    -2.5710     2.2120 H     1 <1>   0.1500 
 19 H        4.5580    -1.3040     1.8040 H     1 <1>   0.1500 
 20 H        4.8210     1.2960    -0.9720 H     1 <1>   0.0800 
 21 H        6.0710    -1.2120    -0.1490 H     1 <1>   0.4500 
 22 H        6.9380     0.0970    -0.7330 H     1 <1>   0.4500 
 23 H        5.7850    -0.6760    -1.7020 H     1 <1>   0.4500 
 24 H        5.9750     0.5600     1.7340 H     1 <1>   0.0800 
 25 H        4.8310     1.8250     1.4720 H     1 <1>   0.0800 
 26 H        7.1850     2.6470     1.5850 H     1 <1>   0.0800 
 27 H        6.3880     3.0820     0.0820 H     1 <1>   0.0800 
 28 H        8.5430     2.1820    -0.1020 H     1 <1>   0.4000 
@<TRIPOS>BOND
  1   1   2  1   
  2   1   3  1   
  3   2   4  ar  
  4   2   5  ar  
  5   3   6  1   
  6   3  15  1   
  7   3  16  1   
  8   4   6  1   
  9   4   7  ar  
 10   5   8  ar  
 11   5  17  1   
 12   7   9  ar  
 13   7  18  1   
 14   8   9  ar  
 15   8  10  1   
 16   9  19  1   
 17  10  11  1   
 18  10  12  1   
 19  10  20  1   
 20  11  21  1   
 21  11  22  1   
 22  11  23  1   
 23  12  13  1   
 24  12  24  1   
 25  12  25  1   
 26  13  14  1   
 27  13  26  1   
 28  13  27  1   
 29  14  28  1   
@<TRIPOS>SUBSTRUCTURE
  1 ****   8 GROUP 4 **** **** 0

# MOE 2024.06 (io_trps.svl 2023.06)
