@<TRIPOS>MOLECULE
NONAME
40 42 1 0 0 
SMALL
USER_CHARGES


@<TRIPOS>ATOM
  1 F       -2.2610     0.1630     2.8720 F     1 <1>  -0.1900 
  2 C       -2.5200     0.7860     1.7550 C.ar  1 <1>   0.1900 
  3 C       -3.5920     0.3580     0.9950 C.ar  1 <1>  -0.1500 
  4 C       -1.7200     1.8460     1.3780 C.ar  1 <1>  -0.1500 
  5 C       -3.8820     1.0230    -0.1900 C.ar  1 <1>  -0.1440 
  6 C       -2.0070     2.4990     0.1910 C.ar  1 <1>  -0.1500 
  7 C       -3.0800     2.0890    -0.5860 C.ar  1 <1>  -0.1500 
  8 C       -5.0650     0.5960    -1.0380 C.3   1 <1>   0.4870 
  9 N       -6.3160     1.0270    -0.3570 N.4   1 <1>  -0.9590 
 10 C       -7.5440     0.4760    -1.0420 C.3   1 <1>   0.3430 
 11 C       -6.3930     2.5330    -0.2320 C.3   1 <1>   0.3430 
 12 C       -8.8560     0.9350    -0.3690 C.3   1 <1>   0.2090 
 13 C       -7.6960     3.0080     0.4450 C.3   1 <1>   0.2090 
 14 N       -8.8870     2.4200    -0.2360 N.pl3 1 <1>  -0.8380 
 15 C      -10.1190     2.9810     0.0840 C.ar  1 <1>   0.1000 
 16 C      -10.8090     3.7050    -0.8840 C.ar  1 <1>  -0.1500 
 17 C      -10.6760     2.8320     1.3530 C.ar  1 <1>  -0.1500 
 18 C      -12.0370     4.2750    -0.5990 C.ar  1 <1>  -0.1500 
 19 C      -11.9040     3.3970     1.6530 C.ar  1 <1>  -0.1500 
 20 C      -12.5620     4.1090     0.6680 C.ar  1 <1>   0.1900 
 21 F      -13.7240     4.6450     0.9460 F     1 <1>  -0.1900 
 22 H       -4.1690    -0.4810     1.3420 H     1 <1>   0.1500 
 23 H       -0.8930     2.1460     1.9970 H     1 <1>   0.1500 
 24 H       -1.3900     3.3240    -0.1250 H     1 <1>   0.1500 
 25 H       -3.2750     2.6130    -1.5080 H     1 <1>   0.1500 
 26 H       -5.0520    -0.4760    -1.1510 H     1 <1>   0.0800 
 27 H       -4.9980     1.0440    -2.0170 H     1 <1>   0.0800 
 28 H       -6.2820     0.6530     0.5990 H     1 <1>   0.4500 
 29 H       -7.5130    -0.6010    -1.0460 H     1 <1>   0.0800 
 30 H       -7.5650     0.8100    -2.0660 H     1 <1>   0.0800 
 31 H       -6.3480     2.9790    -1.2120 H     1 <1>   0.0800 
 32 H       -5.5530     2.8990     0.3360 H     1 <1>   0.0800 
 33 H       -8.9510     0.4810     0.6020 H     1 <1>   0.0800 
 34 H       -9.6940     0.6170    -0.9670 H     1 <1>   0.0800 
 35 H       -7.7550     4.0820     0.3940 H     1 <1>   0.0800 
 36 H       -7.6940     2.7260     1.4830 H     1 <1>   0.0800 
 37 H      -10.3750     3.8170    -1.8610 H     1 <1>   0.1500 
 38 H      -10.1500     2.2760     2.1050 H     1 <1>   0.1500 
 39 H      -12.5800     4.8360    -1.3380 H     1 <1>   0.1500 
 40 H      -12.3480     3.2920     2.6260 H     1 <1>   0.1500 
@<TRIPOS>BOND
  1   1   2  1   
  2   2   3  ar  
  3   2   4  ar  
  4   3   5  ar  
  5   3  22  1   
  6   4   6  ar  
  7   4  23  1   
  8   5   7  ar  
  9   5   8  1   
 10   6   7  ar  
 11   6  24  1   
 12   7  25  1   
 13   8   9  1   
 14   8  26  1   
 15   8  27  1   
 16   9  10  1   
 17   9  11  1   
 18   9  28  1   
 19  10  12  1   
 20  10  29  1   
 21  10  30  1   
 22  11  13  1   
 23  11  31  1   
 24  11  32  1   
 25  12  14  1   
 26  12  33  1   
 27  12  34  1   
 28  13  14  1   
 29  13  35  1   
 30  13  36  1   
 31  14  15  1   
 32  15  16  ar  
 33  15  17  ar  
 34  16  18  ar  
 35  16  37  1   
 36  17  19  ar  
 37  17  38  1   
 38  18  20  ar  
 39  18  39  1   
 40  19  20  ar  
 41  19  40  1   
 42  20  21  1   
@<TRIPOS>SUBSTRUCTURE
  1 ****  13 GROUP 4 **** **** 0

# MOE 2024.06 (io_trps.svl 2023.06)
