@<TRIPOS>MOLECULE
NONAME
53 56 1 0 0 
SMALL
USER_CHARGES


@<TRIPOS>ATOM
  1 S        0.1960     0.2360    -1.0950 S.3   1 <1>  -0.2860 
  2 C       -1.4430     0.9570    -0.9640 C.2   1 <1>   0.2420 
  3 C        1.2580     1.6860    -1.5580 C.3   1 <1>   0.1310 
  4 N       -1.6690     2.2100    -1.1370 N.2   1 <1>  -0.3380 
  5 N       -2.5310     0.2390    -0.6660 N.pl3 1 <1>   0.3260 
  6 C        2.7290     1.3050    -1.5110 C.2   1 <1>   0.5690 
  7 N       -2.9760     2.3690    -0.9470 N.2   1 <1>  -0.3380 
  8 C       -2.6260    -1.1410    -0.3380 C.ar  1 <1>  -0.0230 
  9 C       -3.4900     1.1990    -0.6720 C.2   1 <1>   0.1330 
 10 O        3.3180     1.1940    -2.5620 O.2   1 <1>  -0.5700 
 11 N        3.3650     1.1180    -0.3120 N.am  1 <1>  -0.6600 
 12 C       -3.1220    -1.5410     0.8990 C.ar  1 <1>  -0.1500 
 13 C       -2.2330    -2.1160    -1.2500 C.ar  1 <1>  -0.1500 
 14 C       -4.8890     0.9660    -0.3950 C.ar  1 <1>   0.0530 
 15 C        2.7470     1.1870     1.0310 C.3   1 <1>   0.1400 
 16 C        4.7890     0.7310    -0.2250 C.3   1 <1>   0.1400 
 17 C       -3.2230    -2.8830     1.2140 C.ar  1 <1>  -0.1500 
 18 C       -2.3320    -3.4600    -0.9360 C.ar  1 <1>  -0.1500 
 19 C       -5.6050     1.8640     0.3950 C.ar  1 <1>  -0.1500 
 20 C       -5.5780    -0.1420    -0.8930 C.ar  1 <1>  -0.1500 
 21 C        3.9200     1.0860     2.0000 C.3   1 <1>  -0.1600 
 22 C        4.9920     0.3210     1.2290 C.3   1 <1>  -0.1600 
 23 C       -2.8300    -3.8510     0.3040 C.ar  1 <1>   0.0830 
 24 C       -6.9400     1.6610     0.6920 C.ar  1 <1>  -0.1500 
 25 C       -6.9120    -0.3520    -0.5990 C.ar  1 <1>  -0.1500 
 26 O       -2.9610    -5.1430     0.6940 O.3   1 <1>  -0.3630 
 27 C       -7.5960     0.5490     0.1970 C.ar  1 <1>  -0.1500 
 28 C       -2.5740    -6.2050    -0.1450 C.3   1 <1>   0.1200 
 29 C       -2.8420    -7.5120     0.5930 C.3   1 <1>  -0.2400 
 30 H        1.0460     2.4810    -0.8700 H     1 <1>   0.0800 
 31 H        0.9760     1.9790    -2.5520 H     1 <1>   0.0800 
 32 H       -3.4340    -0.8050     1.6210 H     1 <1>   0.1500 
 33 H       -1.8440    -1.8270    -2.2110 H     1 <1>   0.1500 
 34 H        2.0870     0.3460     1.1600 H     1 <1>   0.0800 
 35 H        2.2040     2.1060     1.1670 H     1 <1>   0.0800 
 36 H        5.3980     1.5850    -0.4690 H     1 <1>   0.0800 
 37 H        5.0100    -0.0750    -0.9040 H     1 <1>   0.0800 
 38 H       -3.6080    -3.1930     2.1690 H     1 <1>   0.1500 
 39 H       -2.0160    -4.1840    -1.6630 H     1 <1>   0.1500 
 40 H       -5.1030     2.7350     0.7810 H     1 <1>   0.1500 
 41 H       -5.0700    -0.8510    -1.5220 H     1 <1>   0.1500 
 42 H        3.6410     0.5940     2.9150 H     1 <1>   0.0800 
 43 H        4.2720     2.0770     2.2280 H     1 <1>   0.0800 
 44 H        5.9860     0.5450     1.5720 H     1 <1>   0.0800 
 45 H        4.8210    -0.7380     1.3180 H     1 <1>   0.0800 
 46 H       -7.4680     2.3690     1.3070 H     1 <1>   0.1500 
 47 H       -7.4210    -1.2160    -0.9900 H     1 <1>   0.1500 
 48 H       -8.6350     0.3870     0.4280 H     1 <1>   0.1500 
 49 H       -1.5250    -6.1010    -0.3650 H     1 <1>   0.0800 
 50 H       -3.1540    -6.1530    -1.0500 H     1 <1>   0.0800 
 51 H       -2.2710    -7.5450     1.5040 H     1 <1>   0.0800 
 52 H       -2.5560    -8.3450    -0.0230 H     1 <1>   0.0800 
 53 H       -3.8890    -7.5980     0.8230 H     1 <1>   0.0800 
@<TRIPOS>BOND
  1   1   2  1   
  2   1   3  1   
  3   2   4  2   
  4   2   5  1   
  5   3   6  1   
  6   3  30  1   
  7   3  31  1   
  8   4   7  1   
  9   5   8  1   
 10   5   9  1   
 11   6  10  2   
 12   6  11  am  
 13   7   9  2   
 14   8  12  ar  
 15   8  13  ar  
 16   9  14  1   
 17  11  15  1   
 18  11  16  1   
 19  12  17  ar  
 20  12  32  1   
 21  13  18  ar  
 22  13  33  1   
 23  14  19  ar  
 24  14  20  ar  
 25  15  21  1   
 26  15  34  1   
 27  15  35  1   
 28  16  22  1   
 29  16  36  1   
 30  16  37  1   
 31  17  23  ar  
 32  17  38  1   
 33  18  23  ar  
 34  18  39  1   
 35  19  24  ar  
 36  19  40  1   
 37  20  25  ar  
 38  20  41  1   
 39  21  22  1   
 40  21  42  1   
 41  21  43  1   
 42  22  44  1   
 43  22  45  1   
 44  23  26  1   
 45  24  27  ar  
 46  24  46  1   
 47  25  27  ar  
 48  25  47  1   
 49  26  28  1   
 50  27  48  1   
 51  28  29  1   
 52  28  49  1   
 53  28  50  1   
 54  29  51  1   
 55  29  52  1   
 56  29  53  1   
@<TRIPOS>SUBSTRUCTURE
  1 ****   8 GROUP 4 **** **** 0

# MOE 2024.06 (io_trps.svl 2023.06)
