@<TRIPOS>MOLECULE
NONAME
34 35 1 0 0 
SMALL
USER_CHARGES


@<TRIPOS>ATOM
  1 BR       1.1640    -1.1190    -1.3310 Br    1 <1>  -0.0570 
  2 C       -0.2800    -1.9260    -0.3380 C.2   1 <1>   0.0570 
  3 C       -0.4120    -1.8540     0.9950 C.2   1 <1>  -0.1100 
  4 C       -1.2880    -2.6540    -1.0390 C.2   1 <1>  -0.1500 
  5 S       -1.8630    -2.7260     1.4680 S.3   1 <1>  -0.0800 
  6 C       -2.2250    -3.1530    -0.2090 C.2   1 <1>  -0.1400 
  7 C       -3.4720    -3.9800    -0.4660 C.3   1 <1>   0.2900 
  8 N       -4.6840    -3.2530    -0.0360 N.3   1 <1>  -0.8100 
  9 C       -5.8870    -4.1020    -0.0940 C.3   1 <1>   0.1100 
 10 C       -4.8740    -1.9760    -0.7540 C.3   1 <1>   0.1100 
 11 C       -7.1190    -3.3540     0.4580 C.3   1 <1>   0.3430 
 12 C       -6.0960    -1.2110    -0.2070 C.3   1 <1>   0.3430 
 13 N       -7.3490    -2.0450    -0.2520 N.4   1 <1>  -0.9590 
 14 C       -8.4950    -1.2740     0.3300 C.3   1 <1>   0.3430 
 15 C       -9.8530    -1.9530     0.1010 C.3   1 <1>   0.1200 
 16 O      -10.8290    -1.1240     0.6230 O.3   1 <1>  -0.6800 
 17 H        0.1790    -1.3880     1.7620 H     1 <1>   0.1500 
 18 H       -1.2470    -2.7590    -2.1090 H     1 <1>   0.1500 
 19 H       -3.3880    -4.9000     0.0880 H     1 <1>   0.0800 
 20 H       -3.5380    -4.2210    -1.5140 H     1 <1>   0.0800 
 21 H       -5.7260    -4.9840     0.5020 H     1 <1>   0.0800 
 22 H       -6.0730    -4.4140    -1.1080 H     1 <1>   0.0800 
 23 H       -4.9930    -2.1550    -1.8090 H     1 <1>   0.0800 
 24 H       -4.0060    -1.3530    -0.6200 H     1 <1>   0.0800 
 25 H       -6.9570    -3.1720     1.5080 H     1 <1>   0.0800 
 26 H       -7.9850    -3.9870     0.3610 H     1 <1>   0.0800 
 27 H       -6.2320    -0.3080    -0.7790 H     1 <1>   0.0800 
 28 H       -5.8840    -0.9290     0.8120 H     1 <1>   0.0800 
 29 H       -7.5420    -2.2450    -1.2410 H     1 <1>   0.4500 
 30 H       -8.5340    -0.2970    -0.1240 H     1 <1>   0.0800 
 31 H       -8.3440    -1.1460     1.3890 H     1 <1>   0.0800 
 32 H       -9.9140    -2.8970     0.6140 H     1 <1>   0.0800 
 33 H      -10.0520    -2.0790    -0.9500 H     1 <1>   0.0800 
 34 H      -11.7300    -1.4930     0.4990 H     1 <1>   0.4000 
@<TRIPOS>BOND
  1   1   2  1   
  2   2   3  2   
  3   2   4  1   
  4   3   5  1   
  5   3  17  1   
  6   4   6  2   
  7   4  18  1   
  8   5   6  1   
  9   6   7  1   
 10   7   8  1   
 11   7  19  1   
 12   7  20  1   
 13   8   9  1   
 14   8  10  1   
 15   9  11  1   
 16   9  21  1   
 17   9  22  1   
 18  10  12  1   
 19  10  23  1   
 20  10  24  1   
 21  11  13  1   
 22  11  25  1   
 23  11  26  1   
 24  12  13  1   
 25  12  27  1   
 26  12  28  1   
 27  13  14  1   
 28  13  29  1   
 29  14  15  1   
 30  14  30  1   
 31  14  31  1   
 32  15  16  1   
 33  15  32  1   
 34  15  33  1   
 35  16  34  1   
@<TRIPOS>SUBSTRUCTURE
  1 ****  10 GROUP 4 **** **** 0

# MOE 2024.06 (io_trps.svl 2023.06)
