@<TRIPOS>MOLECULE
NONAME
36 36 1 0 0 
SMALL
USER_CHARGES


@<TRIPOS>ATOM
  1 O        0.7030     3.6040     1.7880 O.2   1 <1>  -0.5700 
  2 C       -0.0700     2.9300     1.1500 C.2   1 <1>   0.5690 
  3 N        0.2980     1.7370     0.6120 N.am  1 <1>  -0.7300 
  4 C       -1.4900     3.4420     0.9430 C.3   1 <1>   0.1810 
  5 C        1.6300     1.0990     0.7540 C.3   1 <1>   0.1400 
  6 O       -2.2200     2.6010     0.0590 O.3   1 <1>  -0.3620 
  7 C        2.6290     1.7310    -0.2130 C.3   1 <1>   0.1200 
  8 C       -3.5070     2.8740    -0.2810 C.ar  1 <1>   0.0830 
  9 O        3.8030     0.9810    -0.1900 O.3   1 <1>  -0.5600 
 10 C       -4.1370     2.0030    -1.1650 C.ar  1 <1>  -0.1430 
 11 C       -4.2040     3.9740     0.2170 C.ar  1 <1>  -0.1500 
 12 C        4.8230     1.5110    -0.9720 C.3   1 <1>   0.0400 
 13 C       -5.4490     2.2410    -1.5390 C.ar  1 <1>  -0.1500 
 14 C       -3.4020     0.7930    -1.7250 C.3   1 <1>  -0.0970 
 15 C       -5.5150     4.2080    -0.1630 C.ar  1 <1>  -0.1430 
 16 C       -6.1340     3.3360    -1.0410 C.ar  1 <1>  -0.1500 
 17 C       -6.2740     5.4050     0.3800 C.3   1 <1>  -0.0970 
 18 H       -0.4030     1.2340     0.0580 H     1 <1>   0.3700 
 19 H       -1.4500     4.4280     0.5190 H     1 <1>   0.0800 
 20 H       -1.9980     3.4660     1.8890 H     1 <1>   0.0800 
 21 H        1.5420     0.0460     0.5480 H     1 <1>   0.0800 
 22 H        1.9820     1.2320     1.7630 H     1 <1>   0.0800 
 23 H        2.8500     2.7390     0.0950 H     1 <1>   0.0800 
 24 H        2.2400     1.7210    -1.2160 H     1 <1>   0.0800 
 25 H       -3.7440     4.6590     0.9010 H     1 <1>   0.1500 
 26 H        5.6770     0.8620    -0.8930 H     1 <1>   0.0800 
 27 H        5.0780     2.4920    -0.6070 H     1 <1>   0.0800 
 28 H        4.4970     1.5600    -1.9970 H     1 <1>   0.0800 
 29 H       -5.9490     1.5760    -2.2210 H     1 <1>   0.1500 
 30 H       -2.5250     1.1150    -2.2570 H     1 <1>   0.0800 
 31 H       -4.0270     0.2370    -2.4000 H     1 <1>   0.0800 
 32 H       -3.1040     0.1450    -0.9210 H     1 <1>   0.0800 
 33 H       -7.1530     3.5040    -1.3420 H     1 <1>   0.1500 
 34 H       -5.5950     6.1900     0.6610 H     1 <1>   0.0800 
 35 H       -6.8450     5.1130     1.2430 H     1 <1>   0.0800 
 36 H       -6.9450     5.7910    -0.3670 H     1 <1>   0.0800 
@<TRIPOS>BOND
  1   1   2  2   
  2   2   3  am  
  3   2   4  1   
  4   3   5  1   
  5   3  18  1   
  6   4   6  1   
  7   4  19  1   
  8   4  20  1   
  9   5   7  1   
 10   5  21  1   
 11   5  22  1   
 12   6   8  1   
 13   7   9  1   
 14   7  23  1   
 15   7  24  1   
 16   8  10  ar  
 17   8  11  ar  
 18   9  12  1   
 19  10  13  ar  
 20  10  14  1   
 21  11  15  ar  
 22  11  25  1   
 23  12  26  1   
 24  12  27  1   
 25  12  28  1   
 26  13  16  ar  
 27  13  29  1   
 28  14  30  1   
 29  14  31  1   
 30  14  32  1   
 31  15  16  ar  
 32  15  17  1   
 33  16  33  1   
 34  17  34  1   
 35  17  35  1   
 36  17  36  1   
@<TRIPOS>SUBSTRUCTURE
  1 ****   6 GROUP 4 **** **** 0

# MOE 2024.06 (io_trps.svl 2023.06)
