@<TRIPOS>MOLECULE
NONAME
50 51 1 0 0 
SMALL
USER_CHARGES


@<TRIPOS>ATOM
  1 S        0.7040     0.0390    -0.0940 S.o2  1 <1>   1.2040 
  2 O        0.8420    -0.7430    -1.3000 O.2   1 <1>  -0.6500 
  3 O        1.3070    -0.4380     1.1330 O.2   1 <1>  -0.6500 
  4 C        1.3350     1.7140    -0.3950 C.ar  1 <1>  -0.0090 
  5 C       -1.0590     0.2050     0.2140 C.3   1 <1>  -0.0550 
  6 C        2.6590     1.9010    -0.8250 C.ar  1 <1>   0.0860 
  7 C        0.5330     2.8380    -0.1950 C.ar  1 <1>  -0.1500 
  8 C       -1.7650    -1.1430     0.4480 C.3   1 <1>  -0.1600 
  9 C        3.6080     0.8230    -1.0520 C.2   1 <1>   0.5440 
 10 C        3.1040     3.2020    -1.0610 C.ar  1 <1>  -0.1500 
 11 C        1.0010     4.1180    -0.4270 C.ar  1 <1>  -0.1500 
 12 C       -3.2480    -0.9940     0.8280 C.3   1 <1>  -0.0800 
 13 O        4.2590     0.8050    -2.0770 O.2   1 <1>  -0.5700 
 14 N        3.8300    -0.1470    -0.1170 N.am  1 <1>  -0.7300 
 15 C        2.2940     4.3010    -0.8660 C.ar  1 <1>  -0.1500 
 16 C       -3.8330    -2.3700     1.1610 C.3   1 <1>  -0.2400 
 17 C       -4.0710    -0.3490    -0.2960 C.3   1 <1>  -0.2400 
 18 C        4.6650    -1.3400    -0.3160 C.3   1 <1>   0.2200 
 19 C        3.7510    -2.5290    -0.6310 C.3   1 <1>  -0.1600 
 20 C        5.4790    -1.5890     0.9570 C.3   1 <1>  -0.1600 
 21 C        4.5520    -3.8360    -0.7350 C.3   1 <1>  -0.1600 
 22 C        6.2850    -2.8930     0.8560 C.3   1 <1>  -0.1600 
 23 C        5.3720    -4.0850     0.5380 C.3   1 <1>  -0.1600 
 24 H       -1.5130     0.6900    -0.6280 H     1 <1>   0.0800 
 25 H       -1.2120     0.8170     1.0820 H     1 <1>   0.0800 
 26 H       -0.4800     2.7460     0.1470 H     1 <1>   0.1500 
 27 H       -1.2520    -1.6590     1.2430 H     1 <1>   0.0800 
 28 H       -1.6750    -1.7480    -0.4390 H     1 <1>   0.0800 
 29 H        4.1150     3.3470    -1.4070 H     1 <1>   0.1500 
 30 H        0.3620     4.9700    -0.2680 H     1 <1>   0.1500 
 31 H       -3.3250    -0.3780     1.7090 H     1 <1>   0.0800 
 32 H        3.1870    -0.2380     0.6810 H     1 <1>   0.3700 
 33 H        2.6700     5.2930    -1.0560 H     1 <1>   0.1500 
 34 H       -3.7830    -3.0220     0.3070 H     1 <1>   0.0800 
 35 H       -4.8620    -2.2780     1.4620 H     1 <1>   0.0800 
 36 H       -3.2880    -2.8250     1.9710 H     1 <1>   0.0800 
 37 H       -3.9680    -0.9080    -1.2090 H     1 <1>   0.0800 
 38 H       -3.7610     0.6650    -0.4720 H     1 <1>   0.0800 
 39 H       -5.1130    -0.3290    -0.0270 H     1 <1>   0.0800 
 40 H        5.3390    -1.1830    -1.1430 H     1 <1>   0.0800 
 41 H        3.2430    -2.3460    -1.5620 H     1 <1>   0.0800 
 42 H        3.0110    -2.6300     0.1430 H     1 <1>   0.0800 
 43 H        4.8130    -1.6540     1.8000 H     1 <1>   0.0800 
 44 H        6.1510    -0.7640     1.1140 H     1 <1>   0.0800 
 45 H        5.2150    -3.7780    -1.5820 H     1 <1>   0.0800 
 46 H        3.8770    -4.6580    -0.8990 H     1 <1>   0.0800 
 47 H        6.8020    -3.0700     1.7830 H     1 <1>   0.0800 
 48 H        7.0240    -2.7930     0.0790 H     1 <1>   0.0800 
 49 H        5.9670    -4.9730     0.4150 H     1 <1>   0.0800 
 50 H        4.7020    -4.2500     1.3650 H     1 <1>   0.0800 
@<TRIPOS>BOND
  1   1   2  2   
  2   1   3  2   
  3   1   4  1   
  4   1   5  1   
  5   4   6  ar  
  6   4   7  ar  
  7   5   8  1   
  8   5  24  1   
  9   5  25  1   
 10   6   9  1   
 11   6  10  ar  
 12   7  11  ar  
 13   7  26  1   
 14   8  12  1   
 15   8  27  1   
 16   8  28  1   
 17   9  13  2   
 18   9  14  am  
 19  10  15  ar  
 20  10  29  1   
 21  11  15  ar  
 22  11  30  1   
 23  12  16  1   
 24  12  17  1   
 25  12  31  1   
 26  14  18  1   
 27  14  32  1   
 28  15  33  1   
 29  16  34  1   
 30  16  35  1   
 31  16  36  1   
 32  17  37  1   
 33  17  38  1   
 34  17  39  1   
 35  18  19  1   
 36  18  20  1   
 37  18  40  1   
 38  19  21  1   
 39  19  41  1   
 40  19  42  1   
 41  20  22  1   
 42  20  43  1   
 43  20  44  1   
 44  21  23  1   
 45  21  45  1   
 46  21  46  1   
 47  22  23  1   
 48  22  47  1   
 49  22  48  1   
 50  23  49  1   
 51  23  50  1   
@<TRIPOS>SUBSTRUCTURE
  1 ****   1 GROUP 4 **** **** 0

# MOE 2024.06 (io_trps.svl 2023.06)
