@<TRIPOS>MOLECULE
NONAME
36 37 1 0 0 
SMALL
USER_CHARGES


@<TRIPOS>ATOM
  1 BR       0.3630    -0.0050    -0.8610 Br    1 <1>  -0.1110 
  2 C       -1.4760    -0.4890    -0.5590 C.ar  1 <1>   0.1110 
  3 C       -2.2140     0.2340     0.3570 C.ar  1 <1>  -0.1500 
  4 C       -2.0120    -1.5470    -1.2670 C.ar  1 <1>  -0.1500 
  5 C       -3.5350    -0.1190     0.5690 C.ar  1 <1>  -0.1500 
  6 C       -3.3350    -1.8870    -1.0440 C.ar  1 <1>  -0.1500 
  7 C       -4.1140    -1.1820    -0.1260 C.ar  1 <1>   0.1170 
  8 N       -5.4650    -1.5390     0.0940 N.am  1 <1>  -0.2370 
  9 C       -6.5190    -0.6660     0.1270 C.2   1 <1>   0.5690 
 10 C       -5.9230    -2.8140     0.2940 C.2   1 <1>   0.5690 
 11 O       -6.4580     0.5340     0.0060 O.2   1 <1>  -0.5700 
 12 C       -7.8430    -1.3990     0.3580 C.3   1 <1>   0.2510 
 13 O       -5.2500    -3.8110     0.3550 O.2   1 <1>  -0.5700 
 14 C       -7.4190    -2.8660     0.4660 C.3   1 <1>  -0.0990 
 15 N       -8.7960    -1.2300    -0.7620 N.3   1 <1>  -0.9000 
 16 C      -10.2100    -1.1550    -0.4490 C.3   1 <1>   0.2700 
 17 C      -10.9250    -1.1280    -1.7960 C.3   1 <1>  -0.2400 
 18 C      -10.5040     0.1420     0.3050 C.3   1 <1>  -0.2400 
 19 C      -10.6670    -2.3810     0.3430 C.3   1 <1>  -0.2400 
 20 H       -1.7650     1.0540     0.8890 H     1 <1>   0.1500 
 21 H       -1.4080    -2.0900    -1.9720 H     1 <1>   0.1500 
 22 H       -4.1230     0.4390     1.2770 H     1 <1>   0.1500 
 23 H       -3.7650    -2.7120    -1.5850 H     1 <1>   0.1500 
 24 H       -8.2570    -1.0530     1.2870 H     1 <1>   0.0800 
 25 H       -7.6590    -3.2700     1.4310 H     1 <1>   0.0800 
 26 H       -7.8510    -3.4710    -0.3100 H     1 <1>   0.0800 
 27 H       -8.5660    -0.3350    -1.2170 H     1 <1>   0.3600 
 28 H      -10.6190    -0.2740    -2.3720 H     1 <1>   0.0800 
 29 H      -11.9890    -1.0760    -1.6550 H     1 <1>   0.0800 
 30 H      -10.7020    -2.0210    -2.3540 H     1 <1>   0.0800 
 31 H      -11.5670     0.2630     0.4180 H     1 <1>   0.0800 
 32 H      -10.1280     0.9900    -0.2380 H     1 <1>   0.0800 
 33 H      -10.0760     0.1350     1.2890 H     1 <1>   0.0800 
 34 H      -11.7350    -2.3590     0.4630 H     1 <1>   0.0800 
 35 H      -10.2310    -2.4000     1.3240 H     1 <1>   0.0800 
 36 H      -10.4090    -3.2820    -0.1830 H     1 <1>   0.0800 
@<TRIPOS>BOND
  1   1   2  1   
  2   2   3  ar  
  3   2   4  ar  
  4   3   5  ar  
  5   3  20  1   
  6   4   6  ar  
  7   4  21  1   
  8   5   7  ar  
  9   5  22  1   
 10   6   7  ar  
 11   6  23  1   
 12   7   8  1   
 13   8   9  am  
 14   8  10  am  
 15   9  11  2   
 16   9  12  1   
 17  10  13  2   
 18  10  14  1   
 19  12  14  1   
 20  12  15  1   
 21  12  24  1   
 22  14  25  1   
 23  14  26  1   
 24  15  16  1   
 25  15  27  1   
 26  16  17  1   
 27  16  18  1   
 28  16  19  1   
 29  17  28  1   
 30  17  29  1   
 31  17  30  1   
 32  18  31  1   
 33  18  32  1   
 34  18  33  1   
 35  19  34  1   
 36  19  35  1   
 37  19  36  1   
@<TRIPOS>SUBSTRUCTURE
  1 ****   8 GROUP 4 **** **** 0

# MOE 2024.06 (io_trps.svl 2023.06)
