@<TRIPOS>MOLECULE
NONAME
48 49 1 0 0 
SMALL
USER_CHARGES


@<TRIPOS>ATOM
  1 O        1.0940    -0.9200    -1.9500 O.2   1 <1>  -0.5700 
  2 C        0.6660    -1.9130    -1.4090 C.2   1 <1>   0.6900 
  3 N       -0.1960    -1.8130    -0.3680 N.am  1 <1>  -0.5390 
  4 N        1.0480    -3.1340    -1.8120 N.am  1 <1>  -0.7300 
  5 C       -0.6850    -2.8860     0.3490 C.2   1 <1>  -0.0290 
  6 C        0.7360    -4.3700    -1.0720 C.3   1 <1>   0.5020 
  7 C       -0.2720    -4.1540     0.0640 C.2   1 <1>  -0.1240 
  8 C       -1.6830    -2.4810     1.4230 C.3   1 <1>  -0.1020 
  9 C        2.0540    -4.9240    -0.5380 C.ar  1 <1>  -0.1440 
 10 C       -0.6460    -5.3750     0.7170 C.2   1 <1>   0.7060 
 11 C        2.4960    -6.1760    -0.9420 C.ar  1 <1>  -0.1500 
 12 C        2.8170    -4.1970     0.3670 C.ar  1 <1>  -0.1500 
 13 O       -1.1160    -5.4330     1.8360 O.2   1 <1>  -0.5700 
 14 O       -0.4610    -6.5260     0.0580 O.3   1 <1>  -0.4300 
 15 C        3.6740    -6.7040    -0.4460 C.ar  1 <1>   0.0830 
 16 C        4.0080    -4.7080     0.8530 C.ar  1 <1>  -0.1500 
 17 C       -0.7230    -7.7750     0.6590 C.3   1 <1>   0.1200 
 18 O        4.0120    -7.9530    -0.8450 O.3   1 <1>  -0.3630 
 19 C        4.4520    -5.9520     0.4400 C.ar  1 <1>   0.0830 
 20 C       -0.2800    -8.8670    -0.3100 C.3   1 <1>  -0.2400 
 21 C        4.0500    -8.9430     0.1580 C.3   1 <1>   0.1200 
 22 O        5.6420    -6.3850     0.9190 O.3   1 <1>  -0.3630 
 23 C        4.1690   -10.3020    -0.5250 C.3   1 <1>  -0.2400 
 24 C        6.6760    -6.5320    -0.0290 C.3   1 <1>   0.3200 
 25 C        7.9110    -6.9650     0.6850 C.1   1 <1>  -0.2000 
 26 C        8.8960    -7.3120     1.2550 C.1   1 <1>  -0.1770 
 27 H       -0.4590    -0.8540    -0.1470 H     1 <1>   0.3700 
 28 H        1.8260    -3.1780    -2.4650 H     1 <1>   0.3700 
 29 H        0.3150    -5.0640    -1.7800 H     1 <1>   0.0800 
 30 H       -1.1620    -2.0590     2.2640 H     1 <1>   0.0800 
 31 H       -2.2720    -3.3090     1.7680 H     1 <1>   0.0800 
 32 H       -2.3660    -1.7460     1.0360 H     1 <1>   0.0800 
 33 H        1.9240    -6.7650    -1.6360 H     1 <1>   0.1500 
 34 H        2.4850    -3.2260     0.6970 H     1 <1>   0.1500 
 35 H        4.5990    -4.1410     1.5500 H     1 <1>   0.1500 
 36 H       -1.7790    -7.8400     0.8650 H     1 <1>   0.0800 
 37 H       -0.1700    -7.8340     1.5820 H     1 <1>   0.0800 
 38 H       -0.8240    -8.7870    -1.2340 H     1 <1>   0.0800 
 39 H       -0.4780    -9.8330     0.1200 H     1 <1>   0.0800 
 40 H        0.7750    -8.7890    -0.5010 H     1 <1>   0.0800 
 41 H        3.1430    -8.8810     0.7350 H     1 <1>   0.0800 
 42 H        4.8980    -8.7630     0.7960 H     1 <1>   0.0800 
 43 H        3.3210   -10.4710    -1.1640 H     1 <1>   0.0800 
 44 H        4.2000   -11.0790     0.2170 H     1 <1>   0.0800 
 45 H        5.0730   -10.3450    -1.1050 H     1 <1>   0.0800 
 46 H        6.8310    -5.5840    -0.5130 H     1 <1>   0.0800 
 47 H        6.3890    -7.2700    -0.7560 H     1 <1>   0.0800 
 48 H        9.7830    -7.6240     1.7770 H     1 <1>   0.1770 
@<TRIPOS>BOND
  1   1   2  2   
  2   2   3  am  
  3   2   4  am  
  4   3   5  1   
  5   3  27  1   
  6   4   6  1   
  7   4  28  1   
  8   5   7  2   
  9   5   8  1   
 10   6   7  1   
 11   6   9  1   
 12   6  29  1   
 13   7  10  1   
 14   8  30  1   
 15   8  31  1   
 16   8  32  1   
 17   9  11  ar  
 18   9  12  ar  
 19  10  13  2   
 20  10  14  1   
 21  11  15  ar  
 22  11  33  1   
 23  12  16  ar  
 24  12  34  1   
 25  14  17  1   
 26  15  18  1   
 27  15  19  ar  
 28  16  19  ar  
 29  16  35  1   
 30  17  20  1   
 31  17  36  1   
 32  17  37  1   
 33  18  21  1   
 34  19  22  1   
 35  20  38  1   
 36  20  39  1   
 37  20  40  1   
 38  21  23  1   
 39  21  41  1   
 40  21  42  1   
 41  22  24  1   
 42  23  43  1   
 43  23  44  1   
 44  23  45  1   
 45  24  25  1   
 46  24  46  1   
 47  24  47  1   
 48  25  26  3   
 49  26  48  1   
@<TRIPOS>SUBSTRUCTURE
  1 ****   9 GROUP 4 **** **** 0

# MOE 2024.06 (io_trps.svl 2023.06)
