@<TRIPOS>MOLECULE
NONAME
41 43 1 0 0 
SMALL
USER_CHARGES


@<TRIPOS>ATOM
  1 O       -1.0010     3.5220    -1.1120 O.2   1 <1>  -0.5700 
  2 C       -0.3420     2.5480    -0.7950 C.2   1 <1>   0.5440 
  3 N       -0.9960     1.3910    -0.4480 N.am  1 <1>  -0.5470 
  4 C        1.1100     2.6270    -0.7840 C.ar  1 <1>   0.0860 
  5 C       -2.3430     1.0050    -0.3950 C.ar  1 <1>   0.1170 
  6 C        1.9620     1.6000    -0.3070 C.ar  1 <1>   0.4100 
  7 C        1.7290     3.7770    -1.2680 C.ar  1 <1>  -0.1500 
  8 C       -3.3660     1.6880    -1.0460 C.ar  1 <1>  -0.1500 
  9 C       -2.6700    -0.1330     0.3340 C.ar  1 <1>  -0.1500 
 10 N        3.2930     1.6810    -0.3010 N.ar  1 <1>  -0.6200 
 11 N        1.4850     0.4060     0.2070 N.pl3 1 <1>  -0.8380 
 12 C        3.1020     3.8540    -1.2590 C.ar  1 <1>  -0.1500 
 13 C       -4.6750     1.2470    -0.9630 C.ar  1 <1>  -0.1500 
 14 C       -3.9760    -0.5790     0.4200 C.ar  1 <1>  -0.1500 
 15 C        3.8280     2.7880    -0.7690 C.ar  1 <1>   0.1600 
 16 C        1.7610    -0.8350    -0.5620 C.3   1 <1>   0.2090 
 17 C        1.6970     0.1510     1.6570 C.3   1 <1>   0.2090 
 18 C       -4.9920     0.1140    -0.2320 C.ar  1 <1>   0.0830 
 19 C        1.7720    -1.9490     0.4750 C.3   1 <1>  -0.1600 
 20 C        2.2520    -1.2650     1.7480 C.3   1 <1>  -0.1600 
 21 O       -6.3010    -0.2500    -0.2020 O.3   1 <1>  -0.3620 
 22 C       -6.7250    -1.3760     0.5340 C.3   1 <1>   0.0400 
 23 H       -0.3280     0.6860    -0.1090 H     1 <1>   0.3700 
 24 H        1.1430     4.5980    -1.6450 H     1 <1>   0.1500 
 25 H       -3.1460     2.5660    -1.6230 H     1 <1>   0.1500 
 26 H       -1.8910    -0.6730     0.8410 H     1 <1>   0.1500 
 27 H        3.6060     4.7300    -1.6270 H     1 <1>   0.1500 
 28 H       -5.4590     1.7820    -1.4670 H     1 <1>   0.1500 
 29 H       -4.1840    -1.4610     0.9950 H     1 <1>   0.1500 
 30 H        4.9040     2.8520    -0.7640 H     1 <1>   0.1500 
 31 H        2.7260    -0.7630    -1.0370 H     1 <1>   0.0800 
 32 H        1.0060    -1.0000    -1.3110 H     1 <1>   0.0800 
 33 H        0.7510     0.2150     2.1670 H     1 <1>   0.0800 
 34 H        2.3810     0.8640     2.0880 H     1 <1>   0.0800 
 35 H        2.4100    -2.7620     0.1790 H     1 <1>   0.0800 
 36 H        0.7690    -2.3150     0.6070 H     1 <1>   0.0800 
 37 H        1.9250    -1.7690     2.6390 H     1 <1>   0.0800 
 38 H        3.3280    -1.2110     1.7480 H     1 <1>   0.0800 
 39 H       -7.7900    -1.4650     0.4220 H     1 <1>   0.0800 
 40 H       -6.4770    -1.2280     1.5700 H     1 <1>   0.0800 
 41 H       -6.2410    -2.2520     0.1400 H     1 <1>   0.0800 
@<TRIPOS>BOND
  1   1   2  2   
  2   2   3  am  
  3   2   4  1   
  4   3   5  1   
  5   3  23  1   
  6   4   6  ar  
  7   4   7  ar  
  8   5   8  ar  
  9   5   9  ar  
 10   6  10  ar  
 11   6  11  1   
 12   7  12  ar  
 13   7  24  1   
 14   8  13  ar  
 15   8  25  1   
 16   9  14  ar  
 17   9  26  1   
 18  10  15  ar  
 19  11  16  1   
 20  11  17  1   
 21  12  15  ar  
 22  12  27  1   
 23  13  18  ar  
 24  13  28  1   
 25  14  18  ar  
 26  14  29  1   
 27  15  30  1   
 28  16  19  1   
 29  16  31  1   
 30  16  32  1   
 31  17  20  1   
 32  17  33  1   
 33  17  34  1   
 34  18  21  1   
 35  19  20  1   
 36  19  35  1   
 37  19  36  1   
 38  20  37  1   
 39  20  38  1   
 40  21  22  1   
 41  22  39  1   
 42  22  40  1   
 43  22  41  1   
@<TRIPOS>SUBSTRUCTURE
  1 ****   3 GROUP 4 **** **** 0

# MOE 2024.06 (io_trps.svl 2023.06)
