@<TRIPOS>MOLECULE
NONAME
44 47 1 0 0 
SMALL
USER_CHARGES


@<TRIPOS>ATOM
  1 N       -1.8550     4.5230     0.1150 N.2   1 <1>  -0.2670 
  2 N       -2.8010     3.5380     0.1590 N.pl3 1 <1>  -0.3370 
  3 C       -0.8210     3.9230    -0.3570 C.2   1 <1>   0.4790 
  4 C       -2.3120     2.3990    -0.2840 C.cat 1 <1>   1.0690 
  5 C       -4.1360     3.3350     0.4680 C.ar  1 <1>   0.3810 
  6 N       -1.0540     2.5970    -0.6210 N.pl3 1 <1>  -0.7040 
  7 C        0.5260     4.5630    -0.6140 C.3   1 <1>  -0.0810 
  8 N       -3.2230     1.3950    -0.2720 N.pl3 1 <1>  -0.5800 
  9 C       -4.4010     1.9980     0.1880 C.ar  1 <1>   0.3040 
 10 C       -5.1200     4.1850     0.9510 C.ar  1 <1>  -0.1580 
 11 C       -3.0860    -0.0090    -0.7650 C.3   1 <1>   0.1600 
 12 C       -5.6840     1.4900     0.3800 C.ar  1 <1>  -0.1580 
 13 C       -6.3870     3.6720     1.1470 C.ar  1 <1>  -0.1580 
 14 C       -3.2550    -1.0450     0.3720 C.3   1 <1>   0.3360 
 15 C       -6.6660     2.3340     0.8610 C.ar  1 <1>  -0.1580 
 16 N       -3.1180    -2.4640    -0.0890 N.4   1 <1>  -0.9610 
 17 C       -4.2170    -2.9010    -1.0070 C.3   1 <1>   0.3360 
 18 C       -3.0420    -3.3810     1.0900 C.3   1 <1>   0.3360 
 19 C       -3.9170    -4.3040    -1.5350 C.3   1 <1>  -0.1680 
 20 C       -2.7100    -4.7970     0.6200 C.3   1 <1>  -0.1680 
 21 C       -3.7380    -5.3110    -0.3940 C.3   1 <1>  -0.1680 
 22 H       -0.3860     1.9400    -1.0160 H     1 <1>   0.4440 
 23 H        0.4980     5.6040    -0.3440 H     1 <1>   0.0710 
 24 H        0.7800     4.4870    -1.6560 H     1 <1>   0.0710 
 25 H        1.2860     4.0780    -0.0280 H     1 <1>   0.0710 
 26 H       -4.8910     5.2160     1.1630 H     1 <1>   0.1420 
 27 H       -2.1160    -0.1330    -1.2160 H     1 <1>   0.0710 
 28 H       -3.8350    -0.1740    -1.5210 H     1 <1>   0.0710 
 29 H       -5.9190     0.4650     0.1560 H     1 <1>   0.1420 
 30 H       -7.1760     4.3070     1.5230 H     1 <1>   0.1420 
 31 H       -4.2240    -0.9210     0.8260 H     1 <1>   0.0710 
 32 H       -2.5070    -0.8530     1.1230 H     1 <1>   0.0710 
 33 H       -7.6690     1.9670     1.0200 H     1 <1>   0.1420 
 34 H       -2.2340    -2.6040    -0.5980 H     1 <1>   0.4440 
 35 H       -4.3040    -2.2250    -1.8400 H     1 <1>   0.0710 
 36 H       -5.1550    -2.9130    -0.4740 H     1 <1>   0.0710 
 37 H       -3.9860    -3.3870     1.6110 H     1 <1>   0.0710 
 38 H       -2.2780    -3.0460     1.7730 H     1 <1>   0.0710 
 39 H       -3.0310    -4.2790    -2.1450 H     1 <1>   0.0710 
 40 H       -4.7300    -4.6250    -2.1640 H     1 <1>   0.0710 
 41 H       -2.6940    -5.4550     1.4720 H     1 <1>   0.0710 
 42 H       -1.7260    -4.8120     0.1860 H     1 <1>   0.0710 
 43 H       -3.4200    -6.2620    -0.7890 H     1 <1>   0.0710 
 44 H       -4.6830    -5.4640     0.1010 H     1 <1>   0.0710 
@<TRIPOS>BOND
  1   1   2  1   
  2   1   3  2   
  3   2   4  ar  
  4   2   5  1   
  5   3   6  1   
  6   3   7  1   
  7   4   6  ar  
  8   4   8  ar  
  9   5   9  ar  
 10   5  10  ar  
 11   6  22  1   
 12   7  23  1   
 13   7  24  1   
 14   7  25  1   
 15   8   9  1   
 16   8  11  1   
 17   9  12  ar  
 18  10  13  ar  
 19  10  26  1   
 20  11  14  1   
 21  11  27  1   
 22  11  28  1   
 23  12  15  ar  
 24  12  29  1   
 25  13  15  ar  
 26  13  30  1   
 27  14  16  1   
 28  14  31  1   
 29  14  32  1   
 30  15  33  1   
 31  16  17  1   
 32  16  18  1   
 33  16  34  1   
 34  17  19  1   
 35  17  35  1   
 36  17  36  1   
 37  18  20  1   
 38  18  37  1   
 39  18  38  1   
 40  19  21  1   
 41  19  39  1   
 42  19  40  1   
 43  20  21  1   
 44  20  41  1   
 45  20  42  1   
 46  21  43  1   
 47  21  44  1   
@<TRIPOS>SUBSTRUCTURE
  1 ****   8 GROUP 4 **** **** 0

# MOE 2024.06 (io_trps.svl 2023.06)
