@<TRIPOS>MOLECULE
NONAME
44 46 1 0 0 
SMALL
USER_CHARGES


@<TRIPOS>ATOM
  1 O       -2.7970    -6.2760    -0.1800 O.3   1 <1>  -0.6800 
  2 C       -1.5720    -5.7740    -0.5510 C.3   1 <1>   0.2000 
  3 C       -0.6330    -5.9660     0.6570 C.3   1 <1>   0.3430 
  4 C       -1.7910    -4.3120    -0.9460 C.3   1 <1>  -0.2400 
  5 N        0.7180    -5.3690     0.4410 N.4   1 <1>  -0.9060 
  6 C        1.6200    -5.5290     1.5970 C.3   1 <1>   0.4860 
  7 C        2.9220    -4.8820     1.1950 C.ar  1 <1>  -0.1440 
  8 C        3.9050    -5.6280     0.5750 C.ar  1 <1>  -0.1500 
  9 C        3.1250    -3.5180     1.4360 C.ar  1 <1>  -0.1500 
 10 C        5.0900    -5.0130     0.1790 C.ar  1 <1>   0.0000 
 11 C        4.2960    -2.9030     1.0480 C.ar  1 <1>  -0.1500 
 12 C        5.2810    -3.6580     0.4100 C.ar  1 <1>  -0.1520 
 13 C        6.2600    -5.4990    -0.4700 C.ar  1 <1>   0.0000 
 14 N        6.5240    -3.2970    -0.0760 N.pl3 1 <1>   0.0480 
 15 C        7.1240    -4.4200    -0.6120 C.ar  1 <1>  -0.1520 
 16 C        6.6360    -6.7590    -0.9350 C.ar  1 <1>  -0.1500 
 17 C        7.1160    -1.9420    -0.0330 C.3   1 <1>   0.0960 
 18 C        8.3710    -4.5860    -1.2160 C.ar  1 <1>  -0.1500 
 19 C        7.8670    -6.9200    -1.5340 C.ar  1 <1>  -0.1500 
 20 C        7.9250    -1.7500     1.2520 C.3   1 <1>  -0.2400 
 21 C        8.7340    -5.8350    -1.6730 C.ar  1 <1>  -0.1500 
 22 H       -3.4570    -6.1660    -0.8970 H     1 <1>   0.4000 
 23 H       -1.2260    -6.3510    -1.3920 H     1 <1>   0.0800 
 24 H       -0.5390    -7.0230     0.8490 H     1 <1>   0.0800 
 25 H       -1.0950    -5.5060     1.5150 H     1 <1>   0.0800 
 26 H       -2.1500    -3.7390    -0.1080 H     1 <1>   0.0800 
 27 H       -2.5090    -4.2470    -1.7460 H     1 <1>   0.0800 
 28 H       -0.8770    -3.8700    -1.3000 H     1 <1>   0.0800 
 29 H        0.6430    -4.3650     0.2420 H     1 <1>   0.4500 
 30 H        1.1850    -5.7840    -0.3750 H     1 <1>   0.4500 
 31 H        1.7780    -6.5730     1.8160 H     1 <1>   0.0800 
 32 H        1.2160    -5.0420     2.4710 H     1 <1>   0.0800 
 33 H        3.7960    -6.6810     0.3830 H     1 <1>   0.1500 
 34 H        2.3710    -2.9290     1.9320 H     1 <1>   0.1500 
 35 H        4.4570    -1.8560     1.2350 H     1 <1>   0.1500 
 36 H        5.9660    -7.5900    -0.8220 H     1 <1>   0.1500 
 37 H        6.3260    -1.2150    -0.0880 H     1 <1>   0.0800 
 38 H        7.7490    -1.8140    -0.8930 H     1 <1>   0.0800 
 39 H        9.0410    -3.7520    -1.3210 H     1 <1>   0.1500 
 40 H        8.1710    -7.8870    -1.8970 H     1 <1>   0.1500 
 41 H        7.2900    -1.8640     2.1130 H     1 <1>   0.0800 
 42 H        8.3540    -0.7640     1.2710 H     1 <1>   0.0800 
 43 H        8.7210    -2.4710     1.3020 H     1 <1>   0.0800 
 44 H        9.6910    -5.9820    -2.1420 H     1 <1>   0.1500 
@<TRIPOS>BOND
  1   1   2  1   
  2   1  22  1   
  3   2   3  1   
  4   2   4  1   
  5   2  23  1   
  6   3   5  1   
  7   3  24  1   
  8   3  25  1   
  9   4  26  1   
 10   4  27  1   
 11   4  28  1   
 12   5   6  1   
 13   5  29  1   
 14   5  30  1   
 15   6   7  1   
 16   6  31  1   
 17   6  32  1   
 18   7   8  ar  
 19   7   9  ar  
 20   8  10  ar  
 21   8  33  1   
 22   9  11  ar  
 23   9  34  1   
 24  10  12  ar  
 25  10  13  1   
 26  11  12  ar  
 27  11  35  1   
 28  12  14  1   
 29  13  15  ar  
 30  13  16  ar  
 31  14  15  1   
 32  14  17  1   
 33  15  18  ar  
 34  16  19  ar  
 35  16  36  1   
 36  17  20  1   
 37  17  37  1   
 38  17  38  1   
 39  18  21  ar  
 40  18  39  1   
 41  19  21  ar  
 42  19  40  1   
 43  20  41  1   
 44  20  42  1   
 45  20  43  1   
 46  21  44  1   
@<TRIPOS>SUBSTRUCTURE
  1 ****  10 GROUP 4 **** **** 0

# MOE 2024.06 (io_trps.svl 2023.06)
