@<TRIPOS>MOLECULE
NONAME
37 38 1 0 0 
SMALL
USER_CHARGES


@<TRIPOS>ATOM
  1 N       -0.2110     0.0380     0.2680 N.4   1 <1>  -0.9060 
  2 C       -0.1420     1.5020     0.5290 C.3   1 <1>   0.3430 
  3 C       -1.5210    -0.5540     0.6520 C.3   1 <1>   0.3430 
  4 C       -1.2380     2.2140    -0.2630 C.3   1 <1>  -0.1600 
  5 C       -2.6410     0.1230    -0.1390 C.3   1 <1>  -0.1600 
  6 C       -2.6360     1.6490     0.0550 C.3   1 <1>  -0.0800 
  7 C       -3.7330     2.3140    -0.7990 C.3   1 <1>  -0.0170 
  8 C       -3.7690     3.8200    -0.5900 C.ar  1 <1>  -0.1430 
  9 C       -3.2650     4.6790    -1.5540 C.ar  1 <1>  -0.1500 
 10 C       -4.3040     4.3500     0.5740 C.ar  1 <1>  -0.1500 
 11 C       -3.2880     6.0480    -1.3540 C.ar  1 <1>  -0.1500 
 12 C       -4.3270     5.7200     0.7730 C.ar  1 <1>  -0.1500 
 13 C       -3.8190     6.5770    -0.1890 C.ar  1 <1>  -0.1430 
 14 C       -3.8500     8.0820     0.0290 C.3   1 <1>  -0.0170 
 15 C       -2.5720     8.5530     0.7260 C.3   1 <1>  -0.2400 
 16 H        0.5490    -0.4390     0.7700 H     1 <1>   0.4500 
 17 H       -0.0570    -0.1220    -0.7350 H     1 <1>   0.4500 
 18 H        0.8220     1.8880     0.2400 H     1 <1>   0.0800 
 19 H       -0.2820     1.6920     1.5820 H     1 <1>   0.0800 
 20 H       -1.6900    -0.4100     1.7080 H     1 <1>   0.0800 
 21 H       -1.5230    -1.6140     0.4510 H     1 <1>   0.0800 
 22 H       -1.0320     2.1340    -1.3160 H     1 <1>   0.0800 
 23 H       -1.2060     3.2600    -0.0100 H     1 <1>   0.0800 
 24 H       -3.5860    -0.2750     0.1910 H     1 <1>   0.0800 
 25 H       -2.5380    -0.1210    -1.1830 H     1 <1>   0.0800 
 26 H       -2.8560     1.8590     1.0890 H     1 <1>   0.0800 
 27 H       -4.6950     1.9100    -0.5350 H     1 <1>   0.0800 
 28 H       -3.5730     2.0990    -1.8420 H     1 <1>   0.0800 
 29 H       -2.8520     4.2920    -2.4690 H     1 <1>   0.1500 
 30 H       -4.7090     3.7030     1.3310 H     1 <1>   0.1500 
 31 H       -2.8930     6.7030    -2.1100 H     1 <1>   0.1500 
 32 H       -4.7440     6.1180     1.6820 H     1 <1>   0.1500 
 33 H       -4.7050     8.3440     0.6270 H     1 <1>   0.0800 
 34 H       -3.9500     8.5830    -0.9180 H     1 <1>   0.0800 
 35 H       -2.4720     8.0700     1.6820 H     1 <1>   0.0800 
 36 H       -2.6020     9.6170     0.8760 H     1 <1>   0.0800 
 37 H       -1.7120     8.3120     0.1260 H     1 <1>   0.0800 
@<TRIPOS>BOND
  1   1   2  1   
  2   1   3  1   
  3   1  16  1   
  4   1  17  1   
  5   2   4  1   
  6   2  18  1   
  7   2  19  1   
  8   3   5  1   
  9   3  20  1   
 10   3  21  1   
 11   4   6  1   
 12   4  22  1   
 13   4  23  1   
 14   5   6  1   
 15   5  24  1   
 16   5  25  1   
 17   6   7  1   
 18   6  26  1   
 19   7   8  1   
 20   7  27  1   
 21   7  28  1   
 22   8   9  ar  
 23   8  10  ar  
 24   9  11  ar  
 25   9  29  1   
 26  10  12  ar  
 27  10  30  1   
 28  11  13  ar  
 29  11  31  1   
 30  12  13  ar  
 31  12  32  1   
 32  13  14  1   
 33  14  15  1   
 34  14  33  1   
 35  14  34  1   
 36  15  35  1   
 37  15  36  1   
 38  15  37  1   
@<TRIPOS>SUBSTRUCTURE
  1 ****   8 GROUP 4 **** **** 0

# MOE 2024.06 (io_trps.svl 2023.06)
