@<TRIPOS>MOLECULE
NONAME
38 38 1 0 0 
SMALL
USER_CHARGES


@<TRIPOS>ATOM
  1 S        0.1520     0.1100    -0.0680 S.o2  1 <1>   1.0900 
  2 O        0.4050    -1.2940     0.1550 O.2   1 <1>  -0.6500 
  3 O        0.2150     1.0400     1.0380 O.2   1 <1>  -0.6500 
  4 C       -1.4290     0.2910    -0.9060 C.3   1 <1>   0.0890 
  5 C        1.2920     0.7430    -1.2970 C.3   1 <1>  -0.0550 
  6 C       -2.6360    -0.0920    -0.0590 C.ar  1 <1>  -0.1440 
  7 C        2.7750     0.5090    -0.9970 C.3   1 <1>   0.2000 
  8 C       -2.8730    -1.4220     0.2530 C.ar  1 <1>  -0.1500 
  9 C       -3.5070     0.8820     0.4060 C.ar  1 <1>  -0.1500 
 10 O        3.1280    -0.7330    -1.4790 O.3   1 <1>  -0.6800 
 11 C        3.2150     0.5900     0.4790 C.3   1 <1>   0.1200 
 12 C       -3.9730    -1.7760     1.0140 C.ar  1 <1>  -0.1500 
 13 C       -4.6080     0.5280     1.1670 C.ar  1 <1>  -0.1500 
 14 O        4.5650     0.2260     0.5800 O.3   1 <1>  -0.5600 
 15 C       -4.8430    -0.8010     1.4700 C.ar  1 <1>  -0.1500 
 16 C        5.4870     1.2570     0.4570 C.3   1 <1>   0.2000 
 17 C        6.7590     0.6420    -0.1150 C.3   1 <1>  -0.2400 
 18 C        5.7290     1.8530     1.8430 C.3   1 <1>  -0.2400 
 19 H       -1.4350    -0.3250    -1.7850 H     1 <1>   0.0800 
 20 H       -1.5470     1.3070    -1.2260 H     1 <1>   0.0800 
 21 H        1.1430     1.8020    -1.3730 H     1 <1>   0.0800 
 22 H        1.0780     0.3190    -2.2590 H     1 <1>   0.0800 
 23 H        3.3470     1.2250    -1.5600 H     1 <1>   0.0800 
 24 H       -2.2000    -2.1910    -0.0880 H     1 <1>   0.1500 
 25 H       -3.3370     1.9210     0.1850 H     1 <1>   0.1500 
 26 H        3.9050    -1.0330    -0.9540 H     1 <1>   0.4000 
 27 H        2.6590    -0.1120     1.0770 H     1 <1>   0.0800 
 28 H        3.0620     1.5740     0.8860 H     1 <1>   0.0800 
 29 H       -4.1500    -2.8100     1.2540 H     1 <1>   0.1500 
 30 H       -5.2810     1.2870     1.5260 H     1 <1>   0.1500 
 31 H       -5.6980    -1.0770     2.0630 H     1 <1>   0.1500 
 32 H        5.1100     2.0040    -0.2230 H     1 <1>   0.0800 
 33 H        7.1300    -0.1260     0.5400 H     1 <1>   0.0800 
 34 H        7.5170     1.3960    -0.2250 H     1 <1>   0.0800 
 35 H        6.5580     0.2180    -1.0820 H     1 <1>   0.0800 
 36 H        6.0710     1.0900     2.5190 H     1 <1>   0.0800 
 37 H        4.8280     2.2910     2.2300 H     1 <1>   0.0800 
 38 H        6.4790     2.6200     1.7850 H     1 <1>   0.0800 
@<TRIPOS>BOND
  1   1   2  2   
  2   1   3  2   
  3   1   4  1   
  4   1   5  1   
  5   4   6  1   
  6   4  19  1   
  7   4  20  1   
  8   5   7  1   
  9   5  21  1   
 10   5  22  1   
 11   6   8  ar  
 12   6   9  ar  
 13   7  10  1   
 14   7  11  1   
 15   7  23  1   
 16   8  12  ar  
 17   8  24  1   
 18   9  13  ar  
 19   9  25  1   
 20  10  26  1   
 21  11  14  1   
 22  11  27  1   
 23  11  28  1   
 24  12  15  ar  
 25  12  29  1   
 26  13  15  ar  
 27  13  30  1   
 28  14  16  1   
 29  15  31  1   
 30  16  17  1   
 31  16  18  1   
 32  16  32  1   
 33  17  33  1   
 34  17  34  1   
 35  17  35  1   
 36  18  36  1   
 37  18  37  1   
 38  18  38  1   
@<TRIPOS>SUBSTRUCTURE
  1 ****   1 GROUP 4 **** **** 0

# MOE 2024.06 (io_trps.svl 2023.06)
