@<TRIPOS>MOLECULE
NONAME
41 42 1 0 0 
SMALL
USER_CHARGES


@<TRIPOS>ATOM
  1 BR      -0.1010     0.5050     0.5020 Br    1 <1>  -0.1110 
  2 C        1.7060     1.1360     0.2910 C.ar  1 <1>   0.1110 
  3 C        2.7490     0.2980     0.6390 C.ar  1 <1>  -0.1500 
  4 C        1.9130     2.4100    -0.2040 C.ar  1 <1>  -0.1500 
  5 C        4.0480     0.7530     0.4870 C.ar  1 <1>  -0.1500 
  6 C        3.2150     2.8550    -0.3530 C.ar  1 <1>  -0.1500 
  7 C        4.2840     2.0360    -0.0110 C.ar  1 <1>   0.0830 
  8 O        5.5240     2.5570    -0.1910 O.3   1 <1>  -0.3630 
  9 C        6.6830     1.8220     0.1160 C.3   1 <1>   0.1200 
 10 C        7.8870     2.7080    -0.2080 C.3   1 <1>  -0.1600 
 11 C        9.2180     2.0000     0.0850 C.3   1 <1>  -0.1600 
 12 C       10.3950     2.9210    -0.2460 C.3   1 <1>   0.3430 
 13 N       11.6860     2.2830     0.1310 N.4   1 <1>  -0.9590 
 14 C       12.7730     3.3050     0.1860 C.3   1 <1>   0.3430 
 15 C       12.0520     1.1540    -0.7790 C.3   1 <1>   0.3430 
 16 C       14.0580     2.6670     0.7190 C.3   1 <1>  -0.1600 
 17 C       13.3210     0.4680    -0.2690 C.3   1 <1>  -0.1600 
 18 C       14.4840     1.4580    -0.1240 C.3   1 <1>  -0.1600 
 19 H        2.5440    -0.6860     1.0200 H     1 <1>   0.1500 
 20 H        1.0780     3.0340    -0.4650 H     1 <1>   0.1500 
 21 H        4.8540     0.0990     0.7590 H     1 <1>   0.1500 
 22 H        3.4120     3.8410    -0.7350 H     1 <1>   0.1500 
 23 H        6.6850     0.9290    -0.4850 H     1 <1>   0.0800 
 24 H        6.6560     1.5710     1.1630 H     1 <1>   0.0800 
 25 H        7.8160     3.6070     0.3820 H     1 <1>   0.0800 
 26 H        7.8410     2.9780    -1.2500 H     1 <1>   0.0800 
 27 H        9.2670     1.1030    -0.5080 H     1 <1>   0.0800 
 28 H        9.2480     1.7340     1.1270 H     1 <1>   0.0800 
 29 H       10.2750     3.8410     0.3050 H     1 <1>   0.0800 
 30 H       10.3920     3.1590    -1.2980 H     1 <1>   0.0800 
 31 H       11.5910     1.8950     1.0790 H     1 <1>   0.4500 
 32 H       12.4850     4.1190     0.8320 H     1 <1>   0.0800 
 33 H       12.9520     3.7010    -0.8010 H     1 <1>   0.0800 
 34 H       12.2220     1.5300    -1.7760 H     1 <1>   0.0800 
 35 H       11.2520     0.4330    -0.8210 H     1 <1>   0.0800 
 36 H       13.9110     2.3670     1.7430 H     1 <1>   0.0800 
 37 H       14.8450     3.4010     0.7100 H     1 <1>   0.0800 
 38 H       13.6010    -0.3100    -0.9580 H     1 <1>   0.0800 
 39 H       13.1170    -0.0010     0.6780 H     1 <1>   0.0800 
 40 H       15.3270     0.9690     0.3360 H     1 <1>   0.0800 
 41 H       14.7940     1.7930    -1.1000 H     1 <1>   0.0800 
@<TRIPOS>BOND
  1   1   2  1   
  2   2   3  ar  
  3   2   4  ar  
  4   3   5  ar  
  5   3  19  1   
  6   4   6  ar  
  7   4  20  1   
  8   5   7  ar  
  9   5  21  1   
 10   6   7  ar  
 11   6  22  1   
 12   7   8  1   
 13   8   9  1   
 14   9  10  1   
 15   9  23  1   
 16   9  24  1   
 17  10  11  1   
 18  10  25  1   
 19  10  26  1   
 20  11  12  1   
 21  11  27  1   
 22  11  28  1   
 23  12  13  1   
 24  12  29  1   
 25  12  30  1   
 26  13  14  1   
 27  13  15  1   
 28  13  31  1   
 29  14  16  1   
 30  14  32  1   
 31  14  33  1   
 32  15  17  1   
 33  15  34  1   
 34  15  35  1   
 35  16  18  1   
 36  16  36  1   
 37  16  37  1   
 38  17  18  1   
 39  17  38  1   
 40  17  39  1   
 41  18  40  1   
 42  18  41  1   
@<TRIPOS>SUBSTRUCTURE
  1 ****   9 GROUP 4 **** **** 0

# MOE 2024.06 (io_trps.svl 2023.06)
