@<TRIPOS>MOLECULE
NONAME
42 45 1 0 0 
SMALL
USER_CHARGES


@<TRIPOS>ATOM
  1 CL       1.1840     0.5020    -2.5090 Cl    1 <1>  -0.1770 
  2 C        2.6020    -0.2350    -1.8120 C.ar  1 <1>   0.1770 
  3 C        3.8550     0.1620    -2.2380 C.ar  1 <1>  -0.1500 
  4 C        2.4580    -1.2080    -0.8430 C.ar  1 <1>  -0.1500 
  5 C        4.9780    -0.4260    -1.6830 C.ar  1 <1>  -0.1500 
  6 C        3.5870    -1.7890    -0.2940 C.ar  1 <1>  -0.1500 
  7 C        4.8730    -1.4150    -0.6980 C.ar  1 <1>   0.0530 
  8 C        6.0440    -2.0330    -0.1150 C.2   1 <1>   0.4250 
  9 O        7.2440    -1.6840    -0.4890 O.3   1 <1>  -0.2800 
 10 N        6.0940    -2.9550     0.7960 N.2   1 <1>  -0.3380 
 11 C        8.0050    -2.4280     0.2300 C.2   1 <1>   0.5340 
 12 N        7.3820    -3.2110     1.0190 N.2   1 <1>  -0.3380 
 13 S        9.7750    -2.2890     0.0500 S.3   1 <1>  -0.2860 
 14 C       10.4090    -3.5440     1.2690 C.3   1 <1>   0.1310 
 15 C       11.9290    -3.6050     1.2920 C.2   1 <1>   0.5690 
 16 O       12.4510    -4.4280     2.0030 O.2   1 <1>  -0.5700 
 17 N       12.6590    -2.7510     0.5290 N.am  1 <1>  -0.7300 
 18 C       14.1380    -2.7040     0.4580 C.3   1 <1>   0.2200 
 19 C       14.7150    -1.2370     0.9050 C.3   1 <1>  -0.0800 
 20 C       14.6330    -2.9830    -1.1100 C.3   1 <1>  -0.1600 
 21 C       15.2000    -1.5040    -0.3140 C.3   1 <1>  -0.1600 
 22 C       15.7490    -0.0400     0.4880 C.3   1 <1>  -0.1600 
 23 C       15.6550    -1.7790    -1.5400 C.3   1 <1>  -0.0800 
 24 C       16.2490    -0.3250    -1.0850 C.3   1 <1>  -0.1600 
 25 H        3.9440     0.9210    -2.9950 H     1 <1>   0.1500 
 26 H        1.4740    -1.5020    -0.5250 H     1 <1>   0.1500 
 27 H        5.9500    -0.1120    -2.0210 H     1 <1>   0.1500 
 28 H        3.4700    -2.5480     0.4620 H     1 <1>   0.1500 
 29 H       10.0060    -4.4980     0.9850 H     1 <1>   0.0800 
 30 H       10.0360    -3.2670     2.2370 H     1 <1>   0.0800 
 31 H       12.1710    -2.0820    -0.0700 H     1 <1>   0.3700 
 32 H       14.5510    -3.4630     1.1070 H     1 <1>   0.0800 
 33 H       13.8040    -0.6730     1.0480 H     1 <1>   0.0800 
 34 H       13.7870    -3.0080    -1.7790 H     1 <1>   0.0800 
 35 H       15.1260    -3.9400    -1.1700 H     1 <1>   0.0800 
 36 H       14.2760    -0.9470    -0.7880 H     1 <1>   0.0800 
 37 H       16.1160    -2.0750     0.1570 H     1 <1>   0.0800 
 38 H       16.5990    -0.0340     1.1540 H     1 <1>   0.0800 
 39 H       15.2740     0.9260     0.5630 H     1 <1>   0.0800 
 40 H       16.5720    -2.3340    -1.6920 H     1 <1>   0.0800 
 41 H       17.3270    -0.3090    -1.1450 H     1 <1>   0.0800 
 42 H       15.8770     0.4490    -1.7400 H     1 <1>   0.0800 
@<TRIPOS>BOND
  1   1   2  1   
  2   2   3  ar  
  3   2   4  ar  
  4   3   5  ar  
  5   3  25  1   
  6   4   6  ar  
  7   4  26  1   
  8   5   7  ar  
  9   5  27  1   
 10   6   7  ar  
 11   6  28  1   
 12   7   8  1   
 13   8   9  1   
 14   8  10  2   
 15   9  11  1   
 16  10  12  1   
 17  11  12  2   
 18  11  13  1   
 19  13  14  1   
 20  14  15  1   
 21  14  29  1   
 22  14  30  1   
 23  15  16  2   
 24  15  17  am  
 25  17  18  1   
 26  17  31  1   
 27  18  19  1   
 28  18  20  1   
 29  18  32  1   
 30  19  21  1   
 31  19  22  1   
 32  19  33  1   
 33  20  23  1   
 34  20  34  1   
 35  20  35  1   
 36  21  23  1   
 37  21  36  1   
 38  21  37  1   
 39  22  24  1   
 40  22  38  1   
 41  22  39  1   
 42  23  24  1   
 43  23  40  1   
 44  24  41  1   
 45  24  42  1   
@<TRIPOS>SUBSTRUCTURE
  1 ****  13 GROUP 4 **** **** 0

# MOE 2024.06 (io_trps.svl 2023.06)
