@<TRIPOS>MOLECULE
NONAME
37 37 1 0 0 
SMALL
USER_CHARGES


@<TRIPOS>ATOM
  1 O       -0.0230     0.1620    -0.1650 O.2   1 <1>  -0.5700 
  2 C       -0.0230     1.3150     0.2180 C.2   1 <1>   0.6160 
  3 N        1.1570     1.8880     0.5920 N.am  1 <1>  -0.7300 
  4 C       -1.2370     2.0760     0.2860 C.2   1 <1>  -0.1360 
  5 C        2.4750     1.2230     0.5370 C.3   1 <1>   0.1400 
  6 C       -2.4830     1.6540    -0.0350 C.2   1 <1>  -0.1780 
  7 C        3.5380     2.2520     0.1590 C.3   1 <1>  -0.1600 
  8 C       -3.7290     2.3760     0.0140 C.ar  1 <1>   0.0280 
  9 C        4.9120     1.5960     0.0530 C.3   1 <1>   0.1200 
 10 C       -4.9210     1.7210    -0.2940 C.ar  1 <1>  -0.1500 
 11 C       -3.8120     3.7260     0.3610 C.ar  1 <1>  -0.1500 
 12 O        5.8300     2.5930    -0.2450 O.3   1 <1>  -0.5600 
 13 C       -6.1400     2.3730    -0.2590 C.ar  1 <1>  -0.1500 
 14 C       -5.0270     4.3840     0.3980 C.ar  1 <1>  -0.1500 
 15 C        7.1340     2.1340    -0.3950 C.3   1 <1>   0.0400 
 16 C       -6.2010     3.7180     0.0900 C.ar  1 <1>   0.0830 
 17 O       -7.3480     4.4330     0.1500 O.3   1 <1>  -0.3630 
 18 C       -8.5990     3.8530    -0.1440 C.3   1 <1>   0.0400 
 19 H        1.1610     2.8450     0.9430 H     1 <1>   0.3700 
 20 H       -1.0850     3.0770     0.6350 H     1 <1>   0.1500 
 21 H        2.6950     0.7950     1.5000 H     1 <1>   0.0800 
 22 H        2.4520     0.4310    -0.1930 H     1 <1>   0.0800 
 23 H       -2.5840     0.6370    -0.3780 H     1 <1>   0.1500 
 24 H        3.5780     3.0210     0.9100 H     1 <1>   0.0800 
 25 H        3.2900     2.6890    -0.7920 H     1 <1>   0.0800 
 26 H        4.9250     0.8640    -0.7380 H     1 <1>   0.0800 
 27 H        5.1920     1.1370     0.9860 H     1 <1>   0.0800 
 28 H       -4.8930     0.6810    -0.5660 H     1 <1>   0.1500 
 29 H       -2.9240     4.2760     0.6030 H     1 <1>   0.1500 
 30 H       -7.0280     1.8230    -0.5050 H     1 <1>   0.1500 
 31 H       -5.0760     5.4240     0.6670 H     1 <1>   0.1500 
 32 H        7.7610     2.9790    -0.6200 H     1 <1>   0.0800 
 33 H        7.1730     1.4280    -1.2060 H     1 <1>   0.0800 
 34 H        7.4590     1.6770     0.5240 H     1 <1>   0.0800 
 35 H       -9.3540     4.6090    -0.0280 H     1 <1>   0.0800 
 36 H       -8.7800     3.0470     0.5450 H     1 <1>   0.0800 
 37 H       -8.5880     3.4980    -1.1590 H     1 <1>   0.0800 
@<TRIPOS>BOND
  1   1   2  2   
  2   2   3  am  
  3   2   4  1   
  4   3   5  1   
  5   3  19  1   
  6   4   6  2   
  7   4  20  1   
  8   5   7  1   
  9   5  21  1   
 10   5  22  1   
 11   6   8  1   
 12   6  23  1   
 13   7   9  1   
 14   7  24  1   
 15   7  25  1   
 16   8  10  ar  
 17   8  11  ar  
 18   9  12  1   
 19   9  26  1   
 20   9  27  1   
 21  10  13  ar  
 22  10  28  1   
 23  11  14  ar  
 24  11  29  1   
 25  12  15  1   
 26  13  16  ar  
 27  13  30  1   
 28  14  16  ar  
 29  14  31  1   
 30  15  32  1   
 31  15  33  1   
 32  15  34  1   
 33  16  17  1   
 34  17  18  1   
 35  18  35  1   
 36  18  36  1   
 37  18  37  1   
@<TRIPOS>SUBSTRUCTURE
  1 ****   4 GROUP 4 **** **** 0

# MOE 2024.06 (io_trps.svl 2023.06)
