@<TRIPOS>MOLECULE
NONAME
39 40 1 0 0 
SMALL
USER_CHARGES


@<TRIPOS>ATOM
  1 S       -0.2110    -0.1230     1.7030 S.3   1 <1>  -0.0800 
  2 C        0.2480    -1.2330     0.4270 C.2   1 <1>  -0.1400 
  3 C       -1.9050    -0.4750     1.4560 C.2   1 <1>  -0.1100 
  4 C       -0.8460    -1.8030    -0.1100 C.2   1 <1>  -0.1500 
  5 C        1.7250    -1.3970     0.1240 C.3   1 <1>   0.0200 
  6 C       -2.0990    -1.3810     0.4640 C.2   1 <1>  -0.0860 
  7 C        2.3010    -0.1340    -0.5280 C.3   1 <1>  -0.1600 
  8 C       -3.3690    -1.8970    -0.0050 C.2   1 <1>   0.7160 
  9 C        3.7830    -0.3050    -0.8800 C.3   1 <1>  -0.2400 
 10 O       -3.4270    -2.7330    -0.8860 O.2   1 <1>  -0.5700 
 11 N       -4.5270    -1.4320     0.5370 N.am  1 <1>  -0.7300 
 12 C       -5.8950    -1.7500     0.0940 C.3   1 <1>   0.2200 
 13 C       -6.5770    -0.4310    -0.3460 C.3   1 <1>   0.2000 
 14 C       -6.5830    -2.4640     1.2620 C.3   1 <1>  -0.2400 
 15 O       -6.5350     0.5190     0.6790 O.3   1 <1>  -0.5600 
 16 C       -8.0460    -0.5050    -0.7430 C.3   1 <1>  -0.1600 
 17 C       -7.5520     1.4620     0.5290 C.3   1 <1>   0.1200 
 18 C       -8.4960     0.9300    -0.5470 C.3   1 <1>  -0.1600 
 19 H       -2.6040     0.0400     2.0900 H     1 <1>   0.1500 
 20 H       -0.8380    -2.5250    -0.9100 H     1 <1>   0.1500 
 21 H        1.8530    -2.2330    -0.5410 H     1 <1>   0.0800 
 22 H        2.2510    -1.6150     1.0380 H     1 <1>   0.0800 
 23 H        2.1900     0.6990     0.1440 H     1 <1>   0.0800 
 24 H        1.7440     0.0860    -1.4220 H     1 <1>   0.0800 
 25 H        4.3600    -0.5060     0.0060 H     1 <1>   0.0800 
 26 H        4.1580     0.5960    -1.3340 H     1 <1>   0.0800 
 27 H        3.9150    -1.1170    -1.5730 H     1 <1>   0.0800 
 28 H       -4.5000    -0.6230     1.1580 H     1 <1>   0.3700 
 29 H       -5.8580    -2.4200    -0.7500 H     1 <1>   0.0800 
 30 H       -6.0210    -0.0210    -1.1720 H     1 <1>   0.0800 
 31 H       -6.7150    -1.7910     2.0900 H     1 <1>   0.0800 
 32 H       -5.9900    -3.3040     1.5770 H     1 <1>   0.0800 
 33 H       -7.5450    -2.8370     0.9630 H     1 <1>   0.0800 
 34 H       -8.5930    -1.1470    -0.0780 H     1 <1>   0.0800 
 35 H       -8.1730    -0.8460    -1.7550 H     1 <1>   0.0800 
 36 H       -7.1120     2.4020     0.2440 H     1 <1>   0.0800 
 37 H       -8.0510     1.5620     1.4770 H     1 <1>   0.0800 
 38 H       -9.5270     1.0000    -0.2450 H     1 <1>   0.0800 
 39 H       -8.3570     1.4960    -1.4520 H     1 <1>   0.0800 
@<TRIPOS>BOND
  1   1   2  1   
  2   1   3  1   
  3   2   4  2   
  4   2   5  1   
  5   3   6  2   
  6   3  19  1   
  7   4   6  1   
  8   4  20  1   
  9   5   7  1   
 10   5  21  1   
 11   5  22  1   
 12   6   8  1   
 13   7   9  1   
 14   7  23  1   
 15   7  24  1   
 16   8  10  2   
 17   8  11  am  
 18   9  25  1   
 19   9  26  1   
 20   9  27  1   
 21  11  12  1   
 22  11  28  1   
 23  12  13  1   
 24  12  14  1   
 25  12  29  1   
 26  13  15  1   
 27  13  16  1   
 28  13  30  1   
 29  14  31  1   
 30  14  32  1   
 31  14  33  1   
 32  15  17  1   
 33  16  18  1   
 34  16  34  1   
 35  16  35  1   
 36  17  18  1   
 37  17  36  1   
 38  17  37  1   
 39  18  38  1   
 40  18  39  1   
@<TRIPOS>SUBSTRUCTURE
  1 ****   8 GROUP 4 **** **** 0

# MOE 2024.06 (io_trps.svl 2023.06)
