@<TRIPOS>MOLECULE
NONAME
53 55 1 0 0 
SMALL
USER_CHARGES


@<TRIPOS>ATOM
  1 O       -5.5150    -2.1660    -0.3480 O.co2 1 <1>  -0.9000 
  2 C       -5.1960    -1.0510    -0.7590 C.2   1 <1>   0.9060 
  3 O       -6.0660    -0.3910    -1.3370 O.co2 1 <1>  -0.9000 
  4 C       -3.8610    -0.4350    -0.3730 C.3   1 <1>  -0.1860 
  5 C       -3.7920     0.1590     1.0790 C.3   1 <1>  -0.0190 
  6 C       -3.3060     0.5980    -1.3930 C.3   1 <1>  -0.0800 
  7 C       -5.0740     0.2300     1.9280 C.2   1 <1>   0.5690 
  8 C       -3.0700     1.5310     1.0530 C.3   1 <1>  -0.0800 
  9 C       -4.0310     1.9560    -1.2490 C.3   1 <1>  -0.1600 
 10 C       -1.8210     0.8380    -1.0500 C.3   1 <1>  -0.1600 
 11 O       -4.9650     0.1190     3.1270 O.2   1 <1>  -0.5700 
 12 N       -6.2990     0.3900     1.3630 N.am  1 <1>  -0.7300 
 13 C       -3.8750     2.5140     0.1810 C.3   1 <1>  -0.1600 
 14 C       -1.6800     1.3490     0.4030 C.3   1 <1>  -0.1600 
 15 C       -7.5490    -0.0380     2.0100 C.3   1 <1>   0.2200 
 16 C       -7.5870    -1.5730     2.1200 C.3   1 <1>  -0.1600 
 17 C       -8.7320     0.4670     1.1900 C.3   1 <1>  -0.1600 
 18 C       -8.3760    -2.2930     1.0210 C.3   1 <1>   0.3430 
 19 C       -8.7550    -0.1270    -0.2220 C.3   1 <1>   0.3430 
 20 N       -8.3300    -1.5600    -0.2690 N.4   1 <1>  -0.9590 
 21 C       -8.8810    -2.2520    -1.4510 C.3   1 <1>   0.4230 
 22 C      -10.3630    -2.5770    -1.2500 C.3   1 <1>  -0.2400 
 23 C       -8.0950    -3.5240    -1.7540 C.3   1 <1>  -0.2400 
 24 H       -3.1880    -1.2720    -0.3940 H     1 <1>   0.0800 
 25 H       -3.1540    -0.5080     1.6320 H     1 <1>   0.0800 
 26 H       -3.4040     0.2230    -2.3980 H     1 <1>   0.0800 
 27 H       -2.9640     1.9140     2.0540 H     1 <1>   0.0800 
 28 H       -5.0740     1.8520    -1.4860 H     1 <1>   0.0800 
 29 H       -3.6180     2.6560    -1.9540 H     1 <1>   0.0800 
 30 H       -1.4070     1.5620    -1.7300 H     1 <1>   0.0800 
 31 H       -1.2660    -0.0760    -1.1700 H     1 <1>   0.0800 
 32 H       -6.3160     0.3640     0.3290 H     1 <1>   0.3700 
 33 H       -3.3660     3.4610     0.1450 H     1 <1>   0.0800 
 34 H       -4.8450     2.6860     0.6140 H     1 <1>   0.0800 
 35 H       -1.1010     0.6490     0.9790 H     1 <1>   0.0800 
 36 H       -1.1540     2.2880     0.4060 H     1 <1>   0.0800 
 37 H       -7.5750     0.3910     2.9990 H     1 <1>   0.0800 
 38 H       -8.0380    -1.8340     3.0590 H     1 <1>   0.0800 
 39 H       -6.5890    -1.9720     2.1460 H     1 <1>   0.0800 
 40 H       -8.6970     1.5390     1.1280 H     1 <1>   0.0800 
 41 H       -9.6450     0.2070     1.6930 H     1 <1>   0.0800 
 42 H       -9.4030    -2.3900     1.3290 H     1 <1>   0.0800 
 43 H       -7.9620    -3.2790     0.8940 H     1 <1>   0.0800 
 44 H       -8.0890     0.4430    -0.8520 H     1 <1>   0.0800 
 45 H       -9.7470    -0.0210    -0.6250 H     1 <1>   0.0800 
 46 H       -7.2930    -1.5110    -0.4910 H     1 <1>   0.4500 
 47 H       -8.7780    -1.5960    -2.3020 H     1 <1>   0.0800 
 48 H      -10.5010    -3.2860    -0.4540 H     1 <1>   0.0800 
 49 H      -10.7540    -3.0130    -2.1510 H     1 <1>   0.0800 
 50 H      -10.9320    -1.6900    -1.0440 H     1 <1>   0.0800 
 51 H       -8.1430    -4.2300    -0.9470 H     1 <1>   0.0800 
 52 H       -7.0680    -3.2810    -1.9540 H     1 <1>   0.0800 
 53 H       -8.4920    -3.9920    -2.6360 H     1 <1>   0.0800 
@<TRIPOS>BOND
  1   1   2  ar  
  2   2   3  ar  
  3   2   4  1   
  4   4   5  1   
  5   4   6  1   
  6   4  24  1   
  7   5   7  1   
  8   5   8  1   
  9   5  25  1   
 10   6   9  1   
 11   6  10  1   
 12   6  26  1   
 13   7  11  2   
 14   7  12  am  
 15   8  13  1   
 16   8  14  1   
 17   8  27  1   
 18   9  13  1   
 19   9  28  1   
 20   9  29  1   
 21  10  14  1   
 22  10  30  1   
 23  10  31  1   
 24  12  15  1   
 25  12  32  1   
 26  13  33  1   
 27  13  34  1   
 28  14  35  1   
 29  14  36  1   
 30  15  16  1   
 31  15  17  1   
 32  15  37  1   
 33  16  18  1   
 34  16  38  1   
 35  16  39  1   
 36  17  19  1   
 37  17  40  1   
 38  17  41  1   
 39  18  20  1   
 40  18  42  1   
 41  18  43  1   
 42  19  20  1   
 43  19  44  1   
 44  19  45  1   
 45  20  21  1   
 46  20  46  1   
 47  21  22  1   
 48  21  23  1   
 49  21  47  1   
 50  22  48  1   
 51  22  49  1   
 52  22  50  1   
 53  23  51  1   
 54  23  52  1   
 55  23  53  1   
@<TRIPOS>SUBSTRUCTURE
  1 ****   2 GROUP 4 **** **** 0

# MOE 2024.06 (io_trps.svl 2023.06)
