@<TRIPOS>MOLECULE
NONAME
31 32 1 0 0 
SMALL
USER_CHARGES


@<TRIPOS>ATOM
  1 O        0.7990    -2.2540     1.0870 O.co2 1 <1>  -0.9000 
  2 C       -0.4200    -2.0370     1.1880 C.2   1 <1>   0.9060 
  3 O       -0.8520    -1.4710     2.2030 O.co2 1 <1>  -0.9000 
  4 C       -1.4240    -2.5480     0.1020 C.3   1 <1>   0.0380 
  5 C       -2.4000    -1.4510    -0.4200 C.ar  1 <1>  -0.1440 
  6 C       -0.7570    -3.2440    -1.1180 C.3   1 <1>  -0.0800 
  7 C       -2.1570    -3.7500     0.7460 C.3   1 <1>  -0.1600 
  8 C       -2.1770    -0.1030    -0.1570 C.ar  1 <1>  -0.1500 
  9 C       -3.5110    -1.7760    -1.1950 C.ar  1 <1>  -0.1500 
 10 C       -0.2820    -4.6110    -0.6000 C.3   1 <1>   0.2000 
 11 C        0.2590    -2.4140    -1.9320 C.3   1 <1>  -0.2400 
 12 C       -1.2200    -4.9570     0.5640 C.3   1 <1>  -0.1600 
 13 C       -3.0300     0.8770    -0.6340 C.ar  1 <1>  -0.1500 
 14 C       -4.3690    -0.8010    -1.6750 C.ar  1 <1>  -0.1500 
 15 O        1.0080    -4.5200    -0.1220 O.3   1 <1>  -0.6800 
 16 C       -4.1300     0.5300    -1.3940 C.ar  1 <1>  -0.1500 
 17 H       -1.5460    -3.4780    -1.8080 H     1 <1>   0.0800 
 18 H       -3.0840    -3.9580     0.2520 H     1 <1>   0.0800 
 19 H       -2.3700    -3.5680     1.7860 H     1 <1>   0.0800 
 20 H       -1.3300     0.2080     0.4310 H     1 <1>   0.1500 
 21 H       -3.7230    -2.7980    -1.4430 H     1 <1>   0.1500 
 22 H       -0.2960    -5.3620    -1.3710 H     1 <1>   0.0800 
 23 H        1.1170    -2.1480    -1.3430 H     1 <1>   0.0800 
 24 H       -0.2030    -1.5090    -2.2800 H     1 <1>   0.0800 
 25 H        0.5980    -2.9810    -2.7790 H     1 <1>   0.0800 
 26 H       -1.7910    -5.8380     0.3410 H     1 <1>   0.0800 
 27 H       -0.6560    -5.1230     1.4670 H     1 <1>   0.0800 
 28 H       -2.8300     1.9080    -0.4050 H     1 <1>   0.1500 
 29 H       -5.2210    -1.0810    -2.2670 H     1 <1>   0.1500 
 30 H        1.0740    -3.6560     0.4020 H     1 <1>   0.4000 
 31 H       -4.7940     1.2910    -1.7620 H     1 <1>   0.1500 
@<TRIPOS>BOND
  1   1   2  ar  
  2   2   3  ar  
  3   2   4  1   
  4   4   5  1   
  5   4   6  1   
  6   4   7  1   
  7   5   8  ar  
  8   5   9  ar  
  9   6  10  1   
 10   6  11  1   
 11   6  17  1   
 12   7  12  1   
 13   7  18  1   
 14   7  19  1   
 15   8  13  ar  
 16   8  20  1   
 17   9  14  ar  
 18   9  21  1   
 19  10  12  1   
 20  10  15  1   
 21  10  22  1   
 22  11  23  1   
 23  11  24  1   
 24  11  25  1   
 25  12  26  1   
 26  12  27  1   
 27  13  16  ar  
 28  13  28  1   
 29  14  16  ar  
 30  14  29  1   
 31  15  30  1   
 32  16  31  1   
@<TRIPOS>SUBSTRUCTURE
  1 ****   4 GROUP 4 **** **** 0

# MOE 2024.06 (io_trps.svl 2023.06)
