@<TRIPOS>MOLECULE
NONAME
39 40 1 0 0 
SMALL
USER_CHARGES


@<TRIPOS>ATOM
  1 CL      -0.2610    -2.3460    -1.4380 Cl    1 <1>  -0.1770 
  2 C       -1.6580    -1.9180    -0.4700 C.ar  1 <1>   0.1770 
  3 C       -2.1880    -0.6310    -0.5150 C.ar  1 <1>   0.0820 
  4 C       -2.2100    -2.8910     0.3410 C.ar  1 <1>  -0.1500 
  5 O       -1.6160     0.3090    -1.3090 O.3   1 <1>  -0.3630 
  6 C       -3.3190    -0.3290     0.2440 C.ar  1 <1>  -0.1440 
  7 C       -3.3150    -2.5810     1.1140 C.ar  1 <1>  -0.1500 
  8 C       -0.8000     1.2810    -0.6960 C.3   1 <1>   0.1200 
  9 C       -3.8640    -1.3100     1.0610 C.ar  1 <1>  -0.1500 
 10 C       -3.9920     1.0360     0.1900 C.3   1 <1>  -0.0960 
 11 C        0.6100     0.7070    -0.5400 C.3   1 <1>  -0.1600 
 12 C        1.5970     1.7710    -0.0730 C.3   1 <1>   0.3430 
 13 N        2.9190     1.1530     0.2250 N.4   1 <1>  -0.9590 
 14 C        3.8580     2.1010     0.9150 C.3   1 <1>   0.3430 
 15 C        3.5970     0.5160    -0.9590 C.3   1 <1>   0.3430 
 16 C        5.2350     1.4480     1.1850 C.3   1 <1>   0.1200 
 17 C        4.9600    -0.1020    -0.5660 C.3   1 <1>   0.1200 
 18 O        5.2420     0.1030     0.7930 O.3   1 <1>  -0.5600 
 19 H       -1.7810    -3.8770     0.3640 H     1 <1>   0.1500 
 20 H       -3.7530    -3.3300     1.7530 H     1 <1>   0.1500 
 21 H       -1.2270     1.5540     0.2540 H     1 <1>   0.0800 
 22 H       -0.7960     2.1400    -1.3450 H     1 <1>   0.0800 
 23 H       -4.7310    -1.0910     1.6600 H     1 <1>   0.1500 
 24 H       -3.5470     1.6980     0.9100 H     1 <1>   0.0800 
 25 H       -5.0410     0.9470     0.4090 H     1 <1>   0.0800 
 26 H       -3.8970     1.4670    -0.7910 H     1 <1>   0.0800 
 27 H        0.9150     0.3200    -1.4950 H     1 <1>   0.0800 
 28 H        0.5770    -0.0900     0.1820 H     1 <1>   0.0800 
 29 H        1.2120     2.2390     0.8190 H     1 <1>   0.0800 
 30 H        1.7050     2.5290    -0.8340 H     1 <1>   0.0800 
 31 H        2.7880     0.3770     0.8950 H     1 <1>   0.4500 
 32 H        3.4350     2.4200     1.8530 H     1 <1>   0.0800 
 33 H        4.0040     2.9810     0.3110 H     1 <1>   0.0800 
 34 H        3.7540     1.2490    -1.7320 H     1 <1>   0.0800 
 35 H        2.9740    -0.2610    -1.3710 H     1 <1>   0.0800 
 36 H        5.4640     1.4850     2.2360 H     1 <1>   0.0800 
 37 H        6.0150     1.9660     0.6530 H     1 <1>   0.0800 
 38 H        5.7550     0.3260    -1.1530 H     1 <1>   0.0800 
 39 H        4.9480    -1.1640    -0.7410 H     1 <1>   0.0800 
@<TRIPOS>BOND
  1   1   2  1   
  2   2   3  ar  
  3   2   4  ar  
  4   3   5  1   
  5   3   6  ar  
  6   4   7  ar  
  7   4  19  1   
  8   5   8  1   
  9   6   9  ar  
 10   6  10  1   
 11   7   9  ar  
 12   7  20  1   
 13   8  11  1   
 14   8  21  1   
 15   8  22  1   
 16   9  23  1   
 17  10  24  1   
 18  10  25  1   
 19  10  26  1   
 20  11  12  1   
 21  11  27  1   
 22  11  28  1   
 23  12  13  1   
 24  12  29  1   
 25  12  30  1   
 26  13  14  1   
 27  13  15  1   
 28  13  31  1   
 29  14  16  1   
 30  14  32  1   
 31  14  33  1   
 32  15  17  1   
 33  15  34  1   
 34  15  35  1   
 35  16  18  1   
 36  16  36  1   
 37  16  37  1   
 38  17  18  1   
 39  17  38  1   
 40  17  39  1   
@<TRIPOS>SUBSTRUCTURE
  1 ****  11 GROUP 4 **** **** 0

# MOE 2024.06 (io_trps.svl 2023.06)
