@<TRIPOS>MOLECULE
NONAME
28 28 1 0 0 
SMALL
USER_CHARGES


@<TRIPOS>ATOM
  1 S       -0.2220    -0.2660    -0.7720 S.o2  1 <1>   1.3330 
  2 O        1.0560     0.3020    -1.1400 O.2   1 <1>  -0.6500 
  3 O       -1.1420     0.5640    -0.0330 O.2   1 <1>  -0.6500 
  4 N        0.1180    -1.7080     0.1410 N.am  1 <1>  -0.6930 
  5 C       -0.9850    -0.8180    -2.2850 C.3   1 <1>  -0.1350 
  6 C        1.3570    -2.3280     0.0170 C.ar  1 <1>   0.1990 
  7 C       -1.0280    -2.5320     0.6880 C.3   1 <1>   0.1700 
  8 C        1.5050    -3.5120    -0.7040 C.ar  1 <1>  -0.1500 
  9 C        2.4760    -1.7650     0.6260 C.ar  1 <1>  -0.1500 
 10 C       -2.1180    -2.9250    -0.3430 C.2   1 <1>   0.9060 
 11 C       -1.5630    -1.8670     1.9670 C.3   1 <1>  -0.2400 
 12 C        2.7400    -4.1280    -0.8120 C.ar  1 <1>  -0.1500 
 13 C        3.7190    -2.3660     0.5280 C.ar  1 <1>  -0.1500 
 14 O       -3.2650    -2.4710    -0.2590 O.co2 1 <1>  -0.9000 
 15 O       -1.7990    -3.6680    -1.2820 O.co2 1 <1>  -0.9000 
 16 C        3.8260    -3.5410    -0.1910 C.ar  1 <1>   0.1900 
 17 F        4.9970    -4.1180    -0.2870 F     1 <1>  -0.1900 
 18 H       -0.9750    -0.0290    -3.0080 H     1 <1>   0.0800 
 19 H       -2.0060    -1.0980    -2.1150 H     1 <1>   0.0800 
 20 H       -0.4580    -1.6630    -2.6810 H     1 <1>   0.0800 
 21 H       -0.6160    -3.4740     1.0010 H     1 <1>   0.0800 
 22 H        0.6460    -3.9470    -1.1850 H     1 <1>   0.1500 
 23 H        2.3550    -0.8460     1.1710 H     1 <1>   0.1500 
 24 H       -2.1000    -0.9680     1.7260 H     1 <1>   0.0800 
 25 H       -0.7570    -1.6400     2.6400 H     1 <1>   0.0800 
 26 H       -2.2500    -2.5350     2.4520 H     1 <1>   0.0800 
 27 H        2.8580    -5.0410    -1.3660 H     1 <1>   0.1500 
 28 H        4.5850    -1.9330     0.9940 H     1 <1>   0.1500 
@<TRIPOS>BOND
  1   1   2  2   
  2   1   3  2   
  3   1   4  am  
  4   1   5  1   
  5   4   6  1   
  6   4   7  1   
  7   5  18  1   
  8   5  19  1   
  9   5  20  1   
 10   6   8  ar  
 11   6   9  ar  
 12   7  10  1   
 13   7  11  1   
 14   7  21  1   
 15   8  12  ar  
 16   8  22  1   
 17   9  13  ar  
 18   9  23  1   
 19  10  14  ar  
 20  10  15  ar  
 21  11  24  1   
 22  11  25  1   
 23  11  26  1   
 24  12  16  ar  
 25  12  27  1   
 26  13  16  ar  
 27  13  28  1   
 28  16  17  1   
@<TRIPOS>SUBSTRUCTURE
  1 ****   4 GROUP 4 **** **** 0

# MOE 2024.06 (io_trps.svl 2023.06)
