@<TRIPOS>MOLECULE
NONAME
49 50 1 0 0 
SMALL
USER_CHARGES


@<TRIPOS>ATOM
  1 O       -5.2710    -7.7440     0.3610 O.3   1 <1>  -0.3630 
  2 C       -6.6110    -7.9010     0.5030 C.ar  1 <1>   0.0820 
  3 C       -4.7500    -7.1610    -0.8220 C.3   1 <1>   0.1200 
  4 C       -7.1020    -7.9710     1.7960 C.ar  1 <1>  -0.1500 
  5 C       -7.4900    -7.9750    -0.5730 C.ar  1 <1>  -0.1500 
  6 C       -3.3220    -6.6580    -0.5700 C.3   1 <1>   0.2000 
  7 C       -8.4620    -8.0920     2.0180 C.ar  1 <1>  -0.1500 
  8 C       -8.8510    -8.0990    -0.3500 C.ar  1 <1>  -0.1500 
  9 O       -2.5390    -7.7420    -0.2120 O.3   1 <1>  -0.6800 
 10 C       -3.2160    -5.6040     0.5490 C.3   1 <1>   0.1100 
 11 C       -9.3440    -8.1530     0.9510 C.ar  1 <1>   0.0820 
 12 N       -4.1050    -4.4340     0.3150 N.3   1 <1>  -0.8100 
 13 O      -10.6620    -8.2680     1.2560 O.3   1 <1>  -0.3620 
 14 C       -5.2690    -4.4450     1.2390 C.3   1 <1>   0.1100 
 15 C       -3.3670    -3.1540     0.4510 C.3   1 <1>   0.1100 
 16 C      -11.6180    -8.5520     0.2580 C.3   1 <1>   0.0400 
 17 C       -6.2380    -3.2660     0.9830 C.3   1 <1>   0.3430 
 18 C       -4.2890    -1.9140     0.3180 C.3   1 <1>   0.3430 
 19 N       -5.6880    -2.3160    -0.0450 N.4   1 <1>  -0.9590 
 20 C       -6.5640    -1.1370    -0.3320 C.3   1 <1>   0.3430 
 21 C       -7.9010    -1.5330    -0.9720 C.3   1 <1>   0.1200 
 22 O       -8.6030    -0.3690    -1.2300 O.3   1 <1>  -0.6800 
 23 H       -5.3780    -6.3360    -1.1070 H     1 <1>   0.0800 
 24 H       -4.7540    -7.9010    -1.6020 H     1 <1>   0.0800 
 25 H       -6.4190    -7.9340     2.6260 H     1 <1>   0.1500 
 26 H       -7.1310    -7.9500    -1.5850 H     1 <1>   0.1500 
 27 H       -2.9110    -6.2520    -1.4770 H     1 <1>   0.0800 
 28 H       -8.8500    -8.1470     3.0200 H     1 <1>   0.1500 
 29 H       -9.5110    -8.1540    -1.1950 H     1 <1>   0.1500 
 30 H       -3.0440    -8.3080     0.4100 H     1 <1>   0.4000 
 31 H       -2.1880    -5.2850     0.5900 H     1 <1>   0.0800 
 32 H       -3.4530    -6.0670     1.4920 H     1 <1>   0.0800 
 33 H       -4.9240    -4.4000     2.2590 H     1 <1>   0.0800 
 34 H       -5.8160    -5.3640     1.1320 H     1 <1>   0.0800 
 35 H       -2.6070    -3.1040    -0.3110 H     1 <1>   0.0800 
 36 H       -2.8680    -3.1160     1.4050 H     1 <1>   0.0800 
 37 H      -12.5720    -8.6810     0.7370 H     1 <1>   0.0800 
 38 H      -11.3380    -9.4600    -0.2460 H     1 <1>   0.0800 
 39 H      -11.6640    -7.7260    -0.4290 H     1 <1>   0.0800 
 40 H       -6.4150    -2.7480     1.9110 H     1 <1>   0.0800 
 41 H       -7.1810    -3.6650     0.6480 H     1 <1>   0.0800 
 42 H       -3.8840    -1.2580    -0.4350 H     1 <1>   0.0800 
 43 H       -4.2930    -1.3770     1.2520 H     1 <1>   0.0800 
 44 H       -5.5630    -2.8950    -0.8890 H     1 <1>   0.4500 
 45 H       -6.0550    -0.4730    -1.0100 H     1 <1>   0.0800 
 46 H       -6.7610    -0.6020     0.5820 H     1 <1>   0.0800 
 47 H       -8.4950    -2.1360    -0.3070 H     1 <1>   0.0800 
 48 H       -7.7460    -2.0430    -1.9080 H     1 <1>   0.0800 
 49 H       -9.4710    -0.5520    -1.6510 H     1 <1>   0.4000 
@<TRIPOS>BOND
  1   1   2  1   
  2   1   3  1   
  3   2   4  ar  
  4   2   5  ar  
  5   3   6  1   
  6   3  23  1   
  7   3  24  1   
  8   4   7  ar  
  9   4  25  1   
 10   5   8  ar  
 11   5  26  1   
 12   6   9  1   
 13   6  10  1   
 14   6  27  1   
 15   7  11  ar  
 16   7  28  1   
 17   8  11  ar  
 18   8  29  1   
 19   9  30  1   
 20  10  12  1   
 21  10  31  1   
 22  10  32  1   
 23  11  13  1   
 24  12  14  1   
 25  12  15  1   
 26  13  16  1   
 27  14  17  1   
 28  14  33  1   
 29  14  34  1   
 30  15  18  1   
 31  15  35  1   
 32  15  36  1   
 33  16  37  1   
 34  16  38  1   
 35  16  39  1   
 36  17  19  1   
 37  17  40  1   
 38  17  41  1   
 39  18  19  1   
 40  18  42  1   
 41  18  43  1   
 42  19  20  1   
 43  19  44  1   
 44  20  21  1   
 45  20  45  1   
 46  20  46  1   
 47  21  22  1   
 48  21  47  1   
 49  21  48  1   
 50  22  49  1   
@<TRIPOS>SUBSTRUCTURE
  1 ****  14 GROUP 4 **** **** 0

# MOE 2024.06 (io_trps.svl 2023.06)
