@<TRIPOS>MOLECULE
NONAME
44 45 1 0 0 
SMALL
USER_CHARGES


@<TRIPOS>ATOM
  1 CL      -0.3430     0.5280    -1.1810 Cl    1 <1>  -0.1770 
  2 C        1.2610     1.1550    -0.8660 C.ar  1 <1>   0.1770 
  3 C        1.4270     2.4030    -0.2760 C.ar  1 <1>  -0.1440 
  4 C        2.3390     0.3680    -1.2260 C.ar  1 <1>  -0.1500 
  5 C        2.7270     2.8420    -0.0530 C.ar  1 <1>  -0.1500 
  6 C        0.1880     3.2220     0.0960 C.3   1 <1>  -0.0160 
  7 C        3.6260     0.8190    -0.9970 C.ar  1 <1>  -0.1500 
  8 C        3.8220     2.0650    -0.4060 C.ar  1 <1>   0.0830 
  9 C        0.4640     4.5860     0.7400 C.3   1 <1>  -0.2400 
 10 O        5.0460     2.5890    -0.1430 O.3   1 <1>  -0.3620 
 11 C        6.2270     1.8820    -0.4340 C.3   1 <1>   0.1200 
 12 C        7.4020     2.7680    -0.0060 C.3   1 <1>   0.3430 
 13 N        8.7370     2.1410    -0.2800 N.4   1 <1>  -0.9590 
 14 C        8.9760     0.9080     0.5460 C.3   1 <1>   0.3430 
 15 C        9.8350     3.1280    -0.0860 C.3   1 <1>   0.3430 
 16 C       10.4460     0.4380     0.4980 C.3   1 <1>  -0.0800 
 17 C       11.1330     2.5720    -0.6870 C.3   1 <1>  -0.1600 
 18 C       11.2150     1.0340    -0.6930 C.3   1 <1>  -0.1600 
 19 C       10.5200    -1.0950     0.4660 C.3   1 <1>  -0.2400 
 20 H        2.1630    -0.5910    -1.6800 H     1 <1>   0.1500 
 21 H        2.9200     3.7970     0.4000 H     1 <1>   0.1500 
 22 H       -0.4130     2.6430     0.7760 H     1 <1>   0.0800 
 23 H       -0.3960     3.3810    -0.7950 H     1 <1>   0.0800 
 24 H        4.4450     0.1900    -1.2860 H     1 <1>   0.1500 
 25 H        1.0090     4.4650     1.6590 H     1 <1>   0.0800 
 26 H       -0.4660     5.0790     0.9600 H     1 <1>   0.0800 
 27 H        1.0280     5.2110     0.0700 H     1 <1>   0.0800 
 28 H        6.2520     1.6950    -1.4930 H     1 <1>   0.0800 
 29 H        6.2060     0.9620     0.1230 H     1 <1>   0.0800 
 30 H        7.3130     2.9800     1.0470 H     1 <1>   0.0800 
 31 H        7.3300     3.6990    -0.5450 H     1 <1>   0.0800 
 32 H        8.7840     1.8620    -1.2690 H     1 <1>   0.4500 
 33 H        8.3450     0.1140     0.1810 H     1 <1>   0.0800 
 34 H        8.7070     1.0950     1.5730 H     1 <1>   0.0800 
 35 H        9.9740     3.3050     0.9690 H     1 <1>   0.0800 
 36 H        9.5940     4.0670    -0.5590 H     1 <1>   0.0800 
 37 H       10.9250     0.7670     1.4060 H     1 <1>   0.0800 
 38 H       11.9560     2.9700    -0.1170 H     1 <1>   0.0800 
 39 H       11.2490     2.9370    -1.6930 H     1 <1>   0.0800 
 40 H       10.7960     0.6570    -1.6110 H     1 <1>   0.0800 
 41 H       12.2480     0.7270    -0.6630 H     1 <1>   0.0800 
 42 H       10.0620    -1.4870    -0.4250 H     1 <1>   0.0800 
 43 H       10.0240    -1.5170     1.3230 H     1 <1>   0.0800 
 44 H       11.5480    -1.4180     0.4870 H     1 <1>   0.0800 
@<TRIPOS>BOND
  1   1   2  1   
  2   2   3  ar  
  3   2   4  ar  
  4   3   5  ar  
  5   3   6  1   
  6   4   7  ar  
  7   4  20  1   
  8   5   8  ar  
  9   5  21  1   
 10   6   9  1   
 11   6  22  1   
 12   6  23  1   
 13   7   8  ar  
 14   7  24  1   
 15   8  10  1   
 16   9  25  1   
 17   9  26  1   
 18   9  27  1   
 19  10  11  1   
 20  11  12  1   
 21  11  28  1   
 22  11  29  1   
 23  12  13  1   
 24  12  30  1   
 25  12  31  1   
 26  13  14  1   
 27  13  15  1   
 28  13  32  1   
 29  14  16  1   
 30  14  33  1   
 31  14  34  1   
 32  15  17  1   
 33  15  35  1   
 34  15  36  1   
 35  16  18  1   
 36  16  19  1   
 37  16  37  1   
 38  17  18  1   
 39  17  38  1   
 40  17  39  1   
 41  18  40  1   
 42  18  41  1   
 43  19  42  1   
 44  19  43  1   
 45  19  44  1   
@<TRIPOS>SUBSTRUCTURE
  1 ****  11 GROUP 4 **** **** 0

# MOE 2024.06 (io_trps.svl 2023.06)
