@<TRIPOS>MOLECULE
NONAME
40 41 1 0 0 
SMALL
USER_CHARGES


@<TRIPOS>ATOM
  1 O       -0.6770     0.1760     0.1820 O.2   1 <1>  -0.5700 
  2 C       -0.5630     1.3650    -0.0560 C.2   1 <1>   0.5440 
  3 N        0.6500     1.8460    -0.4780 N.am  1 <1>  -0.6600 
  4 C       -1.7060     2.2440     0.0780 C.ar  1 <1>   0.0860 
  5 C        1.9300     1.5450     0.2440 C.3   1 <1>   0.1140 
  6 C        0.8520     2.9880    -1.3930 C.3   1 <1>   0.1400 
  7 C       -1.5970     3.4380     0.7830 C.ar  1 <1>  -0.1500 
  8 C       -2.9420     1.9250    -0.4780 C.ar  1 <1>  -0.1500 
  9 C        2.1450     2.3200     1.5740 C.2   1 <1>   0.9060 
 10 C        2.9750     1.9390    -0.7990 C.3   1 <1>  -0.1600 
 11 C        2.3690     3.1550    -1.5030 C.3   1 <1>  -0.1600 
 12 C       -2.6640     4.3150     0.9160 C.ar  1 <1>   0.0820 
 13 C       -4.0330     2.7790    -0.3580 C.ar  1 <1>   0.0820 
 14 O        2.8200     1.7860     2.4650 O.co2 1 <1>  -0.9000 
 15 O        1.6940     3.4710     1.7210 O.co2 1 <1>  -0.9000 
 16 O       -2.5490     5.4930     1.5990 O.3   1 <1>  -0.3630 
 17 C       -3.8900     3.9820     0.3370 C.ar  1 <1>   0.0820 
 18 O       -5.2560     2.4850    -0.8900 O.3   1 <1>  -0.3630 
 19 C       -1.3230     5.8610     2.2030 C.3   1 <1>   0.0400 
 20 O       -4.9480     4.8270     0.4330 O.3   1 <1>  -0.3630 
 21 C       -5.4830     1.2860    -1.5960 C.3   1 <1>   0.0400 
 22 C       -5.6460     4.7960     1.6550 C.3   1 <1>   0.0400 
 23 H        1.9890     0.4950     0.4640 H     1 <1>   0.0800 
 24 H        0.4080     3.8800    -0.9850 H     1 <1>   0.0800 
 25 H        0.4170     2.7630    -2.3500 H     1 <1>   0.0800 
 26 H       -0.6420     3.6510     1.2260 H     1 <1>   0.1500 
 27 H       -3.0120     0.9900    -0.9990 H     1 <1>   0.1500 
 28 H        3.0930     1.1270    -1.4940 H     1 <1>   0.0800 
 29 H        3.9260     2.1570    -0.3440 H     1 <1>   0.0800 
 30 H        2.6520     4.0500    -0.9760 H     1 <1>   0.0800 
 31 H        2.6900     3.2340    -2.5260 H     1 <1>   0.0800 
 32 H       -1.4550     6.8150     2.6790 H     1 <1>   0.0800 
 33 H       -0.5620     5.9320     1.4450 H     1 <1>   0.0800 
 34 H       -1.0530     5.1200     2.9350 H     1 <1>   0.0800 
 35 H       -6.5110     1.2750    -1.9110 H     1 <1>   0.0800 
 36 H       -4.8380     1.2590    -2.4560 H     1 <1>   0.0800 
 37 H       -5.2930     0.4540    -0.9420 H     1 <1>   0.0800 
 38 H       -4.9740     5.0720     2.4490 H     1 <1>   0.0800 
 39 H       -6.4560     5.4990     1.5960 H     1 <1>   0.0800 
 40 H       -6.0250     3.8020     1.8090 H     1 <1>   0.0800 
@<TRIPOS>BOND
  1   1   2  2   
  2   2   3  am  
  3   2   4  1   
  4   3   5  1   
  5   3   6  1   
  6   4   7  ar  
  7   4   8  ar  
  8   5   9  1   
  9   5  10  1   
 10   5  23  1   
 11   6  11  1   
 12   6  24  1   
 13   6  25  1   
 14   7  12  ar  
 15   7  26  1   
 16   8  13  ar  
 17   8  27  1   
 18   9  14  ar  
 19   9  15  ar  
 20  10  11  1   
 21  10  28  1   
 22  10  29  1   
 23  11  30  1   
 24  11  31  1   
 25  12  16  1   
 26  12  17  ar  
 27  13  17  ar  
 28  13  18  1   
 29  16  19  1   
 30  17  20  1   
 31  18  21  1   
 32  19  32  1   
 33  19  33  1   
 34  19  34  1   
 35  20  22  1   
 36  21  35  1   
 37  21  36  1   
 38  21  37  1   
 39  22  38  1   
 40  22  39  1   
 41  22  40  1   
@<TRIPOS>SUBSTRUCTURE
  1 ****   7 GROUP 4 **** **** 0

# MOE 2024.06 (io_trps.svl 2023.06)
