@<TRIPOS>MOLECULE
NONAME
41 42 1 0 0 
SMALL
USER_CHARGES


@<TRIPOS>ATOM
  1 S       -0.0200     0.1500     0.8050 S.o2  1 <1>   1.3330 
  2 O        0.8360    -0.4420     1.8020 O.2   1 <1>  -0.6500 
  3 O        0.0920     1.5420     0.4500 O.2   1 <1>  -0.6500 
  4 N       -1.5980    -0.1100     1.4310 N.am  1 <1>  -0.7570 
  5 C       -0.0150    -0.8830    -0.6670 C.3   1 <1>  -0.0550 
  6 C       -2.8230     0.3660     0.9990 C.ar  1 <1>   0.1990 
  7 C        1.3200    -0.8900    -1.4320 C.3   1 <1>  -0.2400 
  8 C       -2.9780     1.1870    -0.1140 C.ar  1 <1>  -0.1500 
  9 C       -3.9670     0.0030     1.7000 C.ar  1 <1>  -0.1500 
 10 C       -4.2290     1.6200    -0.5080 C.ar  1 <1>  -0.1500 
 11 C       -5.2170     0.4380     1.3040 C.ar  1 <1>  -0.1500 
 12 C       -5.3840     1.2640     0.1900 C.ar  1 <1>   0.0860 
 13 C       -6.6870     1.7350    -0.2340 C.2   1 <1>   0.5440 
 14 O       -6.9100     1.9820    -1.4030 O.2   1 <1>  -0.5700 
 15 N       -7.6950     1.9150     0.6730 N.am  1 <1>  -0.7300 
 16 C       -9.0610     2.4120     0.3390 C.3   1 <1>   0.1400 
 17 C       -9.8650     1.3890    -0.4770 C.3   1 <1>   0.2000 
 18 O      -11.1930     1.7960    -0.5410 O.3   1 <1>  -0.5600 
 19 C       -9.9430    -0.0090     0.1260 C.3   1 <1>  -0.1600 
 20 C      -11.9970     0.7180    -0.8920 C.3   1 <1>   0.1200 
 21 C      -11.2850    -0.5270    -0.3670 C.3   1 <1>  -0.1600 
 22 H       -1.5300    -0.5610     2.3390 H     1 <1>   0.4200 
 23 H       -0.7860    -0.5460    -1.3310 H     1 <1>   0.0800 
 24 H       -0.2500    -1.8910    -0.3840 H     1 <1>   0.0800 
 25 H        1.5690     0.1080    -1.7530 H     1 <1>   0.0800 
 26 H        1.2510    -1.5250    -2.2970 H     1 <1>   0.0800 
 27 H        2.1100    -1.2520    -0.7970 H     1 <1>   0.0800 
 28 H       -2.1220     1.5020    -0.6810 H     1 <1>   0.1500 
 29 H       -3.8750    -0.6330     2.5620 H     1 <1>   0.1500 
 30 H       -4.3240     2.2540    -1.3750 H     1 <1>   0.1500 
 31 H       -6.0810     0.1250     1.8630 H     1 <1>   0.1500 
 32 H       -7.4860     1.8460     1.6680 H     1 <1>   0.3700 
 33 H       -8.9750     3.3210    -0.2320 H     1 <1>   0.0800 
 34 H       -9.5880     2.6260     1.2520 H     1 <1>   0.0800 
 35 H       -9.4910     1.3460    -1.4870 H     1 <1>   0.0800 
 36 H       -9.9410     0.0570     1.2000 H     1 <1>   0.0800 
 37 H       -9.1180    -0.6180    -0.1960 H     1 <1>   0.0800 
 38 H      -12.0780     0.6980    -1.9650 H     1 <1>   0.0800 
 39 H      -12.9680     0.8530    -0.4480 H     1 <1>   0.0800 
 40 H      -11.8460    -0.9850     0.4290 H     1 <1>   0.0800 
 41 H      -11.1610    -1.2380    -1.1650 H     1 <1>   0.0800 
@<TRIPOS>BOND
  1   1   2  2   
  2   1   3  2   
  3   1   4  am  
  4   1   5  1   
  5   4   6  1   
  6   4  22  1   
  7   5   7  1   
  8   5  23  1   
  9   5  24  1   
 10   6   8  ar  
 11   6   9  ar  
 12   7  25  1   
 13   7  26  1   
 14   7  27  1   
 15   8  10  ar  
 16   8  28  1   
 17   9  11  ar  
 18   9  29  1   
 19  10  12  ar  
 20  10  30  1   
 21  11  12  ar  
 22  11  31  1   
 23  12  13  1   
 24  13  14  2   
 25  13  15  am  
 26  15  16  1   
 27  15  32  1   
 28  16  17  1   
 29  16  33  1   
 30  16  34  1   
 31  17  18  1   
 32  17  19  1   
 33  17  35  1   
 34  18  20  1   
 35  19  21  1   
 36  19  36  1   
 37  19  37  1   
 38  20  21  1   
 39  20  38  1   
 40  20  39  1   
 41  21  40  1   
 42  21  41  1   
@<TRIPOS>SUBSTRUCTURE
  1 ****  12 GROUP 4 **** **** 0

# MOE 2024.06 (io_trps.svl 2023.06)
