@<TRIPOS>MOLECULE
NONAME
33 35 1 0 0 
SMALL
USER_CHARGES


@<TRIPOS>ATOM
  1 CL       2.1670     3.7330    -1.8870 Cl    1 <1>  -0.1770 
  2 C        1.0230     3.2480    -0.6540 C.ar  1 <1>   0.1770 
  3 C        1.3930     2.4150     0.4070 C.ar  1 <1>   0.0860 
  4 C       -0.2670     3.7270    -0.7980 C.ar  1 <1>  -0.1500 
  5 C        2.7340     1.8960     0.6110 C.2   1 <1>   0.5440 
  6 C        0.3840     2.0780     1.3130 C.ar  1 <1>  -0.1500 
  7 C       -1.2390     3.3800     0.1220 C.ar  1 <1>  -0.1500 
  8 O        2.8910     0.7930     1.0970 O.2   1 <1>  -0.5700 
  9 N        3.8410     2.6310     0.3050 N.am  1 <1>  -0.7300 
 10 C       -0.9100     2.5510     1.1780 C.ar  1 <1>  -0.1500 
 11 C        5.2410     2.1870     0.4440 C.3   1 <1>   0.2200 
 12 C        6.0970     3.3300     1.0190 C.3   1 <1>  -0.0800 
 13 C        5.8620     1.9650    -0.9460 C.3   1 <1>  -0.1600 
 14 C        6.4150     4.1550    -0.2220 C.3   1 <1>  -0.1600 
 15 C        7.4840     2.7580     1.3600 C.3   1 <1>  -0.1600 
 16 C        7.0110     2.9890    -0.9920 C.3   1 <1>  -0.0800 
 17 C        8.1110     2.5200    -0.0260 C.3   1 <1>  -0.1600 
 18 H       -0.5080     4.3670    -1.6280 H     1 <1>   0.1500 
 19 H        0.6250     1.4300     2.1390 H     1 <1>   0.1500 
 20 H       -2.2450     3.7500     0.0160 H     1 <1>   0.1500 
 21 H        3.7280     3.5100    -0.2020 H     1 <1>   0.3700 
 22 H       -1.6620     2.2720     1.8970 H     1 <1>   0.1500 
 23 H        5.3010     1.3020     1.0560 H     1 <1>   0.0800 
 24 H        5.6340     3.8570     1.8350 H     1 <1>   0.0800 
 25 H        5.1490     2.1620    -1.7280 H     1 <1>   0.0800 
 26 H        6.2270     0.9590    -1.0490 H     1 <1>   0.0800 
 27 H        7.1310     4.9370    -0.0300 H     1 <1>   0.0800 
 28 H        5.5410     4.5650    -0.6980 H     1 <1>   0.0800 
 29 H        7.4140     1.8500     1.9330 H     1 <1>   0.0800 
 30 H        8.0620     3.4810     1.9110 H     1 <1>   0.0800 
 31 H        7.3600     3.2180    -1.9850 H     1 <1>   0.0800 
 32 H        8.3700     1.4870    -0.1810 H     1 <1>   0.0800 
 33 H        8.9940     3.1250    -0.1440 H     1 <1>   0.0800 
@<TRIPOS>BOND
  1   1   2  1   
  2   2   3  ar  
  3   2   4  ar  
  4   3   5  1   
  5   3   6  ar  
  6   4   7  ar  
  7   4  18  1   
  8   5   8  2   
  9   5   9  am  
 10   6  10  ar  
 11   6  19  1   
 12   7  10  ar  
 13   7  20  1   
 14   9  11  1   
 15   9  21  1   
 16  10  22  1   
 17  11  12  1   
 18  11  13  1   
 19  11  23  1   
 20  12  14  1   
 21  12  15  1   
 22  12  24  1   
 23  13  16  1   
 24  13  25  1   
 25  13  26  1   
 26  14  16  1   
 27  14  27  1   
 28  14  28  1   
 29  15  17  1   
 30  15  29  1   
 31  15  30  1   
 32  16  17  1   
 33  16  31  1   
 34  17  32  1   
 35  17  33  1   
@<TRIPOS>SUBSTRUCTURE
  1 ****   9 GROUP 4 **** **** 0

# MOE 2024.06 (io_trps.svl 2023.06)
