@<TRIPOS>MOLECULE
NONAME
42 43 1 0 0 
SMALL
USER_CHARGES


@<TRIPOS>ATOM
  1 O       -0.1100    -1.5990     2.0030 O.2   1 <1>  -0.5700 
  2 C        0.1860    -1.9480     0.8870 C.2   1 <1>   0.6590 
  3 O       -0.6600    -1.8380    -0.1320 O.3   1 <1>  -0.4300 
  4 C        1.5550    -2.5620     0.5720 C.3   1 <1>   0.1710 
  5 C       -1.9400    -1.2760     0.0330 C.3   1 <1>   0.1200 
  6 N        2.5690    -1.6170     0.0280 N.3   1 <1>  -0.8100 
  7 C       -2.6390    -1.2860    -1.3220 C.3   1 <1>  -0.2400 
  8 C        3.8030    -2.3360    -0.3640 C.3   1 <1>   0.1100 
  9 C        2.9030    -0.5620     1.0170 C.3   1 <1>   0.1100 
 10 C        4.8790    -1.3860    -0.9230 C.3   1 <1>   0.2090 
 11 C        3.9690     0.4180     0.4910 C.3   1 <1>   0.2090 
 12 N        5.1990    -0.3060     0.0540 N.pl3 1 <1>  -0.8380 
 13 C        6.3020     0.4850    -0.2450 C.ar  1 <1>   0.1000 
 14 C        7.4270     0.4280     0.5640 C.ar  1 <1>  -0.1500 
 15 C        6.3090     1.3400    -1.3420 C.ar  1 <1>  -0.1500 
 16 C        8.5420     1.2020     0.2950 C.ar  1 <1>   0.0820 
 17 C        7.4170     2.1190    -1.6220 C.ar  1 <1>  -0.1500 
 18 O        9.5960     1.0770     1.1440 O.3   1 <1>  -0.3630 
 19 C        8.5350     2.0540    -0.8080 C.ar  1 <1>  -0.1500 
 20 C       10.7780     1.8220     0.9550 C.3   1 <1>   0.0400 
 21 H        1.3940    -3.3490    -0.1420 H     1 <1>   0.0800 
 22 H        1.9340    -3.0090     1.4740 H     1 <1>   0.0800 
 23 H       -1.8250    -0.2700     0.4020 H     1 <1>   0.0800 
 24 H       -2.4820    -1.8660     0.7540 H     1 <1>   0.0800 
 25 H       -2.0780    -0.7020    -2.0310 H     1 <1>   0.0800 
 26 H       -3.6210    -0.8590    -1.2280 H     1 <1>   0.0800 
 27 H       -2.7360    -2.2940    -1.6820 H     1 <1>   0.0800 
 28 H        3.5660    -3.0670    -1.1160 H     1 <1>   0.0800 
 29 H        4.2140    -2.8510     0.4890 H     1 <1>   0.0800 
 30 H        3.2710    -1.0120     1.9230 H     1 <1>   0.0800 
 31 H        2.0180     0.0000     1.2600 H     1 <1>   0.0800 
 32 H        4.5220    -0.9500    -1.8400 H     1 <1>   0.0800 
 33 H        5.7740    -1.9420    -1.1390 H     1 <1>   0.0800 
 34 H        4.2280     1.1170     1.2670 H     1 <1>   0.0800 
 35 H        3.5620     0.9700    -0.3380 H     1 <1>   0.0800 
 36 H        7.4250    -0.2290     1.4110 H     1 <1>   0.1500 
 37 H        5.4410     1.3900    -1.9720 H     1 <1>   0.1500 
 38 H        7.4090     2.7760    -2.4740 H     1 <1>   0.1500 
 39 H        9.3820     2.6670    -1.0460 H     1 <1>   0.1500 
 40 H       11.4650     1.5610     1.7400 H     1 <1>   0.0800 
 41 H       10.5430     2.8700     1.0090 H     1 <1>   0.0800 
 42 H       11.2010     1.5680    -0.0010 H     1 <1>   0.0800 
@<TRIPOS>BOND
  1   1   2  2   
  2   2   3  1   
  3   2   4  1   
  4   3   5  1   
  5   4   6  1   
  6   4  21  1   
  7   4  22  1   
  8   5   7  1   
  9   5  23  1   
 10   5  24  1   
 11   6   8  1   
 12   6   9  1   
 13   7  25  1   
 14   7  26  1   
 15   7  27  1   
 16   8  10  1   
 17   8  28  1   
 18   8  29  1   
 19   9  11  1   
 20   9  30  1   
 21   9  31  1   
 22  10  12  1   
 23  10  32  1   
 24  10  33  1   
 25  11  12  1   
 26  11  34  1   
 27  11  35  1   
 28  12  13  1   
 29  13  14  ar  
 30  13  15  ar  
 31  14  16  ar  
 32  14  36  1   
 33  15  17  ar  
 34  15  37  1   
 35  16  18  1   
 36  16  19  ar  
 37  17  19  ar  
 38  17  38  1   
 39  18  20  1   
 40  19  39  1   
 41  20  40  1   
 42  20  41  1   
 43  20  42  1   
@<TRIPOS>SUBSTRUCTURE
  1 ****  11 GROUP 4 **** **** 0

# MOE 2024.06 (io_trps.svl 2023.06)
