@<TRIPOS>MOLECULE
NONAME
54 56 1 0 0 
SMALL
USER_CHARGES


@<TRIPOS>ATOM
  1 S       -0.6170    -0.4120     0.6820 S.3   1 <1>  -0.0800 
  2 C        0.4680     0.9240     0.3130 C.2   1 <1>   0.1040 
  3 C       -2.0080     0.6450     0.6220 C.2   1 <1>  -0.1400 
  4 N        1.8350     0.7150     0.2100 N.am  1 <1>  -0.4940 
  5 C       -0.2270     2.1000     0.1670 C.2   1 <1>  -0.0860 
  6 C       -1.6520     1.9000     0.3300 C.2   1 <1>  -0.1810 
  7 C       -3.4030     0.1170     0.8750 C.3   1 <1>   0.3000 
  8 C        2.6480    -0.3900     0.3250 C.2   1 <1>   0.6160 
  9 C        0.4200     3.3590    -0.0990 C.2   1 <1>   0.8060 
 10 C       -2.7650     2.9340     0.2180 C.3   1 <1>   0.0210 
 11 O       -4.2970     1.2000     0.9850 O.3   1 <1>  -0.5600 
 12 O        2.1890    -1.4880     0.5610 O.2   1 <1>  -0.5700 
 13 C        4.0620    -0.2130     0.1560 C.2   1 <1>  -0.1360 
 14 O        1.6210     3.4580    -0.2960 O.2   1 <1>  -0.5700 
 15 O       -0.3130     4.4770    -0.1250 O.3   1 <1>  -0.4300 
 16 C       -4.1630     2.2690     0.0840 C.3   1 <1>   0.2800 
 17 C        5.0190    -1.1700     0.2290 C.2   1 <1>  -0.1780 
 18 C        0.2600     5.7430    -0.3660 C.3   1 <1>   0.1200 
 19 C       -5.2610     3.2630     0.4660 C.3   1 <1>  -0.2400 
 20 C       -4.4270     1.7570    -1.3420 C.3   1 <1>  -0.2400 
 21 C        6.4450    -1.0420     0.0670 C.ar  1 <1>   0.0280 
 22 C       -0.8590     6.7790    -0.3330 C.3   1 <1>  -0.2400 
 23 C        7.2610    -2.1630     0.2140 C.ar  1 <1>  -0.1500 
 24 C        7.0710     0.1690    -0.2360 C.ar  1 <1>  -0.1500 
 25 C        8.6340    -2.0890     0.0690 C.ar  1 <1>  -0.1500 
 26 C        8.4420     0.2510    -0.3840 C.ar  1 <1>  -0.1500 
 27 C        9.2380    -0.8720    -0.2330 C.ar  1 <1>   0.0830 
 28 O       10.5710    -0.7080    -0.3940 O.3   1 <1>  -0.3620 
 29 C       11.4710    -1.7850    -0.2620 C.3   1 <1>   0.0400 
 30 H        2.3470     1.5760    -0.0050 H     1 <1>   0.3700 
 31 H       -3.4380    -0.4310     1.8000 H     1 <1>   0.0800 
 32 H       -3.7250    -0.5210     0.0710 H     1 <1>   0.0800 
 33 H       -2.6070     3.5620    -0.6390 H     1 <1>   0.0800 
 34 H       -2.7410     3.5580     1.0930 H     1 <1>   0.0800 
 35 H        4.3420     0.8000    -0.0480 H     1 <1>   0.1500 
 36 H        4.6950    -2.1770     0.4380 H     1 <1>   0.1500 
 37 H        0.9910     5.9400     0.4000 H     1 <1>   0.0800 
 38 H        0.7400     5.7240    -1.3300 H     1 <1>   0.0800 
 39 H       -5.1300     3.5880     1.4820 H     1 <1>   0.0800 
 40 H       -6.2280     2.8020     0.3710 H     1 <1>   0.0800 
 41 H       -5.2290     4.1240    -0.1770 H     1 <1>   0.0800 
 42 H       -4.4850     2.5850    -2.0240 H     1 <1>   0.0800 
 43 H       -5.3600     1.2230    -1.3780 H     1 <1>   0.0800 
 44 H       -3.6350     1.1140    -1.6790 H     1 <1>   0.0800 
 45 H       -1.3370     6.7790     0.6300 H     1 <1>   0.0800 
 46 H       -1.5850     6.5670    -1.0970 H     1 <1>   0.0800 
 47 H       -0.4520     7.7580    -0.5120 H     1 <1>   0.0800 
 48 H        6.8120    -3.1110     0.4480 H     1 <1>   0.1500 
 49 H        6.4900     1.0610    -0.3620 H     1 <1>   0.1500 
 50 H        9.2170    -2.9810     0.1920 H     1 <1>   0.1500 
 51 H        8.9110     1.1900    -0.6180 H     1 <1>   0.1500 
 52 H       12.4650    -1.4120    -0.4320 H     1 <1>   0.0800 
 53 H       11.2300    -2.5320    -0.9980 H     1 <1>   0.0800 
 54 H       11.3950    -2.1840     0.7340 H     1 <1>   0.0800 
@<TRIPOS>BOND
  1   1   2  1   
  2   1   3  1   
  3   2   4  1   
  4   2   5  2   
  5   3   6  2   
  6   3   7  1   
  7   4   8  am  
  8   4  30  1   
  9   5   6  1   
 10   5   9  1   
 11   6  10  1   
 12   7  11  1   
 13   7  31  1   
 14   7  32  1   
 15   8  12  2   
 16   8  13  1   
 17   9  14  2   
 18   9  15  1   
 19  10  16  1   
 20  10  33  1   
 21  10  34  1   
 22  11  16  1   
 23  13  17  2   
 24  13  35  1   
 25  15  18  1   
 26  16  19  1   
 27  16  20  1   
 28  17  21  1   
 29  17  36  1   
 30  18  22  1   
 31  18  37  1   
 32  18  38  1   
 33  19  39  1   
 34  19  40  1   
 35  19  41  1   
 36  20  42  1   
 37  20  43  1   
 38  20  44  1   
 39  21  23  ar  
 40  21  24  ar  
 41  22  45  1   
 42  22  46  1   
 43  22  47  1   
 44  23  25  ar  
 45  23  48  1   
 46  24  26  ar  
 47  24  49  1   
 48  25  27  ar  
 49  25  50  1   
 50  26  27  ar  
 51  26  51  1   
 52  27  28  1   
 53  28  29  1   
 54  29  52  1   
 55  29  53  1   
 56  29  54  1   
@<TRIPOS>SUBSTRUCTURE
  1 ****   4 GROUP 4 **** **** 0

# MOE 2024.06 (io_trps.svl 2023.06)
