@<TRIPOS>MOLECULE
NONAME
50 52 1 0 0 
SMALL
USER_CHARGES


@<TRIPOS>ATOM
  1 S        0.5390     0.8270     1.0950 S.o2  1 <1>   1.4470 
  2 O        0.4500    -0.5400     0.6310 O.2   1 <1>  -0.6500 
  3 O        0.6810     1.0940     2.5110 O.2   1 <1>  -0.6500 
  4 N        1.8880     1.5190     0.3330 N.am  1 <1>  -0.8490 
  5 C       -0.8530     1.7750     0.4180 C.ar  1 <1>  -0.0090 
  6 C        3.0870     0.6880     0.5350 C.3   1 <1>   0.1960 
  7 C        2.1340     2.8910     0.7910 C.3   1 <1>   0.1960 
  8 C       -1.6610     2.5510     1.2120 C.ar  1 <1>  -0.1500 
  9 C       -1.1230     1.7410    -0.9610 C.ar  1 <1>  -0.1500 
 10 C        4.2620     1.2250    -0.2940 C.3   1 <1>  -0.0190 
 11 C        3.2600     3.5240    -0.0330 C.3   1 <1>  -0.1600 
 12 C       -2.7320     3.3060     0.6940 C.ar  1 <1>   0.0000 
 13 C       -2.1550     2.4590    -1.4990 C.ar  1 <1>  -0.1500 
 14 C        5.4900     0.3540    -0.0770 C.2   1 <1>   0.5690 
 15 C        4.5500     2.6970     0.0550 C.3   1 <1>  -0.1600 
 16 C       -2.9850     3.2600    -0.6920 C.ar  1 <1>   0.0000 
 17 C       -3.5600     4.1040     1.5080 C.ar  1 <1>  -0.1500 
 18 O        5.8440     0.0980     1.0480 O.2   1 <1>  -0.5700 
 19 N        6.1700    -0.1060    -1.1600 N.am  1 <1>  -0.7300 
 20 C       -4.0550     4.0160    -1.2120 C.ar  1 <1>  -0.1500 
 21 C       -4.5910     4.8280     0.9780 C.ar  1 <1>  -0.1500 
 22 C        7.3510    -1.0060    -1.0920 C.3   1 <1>   0.1400 
 23 C       -4.8420     4.7840    -0.3990 C.ar  1 <1>  -0.1500 
 24 C        8.6040    -0.2260    -0.6940 C.3   1 <1>   0.1200 
 25 O        9.7110    -1.0570    -0.8540 O.3   1 <1>  -0.5600 
 26 C       10.9080    -0.4840    -0.4380 C.3   1 <1>   0.0400 
 27 H        2.8860    -0.3250     0.2270 H     1 <1>   0.0800 
 28 H        3.3480     0.6700     1.5820 H     1 <1>   0.0800 
 29 H        2.4020     2.8900     1.8360 H     1 <1>   0.0800 
 30 H        1.2420     3.4830     0.6730 H     1 <1>   0.0800 
 31 H       -1.4820     2.5960     2.2720 H     1 <1>   0.1500 
 32 H       -0.4940     1.1310    -1.5880 H     1 <1>   0.1500 
 33 H        3.9800     1.1620    -1.3290 H     1 <1>   0.0800 
 34 H        3.4460     4.5210     0.3260 H     1 <1>   0.0800 
 35 H        2.9400     3.5980    -1.0580 H     1 <1>   0.0800 
 36 H       -2.3520     2.4220    -2.5560 H     1 <1>   0.1500 
 37 H        5.2930     3.0970    -0.6120 H     1 <1>   0.0800 
 38 H        4.9390     2.7530     1.0590 H     1 <1>   0.0800 
 39 H       -3.3650     4.1350     2.5650 H     1 <1>   0.1500 
 40 H        5.8590     0.1420    -2.1010 H     1 <1>   0.3700 
 41 H       -4.2430     3.9780    -2.2700 H     1 <1>   0.1500 
 42 H       -5.2200     5.4370     1.6040 H     1 <1>   0.1500 
 43 H        7.5020    -1.4650    -2.0530 H     1 <1>   0.0800 
 44 H        7.1700    -1.7770    -0.3610 H     1 <1>   0.0800 
 45 H       -5.6570     5.3590    -0.8010 H     1 <1>   0.1500 
 46 H        8.5370     0.0740     0.3380 H     1 <1>   0.0800 
 47 H        8.7300     0.6330    -1.3290 H     1 <1>   0.0800 
 48 H       11.6960    -1.1960    -0.6050 H     1 <1>   0.0800 
 49 H       10.8440    -0.2530     0.6120 H     1 <1>   0.0800 
 50 H       11.0950     0.4070    -1.0120 H     1 <1>   0.0800 
@<TRIPOS>BOND
  1   1   2  2   
  2   1   3  2   
  3   1   4  am  
  4   1   5  1   
  5   4   6  1   
  6   4   7  1   
  7   5   8  ar  
  8   5   9  ar  
  9   6  10  1   
 10   6  27  1   
 11   6  28  1   
 12   7  11  1   
 13   7  29  1   
 14   7  30  1   
 15   8  12  ar  
 16   8  31  1   
 17   9  13  ar  
 18   9  32  1   
 19  10  14  1   
 20  10  15  1   
 21  10  33  1   
 22  11  15  1   
 23  11  34  1   
 24  11  35  1   
 25  12  16  ar  
 26  12  17  ar  
 27  13  16  ar  
 28  13  36  1   
 29  14  18  2   
 30  14  19  am  
 31  15  37  1   
 32  15  38  1   
 33  16  20  ar  
 34  17  21  ar  
 35  17  39  1   
 36  19  22  1   
 37  19  40  1   
 38  20  23  ar  
 39  20  41  1   
 40  21  23  ar  
 41  21  42  1   
 42  22  24  1   
 43  22  43  1   
 44  22  44  1   
 45  23  45  1   
 46  24  25  1   
 47  24  46  1   
 48  24  47  1   
 49  25  26  1   
 50  26  48  1   
 51  26  49  1   
 52  26  50  1   
@<TRIPOS>SUBSTRUCTURE
  1 ****   4 GROUP 4 **** **** 0

# MOE 2024.06 (io_trps.svl 2023.06)
