@<TRIPOS>MOLECULE
NONAME
37 38 1 0 0 
SMALL
USER_CHARGES


@<TRIPOS>ATOM
  1 BR       1.3960     0.7440    -2.0820 Br    1 <1>  -0.1110 
  2 C        0.6340     1.9880    -0.8190 C.ar  1 <1>   0.1110 
  3 C        1.3100     2.2620     0.3620 C.ar  1 <1>   0.0830 
  4 C       -0.5730     2.5820    -1.1410 C.ar  1 <1>  -0.1500 
  5 O        2.4910     1.6410     0.6110 O.3   1 <1>  -0.3630 
  6 C        0.7170     3.1650     1.2410 C.ar  1 <1>   0.1770 
  7 C       -1.1430     3.4850    -0.2560 C.ar  1 <1>  -0.1440 
  8 C        3.6420     2.4440     0.7680 C.3   1 <1>   0.1200 
  9 CL       1.4590     3.5630     2.7770 Cl    1 <1>  -0.1770 
 10 C       -0.4910     3.7730     0.9360 C.ar  1 <1>  -0.1500 
 11 C       -2.4650     4.1550    -0.5870 C.3   1 <1>  -0.0960 
 12 C        4.8230     1.7180     0.1290 C.3   1 <1>   0.1400 
 13 N        6.0510     2.5340     0.2520 N.am  1 <1>  -0.4200 
 14 C        7.0510     2.3190     1.1560 C.2   1 <1>   0.6900 
 15 C        6.3440     3.6370    -0.4920 C.2   1 <1>   0.5690 
 16 O        7.0430     1.4640     2.0120 O.2   1 <1>  -0.5700 
 17 N        8.0470     3.2140     1.0090 N.am  1 <1>  -0.7300 
 18 O        5.6430     4.1130    -1.3550 O.2   1 <1>  -0.5700 
 19 C        7.7070     4.1920    -0.0320 C.3   1 <1>   0.3610 
 20 C        8.7790     4.1430    -1.1220 C.3   1 <1>  -0.2400 
 21 C        7.6080     5.5780     0.6090 C.3   1 <1>  -0.2400 
 22 H       -1.0530     2.3390    -2.0720 H     1 <1>   0.1500 
 23 H        3.8110     2.5850     1.8210 H     1 <1>   0.0800 
 24 H        3.4760     3.3900     0.2820 H     1 <1>   0.0800 
 25 H       -0.9160     4.4680     1.6380 H     1 <1>   0.1500 
 26 H       -3.0520     3.5320    -1.2370 H     1 <1>   0.0800 
 27 H       -2.2850     5.0950    -1.0780 H     1 <1>   0.0800 
 28 H       -3.0300     4.3350     0.3100 H     1 <1>   0.0800 
 29 H        4.6190     1.5510    -0.9150 H     1 <1>   0.0800 
 30 H        4.9720     0.7700     0.6150 H     1 <1>   0.0800 
 31 H        8.7840     3.3440     1.7000 H     1 <1>   0.3700 
 32 H        8.8580     3.1480    -1.5240 H     1 <1>   0.0800 
 33 H        9.7340     4.4440    -0.7300 H     1 <1>   0.0800 
 34 H        8.5110     4.8090    -1.9230 H     1 <1>   0.0800 
 35 H        6.8800     5.5740     1.4010 H     1 <1>   0.0800 
 36 H        7.2960     6.2950    -0.1300 H     1 <1>   0.0800 
 37 H        8.5610     5.8850     1.0010 H     1 <1>   0.0800 
@<TRIPOS>BOND
  1   1   2  1   
  2   2   3  ar  
  3   2   4  ar  
  4   3   5  1   
  5   3   6  ar  
  6   4   7  ar  
  7   4  22  1   
  8   5   8  1   
  9   6   9  1   
 10   6  10  ar  
 11   7  10  ar  
 12   7  11  1   
 13   8  12  1   
 14   8  23  1   
 15   8  24  1   
 16  10  25  1   
 17  11  26  1   
 18  11  27  1   
 19  11  28  1   
 20  12  13  1   
 21  12  29  1   
 22  12  30  1   
 23  13  14  am  
 24  13  15  am  
 25  14  16  2   
 26  14  17  am  
 27  15  18  2   
 28  15  19  1   
 29  17  19  1   
 30  17  31  1   
 31  19  20  1   
 32  19  21  1   
 33  20  32  1   
 34  20  33  1   
 35  20  34  1   
 36  21  35  1   
 37  21  36  1   
 38  21  37  1   
@<TRIPOS>SUBSTRUCTURE
  1 ****   8 GROUP 4 **** **** 0

# MOE 2024.06 (io_trps.svl 2023.06)
