@<TRIPOS>MOLECULE
NONAME
17 17 1 0 0 
SMALL
USER_CHARGES


@<TRIPOS>ATOM
  1 S        0.1590    -0.1740    -0.0170 S.3   1 <1>  -0.3310 
  2 C       -1.5220    -0.8800    -0.0130 C.2   1 <1>   0.2720 
  3 C       -0.0590     1.6560    -0.0040 C.3   1 <1>   0.0700 
  4 N       -1.5360    -2.2030    -0.0210 N.2   1 <1>  -0.1710 
  5 C       -2.6870    -0.0770    -0.0020 C.2   1 <1>  -0.0410 
  6 C        1.3270     2.2980    -0.0070 C.3   1 <1>  -0.2400 
  7 N       -2.6990    -2.8370    -0.0200 N.2   1 <1>  -0.2110 
  8 O       -2.8230     1.1450     0.0070 O.3   1 <1>  -0.8500 
  9 N       -3.8510    -0.7620     0.0000 N.am  1 <1>  -0.5390 
 10 C       -3.8580    -2.1240    -0.0090 C.2   1 <1>   0.8410 
 11 O       -4.9510    -2.6940    -0.0070 O.2   1 <1>  -0.5700 
 12 H       -0.6200     1.9030     0.8810 H     1 <1>   0.0800 
 13 H       -0.6290     1.9150    -0.8790 H     1 <1>   0.0800 
 14 H        1.8750     1.9900     0.8650 H     1 <1>   0.0800 
 15 H        1.2290     3.3680     0.0010 H     1 <1>   0.0800 
 16 H        1.8660     2.0010    -0.8890 H     1 <1>   0.0800 
 17 H       -4.7130    -0.2320     0.0080 H     1 <1>   0.3700 
@<TRIPOS>BOND
  1   1   2  1   
  2   1   3  1   
  3   2   4  1   
  4   2   5  2   
  5   3   6  1   
  6   3  12  1   
  7   3  13  1   
  8   4   7  2   
  9   5   8  1   
 10   5   9  1   
 11   6  14  1   
 12   6  15  1   
 13   6  16  1   
 14   7  10  1   
 15   9  10  am  
 16   9  17  1   
 17  10  11  2   
@<TRIPOS>SUBSTRUCTURE
  1 ****   2 GROUP 4 **** **** 0

# MOE 2024.06 (io_trps.svl 2023.06)
