@<TRIPOS>MOLECULE
NONAME
37 38 1 0 0 
SMALL
USER_CHARGES


@<TRIPOS>ATOM
  1 S       -0.1570     0.4170     0.0780 S.o   1 <1>   0.1130 
  2 O       -0.5780     1.0060    -1.2370 O.2   1 <1>  -0.5000 
  3 C       -1.6640    -0.2120     0.8600 C.3   1 <1>   0.0330 
  4 C        0.7360    -1.1200    -0.2870 C.3   1 <1>   0.0330 
  5 C       -2.6950     0.9010     1.0120 C.3   1 <1>   0.0700 
  6 C        2.0400    -0.8530    -1.0420 C.3   1 <1>  -0.2400 
  7 S       -4.2000     0.1740     1.8040 S.3   1 <1>  -0.3320 
  8 C       -5.5910     0.9590     0.9830 C.ar  1 <1>   0.4120 
  9 N       -6.3800     0.0930     0.3870 N.ar  1 <1>  -0.6200 
 10 C       -5.7600     2.3410     1.0190 C.ar  1 <1>   0.0730 
 11 C       -7.4350     0.5790    -0.2620 C.ar  1 <1>   0.3630 
 12 C       -4.8360     3.1590     1.7470 C.1   1 <1>   0.4840 
 13 C       -6.8590     2.8630     0.3400 C.ar  1 <1>  -0.1440 
 14 C       -8.3280    -0.3380    -0.9350 C.2   1 <1>  -0.0130 
 15 C       -7.6840     1.9500    -0.2980 C.ar  1 <1>  -0.1500 
 16 N       -4.1000     3.8240     2.3090 N.1   1 <1>  -0.5570 
 17 C       -7.1440     4.3710     0.3030 C.3   1 <1>   1.1640 
 18 S       -7.8290    -2.0230    -1.1520 S.3   1 <1>  -0.0800 
 19 C       -9.5610    -0.1870    -1.4850 C.2   1 <1>  -0.1500 
 20 F       -7.3390     4.8700     1.5140 F     1 <1>  -0.3400 
 21 F       -8.2260     4.6750    -0.4010 F     1 <1>  -0.3400 
 22 F       -6.1470     5.0530    -0.2390 F     1 <1>  -0.3400 
 23 C       -9.3130    -2.4400    -1.9790 C.2   1 <1>  -0.1100 
 24 C      -10.1140    -1.3640    -2.0710 C.2   1 <1>  -0.1500 
 25 H       -1.4450    -0.6200     1.8290 H     1 <1>   0.0800 
 26 H       -2.0970    -0.9890     0.2560 H     1 <1>   0.0800 
 27 H        0.1200    -1.7660    -0.8870 H     1 <1>   0.0800 
 28 H        0.9680    -1.6400     0.6250 H     1 <1>   0.0800 
 29 H       -2.9800     1.2940     0.0520 H     1 <1>   0.0800 
 30 H       -2.3330     1.6900     1.6490 H     1 <1>   0.0800 
 31 H        1.8260    -0.3530    -1.9710 H     1 <1>   0.0800 
 32 H        2.5440    -1.7780    -1.2540 H     1 <1>   0.0800 
 33 H        2.6880    -0.2260    -0.4560 H     1 <1>   0.0800 
 34 H       -8.5470     2.2890    -0.8440 H     1 <1>   0.1500 
 35 H      -10.1250     0.7280    -1.5020 H     1 <1>   0.1500 
 36 H       -9.4300    -3.4570    -2.3110 H     1 <1>   0.1500 
 37 H      -11.0860    -1.3530    -2.5340 H     1 <1>   0.1500 
@<TRIPOS>BOND
  1   1   2  2   
  2   1   3  1   
  3   1   4  1   
  4   3   5  1   
  5   3  25  1   
  6   3  26  1   
  7   4   6  1   
  8   4  27  1   
  9   4  28  1   
 10   5   7  1   
 11   5  29  1   
 12   5  30  1   
 13   6  31  1   
 14   6  32  1   
 15   6  33  1   
 16   7   8  1   
 17   8   9  ar  
 18   8  10  ar  
 19   9  11  ar  
 20  10  12  1   
 21  10  13  ar  
 22  11  14  1   
 23  11  15  ar  
 24  12  16  3   
 25  13  15  ar  
 26  13  17  1   
 27  14  18  1   
 28  14  19  2   
 29  15  34  1   
 30  17  20  1   
 31  17  21  1   
 32  17  22  1   
 33  18  23  1   
 34  19  24  1   
 35  19  35  1   
 36  23  24  2   
 37  23  36  1   
 38  24  37  1   
@<TRIPOS>SUBSTRUCTURE
  1 ****   8 GROUP 4 **** **** 0

# MOE 2024.06 (io_trps.svl 2023.06)
