@<TRIPOS>MOLECULE
NONAME
51 53 1 0 0 
SMALL
USER_CHARGES


@<TRIPOS>ATOM
  1 S        0.2800    -0.1930    -1.1890 S.o2  1 <1>   1.4470 
  2 O        0.7370    -0.7390    -2.4490 O.2   1 <1>  -0.6500 
  3 O       -0.2210     1.1620    -1.1350 O.2   1 <1>  -0.6500 
  4 N        1.5940    -0.2780    -0.1200 N.am  1 <1>  -0.8490 
  5 C       -0.9350    -1.3080    -0.4290 C.ar  1 <1>  -0.0090 
  6 C        2.5270     0.8450    -0.3320 C.3   1 <1>   0.1960 
  7 C        2.3200    -1.5560    -0.2220 C.3   1 <1>   0.1960 
  8 C       -1.4430    -2.4050    -1.1250 C.ar  1 <1>  -0.1500 
  9 C       -1.3810    -1.0880     0.8730 C.ar  1 <1>  -0.1500 
 10 C        3.6800     0.8280     0.6840 C.3   1 <1>   0.1400 
 11 C        3.4610    -1.6490     0.8080 C.3   1 <1>   0.1400 
 12 C       -2.3640    -3.2610    -0.5440 C.ar  1 <1>  -0.1500 
 13 C       -2.3030    -1.9320     1.4720 C.ar  1 <1>  -0.1500 
 14 N        4.3960    -0.4880     0.6760 N.am  1 <1>  -0.6600 
 15 C       -2.7770    -3.0080     0.7480 C.ar  1 <1>   0.1900 
 16 C        5.7610    -0.5480     0.5120 C.2   1 <1>   0.5690 
 17 F       -3.6440    -3.8100     1.3030 F     1 <1>  -0.1900 
 18 O        6.4030     0.4560     0.3060 O.2   1 <1>  -0.5700 
 19 C        6.5160    -1.8830     0.5810 C.3   1 <1>  -0.0190 
 20 C        7.9710    -1.7200     1.0720 C.3   1 <1>  -0.1600 
 21 C        6.5140    -2.5940    -0.7860 C.3   1 <1>  -0.1600 
 22 C        8.7070    -3.0610     1.1160 C.3   1 <1>   0.1400 
 23 C        7.2620    -3.9290    -0.7310 C.3   1 <1>   0.1400 
 24 N        8.6440    -3.7070    -0.2240 N.am  1 <1>  -0.6600 
 25 C        9.7330    -4.0580    -0.9820 C.2   1 <1>   0.5690 
 26 O        9.6240    -4.6070    -2.0520 O.2   1 <1>  -0.5700 
 27 C       11.1360    -3.7690    -0.4990 C.3   1 <1>  -0.1790 
 28 H        2.0010     1.7790    -0.2270 H     1 <1>   0.0800 
 29 H        2.9320     0.8050    -1.3300 H     1 <1>   0.0800 
 30 H        2.7340    -1.6680    -1.2110 H     1 <1>   0.0800 
 31 H        1.6370    -2.3710    -0.0540 H     1 <1>   0.0800 
 32 H       -1.1150    -2.5890    -2.1360 H     1 <1>   0.1500 
 33 H       -1.0010    -0.2410     1.4210 H     1 <1>   0.1500 
 34 H        3.2840     1.0060     1.6680 H     1 <1>   0.0800 
 35 H        4.3560     1.6340     0.4550 H     1 <1>   0.0800 
 36 H        3.9720    -2.5810     0.6650 H     1 <1>   0.0800 
 37 H        3.0400    -1.6490     1.7980 H     1 <1>   0.0800 
 38 H       -2.7570    -4.1070    -1.0800 H     1 <1>   0.1500 
 39 H       -2.6490    -1.7620     2.4760 H     1 <1>   0.1500 
 40 H        6.0220    -2.5090     1.3000 H     1 <1>   0.0800 
 41 H        7.9730    -1.2780     2.0520 H     1 <1>   0.0800 
 42 H        8.5080    -1.0560     0.4160 H     1 <1>   0.0800 
 43 H        6.9870    -1.9630    -1.5200 H     1 <1>   0.0800 
 44 H        5.5070    -2.7690    -1.1140 H     1 <1>   0.0800 
 45 H        8.2400    -3.7100     1.8370 H     1 <1>   0.0800 
 46 H        9.7220    -2.8990     1.4280 H     1 <1>   0.0800 
 47 H        7.2820    -4.3670    -1.7150 H     1 <1>   0.0800 
 48 H        6.7550    -4.6140    -0.0750 H     1 <1>   0.0800 
 49 H       11.2570    -2.7140    -0.3460 H     1 <1>   0.0800 
 50 H       11.8460    -4.0920    -1.2380 H     1 <1>   0.0800 
 51 H       11.3240    -4.3000     0.4140 H     1 <1>   0.0800 
@<TRIPOS>BOND
  1   1   2  2   
  2   1   3  2   
  3   1   4  am  
  4   1   5  1   
  5   4   6  1   
  6   4   7  1   
  7   5   8  ar  
  8   5   9  ar  
  9   6  10  1   
 10   6  28  1   
 11   6  29  1   
 12   7  11  1   
 13   7  30  1   
 14   7  31  1   
 15   8  12  ar  
 16   8  32  1   
 17   9  13  ar  
 18   9  33  1   
 19  10  14  1   
 20  10  34  1   
 21  10  35  1   
 22  11  14  1   
 23  11  36  1   
 24  11  37  1   
 25  12  15  ar  
 26  12  38  1   
 27  13  15  ar  
 28  13  39  1   
 29  14  16  am  
 30  15  17  1   
 31  16  18  2   
 32  16  19  1   
 33  19  20  1   
 34  19  21  1   
 35  19  40  1   
 36  20  22  1   
 37  20  41  1   
 38  20  42  1   
 39  21  23  1   
 40  21  43  1   
 41  21  44  1   
 42  22  24  1   
 43  22  45  1   
 44  22  46  1   
 45  23  24  1   
 46  23  47  1   
 47  23  48  1   
 48  24  25  am  
 49  25  26  2   
 50  25  27  1   
 51  27  49  1   
 52  27  50  1   
 53  27  51  1   
@<TRIPOS>SUBSTRUCTURE
  1 ****  11 GROUP 4 **** **** 0

# MOE 2024.06 (io_trps.svl 2023.06)
