@<TRIPOS>MOLECULE
NONAME
45 47 1 0 0 
SMALL
USER_CHARGES


@<TRIPOS>ATOM
  1 CL       0.8260    -1.3070    -0.4040 Cl    1 <1>  -0.1770 
  2 C       -0.2700    -2.3710     0.4450 C.ar  1 <1>   0.1770 
  3 C       -1.5050    -2.6840    -0.1140 C.ar  1 <1>   0.0830 
  4 C        0.1170    -2.8830     1.6650 C.ar  1 <1>  -0.1500 
  5 O       -1.8490    -2.1640    -1.3150 O.3   1 <1>  -0.1590 
  6 C       -2.3890    -3.5360     0.5640 C.ar  1 <1>   0.0860 
  7 C       -0.7580    -3.7240     2.3300 C.ar  1 <1>   0.1770 
  8 C       -3.0080    -2.4590    -1.9080 C.2   1 <1>  -0.0730 
  9 C       -3.6630    -3.8290    -0.0400 C.2   1 <1>   0.4690 
 10 C       -1.9890    -4.0520     1.8010 C.ar  1 <1>  -0.1500 
 11 CL      -0.2880    -4.3830     3.8750 Cl    1 <1>  -0.1770 
 12 C       -3.9220    -3.2670    -1.3270 C.2   1 <1>  -0.1240 
 13 O       -4.5150    -4.4950     0.5220 O.2   1 <1>  -0.5700 
 14 C       -5.2380    -3.6290    -1.9940 C.3   1 <1>   0.4810 
 15 N       -6.3800    -3.2720    -1.1080 N.4   1 <1>  -0.9590 
 16 C       -7.6500    -3.9100    -1.5450 C.3   1 <1>   0.3430 
 17 C       -6.5130    -1.8040    -0.8880 C.3   1 <1>   0.3430 
 18 C       -8.7220    -3.6890    -0.4790 C.3   1 <1>  -0.1600 
 19 C       -7.5610    -1.5500     0.1920 C.3   1 <1>  -0.1600 
 20 C       -8.9180    -2.1960    -0.1560 C.3   1 <1>  -0.0190 
 21 C       -9.9540    -2.0140     0.9530 C.2   1 <1>   0.6590 
 22 O       -9.6380    -1.7800     2.0890 O.2   1 <1>  -0.5700 
 23 O      -11.2170    -2.1470     0.5770 O.3   1 <1>  -0.4300 
 24 C      -12.2740    -2.0140     1.4990 C.3   1 <1>   0.1200 
 25 C      -13.5850    -2.2280     0.7500 C.3   1 <1>  -0.2400 
 26 H        1.0730    -2.6380     2.0920 H     1 <1>   0.1500 
 27 H       -3.1180    -1.9950    -2.8760 H     1 <1>   0.1500 
 28 H       -2.6430    -4.7090     2.3490 H     1 <1>   0.1500 
 29 H       -5.2460    -4.6920    -2.1760 H     1 <1>   0.0800 
 30 H       -5.3290    -3.1220    -2.9400 H     1 <1>   0.0800 
 31 H       -6.1270    -3.7010    -0.1930 H     1 <1>   0.4500 
 32 H       -7.5040    -4.9690    -1.6880 H     1 <1>   0.0800 
 33 H       -7.9750    -3.4810    -2.4800 H     1 <1>   0.0800 
 34 H       -6.8110    -1.3200    -1.8040 H     1 <1>   0.0800 
 35 H       -5.5700    -1.3870    -0.5710 H     1 <1>   0.0800 
 36 H       -8.4490    -4.2240     0.4150 H     1 <1>   0.0800 
 37 H       -9.6520    -4.1040    -0.8280 H     1 <1>   0.0800 
 38 H       -7.6920    -0.4890     0.3150 H     1 <1>   0.0800 
 39 H       -7.1970    -1.9350     1.1300 H     1 <1>   0.0800 
 40 H       -9.3100    -1.7050    -1.0300 H     1 <1>   0.0800 
 41 H      -12.2310    -1.0270     1.9290 H     1 <1>   0.0800 
 42 H      -12.1470    -2.7510     2.2750 H     1 <1>   0.0800 
 43 H      -13.6960    -1.4920    -0.0260 H     1 <1>   0.0800 
 44 H      -14.4110    -2.1310     1.4320 H     1 <1>   0.0800 
 45 H      -13.6130    -3.2130     0.3200 H     1 <1>   0.0800 
@<TRIPOS>BOND
  1   1   2  1   
  2   2   3  ar  
  3   2   4  ar  
  4   3   5  1   
  5   3   6  ar  
  6   4   7  ar  
  7   4  26  1   
  8   5   8  1   
  9   6   9  1   
 10   6  10  ar  
 11   7  10  ar  
 12   7  11  1   
 13   8  12  2   
 14   8  27  1   
 15   9  12  1   
 16   9  13  2   
 17  10  28  1   
 18  12  14  1   
 19  14  15  1   
 20  14  29  1   
 21  14  30  1   
 22  15  16  1   
 23  15  17  1   
 24  15  31  1   
 25  16  18  1   
 26  16  32  1   
 27  16  33  1   
 28  17  19  1   
 29  17  34  1   
 30  17  35  1   
 31  18  20  1   
 32  18  36  1   
 33  18  37  1   
 34  19  20  1   
 35  19  38  1   
 36  19  39  1   
 37  20  21  1   
 38  20  40  1   
 39  21  22  2   
 40  21  23  1   
 41  23  24  1   
 42  24  25  1   
 43  24  41  1   
 44  24  42  1   
 45  25  43  1   
 46  25  44  1   
 47  25  45  1   
@<TRIPOS>SUBSTRUCTURE
  1 ****  13 GROUP 4 **** **** 0

# MOE 2024.06 (io_trps.svl 2023.06)
