@<TRIPOS>MOLECULE
NONAME
35 35 1 0 0 
SMALL
USER_CHARGES


@<TRIPOS>ATOM
  1 S       -0.0920    -0.5820     1.2380 S.o2  1 <1>   1.3330 
  2 O        0.4520    -0.9310     2.5260 O.2   1 <1>  -0.6500 
  3 O       -1.5110    -0.6750     0.9950 O.2   1 <1>  -0.6500 
  4 N        0.6730    -1.5810     0.0550 N.am  1 <1>  -0.6930 
  5 C        0.4480     1.0480     0.7680 C.3   1 <1>  -0.1350 
  6 C        2.0420    -1.4970    -0.1860 C.ar  1 <1>   0.1990 
  7 C       -0.0290    -2.8750    -0.2120 C.3   1 <1>   0.3370 
  8 C        2.9760    -1.6970     0.8250 C.ar  1 <1>  -0.1500 
  9 C        2.5020    -1.2030    -1.4630 C.ar  1 <1>  -0.1500 
 10 C        0.8790    -4.1220    -0.1240 C.2   1 <1>   0.6590 
 11 C       -0.7540    -2.7480    -1.5600 C.3   1 <1>  -0.2400 
 12 C        4.3310    -1.5960     0.5670 C.ar  1 <1>  -0.1500 
 13 C        3.8560    -1.1040    -1.7240 C.ar  1 <1>  -0.1500 
 14 O        1.2120    -4.7610    -1.0940 O.2   1 <1>  -0.5700 
 15 O        1.2740    -4.4670     1.0990 O.3   1 <1>  -0.4300 
 16 C        4.7790    -1.2960    -0.7090 C.ar  1 <1>  -0.1430 
 17 C        2.1470    -5.5540     1.3220 C.3   1 <1>   0.0400 
 18 C        6.2660    -1.1890    -0.9960 C.3   1 <1>  -0.0970 
 19 H        0.0070     1.7810     1.4150 H     1 <1>   0.0800 
 20 H        0.1550     1.2570    -0.2420 H     1 <1>   0.0800 
 21 H        1.5150     1.1220     0.8410 H     1 <1>   0.0800 
 22 H       -0.7810    -3.0180     0.5450 H     1 <1>   0.0800 
 23 H        2.6430    -1.9410     1.8170 H     1 <1>   0.1500 
 24 H        1.7920    -1.0530    -2.2550 H     1 <1>   0.1500 
 25 H       -0.0440    -2.6410    -2.3600 H     1 <1>   0.0800 
 26 H       -1.4180    -1.9030    -1.5490 H     1 <1>   0.0800 
 27 H       -1.3340    -3.6340    -1.7430 H     1 <1>   0.0800 
 28 H        5.0350    -1.7550     1.3650 H     1 <1>   0.1500 
 29 H        4.1900    -0.8780    -2.7220 H     1 <1>   0.1500 
 30 H        1.6860    -6.4530     0.9510 H     1 <1>   0.0800 
 31 H        2.3260    -5.6360     2.3790 H     1 <1>   0.0800 
 32 H        3.0710    -5.3670     0.8020 H     1 <1>   0.0800 
 33 H        6.6440    -2.1440    -1.3130 H     1 <1>   0.0800 
 34 H        6.7990    -0.8800    -0.1140 H     1 <1>   0.0800 
 35 H        6.4480    -0.4680    -1.7720 H     1 <1>   0.0800 
@<TRIPOS>BOND
  1   1   2  2   
  2   1   3  2   
  3   1   4  am  
  4   1   5  1   
  5   4   6  1   
  6   4   7  1   
  7   5  19  1   
  8   5  20  1   
  9   5  21  1   
 10   6   8  ar  
 11   6   9  ar  
 12   7  10  1   
 13   7  11  1   
 14   7  22  1   
 15   8  12  ar  
 16   8  23  1   
 17   9  13  ar  
 18   9  24  1   
 19  10  14  2   
 20  10  15  1   
 21  11  25  1   
 22  11  26  1   
 23  11  27  1   
 24  12  16  ar  
 25  12  28  1   
 26  13  16  ar  
 27  13  29  1   
 28  15  17  1   
 29  16  18  1   
 30  17  30  1   
 31  17  31  1   
 32  17  32  1   
 33  18  33  1   
 34  18  34  1   
 35  18  35  1   
@<TRIPOS>SUBSTRUCTURE
  1 ****   6 GROUP 4 **** **** 0

# MOE 2024.06 (io_trps.svl 2023.06)
