@<TRIPOS>MOLECULE
NONAME
40 43 1 0 0 
SMALL
USER_CHARGES


@<TRIPOS>ATOM
  1 O       -1.2870     0.2260     0.9880 O.2   1 <1>  -0.5700 
  2 C       -1.9820    -0.7070     0.7270 C.2   1 <1>   0.4480 
  3 C       -1.6480    -2.1590     1.0260 C.3   1 <1>   0.0610 
  4 C       -3.2990    -0.5260     0.0230 C.3   1 <1>  -0.0190 
  5 C       -1.5760    -2.8780    -0.3390 C.3   1 <1>   0.3430 
  6 C       -2.7950    -2.7010     1.8980 C.3   1 <1>   0.1100 
  7 C       -0.3130    -2.3300     1.8030 C.3   1 <1>  -0.0170 
  8 C       -3.1630    -1.1820    -1.3480 C.3   1 <1>   0.3430 
  9 C       -4.4170    -1.1200     0.8860 C.3   1 <1>   0.1100 
 10 N       -2.7280    -2.6220    -1.2850 N.4   1 <1>  -0.9590 
 11 N       -4.1150    -2.5050     1.2770 N.3   1 <1>  -0.8100 
 12 C        0.9060    -2.4200     0.8910 C.ar  1 <1>  -0.1440 
 13 C       -3.8910    -3.5530    -1.0660 C.3   1 <1>   0.3430 
 14 C       -4.5400    -3.5570     0.3360 C.3   1 <1>   0.1100 
 15 C        1.4960    -1.2720     0.3840 C.ar  1 <1>  -0.1500 
 16 C        1.4290    -3.6590     0.5490 C.ar  1 <1>  -0.1500 
 17 C        2.5780    -1.3620    -0.4740 C.ar  1 <1>  -0.1500 
 18 C        2.5120    -3.7490    -0.3080 C.ar  1 <1>  -0.1500 
 19 C        3.0850    -2.6010    -0.8230 C.ar  1 <1>  -0.1500 
 20 H       -3.4880     0.5240    -0.1120 H     1 <1>   0.0800 
 21 H       -1.4680    -3.9370    -0.1730 H     1 <1>   0.0800 
 22 H       -0.6760    -2.5440    -0.8310 H     1 <1>   0.0800 
 23 H       -2.7900    -2.1800     2.8420 H     1 <1>   0.0800 
 24 H       -2.6480    -3.7470     2.1130 H     1 <1>   0.0800 
 25 H       -0.3480    -3.2320     2.3890 H     1 <1>   0.0800 
 26 H       -0.1800    -1.5230     2.5040 H     1 <1>   0.0800 
 27 H       -4.0990    -1.1040    -1.8770 H     1 <1>   0.0800 
 28 H       -2.4270    -0.6230    -1.9050 H     1 <1>   0.0800 
 29 H       -5.3650    -1.0750     0.3740 H     1 <1>   0.0800 
 30 H       -4.5100    -0.5300     1.7840 H     1 <1>   0.0800 
 31 H       -2.3700    -2.8490    -2.2240 H     1 <1>   0.4500 
 32 H       -3.5790    -4.5620    -1.2820 H     1 <1>   0.0800 
 33 H       -4.6620    -3.3180    -1.7810 H     1 <1>   0.0800 
 34 H       -5.6070    -3.4890     0.2110 H     1 <1>   0.0800 
 35 H       -4.3600    -4.5160     0.7910 H     1 <1>   0.0800 
 36 H        1.1260    -0.2970     0.6530 H     1 <1>   0.1500 
 37 H        1.0080    -4.5650     0.9480 H     1 <1>   0.1500 
 38 H        3.0310    -0.4660    -0.8640 H     1 <1>   0.1500 
 39 H        2.9170    -4.7120    -0.5700 H     1 <1>   0.1500 
 40 H        3.9290    -2.6690    -1.4880 H     1 <1>   0.1500 
@<TRIPOS>BOND
  1   1   2  2   
  2   2   3  1   
  3   2   4  1   
  4   3   5  1   
  5   3   6  1   
  6   3   7  1   
  7   4   8  1   
  8   4   9  1   
  9   4  20  1   
 10   5  10  1   
 11   5  21  1   
 12   5  22  1   
 13   6  11  1   
 14   6  23  1   
 15   6  24  1   
 16   7  12  1   
 17   7  25  1   
 18   7  26  1   
 19   8  10  1   
 20   8  27  1   
 21   8  28  1   
 22   9  11  1   
 23   9  29  1   
 24   9  30  1   
 25  10  13  1   
 26  10  31  1   
 27  11  14  1   
 28  12  15  ar  
 29  12  16  ar  
 30  13  14  1   
 31  13  32  1   
 32  13  33  1   
 33  14  34  1   
 34  14  35  1   
 35  15  17  ar  
 36  15  36  1   
 37  16  18  ar  
 38  16  37  1   
 39  17  19  ar  
 40  17  38  1   
 41  18  19  ar  
 42  18  39  1   
 43  19  40  1   
@<TRIPOS>SUBSTRUCTURE
  1 ****   3 GROUP 4 **** **** 0

# MOE 2024.06 (io_trps.svl 2023.06)
