@<TRIPOS>MOLECULE
NONAME
47 49 1 0 0 
SMALL
USER_CHARGES


@<TRIPOS>ATOM
  1 O       -0.6470     2.0720     0.7000 O.2   1 <1>  -0.5700 
  2 C       -0.3270     2.7510    -0.2570 C.2   1 <1>   0.6900 
  3 N       -1.1250     3.7970    -0.6100 N.am  1 <1>  -0.6600 
  4 N        0.7510     2.4740    -1.0340 N.am  1 <1>  -0.5470 
  5 C       -2.2320     3.4750    -1.5510 C.3   1 <1>   0.1400 
  6 C       -1.5570     4.7140     0.4850 C.3   1 <1>   0.1400 
  7 C        1.5990     1.3620    -0.9880 C.ar  1 <1>   0.1170 
  8 C       -3.4080     2.8390    -0.7800 C.3   1 <1>   0.3430 
  9 C       -2.7450     4.1110     1.2660 C.3   1 <1>   0.3430 
 10 C        2.4270     1.0820     0.1020 C.ar  1 <1>  -0.1440 
 11 C        1.6250     0.5150    -2.0900 C.ar  1 <1>  -0.1500 
 12 N       -3.8810     3.7040     0.3640 N.4   1 <1>  -0.9590 
 13 C        3.2390    -0.0410     0.0740 C.ar  1 <1>  -0.1500 
 14 C        2.4770     1.9790     1.3320 C.3   1 <1>  -0.0970 
 15 C        2.4410    -0.6000    -2.1120 C.ar  1 <1>  -0.1500 
 16 C       -4.9450     3.0100     1.1390 C.3   1 <1>   0.4860 
 17 C        3.2490    -0.8810    -1.0260 C.ar  1 <1>  -0.1500 
 18 C       -6.1340     2.7820     0.2270 C.ar  1 <1>  -0.1440 
 19 C       -6.3910     1.5150    -0.2780 C.ar  1 <1>  -0.1500 
 20 C       -6.9680     3.8370    -0.1170 C.ar  1 <1>  -0.1500 
 21 C       -7.4620     1.3090    -1.1290 C.ar  1 <1>  -0.1500 
 22 C       -8.0390     3.6280    -0.9680 C.ar  1 <1>  -0.1500 
 23 C       -8.2850     2.3650    -1.4760 C.ar  1 <1>  -0.1500 
 24 H        0.8930     3.1170    -1.8080 H     1 <1>   0.3700 
 25 H       -1.8820     2.7810    -2.2970 H     1 <1>   0.0800 
 26 H       -2.5560     4.3680    -2.0560 H     1 <1>   0.0800 
 27 H       -1.8300     5.6690     0.0710 H     1 <1>   0.0800 
 28 H       -0.7340     4.8710     1.1620 H     1 <1>   0.0800 
 29 H       -3.0790     1.8860    -0.3960 H     1 <1>   0.0800 
 30 H       -4.2210     2.6560    -1.4640 H     1 <1>   0.0800 
 31 H       -3.0890     4.8260     1.9950 H     1 <1>   0.0800 
 32 H       -2.3840     3.2460     1.8000 H     1 <1>   0.0800 
 33 H        0.9980     0.7250    -2.9360 H     1 <1>   0.1500 
 34 H       -4.3090     4.5430    -0.0450 H     1 <1>   0.4500 
 35 H        3.8730    -0.2710     0.9120 H     1 <1>   0.1500 
 36 H        3.3920     1.8320     1.8750 H     1 <1>   0.0800 
 37 H        2.4210     3.0140     1.0480 H     1 <1>   0.0800 
 38 H        1.6530     1.7490     1.9830 H     1 <1>   0.0800 
 39 H        2.4470    -1.2510    -2.9700 H     1 <1>   0.1500 
 40 H       -5.2510     3.6140     1.9780 H     1 <1>   0.0800 
 41 H       -4.5790     2.0670     1.5120 H     1 <1>   0.0800 
 42 H        3.8840    -1.7500    -1.0350 H     1 <1>   0.1500 
 43 H       -5.7690     0.6750    -0.0170 H     1 <1>   0.1500 
 44 H       -6.8050     4.8280     0.2720 H     1 <1>   0.1500 
 45 H       -7.6630     0.3250    -1.5210 H     1 <1>   0.1500 
 46 H       -8.6890     4.4450    -1.2350 H     1 <1>   0.1500 
 47 H       -9.1200     2.2030    -2.1370 H     1 <1>   0.1500 
@<TRIPOS>BOND
  1   1   2  2   
  2   2   3  am  
  3   2   4  am  
  4   3   5  1   
  5   3   6  1   
  6   4   7  1   
  7   4  24  1   
  8   5   8  1   
  9   5  25  1   
 10   5  26  1   
 11   6   9  1   
 12   6  27  1   
 13   6  28  1   
 14   7  10  ar  
 15   7  11  ar  
 16   8  12  1   
 17   8  29  1   
 18   8  30  1   
 19   9  12  1   
 20   9  31  1   
 21   9  32  1   
 22  10  13  ar  
 23  10  14  1   
 24  11  15  ar  
 25  11  33  1   
 26  12  16  1   
 27  12  34  1   
 28  13  17  ar  
 29  13  35  1   
 30  14  36  1   
 31  14  37  1   
 32  14  38  1   
 33  15  17  ar  
 34  15  39  1   
 35  16  18  1   
 36  16  40  1   
 37  16  41  1   
 38  17  42  1   
 39  18  19  ar  
 40  18  20  ar  
 41  19  21  ar  
 42  19  43  1   
 43  20  22  ar  
 44  20  44  1   
 45  21  23  ar  
 46  21  45  1   
 47  22  23  ar  
 48  22  46  1   
 49  23  47  1   
@<TRIPOS>SUBSTRUCTURE
  1 ****   8 GROUP 4 **** **** 0

# MOE 2024.06 (io_trps.svl 2023.06)
