@<TRIPOS>MOLECULE
NONAME
44 47 1 0 0 
SMALL
USER_CHARGES


@<TRIPOS>ATOM
  1 O        0.4340     0.4510    -1.7780 O.2   1 <1>  -0.5700 
  2 C        0.8330     1.4300    -1.1550 C.2   1 <1>   0.7160 
  3 N        2.1350     1.4860    -0.6710 N.am  1 <1>  -0.2290 
  4 C       -0.0060     2.5370    -0.8960 C.2   1 <1>  -0.0860 
  5 C        2.5460     2.6210     0.0540 C.2   1 <1>   0.4960 
  6 C        3.0340     0.4420    -0.8870 C.2   1 <1>  -0.0410 
  7 C        0.4930     3.5940    -0.1820 C.2   1 <1>  -0.0260 
  8 C       -1.3310     2.8610    -1.2090 C.2   1 <1>  -0.1500 
  9 N        1.7570     3.6440     0.2980 N.2   1 <1>  -0.5760 
 10 C        3.8980     2.6370     0.5410 C.2   1 <1>  -0.1240 
 11 C        4.3040     0.4780    -0.4190 C.2   1 <1>  -0.1500 
 12 N       -0.4720     4.5440    -0.0490 N.pl3 1 <1>   0.0480 
 13 C       -1.6170     4.0920    -0.6780 C.2   1 <1>  -0.2370 
 14 C        4.7490     1.6010     0.3120 C.2   1 <1>  -0.1500 
 15 C        4.3860     3.8480     1.3320 C.3   1 <1>  -0.1020 
 16 C       -0.3060     5.8350     0.6490 C.3   1 <1>   0.0160 
 17 C       -2.8470     4.8400    -0.7390 C.2   1 <1>   0.7150 
 18 O       -2.8110     6.0460    -0.9160 O.2   1 <1>  -0.5700 
 19 N       -4.0740     4.2250    -0.6020 N.am  1 <1>  -0.6600 
 20 C       -5.3360     4.8970    -1.0180 C.3   1 <1>   0.1400 
 21 C       -4.2650     2.9210     0.0930 C.3   1 <1>   0.1400 
 22 C       -6.2450     5.1020     0.1980 C.3   1 <1>  -0.1600 
 23 C       -5.1800     3.1070     1.3090 C.3   1 <1>  -0.1600 
 24 C       -6.5070     3.7800     0.9320 C.3   1 <1>  -0.1600 
 25 H        2.6740    -0.4060    -1.4490 H     1 <1>   0.1500 
 26 H       -1.9880     2.2270    -1.7800 H     1 <1>   0.1500 
 27 H        4.9940    -0.3310    -0.5890 H     1 <1>   0.1500 
 28 H        5.7640     1.6000     0.6720 H     1 <1>   0.1500 
 29 H        3.7830     3.9770     2.2130 H     1 <1>   0.0800 
 30 H        4.3050     4.7350     0.7290 H     1 <1>   0.0800 
 31 H        5.4110     3.7320     1.6340 H     1 <1>   0.0800 
 32 H        0.6240     5.8430     1.1870 H     1 <1>   0.0800 
 33 H       -1.1190     5.9760     1.3370 H     1 <1>   0.0800 
 34 H       -0.3080     6.6290    -0.0750 H     1 <1>   0.0800 
 35 H       -5.8350     4.2800    -1.7450 H     1 <1>   0.0800 
 36 H       -5.1290     5.8480    -1.4800 H     1 <1>   0.0800 
 37 H       -3.3250     2.5210     0.4280 H     1 <1>   0.0800 
 38 H       -4.7060     2.2200    -0.5940 H     1 <1>   0.0800 
 39 H       -7.1770     5.5300    -0.1240 H     1 <1>   0.0800 
 40 H       -5.7740     5.8040     0.8640 H     1 <1>   0.0800 
 41 H       -4.6650     3.7090     2.0380 H     1 <1>   0.0800 
 42 H       -5.3750     2.1490     1.7560 H     1 <1>   0.0800 
 43 H       -7.0730     3.1230     0.2950 H     1 <1>   0.0800 
 44 H       -7.0870     3.9660     1.8200 H     1 <1>   0.0800 
@<TRIPOS>BOND
  1   1   2  2   
  2   2   3  am  
  3   2   4  1   
  4   3   5  1   
  5   3   6  1   
  6   4   7  2   
  7   4   8  1   
  8   5   9  2   
  9   5  10  1   
 10   6  11  2   
 11   6  25  1   
 12   7   9  1   
 13   7  12  1   
 14   8  13  2   
 15   8  26  1   
 16  10  14  2   
 17  10  15  1   
 18  11  14  1   
 19  11  27  1   
 20  12  13  1   
 21  12  16  1   
 22  13  17  1   
 23  14  28  1   
 24  15  29  1   
 25  15  30  1   
 26  15  31  1   
 27  16  32  1   
 28  16  33  1   
 29  16  34  1   
 30  17  18  2   
 31  17  19  am  
 32  19  20  1   
 33  19  21  1   
 34  20  22  1   
 35  20  35  1   
 36  20  36  1   
 37  21  23  1   
 38  21  37  1   
 39  21  38  1   
 40  22  24  1   
 41  22  39  1   
 42  22  40  1   
 43  23  24  1   
 44  23  41  1   
 45  23  42  1   
 46  24  43  1   
 47  24  44  1   
@<TRIPOS>SUBSTRUCTURE
  1 ****   4 GROUP 4 **** **** 0

# MOE 2024.06 (io_trps.svl 2023.06)
