@<TRIPOS>MOLECULE
NONAME
45 46 1 0 0 
SMALL
USER_CHARGES


@<TRIPOS>ATOM
  1 S       -0.3680     0.2120    -1.5150 S.o2  1 <1>   1.4470 
  2 O       -0.8420    -0.7880    -2.4460 O.2   1 <1>  -0.6500 
  3 O       -0.5420     1.6000    -1.8730 O.2   1 <1>  -0.6500 
  4 N       -1.2630     0.0880    -0.1000 N.am  1 <1>  -0.9140 
  5 C        1.3570    -0.0640    -1.0240 C.ar  1 <1>  -0.0090 
  6 C       -1.6620    -1.2230     0.3650 C.3   1 <1>   0.4190 
  7 C        2.1260    -1.0630    -1.6020 C.ar  1 <1>  -0.1500 
  8 C        1.9550     0.7180    -0.0460 C.ar  1 <1>  -0.1500 
  9 C       -0.5150    -2.2360     0.3500 C.ar  1 <1>  -0.1440 
 10 C       -2.9530    -1.6660    -0.3250 C.3   1 <1>  -0.2400 
 11 C        3.4360    -1.2820    -1.2130 C.ar  1 <1>  -0.1500 
 12 C        3.2640     0.5020     0.3460 C.ar  1 <1>  -0.1500 
 13 C        0.4550    -2.1500     1.3400 C.ar  1 <1>  -0.1500 
 14 C       -0.4020    -3.2390    -0.6060 C.ar  1 <1>  -0.1500 
 15 C        4.0320    -0.5050    -0.2250 C.ar  1 <1>  -0.1430 
 16 C        1.5120    -3.0420     1.3770 C.ar  1 <1>  -0.1500 
 17 C        0.6520    -4.1350    -0.5690 C.ar  1 <1>  -0.1500 
 18 C        5.4850    -0.7190     0.2530 C.3   1 <1>   0.1430 
 19 C        1.6110    -4.0380     0.4230 C.ar  1 <1>  -0.1500 
 20 C        5.4850    -1.0530     1.7520 C.3   1 <1>  -0.2400 
 21 C        6.2990     0.5620     0.0140 C.3   1 <1>  -0.2400 
 22 C        6.2000    -1.8670    -0.4780 C.3   1 <1>  -0.2400 
 23 H       -2.1070     0.6090    -0.3110 H     1 <1>   0.4200 
 24 H       -1.9270    -1.1010     1.4030 H     1 <1>   0.0800 
 25 H        1.6900    -1.6880    -2.3620 H     1 <1>   0.1500 
 26 H        1.3840     1.5060     0.4150 H     1 <1>   0.1500 
 27 H       -2.8290    -1.7850    -1.3850 H     1 <1>   0.0800 
 28 H       -3.7370    -0.9550    -0.1410 H     1 <1>   0.0800 
 29 H       -3.2620    -2.6130     0.0810 H     1 <1>   0.0800 
 30 H        3.9670    -2.0780    -1.6990 H     1 <1>   0.1500 
 31 H        3.6780     1.1340     1.1110 H     1 <1>   0.1500 
 32 H        0.3970    -1.3770     2.0860 H     1 <1>   0.1500 
 33 H       -1.1250    -3.3310    -1.3970 H     1 <1>   0.1500 
 34 H        2.2600    -2.9570     2.1450 H     1 <1>   0.1500 
 35 H        0.7270    -4.9060    -1.3150 H     1 <1>   0.1500 
 36 H        2.4320    -4.7320     0.4510 H     1 <1>   0.1500 
 37 H        6.4850    -1.2400     2.1000 H     1 <1>   0.0800 
 38 H        4.8900    -1.9310     1.9310 H     1 <1>   0.0800 
 39 H        5.0770    -0.2450     2.3300 H     1 <1>   0.0800 
 40 H        5.9020     1.3860     0.5770 H     1 <1>   0.0800 
 41 H        6.2750     0.8230    -1.0290 H     1 <1>   0.0800 
 42 H        7.3230     0.4210     0.3080 H     1 <1>   0.0800 
 43 H        5.6820    -2.7960    -0.3190 H     1 <1>   0.0800 
 44 H        7.2050    -1.9800    -0.1140 H     1 <1>   0.0800 
 45 H        6.2490    -1.6700    -1.5340 H     1 <1>   0.0800 
@<TRIPOS>BOND
  1   1   2  2   
  2   1   3  2   
  3   1   4  am  
  4   1   5  1   
  5   4   6  1   
  6   4  23  1   
  7   5   7  ar  
  8   5   8  ar  
  9   6   9  1   
 10   6  10  1   
 11   6  24  1   
 12   7  11  ar  
 13   7  25  1   
 14   8  12  ar  
 15   8  26  1   
 16   9  13  ar  
 17   9  14  ar  
 18  10  27  1   
 19  10  28  1   
 20  10  29  1   
 21  11  15  ar  
 22  11  30  1   
 23  12  15  ar  
 24  12  31  1   
 25  13  16  ar  
 26  13  32  1   
 27  14  17  ar  
 28  14  33  1   
 29  15  18  1   
 30  16  19  ar  
 31  16  34  1   
 32  17  19  ar  
 33  17  35  1   
 34  18  20  1   
 35  18  21  1   
 36  18  22  1   
 37  19  36  1   
 38  20  37  1   
 39  20  38  1   
 40  20  39  1   
 41  21  40  1   
 42  21  41  1   
 43  21  42  1   
 44  22  43  1   
 45  22  44  1   
 46  22  45  1   
@<TRIPOS>SUBSTRUCTURE
  1 ****   5 GROUP 4 **** **** 0

# MOE 2024.06 (io_trps.svl 2023.06)
