@<TRIPOS>MOLECULE
NONAME
51 53 1 0 0 
SMALL
USER_CHARGES


@<TRIPOS>ATOM
  1 S       -5.6040    -1.2080    -1.8800 S.3   1 <1>  -0.0800 
  2 C       -4.7700     0.1320    -1.1040 C.2   1 <1>  -0.1400 
  3 C       -7.0550    -0.8620    -0.9580 C.2   1 <1>  -0.1400 
  4 C       -5.5890     0.8020    -0.2660 C.2   1 <1>   0.0630 
  5 C       -3.3050     0.3670    -1.4180 C.3   1 <1>   0.0200 
  6 C       -6.8960     0.2060    -0.1590 C.2   1 <1>  -0.1810 
  7 C       -8.2650    -1.7590    -1.1000 C.3   1 <1>   0.0200 
  8 N       -5.1570     1.9450     0.4400 N.am  1 <1>  -0.4230 
  9 C       -2.4250     0.2580    -0.1560 C.3   1 <1>  -0.1600 
 10 C       -8.0070     0.6290     0.7970 C.3   1 <1>   0.0210 
 11 C       -9.2200    -1.5110     0.0800 C.3   1 <1>  -0.1600 
 12 C       -3.9170     1.9920     1.0390 C.2   1 <1>   0.5690 
 13 C       -5.8760     3.2210     0.1920 C.3   1 <1>   0.1400 
 14 C       -3.0900     0.7190     1.1650 C.3   1 <1>  -0.0990 
 15 C       -9.3550    -0.0110     0.4050 C.3   1 <1>  -0.1600 
 16 O       -3.4450     3.0340     1.4350 O.2   1 <1>  -0.5700 
 17 C       -5.0840     4.0920    -0.8010 C.3   1 <1>   0.3430 
 18 N       -5.2690     5.5670    -0.5850 N.4   1 <1>  -0.9590 
 19 C       -4.7230     6.3080    -1.7540 C.3   1 <1>   0.3430 
 20 C       -4.6200     5.9960     0.6900 C.3   1 <1>   0.3430 
 21 C       -5.2160     7.7500    -1.7380 C.3   1 <1>  -0.2400 
 22 C       -5.6760     6.6420     1.5770 C.3   1 <1>  -0.2400 
 23 H       -3.2050     1.3520    -1.8370 H     1 <1>   0.0800 
 24 H       -2.9660    -0.3360    -2.1600 H     1 <1>   0.0800 
 25 H       -7.9610    -2.7910    -1.1130 H     1 <1>   0.0800 
 26 H       -8.7560    -1.5360    -2.0310 H     1 <1>   0.0800 
 27 H       -1.5270     0.8300    -0.3170 H     1 <1>   0.0800 
 28 H       -2.1280    -0.7700    -0.0330 H     1 <1>   0.0800 
 29 H       -8.1300     1.6930     0.8160 H     1 <1>   0.0800 
 30 H       -7.7350     0.3100     1.7880 H     1 <1>   0.0800 
 31 H       -8.8360    -2.0190     0.9480 H     1 <1>   0.0800 
 32 H      -10.1850    -1.9290    -0.1460 H     1 <1>   0.0800 
 33 H       -5.9980     3.7180     1.1360 H     1 <1>   0.0800 
 34 H       -6.8440     3.0230    -0.2280 H     1 <1>   0.0800 
 35 H       -2.3290     0.8700     1.9090 H     1 <1>   0.0800 
 36 H       -3.7310    -0.0630     1.5300 H     1 <1>   0.0800 
 37 H       -9.7440     0.4960    -0.4610 H     1 <1>   0.0800 
 38 H      -10.0600     0.1230     1.2080 H     1 <1>   0.0800 
 39 H       -5.3910     3.8270    -1.7990 H     1 <1>   0.0800 
 40 H       -4.0350     3.8610    -0.7060 H     1 <1>   0.0800 
 41 H       -6.2730     5.7780    -0.5190 H     1 <1>   0.4500 
 42 H       -5.0570     5.8400    -2.6670 H     1 <1>   0.0800 
 43 H       -3.6440     6.2840    -1.7390 H     1 <1>   0.0800 
 44 H       -3.8280     6.7010     0.4920 H     1 <1>   0.0800 
 45 H       -4.1900     5.1510     1.2030 H     1 <1>   0.0800 
 46 H       -6.2910     7.7890    -1.7250 H     1 <1>   0.0800 
 47 H       -4.8780     8.2460    -2.6300 H     1 <1>   0.0800 
 48 H       -4.8210     8.2910    -0.8970 H     1 <1>   0.0800 
 49 H       -6.0980     7.5130     1.1080 H     1 <1>   0.0800 
 50 H       -5.2150     6.9540     2.4980 H     1 <1>   0.0800 
 51 H       -6.4570     5.9450     1.8210 H     1 <1>   0.0800 
@<TRIPOS>BOND
  1   1   2  1   
  2   1   3  1   
  3   2   4  2   
  4   2   5  1   
  5   3   6  2   
  6   3   7  1   
  7   4   6  1   
  8   4   8  1   
  9   5   9  1   
 10   5  23  1   
 11   5  24  1   
 12   6  10  1   
 13   7  11  1   
 14   7  25  1   
 15   7  26  1   
 16   8  12  am  
 17   8  13  1   
 18   9  14  1   
 19   9  27  1   
 20   9  28  1   
 21  10  15  1   
 22  10  29  1   
 23  10  30  1   
 24  11  15  1   
 25  11  31  1   
 26  11  32  1   
 27  12  14  1   
 28  12  16  2   
 29  13  17  1   
 30  13  33  1   
 31  13  34  1   
 32  14  35  1   
 33  14  36  1   
 34  15  37  1   
 35  15  38  1   
 36  17  18  1   
 37  17  39  1   
 38  17  40  1   
 39  18  19  1   
 40  18  20  1   
 41  18  41  1   
 42  19  21  1   
 43  19  42  1   
 44  19  43  1   
 45  20  22  1   
 46  20  44  1   
 47  20  45  1   
 48  21  46  1   
 49  21  47  1   
 50  21  48  1   
 51  22  49  1   
 52  22  50  1   
 53  22  51  1   
@<TRIPOS>SUBSTRUCTURE
  1 ****   8 GROUP 4 **** **** 0

# MOE 2024.06 (io_trps.svl 2023.06)
