@<TRIPOS>MOLECULE
NONAME
43 44 1 0 0 
SMALL
USER_CHARGES


@<TRIPOS>ATOM
  1 BR       1.9470     0.9130     1.3140 Br    1 <1>  -0.1110 
  2 C        0.8590     2.3430     0.6060 C.ar  1 <1>   0.1110 
  3 C       -0.3190     2.7020     1.2470 C.ar  1 <1>  -0.1440 
  4 C        1.3000     2.9740    -0.5420 C.ar  1 <1>  -0.1500 
  5 C       -1.0620     3.7350     0.7000 C.ar  1 <1>  -0.1500 
  6 C       -0.7950     1.9950     2.5070 C.3   1 <1>  -0.0960 
  7 C        0.5400     4.0020    -1.0700 C.ar  1 <1>  -0.1500 
  8 C       -0.6440     4.3940    -0.4520 C.ar  1 <1>   0.1990 
  9 N       -1.3940     5.4270    -0.9970 N.am  1 <1>  -0.6930 
 10 S       -1.4770     6.9660    -0.2090 S.o2  1 <1>   1.3330 
 11 C       -2.5790     5.0350    -1.8260 C.3   1 <1>   0.2570 
 12 O       -2.4090     7.7670    -0.9700 O.2   1 <1>  -0.6500 
 13 O       -1.6960     6.7420     1.1970 O.2   1 <1>  -0.6500 
 14 C        0.1620     7.6060    -0.4710 C.3   1 <1>  -0.1350 
 15 C       -3.8700     4.8260    -1.0260 C.2   1 <1>   0.5690 
 16 O       -4.2600     3.6990    -0.8270 O.2   1 <1>  -0.5700 
 17 N       -4.5450     5.9090    -0.5660 N.am  1 <1>  -0.7300 
 18 C       -5.7040     5.8850     0.3360 C.3   1 <1>   0.2200 
 19 C       -6.6780     6.9720    -0.0980 C.3   1 <1>  -0.1600 
 20 C       -5.2520     6.3510     1.7140 C.3   1 <1>  -0.1600 
 21 C       -6.1120     8.2800     0.4670 C.3   1 <1>  -0.1600 
 22 C       -5.2130     7.8820     1.6450 C.3   1 <1>  -0.1600 
 23 H        2.2170     2.6620    -1.0090 H     1 <1>   0.1500 
 24 H       -1.9830     4.0430     1.1650 H     1 <1>   0.1500 
 25 H       -0.0640     2.1020     3.2880 H     1 <1>   0.0800 
 26 H       -0.9440     0.9490     2.3080 H     1 <1>   0.0800 
 27 H       -1.7250     2.4110     2.8520 H     1 <1>   0.0800 
 28 H        0.8580     4.5050    -1.9640 H     1 <1>   0.1500 
 29 H       -2.3560     4.1170    -2.3400 H     1 <1>   0.0800 
 30 H       -2.7560     5.7890    -2.5710 H     1 <1>   0.0800 
 31 H        0.3740     7.6650    -1.5200 H     1 <1>   0.0800 
 32 H        0.8860     6.9680    -0.0040 H     1 <1>   0.0800 
 33 H        0.2440     8.5870    -0.0460 H     1 <1>   0.0800 
 34 H       -4.1280     6.8430    -0.6770 H     1 <1>   0.3700 
 35 H       -6.1530     4.9050     0.3560 H     1 <1>   0.0800 
 36 H       -7.6320     6.7760     0.3600 H     1 <1>   0.0800 
 37 H       -6.8070     7.0000    -1.1660 H     1 <1>   0.0800 
 38 H       -4.3030     5.9260     1.9960 H     1 <1>   0.0800 
 39 H       -5.9910     6.0500     2.4350 H     1 <1>   0.0800 
 40 H       -6.9030     8.9410     0.7780 H     1 <1>   0.0800 
 41 H       -5.5190     8.7750    -0.2840 H     1 <1>   0.0800 
 42 H       -4.2050     8.2120     1.4590 H     1 <1>   0.0800 
 43 H       -5.5550     8.3160     2.5680 H     1 <1>   0.0800 
@<TRIPOS>BOND
  1   1   2  1   
  2   2   3  ar  
  3   2   4  ar  
  4   3   5  ar  
  5   3   6  1   
  6   4   7  ar  
  7   4  23  1   
  8   5   8  ar  
  9   5  24  1   
 10   6  25  1   
 11   6  26  1   
 12   6  27  1   
 13   7   8  ar  
 14   7  28  1   
 15   8   9  1   
 16   9  10  am  
 17   9  11  1   
 18  10  12  2   
 19  10  13  2   
 20  10  14  1   
 21  11  15  1   
 22  11  29  1   
 23  11  30  1   
 24  14  31  1   
 25  14  32  1   
 26  14  33  1   
 27  15  16  2   
 28  15  17  am  
 29  17  18  1   
 30  17  34  1   
 31  18  19  1   
 32  18  20  1   
 33  18  35  1   
 34  19  21  1   
 35  19  36  1   
 36  19  37  1   
 37  20  22  1   
 38  20  38  1   
 39  20  39  1   
 40  21  22  1   
 41  21  40  1   
 42  21  41  1   
 43  22  42  1   
 44  22  43  1   
@<TRIPOS>SUBSTRUCTURE
  1 ****   9 GROUP 4 **** **** 0

# MOE 2024.06 (io_trps.svl 2023.06)
