@<TRIPOS>MOLECULE
NONAME
39 40 1 0 0 
SMALL
USER_CHARGES


@<TRIPOS>ATOM
  1 S       -9.0160     1.2840    -0.6110 S.3   1 <1>  -0.3320 
  2 C      -10.7970     1.4080    -0.3670 C.ar  1 <1>   0.1020 
  3 C       -8.2900     2.8790    -0.0490 C.3   1 <1>   0.0700 
  4 C      -11.3960     2.5430     0.1580 C.ar  1 <1>  -0.1500 
  5 C      -11.5580     0.3120    -0.7280 C.ar  1 <1>  -0.1500 
  6 C       -6.7790     2.7760    -0.2620 C.3   1 <1>  -0.1600 
  7 C      -12.7710     2.5710     0.3190 C.ar  1 <1>  -0.1500 
  8 C      -12.9320     0.3480    -0.5650 C.ar  1 <1>  -0.1500 
  9 C       -6.0720     4.0490     0.1960 C.3   1 <1>   0.3430 
 10 C      -13.5440     1.4780    -0.0420 C.ar  1 <1>  -0.1440 
 11 N       -4.6220     3.9840    -0.1330 N.4   1 <1>  -0.9590 
 12 C      -15.0500     1.5140     0.1380 C.3   1 <1>  -0.0970 
 13 C       -3.8560     2.9280     0.6190 C.3   1 <1>   0.3430 
 14 C       -3.9360     5.3140     0.0010 C.3   1 <1>   0.3430 
 15 C       -2.3520     2.9490     0.2550 C.3   1 <1>   0.1200 
 16 C       -2.4360     5.2180    -0.3670 C.3   1 <1>   0.1200 
 17 O       -2.0830     3.9110    -0.7300 O.3   1 <1>  -0.5600 
 18 H       -8.5490     2.9970     0.9890 H     1 <1>   0.0800 
 19 H       -8.7330     3.6580    -0.6470 H     1 <1>   0.0800 
 20 H      -10.8230     3.4010     0.4440 H     1 <1>   0.1500 
 21 H      -11.0790    -0.5610    -1.1330 H     1 <1>   0.1500 
 22 H       -6.5950     2.6120    -1.3100 H     1 <1>   0.0800 
 23 H       -6.4210     1.9280     0.2950 H     1 <1>   0.0800 
 24 H      -13.2400     3.4490     0.7270 H     1 <1>   0.1500 
 25 H      -13.5220    -0.5070    -0.8450 H     1 <1>   0.1500 
 26 H       -6.2050     4.1820     1.2580 H     1 <1>   0.0800 
 27 H       -6.5160     4.8930    -0.3080 H     1 <1>   0.0800 
 28 H       -4.5090     3.7300    -1.1280 H     1 <1>   0.4500 
 29 H      -15.4180     2.5190     0.0320 H     1 <1>   0.0800 
 30 H      -15.3080     1.1510     1.1160 H     1 <1>   0.0800 
 31 H      -15.5330     0.8990    -0.6000 H     1 <1>   0.0800 
 32 H       -4.2510     1.9520     0.3910 H     1 <1>   0.0800 
 33 H       -3.9600     3.0800     1.6800 H     1 <1>   0.0800 
 34 H       -4.0240     5.6730     1.0130 H     1 <1>   0.0800 
 35 H       -4.4070     6.0390    -0.6430 H     1 <1>   0.0800 
 36 H       -2.0500     1.9910    -0.1300 H     1 <1>   0.0800 
 37 H       -1.7520     3.1660     1.1220 H     1 <1>   0.0800 
 38 H       -1.8200     5.5260     0.4600 H     1 <1>   0.0800 
 39 H       -2.2180     5.8600    -1.2040 H     1 <1>   0.0800 
@<TRIPOS>BOND
  1   1   2  1   
  2   1   3  1   
  3   2   4  ar  
  4   2   5  ar  
  5   3   6  1   
  6   3  18  1   
  7   3  19  1   
  8   4   7  ar  
  9   4  20  1   
 10   5   8  ar  
 11   5  21  1   
 12   6   9  1   
 13   6  22  1   
 14   6  23  1   
 15   7  10  ar  
 16   7  24  1   
 17   8  10  ar  
 18   8  25  1   
 19   9  11  1   
 20   9  26  1   
 21   9  27  1   
 22  10  12  1   
 23  11  13  1   
 24  11  14  1   
 25  11  28  1   
 26  12  29  1   
 27  12  30  1   
 28  12  31  1   
 29  13  15  1   
 30  13  32  1   
 31  13  33  1   
 32  14  16  1   
 33  14  34  1   
 34  14  35  1   
 35  15  17  1   
 36  15  36  1   
 37  15  37  1   
 38  16  17  1   
 39  16  38  1   
 40  16  39  1   
@<TRIPOS>SUBSTRUCTURE
  1 ****   3 GROUP 4 **** **** 0

# MOE 2024.06 (io_trps.svl 2023.06)
