@<TRIPOS>MOLECULE
NONAME
30 31 1 0 0 
SMALL
USER_CHARGES


@<TRIPOS>ATOM
  1 O       -3.0950    -3.4010    -1.8360 O.2   1 <1>  -0.5700 
  2 C       -3.5730    -2.6770    -1.0170 C.2   1 <1>   0.4480 
  3 C       -2.8300    -1.4900    -0.3480 C.3   1 <1>   0.5640 
  4 C       -5.0320    -2.7780    -0.5910 C.3   1 <1>  -0.0990 
  5 N       -3.5070    -0.2170    -0.7320 N.4   1 <1>  -0.9060 
  6 C       -3.0000    -1.6270     1.1810 C.3   1 <1>  -0.1600 
  7 C       -1.3570    -1.3750    -0.7410 C.3   1 <1>  -0.2400 
  8 C       -5.3610    -1.5390     0.2840 C.3   1 <1>  -0.0800 
  9 C       -4.9630    -0.2190    -0.4640 C.3   1 <1>   0.5030 
 10 C       -4.5000    -1.6900     1.5640 C.3   1 <1>  -0.1600 
 11 C       -5.2640     1.0320     0.3640 C.3   1 <1>  -0.2400 
 12 C       -5.6660    -0.0770    -1.8170 C.3   1 <1>  -0.2400 
 13 H       -5.1760    -3.6890    -0.0360 H     1 <1>   0.0800 
 14 H       -5.6620    -2.8330    -1.4600 H     1 <1>   0.0800 
 15 H       -3.3570    -0.0580    -1.7320 H     1 <1>   0.4500 
 16 H       -3.0770     0.5560    -0.2220 H     1 <1>   0.4500 
 17 H       -2.5200    -0.8070     1.6880 H     1 <1>   0.0800 
 18 H       -2.5150    -2.5310     1.5100 H     1 <1>   0.0800 
 19 H       -0.8810    -0.5470    -0.2490 H     1 <1>   0.0800 
 20 H       -1.2560    -1.2690    -1.8070 H     1 <1>   0.0800 
 21 H       -0.8390    -2.2750    -0.4570 H     1 <1>   0.0800 
 22 H       -6.4080    -1.5340     0.5360 H     1 <1>   0.0800 
 23 H       -4.7150    -2.6340     2.0410 H     1 <1>   0.0800 
 24 H       -4.7370    -0.9270     2.2860 H     1 <1>   0.0800 
 25 H       -4.6960     1.0650     1.2750 H     1 <1>   0.0800 
 26 H       -6.3080     1.0490     0.6260 H     1 <1>   0.0800 
 27 H       -5.0570     1.9280    -0.1950 H     1 <1>   0.0800 
 28 H       -5.3790    -0.8440    -2.5120 H     1 <1>   0.0800 
 29 H       -5.4550     0.8780    -2.2660 H     1 <1>   0.0800 
 30 H       -6.7320    -0.1390    -1.6790 H     1 <1>   0.0800 
@<TRIPOS>BOND
  1   1   2  2   
  2   2   3  1   
  3   2   4  1   
  4   3   5  1   
  5   3   6  1   
  6   3   7  1   
  7   4   8  1   
  8   4  13  1   
  9   4  14  1   
 10   5   9  1   
 11   5  15  1   
 12   5  16  1   
 13   6  10  1   
 14   6  17  1   
 15   6  18  1   
 16   7  19  1   
 17   7  20  1   
 18   7  21  1   
 19   8   9  1   
 20   8  10  1   
 21   8  22  1   
 22   9  11  1   
 23   9  12  1   
 24  10  23  1   
 25  10  24  1   
 26  11  25  1   
 27  11  26  1   
 28  11  27  1   
 29  12  28  1   
 30  12  29  1   
 31  12  30  1   
@<TRIPOS>SUBSTRUCTURE
  1 ****   3 GROUP 4 **** **** 0

# MOE 2024.06 (io_trps.svl 2023.06)
