@<TRIPOS>MOLECULE
NONAME
39 41 1 0 0 
SMALL
USER_CHARGES


@<TRIPOS>ATOM
  1 S       -0.7350    -0.3980    -0.5520 S.3   1 <1>  -0.0800 
  2 C       -1.6710    -0.8280     0.8410 C.2   1 <1>   0.4420 
  3 C        0.6490    -1.0480     0.2610 C.2   1 <1>   0.1980 
  4 N       -0.9570    -1.3830     1.7510 N.2   1 <1>  -0.3380 
  5 N       -3.0150    -0.5290     0.7950 N.am  1 <1>  -0.4940 
  6 N        0.3630    -1.5050     1.4140 N.2   1 <1>  -0.3380 
  7 C        1.9860    -0.9970    -0.4700 C.3   1 <1>   0.1000 
  8 C       -3.9970    -0.7430     1.7230 C.2   1 <1>   0.5690 
  9 C        2.9920    -2.0100     0.1100 C.3   1 <1>  -0.1600 
 10 C        2.5740     0.4250    -0.4290 C.3   1 <1>  -0.1600 
 11 O       -3.8020    -1.2640     2.7900 O.2   1 <1>  -0.5700 
 12 C       -5.4170    -0.3030     1.4000 C.3   1 <1>   0.1310 
 13 C        4.3470    -1.9400    -0.6080 C.3   1 <1>  -0.1600 
 14 C        3.9310     0.5010    -1.1430 C.3   1 <1>  -0.1600 
 15 S       -5.5280     0.4780    -0.2870 S.3   1 <1>  -0.3310 
 16 C        4.9210    -0.5180    -0.5650 C.3   1 <1>  -0.1600 
 17 C       -7.2490     0.9090    -0.4550 C.ar  1 <1>   0.7220 
 18 N       -8.0220     0.6060     0.5770 N.ar  1 <1>  -0.6200 
 19 N       -7.5620     1.4890    -1.6000 N.ar  1 <1>  -0.6200 
 20 C       -9.2850     0.9370     0.4210 C.ar  1 <1>   0.1600 
 21 C       -8.8330     1.8050    -1.7190 C.ar  1 <1>   0.1600 
 22 C       -9.7460     1.5470    -0.7230 C.ar  1 <1>  -0.1500 
 23 H       -3.3320    -0.0780    -0.0620 H     1 <1>   0.3700 
 24 H        1.8070    -1.2630    -1.4970 H     1 <1>   0.0800 
 25 H        2.5890    -3.0050     0.0250 H     1 <1>   0.0800 
 26 H        3.1380    -1.8060     1.1580 H     1 <1>   0.0800 
 27 H        2.6960     0.7250     0.5980 H     1 <1>   0.0800 
 28 H        1.8910     1.1150    -0.8930 H     1 <1>   0.0800 
 29 H       -5.7510     0.4260     2.1150 H     1 <1>   0.0800 
 30 H       -6.0780    -1.1500     1.4070 H     1 <1>   0.0800 
 31 H        4.2270    -2.2460    -1.6340 H     1 <1>   0.0800 
 32 H        5.0370    -2.6210    -0.1410 H     1 <1>   0.0800 
 33 H        4.3370     1.4930    -1.0410 H     1 <1>   0.0800 
 34 H        3.7950     0.3080    -2.1940 H     1 <1>   0.0800 
 35 H        5.8420    -0.4840    -1.1220 H     1 <1>   0.0800 
 36 H        5.1450    -0.2570     0.4560 H     1 <1>   0.0800 
 37 H       -9.9690     0.7170     1.2250 H     1 <1>   0.1500 
 38 H       -9.1500     2.2810    -2.6320 H     1 <1>   0.1500 
 39 H      -10.7810     1.8110    -0.8360 H     1 <1>   0.1500 
@<TRIPOS>BOND
  1   1   2  1   
  2   1   3  1   
  3   2   4  2   
  4   2   5  1   
  5   3   6  2   
  6   3   7  1   
  7   4   6  1   
  8   5   8  am  
  9   5  23  1   
 10   7   9  1   
 11   7  10  1   
 12   7  24  1   
 13   8  11  2   
 14   8  12  1   
 15   9  13  1   
 16   9  25  1   
 17   9  26  1   
 18  10  14  1   
 19  10  27  1   
 20  10  28  1   
 21  12  15  1   
 22  12  29  1   
 23  12  30  1   
 24  13  16  1   
 25  13  31  1   
 26  13  32  1   
 27  14  16  1   
 28  14  33  1   
 29  14  34  1   
 30  15  17  1   
 31  16  35  1   
 32  16  36  1   
 33  17  18  ar  
 34  17  19  ar  
 35  18  20  ar  
 36  19  21  ar  
 37  20  22  ar  
 38  20  37  1   
 39  21  22  ar  
 40  21  38  1   
 41  22  39  1   
@<TRIPOS>SUBSTRUCTURE
  1 ****   5 GROUP 4 **** **** 0

# MOE 2024.06 (io_trps.svl 2023.06)
