@<TRIPOS>MOLECULE
NONAME
51 54 1 0 0 
SMALL
USER_CHARGES


@<TRIPOS>ATOM
  1 S       -0.7660     0.0930     2.1960 S.3   1 <1>  -0.0800 
  2 C       -2.3740     0.7140     1.8650 C.ar  1 <1>   0.2970 
  3 C       -0.9200    -1.1180     0.9280 C.2   1 <1>  -0.1400 
  4 N       -2.8860     1.7030     2.5650 N.ar  1 <1>  -0.5670 
  5 C       -2.9620     0.0440     0.8140 C.ar  1 <1>   0.0000 
  6 C       -2.1190    -1.0380     0.3200 C.2   1 <1>  -0.1810 
  7 C        0.2760    -2.0300     0.7360 C.3   1 <1>   0.0200 
  8 C       -4.0860     2.0410     2.1530 C.ar  1 <1>   0.4700 
  9 C       -4.2170     0.5640     0.4570 C.ar  1 <1>   0.4100 
 10 C       -2.5240    -2.0220    -0.7750 C.3   1 <1>   0.0210 
 11 C       -0.1020    -3.5100     0.8550 C.3   1 <1>  -0.1600 
 12 N       -4.7890     1.5370     1.1490 N.ar  1 <1>  -0.6200 
 13 N       -4.9140     0.1250    -0.6450 N.pl3 1 <1>  -0.8690 
 14 C       -2.3870    -3.4890    -0.3420 C.3   1 <1>  -0.1600 
 15 C       -0.9480    -4.0280    -0.3170 C.3   1 <1>  -0.1600 
 16 C       -6.1530     0.7400    -1.1560 C.3   1 <1>   0.2090 
 17 C       -7.3290     0.1500    -0.3790 C.3   1 <1>  -0.1600 
 18 C       -8.5920     0.9700    -0.6100 C.3   1 <1>   0.3430 
 19 N       -9.6430     0.5750     0.3680 N.4   1 <1>  -0.9590 
 20 C      -10.1600    -0.8220     0.1410 C.3   1 <1>   0.3430 
 21 C      -10.7830     1.5580     0.3650 C.3   1 <1>   0.3430 
 22 C      -11.3210    -1.1580     1.0960 C.3   1 <1>   0.1200 
 23 C      -11.9150     1.1140     1.3110 C.3   1 <1>   0.1200 
 24 O      -12.3220    -0.1870     1.0000 O.3   1 <1>  -0.5600 
 25 H        1.0140    -1.8050     1.4850 H     1 <1>   0.0800 
 26 H        0.7200    -1.8370    -0.2250 H     1 <1>   0.0800 
 27 H       -4.5570     2.8390     2.7020 H     1 <1>   0.1500 
 28 H       -1.9370    -1.8390    -1.6580 H     1 <1>   0.0800 
 29 H       -3.5510    -1.8890    -1.0370 H     1 <1>   0.0800 
 30 H       -0.6220    -3.6720     1.7830 H     1 <1>   0.0800 
 31 H        0.8080    -4.0830     0.8910 H     1 <1>   0.0800 
 32 H       -4.3500    -0.3500    -1.3530 H     1 <1>   0.4000 
 33 H       -2.9440    -4.0890    -1.0410 H     1 <1>   0.0800 
 34 H       -2.8450    -3.6220     0.6240 H     1 <1>   0.0800 
 35 H       -1.0010    -5.1000    -0.2300 H     1 <1>   0.0800 
 36 H       -0.4570    -3.8110    -1.2510 H     1 <1>   0.0800 
 37 H       -6.2510     0.5380    -2.2100 H     1 <1>   0.0800 
 38 H       -6.1000     1.8090    -1.0200 H     1 <1>   0.0800 
 39 H       -7.0880     0.1700     0.6690 H     1 <1>   0.0800 
 40 H       -7.4700    -0.8690    -0.6920 H     1 <1>   0.0800 
 41 H       -8.9470     0.8340    -1.6200 H     1 <1>   0.0800 
 42 H       -8.3540     2.0140    -0.4730 H     1 <1>   0.0800 
 43 H       -9.2190     0.5980     1.3060 H     1 <1>   0.4500 
 44 H       -9.3670    -1.5380     0.2850 H     1 <1>   0.0800 
 45 H      -10.5150    -0.9200    -0.8720 H     1 <1>   0.0800 
 46 H      -11.1890     1.6430    -0.6300 H     1 <1>   0.0800 
 47 H      -10.4320     2.5320     0.6640 H     1 <1>   0.0800 
 48 H      -10.9850    -1.2120     2.1170 H     1 <1>   0.0800 
 49 H      -11.7590    -2.1050     0.8290 H     1 <1>   0.0800 
 50 H      -12.7690     1.7590     1.1960 H     1 <1>   0.0800 
 51 H      -11.6000     1.1430     2.3400 H     1 <1>   0.0800 
@<TRIPOS>BOND
  1   1   2  1   
  2   1   3  1   
  3   2   4  ar  
  4   2   5  ar  
  5   3   6  2   
  6   3   7  1   
  7   4   8  ar  
  8   5   6  1   
  9   5   9  ar  
 10   6  10  1   
 11   7  11  1   
 12   7  25  1   
 13   7  26  1   
 14   8  12  ar  
 15   8  27  1   
 16   9  12  ar  
 17   9  13  1   
 18  10  14  1   
 19  10  28  1   
 20  10  29  1   
 21  11  15  1   
 22  11  30  1   
 23  11  31  1   
 24  13  16  1   
 25  13  32  1   
 26  14  15  1   
 27  14  33  1   
 28  14  34  1   
 29  15  35  1   
 30  15  36  1   
 31  16  17  1   
 32  16  37  1   
 33  16  38  1   
 34  17  18  1   
 35  17  39  1   
 36  17  40  1   
 37  18  19  1   
 38  18  41  1   
 39  18  42  1   
 40  19  20  1   
 41  19  21  1   
 42  19  43  1   
 43  20  22  1   
 44  20  44  1   
 45  20  45  1   
 46  21  23  1   
 47  21  46  1   
 48  21  47  1   
 49  22  24  1   
 50  22  48  1   
 51  22  49  1   
 52  23  24  1   
 53  23  50  1   
 54  23  51  1   
@<TRIPOS>SUBSTRUCTURE
  1 ****   9 GROUP 4 **** **** 0

# MOE 2024.06 (io_trps.svl 2023.06)
