@<TRIPOS>MOLECULE
NONAME
38 40 1 0 0 
SMALL
USER_CHARGES


@<TRIPOS>ATOM
  1 S        0.0400    -0.0980     0.5910 S.3   1 <1>  -0.0800 
  2 C        0.9260     1.1750    -0.2570 C.2   1 <1>   0.1040 
  3 C       -1.4390     0.8400     0.5470 C.2   1 <1>  -0.1400 
  4 N        2.2900     1.0160    -0.5230 N.am  1 <1>  -0.4940 
  5 C        0.0980     2.2240    -0.5240 C.2   1 <1>   0.0190 
  6 C       -1.2470     2.0100    -0.0690 C.2   1 <1>  -0.1810 
  7 C       -2.7350     0.3290     1.1400 C.3   1 <1>   0.3000 
  8 C        3.0820    -0.1110    -0.5650 C.2   1 <1>   0.5440 
  9 C        0.5020     3.4250    -1.1830 C.1   1 <1>   0.5380 
 10 C       -2.4250     2.9600    -0.2080 C.3   1 <1>   0.0210 
 11 O       -3.6780     1.3760     1.1560 O.3   1 <1>  -0.5600 
 12 O        2.5760    -1.2110    -0.6400 O.2   1 <1>  -0.5700 
 13 C        4.5260     0.0330    -0.5750 C.ar  1 <1>   0.0860 
 14 N        0.8610     4.3760    -1.7000 N.1   1 <1>  -0.5570 
 15 C       -3.7710     2.2190     0.0350 C.3   1 <1>   0.2800 
 16 C        5.3290    -0.8910    -1.2530 C.ar  1 <1>  -0.1500 
 17 C        5.1660     1.0900     0.0860 C.ar  1 <1>  -0.1500 
 18 C       -4.2040     1.3880    -1.1830 C.3   1 <1>  -0.2400 
 19 C       -4.8740     3.2240     0.3700 C.3   1 <1>  -0.2400 
 20 C        6.7070    -0.7660    -1.2900 C.ar  1 <1>  -0.1500 
 21 C        6.5430     1.2310     0.0580 C.ar  1 <1>  -0.1500 
 22 C        7.2910     0.2990    -0.6340 C.ar  1 <1>   0.1900 
 23 F        8.5880     0.4270    -0.6650 F     1 <1>  -0.1900 
 24 H        2.7840     1.8670    -0.7930 H     1 <1>   0.3700 
 25 H       -2.5860     0.0050     2.1550 H     1 <1>   0.0800 
 26 H       -3.1290    -0.4870     0.5610 H     1 <1>   0.0800 
 27 H       -2.4370     3.4020    -1.1880 H     1 <1>   0.0800 
 28 H       -2.3140     3.7530     0.5090 H     1 <1>   0.0800 
 29 H        4.8580    -1.7190    -1.7570 H     1 <1>   0.1500 
 30 H        4.5850     1.8070     0.6390 H     1 <1>   0.1500 
 31 H       -3.4260     0.7180    -1.4990 H     1 <1>   0.0800 
 32 H       -4.4270     2.0370    -2.0100 H     1 <1>   0.0800 
 33 H       -5.0890     0.8220    -0.9510 H     1 <1>   0.0800 
 34 H       -4.6190     3.7760     1.2560 H     1 <1>   0.0800 
 35 H       -5.8040     2.7100     0.5390 H     1 <1>   0.0800 
 36 H       -5.0100     3.9180    -0.4390 H     1 <1>   0.0800 
 37 H        7.3190    -1.4780    -1.8140 H     1 <1>   0.1500 
 38 H        7.0350     2.0430     0.5640 H     1 <1>   0.1500 
@<TRIPOS>BOND
  1   1   2  1   
  2   1   3  1   
  3   2   4  1   
  4   2   5  2   
  5   3   6  2   
  6   3   7  1   
  7   4   8  am  
  8   4  24  1   
  9   5   6  1   
 10   5   9  1   
 11   6  10  1   
 12   7  11  1   
 13   7  25  1   
 14   7  26  1   
 15   8  12  2   
 16   8  13  1   
 17   9  14  3   
 18  10  15  1   
 19  10  27  1   
 20  10  28  1   
 21  11  15  1   
 22  13  16  ar  
 23  13  17  ar  
 24  15  18  1   
 25  15  19  1   
 26  16  20  ar  
 27  16  29  1   
 28  17  21  ar  
 29  17  30  1   
 30  18  31  1   
 31  18  32  1   
 32  18  33  1   
 33  19  34  1   
 34  19  35  1   
 35  19  36  1   
 36  20  22  ar  
 37  20  37  1   
 38  21  22  ar  
 39  21  38  1   
 40  22  23  1   
@<TRIPOS>SUBSTRUCTURE
  1 ****   2 GROUP 4 **** **** 0

# MOE 2024.06 (io_trps.svl 2023.06)
