@<TRIPOS>MOLECULE
NONAME
52 55 1 0 0 
SMALL
USER_CHARGES


@<TRIPOS>ATOM
  1 O        0.4520    -1.7990     2.3230 O.2   1 <1>  -0.5700 
  2 C        0.5500    -2.2800     1.2180 C.2   1 <1>   0.4950 
  3 C        1.7390    -2.1880     0.4240 C.2   1 <1>   0.0290 
  4 C       -0.6950    -2.9870     0.7080 C.3   1 <1>  -0.0990 
  5 C        1.7460    -2.8180    -0.8680 C.2   1 <1>   0.4950 
  6 C        2.8280    -1.5040     0.9270 C.2   1 <1>  -0.0500 
  7 C       -0.3840    -4.1020    -0.2980 C.3   1 <1>   0.0000 
  8 O        2.6960    -2.8420    -1.6180 O.2   1 <1>  -0.5700 
  9 C        0.5030    -3.5130    -1.4030 C.3   1 <1>  -0.0990 
 10 N        4.0220    -1.3200     0.3130 N.pl3 1 <1>  -0.8690 
 11 C        0.3270    -5.2780     0.3970 C.3   1 <1>  -0.2400 
 12 C       -1.6930    -4.6220    -0.9110 C.3   1 <1>  -0.2400 
 13 C        5.1900    -0.5940     0.8270 C.3   1 <1>   0.4690 
 14 C        6.3990    -1.4840     0.6680 C.2   1 <1>  -0.3320 
 15 C        5.3920     0.6940     0.0150 C.3   1 <1>  -0.1600 
 16 N        6.4340    -2.8130     0.9710 N.pl3 1 <1>   0.0330 
 17 C        7.6060    -1.0890     0.2080 C.2   1 <1>  -0.1810 
 18 C        6.8050     1.2920     0.2120 C.3   1 <1>  -0.1600 
 19 C        7.6990    -3.2750     0.6990 C.ar  1 <1>  -0.1520 
 20 C        8.4610    -2.2130     0.2170 C.ar  1 <1>   0.0000 
 21 C        7.9170     0.3240    -0.2430 C.3   1 <1>   0.0210 
 22 C        8.2530    -4.5490     0.8300 C.ar  1 <1>  -0.1500 
 23 C        9.7960    -2.4270    -0.1380 C.ar  1 <1>  -0.1500 
 24 C        9.5690    -4.7420     0.4770 C.ar  1 <1>  -0.1500 
 25 C       10.3480    -3.6820    -0.0090 C.ar  1 <1>  -0.1430 
 26 C       11.7940    -3.9450    -0.3850 C.3   1 <1>  -0.0970 
 27 H       -1.2300    -3.3960     1.5470 H     1 <1>   0.0800 
 28 H       -1.3280    -2.2450     0.2550 H     1 <1>   0.0800 
 29 H        2.7370    -1.0590     1.9080 H     1 <1>   0.1500 
 30 H       -0.0500    -2.7920    -1.9780 H     1 <1>   0.0800 
 31 H        0.8060    -4.2950    -2.0770 H     1 <1>   0.0800 
 32 H        4.1880    -1.7200    -0.6280 H     1 <1>   0.4000 
 33 H       -0.3000    -5.6930     1.1680 H     1 <1>   0.0800 
 34 H        1.2550    -4.9790     0.8510 H     1 <1>   0.0800 
 35 H        0.5420    -6.0590    -0.3110 H     1 <1>   0.0800 
 36 H       -2.2250    -3.8320    -1.4120 H     1 <1>   0.0800 
 37 H       -2.3340    -5.0280    -0.1480 H     1 <1>   0.0800 
 38 H       -1.4930    -5.3990    -1.6290 H     1 <1>   0.0800 
 39 H        5.0500    -0.3600     1.8690 H     1 <1>   0.0800 
 40 H        5.2580     0.4730    -1.0300 H     1 <1>   0.0800 
 41 H        4.6470     1.4100     0.3080 H     1 <1>   0.0800 
 42 H        5.6330    -3.3700     1.2850 H     1 <1>   0.2700 
 43 H        6.8910     2.2160    -0.3320 H     1 <1>   0.0800 
 44 H        6.9440     1.5100     1.2570 H     1 <1>   0.0800 
 45 H        8.8630     0.6370     0.1620 H     1 <1>   0.0800 
 46 H        7.9880     0.3290    -1.3160 H     1 <1>   0.0800 
 47 H        7.6530    -5.3600     1.2010 H     1 <1>   0.1500 
 48 H       10.3670    -1.5970    -0.5080 H     1 <1>   0.1500 
 49 H       10.0110    -5.7180     0.5710 H     1 <1>   0.1500 
 50 H       11.8400    -4.6850    -1.1630 H     1 <1>   0.0800 
 51 H       12.3350    -4.3040     0.4720 H     1 <1>   0.0800 
 52 H       12.2670    -3.0470    -0.7380 H     1 <1>   0.0800 
@<TRIPOS>BOND
  1   1   2  2   
  2   2   3  1   
  3   2   4  1   
  4   3   5  1   
  5   3   6  2   
  6   4   7  1   
  7   4  27  1   
  8   4  28  1   
  9   5   8  2   
 10   5   9  1   
 11   6  10  1   
 12   6  29  1   
 13   7   9  1   
 14   7  11  1   
 15   7  12  1   
 16   9  30  1   
 17   9  31  1   
 18  10  13  1   
 19  10  32  1   
 20  11  33  1   
 21  11  34  1   
 22  11  35  1   
 23  12  36  1   
 24  12  37  1   
 25  12  38  1   
 26  13  14  1   
 27  13  15  1   
 28  13  39  1   
 29  14  16  1   
 30  14  17  2   
 31  15  18  1   
 32  15  40  1   
 33  15  41  1   
 34  16  19  1   
 35  16  42  1   
 36  17  20  1   
 37  17  21  1   
 38  18  21  1   
 39  18  43  1   
 40  18  44  1   
 41  19  20  ar  
 42  19  22  ar  
 43  20  23  ar  
 44  21  45  1   
 45  21  46  1   
 46  22  24  ar  
 47  22  47  1   
 48  23  25  ar  
 49  23  48  1   
 50  24  25  ar  
 51  24  49  1   
 52  25  26  1   
 53  26  50  1   
 54  26  51  1   
 55  26  52  1   
@<TRIPOS>SUBSTRUCTURE
  1 ****  10 GROUP 4 **** **** 0

# MOE 2024.06 (io_trps.svl 2023.06)
