@<TRIPOS>MOLECULE
NONAME
45 46 1 0 0 
SMALL
USER_CHARGES


@<TRIPOS>ATOM
  1 O       -0.8160     1.1690    -0.0610 O.3   1 <1>  -0.3630 
  2 C       -0.1690     2.3570    -0.2090 C.ar  1 <1>   0.0830 
  3 C       -0.4610     0.2350     0.9350 C.3   1 <1>   0.2580 
  4 C       -0.6200     3.2250    -1.2060 C.ar  1 <1>  -0.1440 
  5 C        0.8990     2.7350     0.6010 C.ar  1 <1>  -0.1500 
  6 C       -1.5380    -0.8340     0.9270 C.2   1 <1>  -0.2880 
  7 C       -0.0080     4.4590    -1.3690 C.ar  1 <1>  -0.1500 
  8 C       -1.7660     2.8460    -2.1290 C.3   1 <1>   0.4870 
  9 C        1.4980     3.9690     0.4290 C.ar  1 <1>  -0.1500 
 10 C       -2.3690    -1.1060     1.9380 C.2   1 <1>  -0.3000 
 11 C        1.0440     4.8300    -0.5530 C.ar  1 <1>  -0.1500 
 12 N       -2.9160     2.4020    -1.2890 N.4   1 <1>  -0.9590 
 13 C       -3.9340     1.6240    -2.0720 C.3   1 <1>   0.3430 
 14 C       -3.4900     3.5370    -0.5190 C.3   1 <1>   0.3430 
 15 C       -4.8640     0.7190    -1.2110 C.3   1 <1>   0.3430 
 16 C       -3.8790     3.0950     0.8930 C.3   1 <1>  -0.1600 
 17 N       -5.4600     1.3470     0.0320 N.4   1 <1>  -0.9590 
 18 C       -4.4280     1.6760     1.0610 C.3   1 <1>   0.3430 
 19 C       -6.4550     0.3950     0.6320 C.3   1 <1>   0.2630 
 20 H       -0.4270     0.7320     1.8890 H     1 <1>   0.0800 
 21 H        0.5050    -0.1790     0.6970 H     1 <1>   0.0800 
 22 H        1.2890     2.0930     1.3700 H     1 <1>   0.1500 
 23 H       -1.5500    -1.3850     0.0010 H     1 <1>   0.1500 
 24 H       -0.3300     5.1470    -2.1330 H     1 <1>   0.1500 
 25 H       -1.4380     2.0410    -2.7670 H     1 <1>   0.0800 
 26 H       -2.0460     3.6840    -2.7470 H     1 <1>   0.0800 
 27 H        2.3230     4.2610     1.0570 H     1 <1>   0.1500 
 28 H       -3.1080    -1.8900     1.9140 H     1 <1>   0.1500 
 29 H       -2.3670    -0.5930     2.8870 H     1 <1>   0.1500 
 30 H        1.5190     5.7890    -0.6820 H     1 <1>   0.1500 
 31 H       -2.4240     1.7790    -0.6220 H     1 <1>   0.4500 
 32 H       -3.4270     0.9900    -2.7810 H     1 <1>   0.0800 
 33 H       -4.5430     2.3070    -2.6430 H     1 <1>   0.0800 
 34 H       -4.3510     3.9280    -1.0370 H     1 <1>   0.0800 
 35 H       -2.7690     4.3360    -0.4370 H     1 <1>   0.0800 
 36 H       -4.3000    -0.1530    -0.9200 H     1 <1>   0.0800 
 37 H       -5.6630     0.3700    -1.8460 H     1 <1>   0.0800 
 38 H       -4.5940     3.7980     1.2840 H     1 <1>   0.0800 
 39 H       -3.0070     3.1830     1.5180 H     1 <1>   0.0800 
 40 H       -5.9840     2.2020    -0.2070 H     1 <1>   0.4500 
 41 H       -4.8570     1.5970     2.0480 H     1 <1>   0.0800 
 42 H       -3.6210     0.9630     1.0040 H     1 <1>   0.0800 
 43 H       -5.9720    -0.5240     0.9250 H     1 <1>   0.0800 
 44 H       -7.2330     0.1630    -0.0780 H     1 <1>   0.0800 
 45 H       -6.9140     0.8320     1.5050 H     1 <1>   0.0800 
@<TRIPOS>BOND
  1   1   2  1   
  2   1   3  1   
  3   2   4  ar  
  4   2   5  ar  
  5   3   6  1   
  6   3  20  1   
  7   3  21  1   
  8   4   7  ar  
  9   4   8  1   
 10   5   9  ar  
 11   5  22  1   
 12   6  10  2   
 13   6  23  1   
 14   7  11  ar  
 15   7  24  1   
 16   8  12  1   
 17   8  25  1   
 18   8  26  1   
 19   9  11  ar  
 20   9  27  1   
 21  10  28  1   
 22  10  29  1   
 23  11  30  1   
 24  12  13  1   
 25  12  14  1   
 26  12  31  1   
 27  13  15  1   
 28  13  32  1   
 29  13  33  1   
 30  14  16  1   
 31  14  34  1   
 32  14  35  1   
 33  15  17  1   
 34  15  36  1   
 35  15  37  1   
 36  16  18  1   
 37  16  38  1   
 38  16  39  1   
 39  17  18  1   
 40  17  19  1   
 41  17  40  1   
 42  18  41  1   
 43  18  42  1   
 44  19  43  1   
 45  19  44  1   
 46  19  45  1   
@<TRIPOS>SUBSTRUCTURE
  1 ****  12 GROUP 4 **** **** 0

# MOE 2024.06 (io_trps.svl 2023.06)
