@<TRIPOS>MOLECULE
NONAME
29 29 1 0 0 
SMALL
USER_CHARGES


@<TRIPOS>ATOM
  1 S       -1.2430     1.3800    -0.3200 S.3   1 <1>  -0.4600 
  2 C       -1.1190    -0.2270     0.5570 C.3   1 <1>   0.1310 
  3 C        0.4830     1.9240    -0.4400 C.3   1 <1>  -0.0100 
  4 C       -2.4800    -0.8800     0.7730 C.2   1 <1>   0.5690 
  5 O       -2.5030    -1.9390     1.3510 O.2   1 <1>  -0.5700 
  6 N       -3.5920    -0.2330     0.3050 N.am  1 <1>  -0.5470 
  7 C       -4.9630    -0.5360     0.3290 C.ar  1 <1>   0.1170 
  8 C       -5.8480     0.3820    -0.2230 C.ar  1 <1>  -0.1500 
  9 C       -5.4870    -1.7030     0.8710 C.ar  1 <1>  -0.1500 
 10 C       -7.2150     0.1590    -0.2400 C.ar  1 <1>  -0.1430 
 11 C       -6.8490    -1.9380     0.8590 C.ar  1 <1>  -0.1500 
 12 C       -7.7230    -1.0150     0.3070 C.ar  1 <1>  -0.1430 
 13 C       -8.1300     1.2060    -0.8590 C.3   1 <1>  -0.0970 
 14 C       -9.2160    -1.3120     0.3150 C.3   1 <1>  -0.0970 
 15 H       -0.6500    -0.0400     1.5050 H     1 <1>   0.0800 
 16 H       -0.4970    -0.8700    -0.0370 H     1 <1>   0.0800 
 17 H        0.4930     2.8710    -0.9490 H     1 <1>   0.0800 
 18 H        1.0290     1.1850    -0.9990 H     1 <1>   0.0800 
 19 H        0.8730     2.0220     0.5570 H     1 <1>   0.0800 
 20 H       -3.3620     0.6530    -0.1500 H     1 <1>   0.3700 
 21 H       -5.4540     1.2880    -0.6450 H     1 <1>   0.1500 
 22 H       -4.8390    -2.4390     1.3060 H     1 <1>   0.1500 
 23 H       -7.2230    -2.8510     1.2870 H     1 <1>   0.1500 
 24 H       -7.5660     2.0420    -1.2300 H     1 <1>   0.0800 
 25 H       -8.8260     1.5680    -0.1240 H     1 <1>   0.0800 
 26 H       -8.6770     0.7770    -1.6800 H     1 <1>   0.0800 
 27 H       -9.5910    -1.3410    -0.6920 H     1 <1>   0.0800 
 28 H       -9.7390    -0.5500     0.8650 H     1 <1>   0.0800 
 29 H       -9.4170    -2.2610     0.7780 H     1 <1>   0.0800 
@<TRIPOS>BOND
  1   1   2  1   
  2   1   3  1   
  3   2   4  1   
  4   2  15  1   
  5   2  16  1   
  6   3  17  1   
  7   3  18  1   
  8   3  19  1   
  9   4   5  2   
 10   4   6  am  
 11   6   7  1   
 12   6  20  1   
 13   7   8  ar  
 14   7   9  ar  
 15   8  10  ar  
 16   8  21  1   
 17   9  11  ar  
 18   9  22  1   
 19  10  12  ar  
 20  10  13  1   
 21  11  12  ar  
 22  11  23  1   
 23  12  14  1   
 24  13  24  1   
 25  13  25  1   
 26  13  26  1   
 27  14  27  1   
 28  14  28  1   
 29  14  29  1   
@<TRIPOS>SUBSTRUCTURE
  1 ****   7 GROUP 4 **** **** 0

# MOE 2024.06 (io_trps.svl 2023.06)
