@<TRIPOS>MOLECULE
NONAME
28 28 1 0 0 
SMALL
USER_CHARGES


@<TRIPOS>ATOM
  1 CL       0.9350     0.9330     1.8160 Cl    1 <1>  -0.1770 
  2 C        0.4810     2.1740     0.6690 C.ar  1 <1>   0.1770 
  3 C        1.3650     2.6140    -0.3210 C.ar  1 <1>   0.0860 
  4 C       -0.7990     2.6830     0.7920 C.ar  1 <1>  -0.1500 
  5 C        2.7200     2.1210    -0.4830 C.2   1 <1>   0.5440 
  6 C        0.8790     3.5900    -1.1940 C.ar  1 <1>  -0.1500 
  7 C       -1.2500     3.6560    -0.0830 C.ar  1 <1>  -0.1430 
  8 O        3.1750     1.9850    -1.6020 O.2   1 <1>  -0.5700 
  9 N        3.5090     1.8460     0.6030 N.am  1 <1>  -0.7300 
 10 C       -0.4000     4.1050    -1.0790 C.ar  1 <1>  -0.1500 
 11 C       -2.6520     4.2260     0.0390 C.3   1 <1>  -0.0970 
 12 C        4.8910     1.3320     0.6460 C.3   1 <1>   0.2200 
 13 C        5.8490     2.3170    -0.0190 C.3   1 <1>  -0.2400 
 14 C        4.9560    -0.0570     0.0150 C.3   1 <1>  -0.2400 
 15 H       -1.4380     2.3120     1.5730 H     1 <1>   0.1500 
 16 H        1.5250     3.9490    -1.9780 H     1 <1>   0.1500 
 17 H        3.0530     1.8590     1.5170 H     1 <1>   0.3700 
 18 H       -0.7320     4.8590    -1.7720 H     1 <1>   0.1500 
 19 H       -3.2720     3.5920     0.6480 H     1 <1>   0.0800 
 20 H       -3.1040     4.3090    -0.9330 H     1 <1>   0.0800 
 21 H       -2.6110     5.2020     0.4870 H     1 <1>   0.0800 
 22 H        5.1730     1.2410     1.6820 H     1 <1>   0.0800 
 23 H        5.6460     2.3950    -1.0720 H     1 <1>   0.0800 
 24 H        6.8620     1.9800     0.1030 H     1 <1>   0.0800 
 25 H        5.7540     3.2880     0.4320 H     1 <1>   0.0800 
 26 H        4.7280    -0.0080    -1.0350 H     1 <1>   0.0800 
 27 H        4.2580    -0.7170     0.4970 H     1 <1>   0.0800 
 28 H        5.9440    -0.4630     0.1260 H     1 <1>   0.0800 
@<TRIPOS>BOND
  1   1   2  1   
  2   2   3  ar  
  3   2   4  ar  
  4   3   5  1   
  5   3   6  ar  
  6   4   7  ar  
  7   4  15  1   
  8   5   8  2   
  9   5   9  am  
 10   6  10  ar  
 11   6  16  1   
 12   7  10  ar  
 13   7  11  1   
 14   9  12  1   
 15   9  17  1   
 16  10  18  1   
 17  11  19  1   
 18  11  20  1   
 19  11  21  1   
 20  12  13  1   
 21  12  14  1   
 22  12  22  1   
 23  13  23  1   
 24  13  24  1   
 25  13  25  1   
 26  14  26  1   
 27  14  27  1   
 28  14  28  1   
@<TRIPOS>SUBSTRUCTURE
  1 ****   3 GROUP 4 **** **** 0

# MOE 2024.06 (io_trps.svl 2023.06)
