@<TRIPOS>MOLECULE
NONAME
52 53 1 0 0 
SMALL
USER_CHARGES


@<TRIPOS>ATOM
  1 O        0.6270     0.2670    -0.7530 O.2   1 <1>  -0.5700 
  2 C        0.3400     1.3520    -0.3190 C.2   1 <1>   0.6590 
  3 O       -0.8680     1.6440     0.1330 O.3   1 <1>  -0.4300 
  4 C        1.3580     2.4780    -0.2650 C.3   1 <1>  -0.0190 
  5 C       -1.9050     0.6890     0.1440 C.3   1 <1>   0.1200 
  6 C        2.5770     2.1070    -1.1300 C.3   1 <1>   0.3430 
  7 C        1.7700     2.8220     1.1810 C.3   1 <1>  -0.1600 
  8 C       -3.1500     1.3490     0.7270 C.3   1 <1>  -0.2400 
  9 N        3.8480     2.7320    -0.6390 N.4   1 <1>  -0.9590 
 10 C        2.7950     3.9750     1.2100 C.3   1 <1>  -0.1600 
 11 C        3.6640     4.0860    -0.0510 C.3   1 <1>   0.3430 
 12 C        4.9340     2.6730    -1.6480 C.3   1 <1>   0.4860 
 13 C        6.2470     2.9940    -0.9600 C.ar  1 <1>  -0.1430 
 14 C        6.7060     2.2000     0.0870 C.ar  1 <1>   0.0820 
 15 C        6.9920     4.0870    -1.3760 C.ar  1 <1>  -0.1500 
 16 O        5.9240     1.1520     0.4710 O.3   1 <1>  -0.3630 
 17 C        7.9200     2.5000     0.6980 C.ar  1 <1>  -0.1500 
 18 C        8.1900     4.3990    -0.7570 C.ar  1 <1>   0.0820 
 19 C        6.4110     0.1780     1.3750 C.3   1 <1>   0.0400 
 20 C        8.6700     3.5810     0.2710 C.ar  1 <1>   0.0820 
 21 O        8.8370     5.5070    -1.2030 O.3   1 <1>  -0.3620 
 22 O        9.8590     3.7910     0.8840 O.3   1 <1>  -0.3620 
 23 C        9.0940     6.5290    -0.2620 C.3   1 <1>   0.0400 
 24 C       11.0120     3.5710     0.1010 C.3   1 <1>   0.0400 
 25 H        0.8890     3.3410    -0.7020 H     1 <1>   0.0800 
 26 H       -1.5940    -0.1480     0.7460 H     1 <1>   0.0800 
 27 H       -2.0800     0.3610    -0.8680 H     1 <1>   0.0800 
 28 H        2.3820     2.4090    -2.1460 H     1 <1>   0.0800 
 29 H        2.7050     1.0360    -1.1280 H     1 <1>   0.0800 
 30 H        2.2050     1.9470     1.6360 H     1 <1>   0.0800 
 31 H        0.9040     3.0910     1.7640 H     1 <1>   0.0800 
 32 H       -2.9600     1.6790     1.7330 H     1 <1>   0.0800 
 33 H       -3.9580     0.6410     0.7480 H     1 <1>   0.0800 
 34 H       -3.4460     2.1870     0.1230 H     1 <1>   0.0800 
 35 H        4.2160     2.1380     0.1260 H     1 <1>   0.4500 
 36 H        3.4330     3.8590     2.0690 H     1 <1>   0.0800 
 37 H        2.2770     4.9110     1.3350 H     1 <1>   0.0800 
 38 H        3.1790     4.7250    -0.7710 H     1 <1>   0.0800 
 39 H        4.6160     4.5240     0.2060 H     1 <1>   0.0800 
 40 H        4.7470     3.3730    -2.4450 H     1 <1>   0.0800 
 41 H        4.9950     1.6800    -2.0640 H     1 <1>   0.0800 
 42 H        6.6610     4.7180    -2.1820 H     1 <1>   0.1500 
 43 H        8.3140     1.9120     1.5050 H     1 <1>   0.1500 
 44 H        6.5810     0.6390     2.3330 H     1 <1>   0.0800 
 45 H        7.3230    -0.2390     0.9850 H     1 <1>   0.0800 
 46 H        5.6710    -0.5960     1.4710 H     1 <1>   0.0800 
 47 H        9.4080     7.4060    -0.7980 H     1 <1>   0.0800 
 48 H        9.8760     6.2150     0.4060 H     1 <1>   0.0800 
 49 H        8.1930     6.7360     0.2880 H     1 <1>   0.0800 
 50 H       11.8760     3.7290     0.7210 H     1 <1>   0.0800 
 51 H       11.0220     4.2620    -0.7230 H     1 <1>   0.0800 
 52 H       10.9990     2.5590    -0.2620 H     1 <1>   0.0800 
@<TRIPOS>BOND
  1   1   2  2   
  2   2   3  1   
  3   2   4  1   
  4   3   5  1   
  5   4   6  1   
  6   4   7  1   
  7   4  25  1   
  8   5   8  1   
  9   5  26  1   
 10   5  27  1   
 11   6   9  1   
 12   6  28  1   
 13   6  29  1   
 14   7  10  1   
 15   7  30  1   
 16   7  31  1   
 17   8  32  1   
 18   8  33  1   
 19   8  34  1   
 20   9  11  1   
 21   9  12  1   
 22   9  35  1   
 23  10  11  1   
 24  10  36  1   
 25  10  37  1   
 26  11  38  1   
 27  11  39  1   
 28  12  13  1   
 29  12  40  1   
 30  12  41  1   
 31  13  14  ar  
 32  13  15  ar  
 33  14  16  1   
 34  14  17  ar  
 35  15  18  ar  
 36  15  42  1   
 37  16  19  1   
 38  17  20  ar  
 39  17  43  1   
 40  18  20  ar  
 41  18  21  1   
 42  19  44  1   
 43  19  45  1   
 44  19  46  1   
 45  20  22  1   
 46  21  23  1   
 47  22  24  1   
 48  23  47  1   
 49  23  48  1   
 50  23  49  1   
 51  24  50  1   
 52  24  51  1   
 53  24  52  1   
@<TRIPOS>SUBSTRUCTURE
  1 ****   9 GROUP 4 **** **** 0

# MOE 2024.06 (io_trps.svl 2023.06)
