@<TRIPOS>MOLECULE
Structure539
19 20 1 0 0 
SMALL
USER_CHARGES


@<TRIPOS>ATOM
  1 CL      -0.3900    -0.2450    -0.7790 Cl    1 <1>  -0.1770 
  2 C       -1.7340     0.7840    -0.3860 C.ar  1 <1>   0.7970 
  3 N       -2.9210     0.2140    -0.4590 N.ar  1 <1>  -0.6200 
  4 N       -1.4160     2.0250    -0.0550 N.ar  1 <1>  -0.6200 
  5 C       -3.9270     1.0000    -0.1590 C.ar  1 <1>   0.4100 
  6 C       -2.4470     2.7910     0.2380 C.ar  1 <1>   0.1600 
  7 N       -5.1580     0.4200    -0.2310 N.pl3 1 <1>  -0.6690 
  8 C       -3.7310     2.3220     0.2010 C.ar  1 <1>  -0.1500 
  9 C       -6.3380     0.8610     0.5240 C.3   1 <1>   0.0690 
 10 C       -7.6750     0.4550    -0.0020 C.3   1 <1>  -0.2000 
 11 C       -7.2310     1.8790    -0.1070 C.3   1 <1>  -0.2000 
 12 H       -2.2500     3.8150     0.5130 H     1 <1>   0.1500 
 13 H       -5.1230    -0.5840    -0.4250 H     1 <1>   0.4000 
 14 H       -4.5650     2.9530     0.4370 H     1 <1>   0.1500 
 15 H       -6.1860     0.8760     1.5920 H     1 <1>   0.1000 
 16 H       -8.4600     0.2190     0.6950 H     1 <1>   0.1000 
 17 H       -7.7260    -0.1350    -0.9000 H     1 <1>   0.1000 
 18 H       -6.9650     2.2680    -1.0740 H     1 <1>   0.1000 
 19 H       -7.7180     2.6070     0.5170 H     1 <1>   0.1000 
@<TRIPOS>BOND
  1   1   2  1   
  2   2   3  ar  
  3   2   4  ar  
  4   3   5  ar  
  5   4   6  ar  
  6   5   7  1   
  7   5   8  ar  
  8   6   8  ar  
  9   6  12  1   
 10   7   9  1   
 11   7  13  1   
 12   8  14  1   
 13   9  10  1   
 14   9  11  1   
 15   9  15  1   
 16  10  11  1   
 17  10  16  1   
 18  10  17  1   
 19  11  18  1   
 20  11  19  1   
@<TRIPOS>SUBSTRUCTURE
  1 ****   5 GROUP 4 **** **** 0

# MOE 2024.06 (io_trps.svl 2023.06)
