@<TRIPOS>MOLECULE
NONAME
37 39 1 0 0 
SMALL
USER_CHARGES


@<TRIPOS>ATOM
  1 F       -0.0940     1.0020    -0.4340 F     1 <1>  -0.3400 
  2 C        0.5130     2.1550    -0.1910 C.3   1 <1>   0.8800 
  3 F        1.4730     1.8820     0.6840 F     1 <1>  -0.3400 
  4 O       -0.4180     3.0160     0.4180 O.3   1 <1>  -0.3630 
  5 C       -0.2620     4.3510     0.2340 C.ar  1 <1>   0.0820 
  6 C        0.9830     4.9640     0.1440 C.ar  1 <1>  -0.1500 
  7 C       -1.4110     5.1190     0.1290 C.ar  1 <1>  -0.1500 
  8 C        1.0620     6.3270    -0.0790 C.ar  1 <1>  -0.1500 
  9 C       -1.3220     6.4820    -0.0900 C.ar  1 <1>  -0.1500 
 10 C       -0.0820     7.1030    -0.2100 C.ar  1 <1>   0.1170 
 11 N        0.0930     8.4730    -0.4470 N.am  1 <1>  -0.5470 
 12 C       -0.7510     9.4930    -0.7750 C.2   1 <1>   0.5690 
 13 O       -1.9220     9.2930    -1.0130 O.2   1 <1>  -0.5700 
 14 C       -0.2570    10.9400    -0.9500 C.3   1 <1>  -0.0190 
 15 C        1.1330    11.4590    -0.4650 C.3   1 <1>  -0.1860 
 16 C       -1.1760    11.8620    -0.1330 C.3   1 <1>   0.2000 
 17 C        2.2020    10.4880    -0.0160 C.2   1 <1>   0.9060 
 18 C        0.7180    12.4520     0.6320 C.3   1 <1>   0.2000 
 19 O       -0.4910    11.9380     1.0570 O.3   1 <1>  -0.5600 
 20 C       -1.0970    13.3200    -0.6060 C.3   1 <1>  -0.1600 
 21 O        2.5190     9.5880    -0.8030 O.co2 1 <1>  -0.9000 
 22 O        2.7630    10.6100     1.0720 O.co2 1 <1>  -0.9000 
 23 C        0.2430    13.7600    -0.0050 C.3   1 <1>  -0.1600 
 24 H        0.9310     2.5520    -1.0990 H     1 <1>   0.0800 
 25 H        1.8970     4.4100     0.2580 H     1 <1>   0.1500 
 26 H       -2.3730     4.6490     0.2180 H     1 <1>   0.1500 
 27 H        2.0240     6.8110    -0.1490 H     1 <1>   0.1500 
 28 H       -2.2210     7.0630    -0.1680 H     1 <1>   0.1500 
 29 H        1.0900     8.7520    -0.4650 H     1 <1>   0.3700 
 30 H       -0.3700    11.1600    -1.9950 H     1 <1>   0.0800 
 31 H        1.5980    12.0020    -1.2630 H     1 <1>   0.0800 
 32 H       -2.1800    11.5030     0.0230 H     1 <1>   0.0800 
 33 H        1.4070    12.5700     1.4530 H     1 <1>   0.0800 
 34 H       -1.9100    13.8860    -0.1880 H     1 <1>   0.0800 
 35 H       -1.1190    13.3940    -1.6780 H     1 <1>   0.0800 
 36 H        0.9350    14.1320    -0.7390 H     1 <1>   0.0800 
 37 H        0.0980    14.5000     0.7610 H     1 <1>   0.0800 
@<TRIPOS>BOND
  1   1   2  1   
  2   2   3  1   
  3   2   4  1   
  4   2  24  1   
  5   4   5  1   
  6   5   6  ar  
  7   5   7  ar  
  8   6   8  ar  
  9   6  25  1   
 10   7   9  ar  
 11   7  26  1   
 12   8  10  ar  
 13   8  27  1   
 14   9  10  ar  
 15   9  28  1   
 16  10  11  1   
 17  11  12  am  
 18  11  29  1   
 19  12  13  2   
 20  12  14  1   
 21  14  15  1   
 22  14  16  1   
 23  14  30  1   
 24  15  17  1   
 25  15  18  1   
 26  15  31  1   
 27  16  19  1   
 28  16  20  1   
 29  16  32  1   
 30  17  21  ar  
 31  17  22  ar  
 32  18  19  1   
 33  18  23  1   
 34  18  33  1   
 35  20  23  1   
 36  20  34  1   
 37  20  35  1   
 38  23  36  1   
 39  23  37  1   
@<TRIPOS>SUBSTRUCTURE
  1 ****  11 GROUP 4 **** **** 0

# MOE 2024.06 (io_trps.svl 2023.06)
