@<TRIPOS>MOLECULE
NONAME
36 38 1 0 0 
SMALL
USER_CHARGES


@<TRIPOS>ATOM
  1 F       -0.6420    -0.2200    -0.1330 F     1 <1>  -0.1900 
  2 C       -1.7500    -0.9090    -0.0420 C.ar  1 <1>   0.1900 
  3 C       -2.9190    -0.2600     0.3320 C.ar  1 <1>  -0.1440 
  4 C       -1.7020    -2.2590    -0.3270 C.ar  1 <1>  -0.1500 
  5 C       -4.0770    -1.0190     0.4150 C.ar  1 <1>  -0.1500 
  6 C       -2.9390     1.2290     0.6410 C.3   1 <1>  -0.0960 
  7 C       -2.8660    -3.0130    -0.2400 C.ar  1 <1>   0.1170 
  8 C       -4.0440    -2.3750     0.1320 C.ar  1 <1>  -0.1500 
  9 N       -2.9270    -4.3820    -0.5190 N.am  1 <1>  -0.5470 
 10 C       -1.9850    -5.3710    -0.4740 C.2   1 <1>   0.5690 
 11 O       -0.8210    -5.1280    -0.2520 O.2   1 <1>  -0.5700 
 12 C       -2.3640    -6.8280    -0.8040 C.3   1 <1>  -0.0190 
 13 C       -3.9600    -7.4140    -0.5210 C.3   1 <1>  -0.1860 
 14 C       -1.3440    -7.9410    -0.1070 C.3   1 <1>   0.0580 
 15 C       -4.9200    -6.4170     0.1050 C.2   1 <1>   0.9060 
 16 C       -3.8040    -8.8430     0.3070 C.3   1 <1>   0.0580 
 17 C       -1.3720    -9.4200     0.5440 C.2   1 <1>  -0.2880 
 18 C       -2.6210    -8.2810     0.0620 C.3   1 <1>  -0.1600 
 19 O       -5.4000    -5.5610    -0.6450 O.co2 1 <1>  -0.9000 
 20 O       -5.1330    -6.4070     1.3160 O.co2 1 <1>  -0.9000 
 21 C       -2.6600    -9.8910     0.7620 C.2   1 <1>  -0.2880 
 22 H       -0.7730    -2.7110    -0.6150 H     1 <1>   0.1500 
 23 H       -5.0100    -0.5670     0.7020 H     1 <1>   0.1500 
 24 H       -2.2730     1.4400     1.4590 H     1 <1>   0.0800 
 25 H       -3.9270     1.5540     0.9090 H     1 <1>   0.0800 
 26 H       -2.6150     1.7850    -0.2210 H     1 <1>   0.0800 
 27 H       -4.9470    -2.9630     0.2030 H     1 <1>   0.1500 
 28 H       -3.9010    -4.7220    -0.6380 H     1 <1>   0.3700 
 29 H       -2.2070    -6.8770    -1.8720 H     1 <1>   0.0800 
 30 H       -4.4060    -7.6360    -1.4790 H     1 <1>   0.0800 
 31 H       -0.8280    -7.3840     0.6620 H     1 <1>   0.0800 
 32 H       -4.3200    -8.6700     1.2410 H     1 <1>   0.0800 
 33 H       -0.4330    -9.9020     0.7550 H     1 <1>   0.1500 
 34 H       -2.6330    -7.7710     1.1110 H     1 <1>   0.0800 
 35 H       -2.5900    -8.8650    -1.0070 H     1 <1>   0.0800 
 36 H       -2.9720   -10.8310     1.1850 H     1 <1>   0.1500 
@<TRIPOS>BOND
  1   1   2  1   
  2   2   3  ar  
  3   2   4  ar  
  4   3   5  ar  
  5   3   6  1   
  6   4   7  ar  
  7   4  22  1   
  8   5   8  ar  
  9   5  23  1   
 10   6  24  1   
 11   6  25  1   
 12   6  26  1   
 13   7   8  ar  
 14   7   9  1   
 15   8  27  1   
 16   9  10  am  
 17   9  28  1   
 18  10  11  2   
 19  10  12  1   
 20  12  13  1   
 21  12  14  1   
 22  12  29  1   
 23  13  15  1   
 24  13  16  1   
 25  13  30  1   
 26  14  17  1   
 27  14  18  1   
 28  14  31  1   
 29  15  19  ar  
 30  15  20  ar  
 31  16  18  1   
 32  16  21  1   
 33  16  32  1   
 34  17  21  2   
 35  17  33  1   
 36  18  34  1   
 37  18  35  1   
 38  21  36  1   
@<TRIPOS>SUBSTRUCTURE
  1 ****   9 GROUP 4 **** **** 0

# MOE 2024.06 (io_trps.svl 2023.06)
