@<TRIPOS>MOLECULE
NONAME
43 44 1 0 0 
SMALL
USER_CHARGES


@<TRIPOS>ATOM
  1 O       -0.2340    -2.5750     0.8540 O.3   1 <1>  -0.5600 
  2 C       -0.4280    -2.2610    -0.5000 C.3   1 <1>   0.1200 
  3 C       -0.4920    -3.9110     1.1810 C.3   1 <1>   0.1200 
  4 C       -1.8120    -2.7270    -1.0140 C.3   1 <1>   0.3430 
  5 C       -1.9780    -4.2610     0.9380 C.3   1 <1>   0.3430 
  6 N       -2.6740    -3.2200     0.1090 N.4   1 <1>  -0.9590 
  7 C       -4.0770    -3.5640    -0.2780 C.3   1 <1>   0.3430 
  8 C       -4.9020    -2.2860    -0.5440 C.3   1 <1>   0.2000 
  9 O       -4.4980    -1.2910     0.3470 O.3   1 <1>  -0.6800 
 10 C       -6.4100    -2.5120    -0.3870 C.3   1 <1>   0.1200 
 11 O       -7.0600    -1.2640    -0.4950 O.3   1 <1>  -0.3630 
 12 C       -8.4100    -1.1620    -0.4050 C.ar  1 <1>   0.0820 
 13 C       -9.2550    -2.2410    -0.1570 C.ar  1 <1>  -0.1500 
 14 C       -8.9540     0.1000    -0.5730 C.ar  1 <1>  -0.1500 
 15 C      -10.6230    -2.0460    -0.0820 C.ar  1 <1>  -0.1500 
 16 C      -10.3220     0.2910    -0.4970 C.ar  1 <1>  -0.1500 
 17 C      -11.1650    -0.7820    -0.2520 C.ar  1 <1>  -0.1430 
 18 C      -12.6690    -0.5730    -0.1700 C.3   1 <1>  -0.0170 
 19 C      -13.0900    -0.2680     1.2690 C.3   1 <1>  -0.2400 
 20 H        0.3620    -2.7130    -1.0750 H     1 <1>   0.0800 
 21 H       -0.3420    -1.1920    -0.5980 H     1 <1>   0.0800 
 22 H       -0.2410    -4.0540     2.2180 H     1 <1>   0.0800 
 23 H        0.1510    -4.5400     0.5890 H     1 <1>   0.0800 
 24 H       -1.6680    -3.5130    -1.7360 H     1 <1>   0.0800 
 25 H       -2.2920    -1.9030    -1.5160 H     1 <1>   0.0800 
 26 H       -2.4730    -4.3490     1.8920 H     1 <1>   0.0800 
 27 H       -2.0330    -5.2210     0.4540 H     1 <1>   0.0800 
 28 H       -2.7790    -2.3850     0.7220 H     1 <1>   0.4500 
 29 H       -4.5450    -4.0960     0.5340 H     1 <1>   0.0800 
 30 H       -4.0900    -4.2040    -1.1440 H     1 <1>   0.0800 
 31 H       -4.7070    -1.9310    -1.5410 H     1 <1>   0.0800 
 32 H       -5.1780    -0.5760     0.3450 H     1 <1>   0.4000 
 33 H       -6.6350    -2.9280     0.5800 H     1 <1>   0.0800 
 34 H       -6.7840    -3.1570    -1.1630 H     1 <1>   0.0800 
 35 H       -8.8770    -3.2350    -0.0180 H     1 <1>   0.1500 
 36 H       -8.3050     0.9350    -0.7630 H     1 <1>   0.1500 
 37 H      -11.2690    -2.8840     0.1120 H     1 <1>   0.1500 
 38 H      -10.7300     1.2780    -0.6280 H     1 <1>   0.1500 
 39 H      -13.1780    -1.4560    -0.5160 H     1 <1>   0.0800 
 40 H      -12.9580     0.2420    -0.8110 H     1 <1>   0.0800 
 41 H      -12.8210    -1.0840     1.9160 H     1 <1>   0.0800 
 42 H      -14.1540    -0.1200     1.3210 H     1 <1>   0.0800 
 43 H      -12.5980     0.6230     1.6180 H     1 <1>   0.0800 
@<TRIPOS>BOND
  1   1   2  1   
  2   1   3  1   
  3   2   4  1   
  4   2  20  1   
  5   2  21  1   
  6   3   5  1   
  7   3  22  1   
  8   3  23  1   
  9   4   6  1   
 10   4  24  1   
 11   4  25  1   
 12   5   6  1   
 13   5  26  1   
 14   5  27  1   
 15   6   7  1   
 16   6  28  1   
 17   7   8  1   
 18   7  29  1   
 19   7  30  1   
 20   8   9  1   
 21   8  10  1   
 22   8  31  1   
 23   9  32  1   
 24  10  11  1   
 25  10  33  1   
 26  10  34  1   
 27  11  12  1   
 28  12  13  ar  
 29  12  14  ar  
 30  13  15  ar  
 31  13  35  1   
 32  14  16  ar  
 33  14  36  1   
 34  15  17  ar  
 35  15  37  1   
 36  16  17  ar  
 37  16  38  1   
 38  17  18  1   
 39  18  19  1   
 40  18  39  1   
 41  18  40  1   
 42  19  41  1   
 43  19  42  1   
 44  19  43  1   
@<TRIPOS>SUBSTRUCTURE
  1 ****  10 GROUP 4 **** **** 0

# MOE 2024.06 (io_trps.svl 2023.06)
