@<TRIPOS>MOLECULE
NONAME
49 51 1 0 0 
SMALL
USER_CHARGES


@<TRIPOS>ATOM
  1 O        0.3110     1.1550    -2.3460 O.2   1 <1>  -0.5700 
  2 C        0.7380     1.8590    -1.4650 C.2   1 <1>   0.5690 
  3 N        0.0060     2.5510    -0.5640 N.am  1 <1>  -0.6600 
  4 C        2.2070     2.0690    -1.2370 C.3   1 <1>  -0.0990 
  5 C       -1.4750     2.6080    -0.5470 C.3   1 <1>   0.2200 
  6 C        0.8570     3.3110     0.3750 C.3   1 <1>   0.1400 
  7 C        2.2570     2.7070     0.1660 C.3   1 <1>  -0.0190 
  8 C       -1.9640     4.0580    -0.6680 C.3   1 <1>  -0.1600 
  9 C       -2.0190     1.9400     0.7210 C.3   1 <1>  -0.1600 
 10 C        3.3890     3.7050     0.3710 C.2   1 <1>   0.5690 
 11 C       -3.4980     4.1240    -0.6320 C.3   1 <1>  -0.1600 
 12 C       -3.5540     2.0050     0.7610 C.3   1 <1>  -0.1600 
 13 O        3.1540     4.7390     0.9470 O.2   1 <1>  -0.5700 
 14 N        4.6330     3.3590    -0.0820 N.am  1 <1>  -0.5470 
 15 C       -4.0520     3.4510     0.6320 C.3   1 <1>  -0.1600 
 16 C        5.8530     4.0590    -0.0540 C.ar  1 <1>   0.1170 
 17 C        7.0650     3.3570    -0.0260 C.ar  1 <1>  -0.1440 
 18 C        5.8780     5.4510    -0.0830 C.ar  1 <1>  -0.1500 
 19 C        8.2590     4.0710    -0.0290 C.ar  1 <1>  -0.1500 
 20 C        7.0490     1.8220     0.0130 C.3   1 <1>  -0.0170 
 21 C        7.0700     6.1460    -0.0820 C.ar  1 <1>  -0.1500 
 22 C        8.2640     5.4540    -0.0560 C.ar  1 <1>  -0.1500 
 23 C        8.4060     1.1390     0.2230 C.3   1 <1>  -0.2400 
 24 H        2.5710     2.7420    -1.9920 H     1 <1>   0.0800 
 25 H        2.7350     1.1350    -1.2790 H     1 <1>   0.0800 
 26 H       -1.8450     2.0590    -1.3980 H     1 <1>   0.0800 
 27 H        0.5300     3.1930     1.3930 H     1 <1>   0.0800 
 28 H        0.8360     4.3530     0.1030 H     1 <1>   0.0800 
 29 H        2.3750     1.9260     0.8940 H     1 <1>   0.0800 
 30 H       -1.6100     4.4760    -1.5940 H     1 <1>   0.0800 
 31 H       -1.5760     4.6450     0.1450 H     1 <1>   0.0800 
 32 H       -1.6310     2.4350     1.5920 H     1 <1>   0.0800 
 33 H       -1.7060     0.9110     0.7410 H     1 <1>   0.0800 
 34 H       -3.8960     3.6310    -1.5020 H     1 <1>   0.0800 
 35 H       -3.8150     5.1520    -0.6630 H     1 <1>   0.0800 
 36 H       -3.9090     1.5810     1.6850 H     1 <1>   0.0800 
 37 H       -3.9550     1.4160    -0.0470 H     1 <1>   0.0800 
 38 H        4.7120     2.4220    -0.4670 H     1 <1>   0.3700 
 39 H       -5.1280     3.4590     0.6010 H     1 <1>   0.0800 
 40 H       -3.7440     4.0120     1.4980 H     1 <1>   0.0800 
 41 H        4.9570     6.0040    -0.1110 H     1 <1>   0.1500 
 42 H        9.2110     3.5730    -0.0100 H     1 <1>   0.1500 
 43 H        6.6300     1.4610    -0.9090 H     1 <1>   0.0800 
 44 H        6.4030     1.5100     0.8160 H     1 <1>   0.0800 
 45 H        7.0680     7.2220    -0.1010 H     1 <1>   0.1500 
 46 H        9.1970     5.9900    -0.0560 H     1 <1>   0.1500 
 47 H        9.0670     1.3490    -0.6000 H     1 <1>   0.0800 
 48 H        8.2730     0.0740     0.2840 H     1 <1>   0.0800 
 49 H        8.8590     1.4770     1.1390 H     1 <1>   0.0800 
@<TRIPOS>BOND
  1   1   2  2   
  2   2   3  am  
  3   2   4  1   
  4   3   5  1   
  5   3   6  1   
  6   4   7  1   
  7   4  24  1   
  8   4  25  1   
  9   5   8  1   
 10   5   9  1   
 11   5  26  1   
 12   6   7  1   
 13   6  27  1   
 14   6  28  1   
 15   7  10  1   
 16   7  29  1   
 17   8  11  1   
 18   8  30  1   
 19   8  31  1   
 20   9  12  1   
 21   9  32  1   
 22   9  33  1   
 23  10  13  2   
 24  10  14  am  
 25  11  15  1   
 26  11  34  1   
 27  11  35  1   
 28  12  15  1   
 29  12  36  1   
 30  12  37  1   
 31  14  16  1   
 32  14  38  1   
 33  15  39  1   
 34  15  40  1   
 35  16  17  ar  
 36  16  18  ar  
 37  17  19  ar  
 38  17  20  1   
 39  18  21  ar  
 40  18  41  1   
 41  19  22  ar  
 42  19  42  1   
 43  20  23  1   
 44  20  43  1   
 45  20  44  1   
 46  21  22  ar  
 47  21  45  1   
 48  22  46  1   
 49  23  47  1   
 50  23  48  1   
 51  23  49  1   
@<TRIPOS>SUBSTRUCTURE
  1 ****   7 GROUP 4 **** **** 0

# MOE 2024.06 (io_trps.svl 2023.06)
