@<TRIPOS>MOLECULE
NONAME
57 58 1 0 0 
SMALL
USER_CHARGES


@<TRIPOS>ATOM
  1 O       -0.4450     4.1770     0.6980 O.3   1 <1>  -0.5600 
  2 C       -1.6690     4.8430     0.6530 C.3   1 <1>   0.2000 
  3 C        0.6830     4.9970     0.6880 C.3   1 <1>   0.1200 
  4 C       -2.7110     3.9120     1.2720 C.3   1 <1>  -0.1600 
  5 C       -2.0240     5.1590    -0.8050 C.3   1 <1>  -0.1600 
  6 C        1.9140     4.0910     0.7740 C.3   1 <1>   0.2000 
  7 C       -4.1220     4.5080     1.1690 C.3   1 <1>  -0.1600 
  8 C       -3.4350     5.7540    -0.9150 C.3   1 <1>  -0.1600 
  9 O        3.0600     4.8550     0.5470 O.3   1 <1>  -0.6800 
 10 C        1.7930     2.9320    -0.2520 C.3   1 <1>   0.3430 
 11 C       -4.5130     4.8320    -0.2940 C.3   1 <1>  -0.0800 
 12 N        3.0200     2.0780    -0.4680 N.4   1 <1>  -0.9590 
 13 C       -5.9770     5.3700    -0.4540 C.3   1 <1>   0.0000 
 14 C        3.5890     1.5410     0.8080 C.3   1 <1>   0.3430 
 15 C        4.0600     2.7850    -1.2660 C.3   1 <1>   0.3430 
 16 C       -6.9920     4.3520     0.0990 C.3   1 <1>  -0.2400 
 17 C       -6.3200     5.5730    -1.9420 C.3   1 <1>  -0.2400 
 18 C       -6.2060     6.7080     0.2710 C.3   1 <1>  -0.2400 
 19 C        4.9790     0.9180     0.5970 C.3   1 <1>  -0.1600 
 20 C        5.0800     1.7610    -1.7850 C.3   1 <1>  -0.1600 
 21 C        5.2580     0.5380    -0.8640 C.3   1 <1>  -0.1600 
 22 H       -1.6100     5.7480     1.2350 H     1 <1>   0.0800 
 23 H        0.6370     5.6590     1.5360 H     1 <1>   0.0800 
 24 H        0.6920     5.5590    -0.2290 H     1 <1>   0.0800 
 25 H       -2.4700     3.7470     2.3070 H     1 <1>   0.0800 
 26 H       -2.6930     2.9660     0.7600 H     1 <1>   0.0800 
 27 H       -1.9820     4.2530    -1.3850 H     1 <1>   0.0800 
 28 H       -1.3230     5.8630    -1.2130 H     1 <1>   0.0800 
 29 H        1.9780     3.6910     1.7700 H     1 <1>   0.0800 
 30 H       -4.1640     5.4010     1.7670 H     1 <1>   0.0800 
 31 H       -4.8060     3.7960     1.5930 H     1 <1>   0.0800 
 32 H       -3.6380     5.9190    -1.9580 H     1 <1>   0.0800 
 33 H       -3.4450     6.7100    -0.4230 H     1 <1>   0.0800 
 34 H        3.1280     5.5880     1.1960 H     1 <1>   0.4000 
 35 H        1.4870     3.3560    -1.1940 H     1 <1>   0.0800 
 36 H        0.9810     2.3020     0.0750 H     1 <1>   0.0800 
 37 H       -4.4710     3.9020    -0.8350 H     1 <1>   0.0800 
 38 H        2.7450     1.2680    -1.0350 H     1 <1>   0.4500 
 39 H        2.9200     0.7950     1.2060 H     1 <1>   0.0800 
 40 H        3.6760     2.3330     1.5350 H     1 <1>   0.0800 
 41 H        4.5620     3.5050    -0.6400 H     1 <1>   0.0800 
 42 H        3.6150     3.3120    -2.0940 H     1 <1>   0.0800 
 43 H       -6.9210     4.2680     1.1670 H     1 <1>   0.0800 
 44 H       -6.8300     3.3820    -0.3350 H     1 <1>   0.0800 
 45 H       -7.9980     4.6570    -0.1300 H     1 <1>   0.0800 
 46 H       -6.1150     4.6780    -2.5030 H     1 <1>   0.0800 
 47 H       -5.7570     6.3830    -2.3680 H     1 <1>   0.0800 
 48 H       -7.3620     5.8130    -2.0630 H     1 <1>   0.0800 
 49 H       -6.0350     6.6130     1.3270 H     1 <1>   0.0800 
 50 H       -7.2220     7.0360     0.1320 H     1 <1>   0.0800 
 51 H       -5.5610     7.4760    -0.1150 H     1 <1>   0.0800 
 52 H        5.0780     0.0530     1.2290 H     1 <1>   0.0800 
 53 H        5.7220     1.6270     0.9220 H     1 <1>   0.0800 
 54 H        6.0240     2.2670    -1.8930 H     1 <1>   0.0800 
 55 H        4.7900     1.4300    -2.7670 H     1 <1>   0.0800 
 56 H        4.5750    -0.2400    -1.1620 H     1 <1>   0.0800 
 57 H        6.2570     0.1460    -0.9640 H     1 <1>   0.0800 
@<TRIPOS>BOND
  1   1   2  1   
  2   1   3  1   
  3   2   4  1   
  4   2   5  1   
  5   2  22  1   
  6   3   6  1   
  7   3  23  1   
  8   3  24  1   
  9   4   7  1   
 10   4  25  1   
 11   4  26  1   
 12   5   8  1   
 13   5  27  1   
 14   5  28  1   
 15   6   9  1   
 16   6  10  1   
 17   6  29  1   
 18   7  11  1   
 19   7  30  1   
 20   7  31  1   
 21   8  11  1   
 22   8  32  1   
 23   8  33  1   
 24   9  34  1   
 25  10  12  1   
 26  10  35  1   
 27  10  36  1   
 28  11  13  1   
 29  11  37  1   
 30  12  14  1   
 31  12  15  1   
 32  12  38  1   
 33  13  16  1   
 34  13  17  1   
 35  13  18  1   
 36  14  19  1   
 37  14  39  1   
 38  14  40  1   
 39  15  20  1   
 40  15  41  1   
 41  15  42  1   
 42  16  43  1   
 43  16  44  1   
 44  16  45  1   
 45  17  46  1   
 46  17  47  1   
 47  17  48  1   
 48  18  49  1   
 49  18  50  1   
 50  18  51  1   
 51  19  21  1   
 52  19  52  1   
 53  19  53  1   
 54  20  21  1   
 55  20  54  1   
 56  20  55  1   
 57  21  56  1   
 58  21  57  1   
@<TRIPOS>SUBSTRUCTURE
  1 ****   1 GROUP 4 **** **** 0

# MOE 2024.06 (io_trps.svl 2023.06)
