@<TRIPOS>MOLECULE
NONAME
29 30 1 0 0 
SMALL
USER_CHARGES


@<TRIPOS>ATOM
  1 F        0.0960     0.2930     2.2280 F     1 <1>  -0.3400 
  2 C        0.5100    -0.9590     1.9920 C.3   1 <1>   0.7410 
  3 F        0.6580    -1.4360     3.2330 F     1 <1>  -0.3400 
  4 C       -0.6160    -1.7340     1.2840 C.2   1 <1>   0.3890 
  5 C        1.8890    -0.8930     1.2700 C.3   1 <1>   0.6800 
  6 N       -1.6040    -1.1130     0.7200 N.2   1 <1>  -0.6290 
  7 C       -0.4860    -3.1750     1.2780 C.2   1 <1>   0.6300 
  8 F        2.6860    -0.0140     1.8900 F     1 <1>  -0.3400 
  9 F        2.5700    -2.0360     1.4060 F     1 <1>  -0.3400 
 10 C        1.8200    -0.5630    -0.2320 C.3   1 <1>   0.6800 
 11 C       -2.5920    -1.8660     0.1010 C.ar  1 <1>   0.1790 
 12 O        0.4590    -3.7950     1.7280 O.2   1 <1>  -0.5700 
 13 N       -1.4740    -3.9050     0.6900 N.am  1 <1>  -0.5470 
 14 F        1.1710    -1.5440    -0.8710 F     1 <1>  -0.3400 
 15 F        1.0580     0.5110    -0.4540 F     1 <1>  -0.3400 
 16 C        3.2230    -0.3900    -0.8650 C.3   1 <1>   0.6000 
 17 C       -2.5470    -3.2720     0.0790 C.ar  1 <1>   0.1170 
 18 C       -3.6590    -1.2210    -0.5150 C.ar  1 <1>  -0.1500 
 19 F        3.7760     0.7780    -0.5450 F     1 <1>  -0.3400 
 20 F        3.1710    -0.3700    -2.1960 F     1 <1>  -0.3400 
 21 C       -3.5610    -3.9900    -0.5490 C.ar  1 <1>  -0.1500 
 22 C       -4.6590    -1.9400    -1.1360 C.ar  1 <1>  -0.1500 
 23 C       -4.6100    -3.3280    -1.1530 C.ar  1 <1>  -0.1500 
 24 H       -1.3710    -4.9200     0.6950 H     1 <1>   0.3700 
 25 H        3.9100    -1.1640    -0.5760 H     1 <1>   0.0800 
 26 H       -3.6900    -0.1460    -0.4970 H     1 <1>   0.1500 
 27 H       -3.5240    -5.0640    -0.5630 H     1 <1>   0.1500 
 28 H       -5.4800    -1.4280    -1.6090 H     1 <1>   0.1500 
 29 H       -5.3950    -3.8830    -1.6390 H     1 <1>   0.1500 
@<TRIPOS>BOND
  1   1   2  1   
  2   2   3  1   
  3   2   4  1   
  4   2   5  1   
  5   4   6  2   
  6   4   7  1   
  7   5   8  1   
  8   5   9  1   
  9   5  10  1   
 10   6  11  1   
 11   7  12  2   
 12   7  13  am  
 13  10  14  1   
 14  10  15  1   
 15  10  16  1   
 16  11  17  ar  
 17  11  18  ar  
 18  13  17  1   
 19  13  24  1   
 20  16  19  1   
 21  16  20  1   
 22  16  25  1   
 23  17  21  ar  
 24  18  22  ar  
 25  18  26  1   
 26  21  23  ar  
 27  21  27  1   
 28  22  23  ar  
 29  22  28  1   
 30  23  29  1   
@<TRIPOS>SUBSTRUCTURE
  1 ****   4 GROUP 4 **** **** 0

# MOE 2024.06 (io_trps.svl 2023.06)
