@<TRIPOS>MOLECULE
NONAME
50 53 1 0 0 
SMALL
USER_CHARGES


@<TRIPOS>ATOM
  1 O        0.1200    -0.1110    -1.2110 O.2   1 <1>  -0.5700 
  2 C        1.2780    -0.3900    -1.0060 C.2   1 <1>   0.4950 
  3 C        2.2430     0.5020    -0.4520 C.2   1 <1>  -0.1240 
  4 C        1.7040    -1.8000    -1.3710 C.3   1 <1>  -0.0990 
  5 C        3.5240     0.1250    -0.1460 C.2   1 <1>  -0.0380 
  6 C        1.6920     1.9160    -0.2510 C.3   1 <1>   0.5020 
  7 C        2.8250    -2.3010    -0.4550 C.3   1 <1>  -0.1600 
  8 N        4.5280     0.8830     0.4270 N.pl3 1 <1>  -0.6000 
  9 C        3.9860    -1.3020    -0.4290 C.3   1 <1>  -0.0220 
 10 N        2.7400     2.9390    -0.4990 N.am  1 <1>  -0.4770 
 11 C        1.0270     2.1180     1.1130 C.ar  1 <1>  -0.1430 
 12 C        4.5110     2.1750     0.9840 C.ar  1 <1>   0.1000 
 13 C        3.6360     3.1800     0.5520 C.ar  1 <1>   0.1170 
 14 C        2.9300     3.3900    -1.7810 C.2   1 <1>   0.5690 
 15 C        1.5000     1.5020     2.2650 C.ar  1 <1>   0.1600 
 16 C       -0.0830     2.9360     1.2160 C.ar  1 <1>  -0.1500 
 17 C        5.4070     2.4630     2.0050 C.ar  1 <1>  -0.1500 
 18 C        3.6600     4.4250     1.1640 C.ar  1 <1>  -0.1500 
 19 O        2.1480     3.1400    -2.6690 O.2   1 <1>  -0.5700 
 20 C        4.1640     4.2320    -2.1020 C.3   1 <1>  -0.0990 
 21 N        0.9690     1.6290     3.4720 N.ar  1 <1>  -0.6200 
 22 C       -0.6490     3.0810     2.4640 C.ar  1 <1>  -0.1500 
 23 C        5.4310     3.7100     2.6030 C.ar  1 <1>  -0.1500 
 24 C        4.5540     4.6930     2.1850 C.ar  1 <1>  -0.1500 
 25 C        4.3950     4.4840    -3.6040 C.3   1 <1>  -0.1600 
 26 C       -0.0920     2.4150     3.5420 C.ar  1 <1>   0.1600 
 27 C        5.6590     5.3140    -3.8450 C.3   1 <1>  -0.2400 
 28 H        2.0320    -1.8000    -2.3940 H     1 <1>   0.0800 
 29 H        0.8550    -2.4570    -1.2930 H     1 <1>   0.0800 
 30 H        0.9190     2.0830    -0.9810 H     1 <1>   0.0800 
 31 H        3.1720    -3.2630    -0.7880 H     1 <1>   0.0800 
 32 H        2.4360    -2.4130     0.5430 H     1 <1>   0.0800 
 33 H        5.4230     0.4060     0.5650 H     1 <1>   0.4000 
 34 H        4.6810    -1.6220     0.3290 H     1 <1>   0.0800 
 35 H        4.5000    -1.3160    -1.3750 H     1 <1>   0.0800 
 36 H        2.3680     0.8700     2.2000 H     1 <1>   0.1500 
 37 H       -0.4950     3.4390     0.3580 H     1 <1>   0.1500 
 38 H        6.0870     1.7050     2.3470 H     1 <1>   0.1500 
 39 H        2.9710     5.1850     0.8420 H     1 <1>   0.1500 
 40 H        5.0270     3.7320    -1.7030 H     1 <1>   0.0800 
 41 H        4.0630     5.1770    -1.6010 H     1 <1>   0.0800 
 42 H       -1.5140     3.7020     2.6030 H     1 <1>   0.1500 
 43 H        6.1280     3.9140     3.3980 H     1 <1>   0.1500 
 44 H        4.5640     5.6620     2.6540 H     1 <1>   0.1500 
 45 H        3.5440     5.0010    -4.0150 H     1 <1>   0.0800 
 46 H        4.4830     3.5390    -4.1130 H     1 <1>   0.0800 
 47 H       -0.5430     2.5340     4.5120 H     1 <1>   0.1500 
 48 H        5.5790     6.2720    -3.3620 H     1 <1>   0.0800 
 49 H        5.7960     5.4740    -4.9000 H     1 <1>   0.0800 
 50 H        6.5250     4.8020    -3.4620 H     1 <1>   0.0800 
@<TRIPOS>BOND
  1   1   2  2   
  2   2   3  1   
  3   2   4  1   
  4   3   5  2   
  5   3   6  1   
  6   4   7  1   
  7   4  28  1   
  8   4  29  1   
  9   5   8  1   
 10   5   9  1   
 11   6  10  1   
 12   6  11  1   
 13   6  30  1   
 14   7   9  1   
 15   7  31  1   
 16   7  32  1   
 17   8  12  1   
 18   8  33  1   
 19   9  34  1   
 20   9  35  1   
 21  10  13  1   
 22  10  14  am  
 23  11  15  ar  
 24  11  16  ar  
 25  12  13  ar  
 26  12  17  ar  
 27  13  18  ar  
 28  14  19  2   
 29  14  20  1   
 30  15  21  ar  
 31  15  36  1   
 32  16  22  ar  
 33  16  37  1   
 34  17  23  ar  
 35  17  38  1   
 36  18  24  ar  
 37  18  39  1   
 38  20  25  1   
 39  20  40  1   
 40  20  41  1   
 41  21  26  ar  
 42  22  26  ar  
 43  22  42  1   
 44  23  24  ar  
 45  23  43  1   
 46  24  44  1   
 47  25  27  1   
 48  25  45  1   
 49  25  46  1   
 50  26  47  1   
 51  27  48  1   
 52  27  49  1   
 53  27  50  1   
@<TRIPOS>SUBSTRUCTURE
  1 ****  10 GROUP 4 **** **** 0

# MOE 2024.06 (io_trps.svl 2023.06)
