@<TRIPOS>MOLECULE
NONAME
42 44 1 0 0 
SMALL
USER_CHARGES


@<TRIPOS>ATOM
  1 S       -0.2160     0.3580     0.6870 S.3   1 <1>  -0.3320 
  2 C       -1.9790     0.4020     0.3950 C.ar  1 <1>   0.7220 
  3 C        0.3220    -1.3050     0.0880 C.3   1 <1>   0.0700 
  4 N       -2.5170    -0.6930    -0.1520 N.ar  1 <1>  -0.3100 
  5 N       -2.5750     1.5130     0.7490 N.ar  1 <1>  -0.6200 
  6 C        1.8330    -1.4180     0.2990 C.3   1 <1>  -0.1600 
  7 N       -3.8020    -0.7210    -0.3890 N.ar  1 <1>  -0.3100 
  8 C       -3.8680     1.4720     0.4890 C.ar  1 <1>   0.3930 
  9 C        2.3600    -2.7770    -0.1760 C.3   1 <1>  -0.2400 
 10 C       -4.5120     0.3670    -0.0730 C.ar  1 <1>   0.3100 
 11 O       -4.5540     2.5600     0.8560 O.3   1 <1>  -0.3630 
 12 C       -5.9370     0.3660    -0.2980 C.ar  1 <1>   0.0000 
 13 C       -5.1070     3.4210    -0.1060 C.3   1 <1>   0.6490 
 14 C       -6.5730     1.5110    -0.7960 C.ar  1 <1>   0.1000 
 15 C       -6.7130    -0.7620    -0.0320 C.ar  1 <1>  -0.1500 
 16 N       -5.8600     2.6600    -1.1130 N.pl3 1 <1>  -0.8690 
 17 C       -6.0610     4.3680     0.6440 C.3   1 <1>  -0.1600 
 18 C       -3.9750     4.1630    -0.8110 C.3   1 <1>  -0.2400 
 19 C       -7.9460     1.4950    -1.0140 C.ar  1 <1>  -0.1500 
 20 C       -8.0770    -0.7650    -0.2470 C.ar  1 <1>  -0.1500 
 21 C       -6.8540     5.3700    -0.2220 C.3   1 <1>  -0.2400 
 22 C       -8.6970     0.3700    -0.7410 C.ar  1 <1>  -0.1500 
 23 H        0.0600    -1.3730    -0.9540 H     1 <1>   0.0800 
 24 H       -0.2160    -2.0430     0.6570 H     1 <1>   0.0800 
 25 H        2.0560    -1.2950     1.3450 H     1 <1>   0.0800 
 26 H        2.3280    -0.6330    -0.2460 H     1 <1>   0.0800 
 27 H        1.8890    -3.5750     0.3710 H     1 <1>   0.0800 
 28 H        3.4220    -2.8340    -0.0180 H     1 <1>   0.0800 
 29 H        2.1620    -2.9110    -1.2250 H     1 <1>   0.0800 
 30 H       -6.2380    -1.6510     0.3480 H     1 <1>   0.1500 
 31 H       -6.3770     3.3240    -1.6910 H     1 <1>   0.4000 
 32 H       -5.4830     4.9230     1.3610 H     1 <1>   0.0800 
 33 H       -6.7610     3.7650     1.1940 H     1 <1>   0.0800 
 34 H       -3.3300     3.4670    -1.3150 H     1 <1>   0.0800 
 35 H       -3.3990     4.7160    -0.0920 H     1 <1>   0.0800 
 36 H       -4.3650     4.8480    -1.5390 H     1 <1>   0.0800 
 37 H       -8.4300     2.3720    -1.4020 H     1 <1>   0.1500 
 38 H       -8.6580    -1.6460    -0.0340 H     1 <1>   0.1500 
 39 H       -6.1930     6.0320    -0.7530 H     1 <1>   0.0800 
 40 H       -7.4850     5.9690     0.4120 H     1 <1>   0.0800 
 41 H       -7.4830     4.8590    -0.9270 H     1 <1>   0.0800 
 42 H       -9.7600     0.3710    -0.9120 H     1 <1>   0.1500 
@<TRIPOS>BOND
  1   1   2  1   
  2   1   3  1   
  3   2   4  ar  
  4   2   5  ar  
  5   3   6  1   
  6   3  23  1   
  7   3  24  1   
  8   4   7  ar  
  9   5   8  ar  
 10   6   9  1   
 11   6  25  1   
 12   6  26  1   
 13   7  10  ar  
 14   8  10  ar  
 15   8  11  1   
 16   9  27  1   
 17   9  28  1   
 18   9  29  1   
 19  10  12  1   
 20  11  13  1   
 21  12  14  ar  
 22  12  15  ar  
 23  13  16  1   
 24  13  17  1   
 25  13  18  1   
 26  14  16  1   
 27  14  19  ar  
 28  15  20  ar  
 29  15  30  1   
 30  16  31  1   
 31  17  21  1   
 32  17  32  1   
 33  17  33  1   
 34  18  34  1   
 35  18  35  1   
 36  18  36  1   
 37  19  22  ar  
 38  19  37  1   
 39  20  22  ar  
 40  20  38  1   
 41  21  39  1   
 42  21  40  1   
 43  21  41  1   
 44  22  42  1   
@<TRIPOS>SUBSTRUCTURE
  1 ****  10 GROUP 4 **** **** 0

# MOE 2024.06 (io_trps.svl 2023.06)
