@<TRIPOS>MOLECULE
NONAME
37 38 1 0 0 
SMALL
USER_CHARGES


@<TRIPOS>ATOM
  1 O        0.7620     3.9600     0.1970 O.3   1 <1>  -0.5600 
  2 C       -0.2600     4.9150     0.1830 C.3   1 <1>   0.1200 
  3 C        0.5000     2.8890     1.0580 C.3   1 <1>   0.1200 
  4 C       -1.5930     4.2760    -0.2470 C.3   1 <1>   0.1100 
  5 C       -0.8030     2.1780     0.6500 C.3   1 <1>   0.1100 
  6 N       -1.9360     3.1210     0.6140 N.3   1 <1>  -0.8100 
  7 C       -3.1680     2.4460     0.1810 C.3   1 <1>   0.3100 
  8 C       -4.3410     3.3540     0.3370 C.1   1 <1>  -0.2000 
  9 C       -5.2390     4.1250     0.4660 C.1   1 <1>  -0.2000 
 10 C       -6.3080     5.1510     0.6460 C.3   1 <1>   0.6240 
 11 O       -6.4930     5.2260     2.0030 O.3   1 <1>  -0.6800 
 12 C       -5.8950     6.5340     0.1090 C.ar  1 <1>  -0.1440 
 13 C       -7.6260     4.6930     0.0370 C.3   1 <1>  -0.2400 
 14 C       -6.3220     7.7050     0.7290 C.ar  1 <1>  -0.1500 
 15 C       -5.0980     6.6490    -1.0270 C.ar  1 <1>  -0.1500 
 16 C       -5.9540     8.9460     0.2420 C.ar  1 <1>  -0.1500 
 17 C       -4.7270     7.8890    -1.5170 C.ar  1 <1>  -0.1500 
 18 C       -5.1530     9.0400    -0.8810 C.ar  1 <1>  -0.1500 
 19 H        0.0220     5.6900    -0.5060 H     1 <1>   0.0800 
 20 H       -0.3500     5.3400     1.1680 H     1 <1>   0.0800 
 21 H        0.4240     3.2650     2.0640 H     1 <1>   0.0800 
 22 H        1.3310     2.2100     1.0010 H     1 <1>   0.0800 
 23 H       -1.5140     3.9630    -1.2740 H     1 <1>   0.0800 
 24 H       -2.3650     5.0230    -0.1810 H     1 <1>   0.0800 
 25 H       -1.0100     1.3960     1.3600 H     1 <1>   0.0800 
 26 H       -0.6630     1.7280    -0.3190 H     1 <1>   0.0800 
 27 H       -3.3310     1.5730     0.7910 H     1 <1>   0.0800 
 28 H       -3.0800     2.1350    -0.8460 H     1 <1>   0.0800 
 29 H       -5.6050     5.3070     2.3920 H     1 <1>   0.4000 
 30 H       -7.5150     4.5920    -1.0270 H     1 <1>   0.0800 
 31 H       -8.3920     5.4200     0.2340 H     1 <1>   0.0800 
 32 H       -7.9160     3.7430     0.4460 H     1 <1>   0.0800 
 33 H       -6.9530     7.6580     1.6010 H     1 <1>   0.1500 
 34 H       -4.7570     5.7700    -1.5460 H     1 <1>   0.1500 
 35 H       -6.2920     9.8400     0.7380 H     1 <1>   0.1500 
 36 H       -4.1080     7.9580    -2.3940 H     1 <1>   0.1500 
 37 H       -4.8650    10.0050    -1.2600 H     1 <1>   0.1500 
@<TRIPOS>BOND
  1   1   2  1   
  2   1   3  1   
  3   2   4  1   
  4   2  19  1   
  5   2  20  1   
  6   3   5  1   
  7   3  21  1   
  8   3  22  1   
  9   4   6  1   
 10   4  23  1   
 11   4  24  1   
 12   5   6  1   
 13   5  25  1   
 14   5  26  1   
 15   6   7  1   
 16   7   8  1   
 17   7  27  1   
 18   7  28  1   
 19   8   9  3   
 20   9  10  1   
 21  10  11  1   
 22  10  12  1   
 23  10  13  1   
 24  11  29  1   
 25  12  14  ar  
 26  12  15  ar  
 27  13  30  1   
 28  13  31  1   
 29  13  32  1   
 30  14  16  ar  
 31  14  33  1   
 32  15  17  ar  
 33  15  34  1   
 34  16  18  ar  
 35  16  35  1   
 36  17  18  ar  
 37  17  36  1   
 38  18  37  1   
@<TRIPOS>SUBSTRUCTURE
  1 ****   9 GROUP 4 **** **** 0

# MOE 2024.06 (io_trps.svl 2023.06)
