@<TRIPOS>MOLECULE
NONAME
41 42 1 0 0 
SMALL
USER_CHARGES


@<TRIPOS>ATOM
  1 O        0.0990    -0.4140     0.0700 O.2   1 <1>  -0.5700 
  2 C        0.0250    -1.5410     0.4840 C.2   1 <1>   0.5690 
  3 N       -1.1580    -2.0490     0.8670 N.am  1 <1>  -0.8000 
  4 C        1.2910    -2.3800     0.5740 C.3   1 <1>  -0.0190 
  5 C        2.4960    -1.4370     0.4440 C.3   1 <1>   0.3430 
  6 C        1.3260    -3.4690    -0.5130 C.3   1 <1>  -0.1600 
  7 N        3.8080    -2.1770     0.4230 N.4   1 <1>  -0.9590 
  8 C        2.6920    -4.1690    -0.5470 C.3   1 <1>  -0.1600 
  9 C        4.9570    -1.2190     0.4700 C.3   1 <1>   0.4230 
 10 C        3.8390    -3.1690    -0.7030 C.3   1 <1>   0.3430 
 11 C        5.1300    -0.4290    -0.8350 C.3   1 <1>  -0.1600 
 12 C        6.2550    -1.9510     0.8210 C.3   1 <1>  -0.1600 
 13 C        6.3020     0.5480    -0.7200 C.3   1 <1>   0.3430 
 14 C        7.4180    -0.9620     0.9250 C.3   1 <1>   0.3430 
 15 N        7.5470    -0.1860    -0.3450 N.4   1 <1>  -0.9590 
 16 C        8.6990     0.7710    -0.2480 C.3   1 <1>   0.2630 
 17 H       -1.9970    -1.4670     0.7890 H     1 <1>   0.3700 
 18 H       -1.3160    -2.9980     1.2100 H     1 <1>   0.3700 
 19 H        1.3140    -2.8370     1.5470 H     1 <1>   0.0800 
 20 H        2.4740    -0.7360     1.2630 H     1 <1>   0.0800 
 21 H        2.3840    -0.8740    -0.4690 H     1 <1>   0.0800 
 22 H        1.1320    -3.0200    -1.4750 H     1 <1>   0.0800 
 23 H        0.5500    -4.1940    -0.3330 H     1 <1>   0.0800 
 24 H        3.8300    -2.7310     1.2900 H     1 <1>   0.4500 
 25 H        2.7130    -4.8550    -1.3770 H     1 <1>   0.0800 
 26 H        2.8350    -4.7490     0.3480 H     1 <1>   0.0800 
 27 H        4.7630    -0.5090     1.2610 H     1 <1>   0.0800 
 28 H        4.7740    -3.7050    -0.7070 H     1 <1>   0.0800 
 29 H        3.7350    -2.6580    -1.6470 H     1 <1>   0.0800 
 30 H        4.2440     0.1440    -1.0430 H     1 <1>   0.0800 
 31 H        5.3120    -1.0820    -1.6680 H     1 <1>   0.0800 
 32 H        6.5000    -2.6910     0.0810 H     1 <1>   0.0800 
 33 H        6.1480    -2.4440     1.7710 H     1 <1>   0.0800 
 34 H        6.0810     1.2940     0.0280 H     1 <1>   0.0800 
 35 H        6.4430     1.0540    -1.6630 H     1 <1>   0.0800 
 36 H        8.3330    -1.5000     1.1220 H     1 <1>   0.0800 
 37 H        7.2470    -0.2850     1.7480 H     1 <1>   0.0800 
 38 H        7.7780    -0.8450    -1.1060 H     1 <1>   0.4500 
 39 H        8.5270     1.4940     0.5330 H     1 <1>   0.0800 
 40 H        8.8300     1.2980    -1.1800 H     1 <1>   0.0800 
 41 H        9.6130     0.2410    -0.0280 H     1 <1>   0.0800 
@<TRIPOS>BOND
  1   1   2  2   
  2   2   3  am  
  3   2   4  1   
  4   3  17  1   
  5   3  18  1   
  6   4   5  1   
  7   4   6  1   
  8   4  19  1   
  9   5   7  1   
 10   5  20  1   
 11   5  21  1   
 12   6   8  1   
 13   6  22  1   
 14   6  23  1   
 15   7   9  1   
 16   7  10  1   
 17   7  24  1   
 18   8  10  1   
 19   8  25  1   
 20   8  26  1   
 21   9  11  1   
 22   9  12  1   
 23   9  27  1   
 24  10  28  1   
 25  10  29  1   
 26  11  13  1   
 27  11  30  1   
 28  11  31  1   
 29  12  14  1   
 30  12  32  1   
 31  12  33  1   
 32  13  15  1   
 33  13  34  1   
 34  13  35  1   
 35  14  15  1   
 36  14  36  1   
 37  14  37  1   
 38  15  16  1   
 39  15  38  1   
 40  16  39  1   
 41  16  40  1   
 42  16  41  1   
@<TRIPOS>SUBSTRUCTURE
  1 ****   7 GROUP 4 **** **** 0

# MOE 2024.06 (io_trps.svl 2023.06)
