@<TRIPOS>MOLECULE
NONAME
44 45 1 0 0 
SMALL
USER_CHARGES


@<TRIPOS>ATOM
  1 O       -6.3420    -5.6050     0.0420 O.3   1 <1>  -0.3630 
  2 C       -6.4700    -4.2710     0.2520 C.ar  1 <1>   0.0830 
  3 C       -5.1210    -6.2640     0.2570 C.3   1 <1>   0.1200 
  4 C       -7.7050    -3.7140    -0.0340 C.ar  1 <1>  -0.1500 
  5 C       -5.4440    -3.4580     0.7270 C.ar  1 <1>  -0.1500 
  6 C       -5.3370    -7.7380    -0.0960 C.3   1 <1>   0.3430 
  7 C       -7.9350    -2.3590     0.1430 C.ar  1 <1>  -0.1440 
  8 C       -5.6610    -2.1030     0.9100 C.ar  1 <1>  -0.1440 
  9 N       -4.0970    -8.5620     0.0800 N.4   1 <1>  -0.9590 
 10 C       -6.9020    -1.5630     0.6160 C.ar  1 <1>  -0.1500 
 11 C       -9.3070    -1.7710    -0.1810 C.3   1 <1>   0.0630 
 12 C       -4.5530    -1.2020     1.4260 C.3   1 <1>  -0.0970 
 13 C       -3.0000    -8.2220    -0.8630 C.3   1 <1>   0.3430 
 14 C       -4.3570   -10.0090    -0.1170 C.3   1 <1>   0.3430 
 15 C       -9.2050    -0.7290    -1.3000 C.3   1 <1>  -0.2400 
 16 C       -9.9520    -1.1660     1.0690 C.3   1 <1>  -0.2400 
 17 C       -2.1050    -9.4530    -0.8630 C.3   1 <1>  -0.1600 
 18 C       -2.9810   -10.6090    -0.3730 C.3   1 <1>  -0.1600 
 19 H       -4.8570    -6.1490     1.2930 H     1 <1>   0.0800 
 20 H       -4.3850    -5.8110    -0.3840 H     1 <1>   0.0800 
 21 H       -8.4880    -4.3540    -0.3990 H     1 <1>   0.1500 
 22 H       -4.4770    -3.8560     0.9590 H     1 <1>   0.1500 
 23 H       -5.6720    -7.8030    -1.1180 H     1 <1>   0.0800 
 24 H       -6.1160    -8.1240     0.5410 H     1 <1>   0.0800 
 25 H       -3.7380    -8.4500     1.0380 H     1 <1>   0.4500 
 26 H       -7.0650    -0.5090     0.7570 H     1 <1>   0.1500 
 27 H       -9.9490    -2.5630    -0.5300 H     1 <1>   0.0800 
 28 H       -3.7990    -1.7740     1.9350 H     1 <1>   0.0800 
 29 H       -4.9530    -0.4810     2.1160 H     1 <1>   0.0800 
 30 H       -4.0970    -0.6800     0.6040 H     1 <1>   0.0800 
 31 H       -2.4630    -7.3380    -0.5550 H     1 <1>   0.0800 
 32 H       -3.4020    -8.0700    -1.8520 H     1 <1>   0.0800 
 33 H       -4.9780   -10.1550    -0.9870 H     1 <1>   0.0800 
 34 H       -4.8340   -10.4540     0.7420 H     1 <1>   0.0800 
 35 H       -8.6140     0.1120    -0.9880 H     1 <1>   0.0800 
 36 H      -10.1840    -0.3800    -1.5740 H     1 <1>   0.0800 
 37 H       -8.7430    -1.1690    -2.1660 H     1 <1>   0.0800 
 38 H       -9.3770    -0.3330     1.4330 H     1 <1>   0.0800 
 39 H      -10.0080    -1.9080     1.8460 H     1 <1>   0.0800 
 40 H      -10.9480    -0.8260     0.8480 H     1 <1>   0.0800 
 41 H       -1.2730    -9.3020    -0.1960 H     1 <1>   0.0800 
 42 H       -1.7190    -9.6350    -1.8520 H     1 <1>   0.0800 
 43 H       -3.0450   -11.4000    -1.1010 H     1 <1>   0.0800 
 44 H       -2.5860   -11.0190     0.5410 H     1 <1>   0.0800 
@<TRIPOS>BOND
  1   1   2  1   
  2   1   3  1   
  3   2   4  ar  
  4   2   5  ar  
  5   3   6  1   
  6   3  19  1   
  7   3  20  1   
  8   4   7  ar  
  9   4  21  1   
 10   5   8  ar  
 11   5  22  1   
 12   6   9  1   
 13   6  23  1   
 14   6  24  1   
 15   7  10  ar  
 16   7  11  1   
 17   8  10  ar  
 18   8  12  1   
 19   9  13  1   
 20   9  14  1   
 21   9  25  1   
 22  10  26  1   
 23  11  15  1   
 24  11  16  1   
 25  11  27  1   
 26  12  28  1   
 27  12  29  1   
 28  12  30  1   
 29  13  17  1   
 30  13  31  1   
 31  13  32  1   
 32  14  18  1   
 33  14  33  1   
 34  14  34  1   
 35  15  35  1   
 36  15  36  1   
 37  15  37  1   
 38  16  38  1   
 39  16  39  1   
 40  16  40  1   
 41  17  18  1   
 42  17  41  1   
 43  17  42  1   
 44  18  43  1   
 45  18  44  1   
@<TRIPOS>SUBSTRUCTURE
  1 ****   1 GROUP 4 **** **** 0

# MOE 2024.06 (io_trps.svl 2023.06)
