@<TRIPOS>MOLECULE
NONAME
29 30 1 0 0 
SMALL
USER_CHARGES


@<TRIPOS>ATOM
  1 CL      -1.8760     0.9810    -1.9280 Cl    1 <1>  -0.1770 
  2 C       -0.9300     2.1740    -1.0610 C.ar  1 <1>   0.1770 
  3 C        0.1580     2.7760    -1.6720 C.ar  1 <1>   0.1770 
  4 C       -1.2940     2.5150     0.2350 C.ar  1 <1>  -0.1440 
  5 CL       0.6030     2.3540    -3.3070 Cl    1 <1>  -0.1770 
  6 C        0.9010     3.7260    -0.9980 C.ar  1 <1>  -0.1500 
  7 C       -0.5410     3.4680     0.9110 C.ar  1 <1>  -0.1500 
  8 C       -2.4860     1.8530     0.9030 C.3   1 <1>   0.4870 
  9 C        0.5480     4.0700     0.2970 C.ar  1 <1>  -0.1500 
 10 N       -3.7410     2.2630     0.2110 N.4   1 <1>  -0.9590 
 11 C       -3.9750     3.7480     0.3170 C.3   1 <1>   0.3430 
 12 C       -4.9050     1.4460     0.6990 C.3   1 <1>   0.3430 
 13 C       -5.1140     4.2300    -0.5910 C.3   1 <1>   0.0700 
 14 C       -6.1610     1.6380    -0.1630 C.3   1 <1>   0.0700 
 15 S       -6.6430     3.3830    -0.1150 S.3   1 <1>  -0.4600 
 16 H        1.7460     4.1870    -1.4810 H     1 <1>   0.1500 
 17 H       -0.7840     3.7540     1.9220 H     1 <1>   0.1500 
 18 H       -2.5270     2.1330     1.9430 H     1 <1>   0.0800 
 19 H       -2.3680     0.7820     0.8450 H     1 <1>   0.0800 
 20 H        1.1290     4.8070     0.8280 H     1 <1>   0.1500 
 21 H       -3.5990     2.0400    -0.7860 H     1 <1>   0.4500 
 22 H       -3.0790     4.2790     0.0410 H     1 <1>   0.0800 
 23 H       -4.2120     4.0080     1.3370 H     1 <1>   0.0800 
 24 H       -5.1390     1.7150     1.7160 H     1 <1>   0.0800 
 25 H       -4.6430     0.4000     0.6850 H     1 <1>   0.0800 
 26 H       -4.9230     4.0150    -1.6270 H     1 <1>   0.0800 
 27 H       -5.2890     5.2850    -0.4680 H     1 <1>   0.0800 
 28 H       -6.9900     1.0730     0.2270 H     1 <1>   0.0800 
 29 H       -5.9910     1.3680    -1.1900 H     1 <1>   0.0800 
@<TRIPOS>BOND
  1   1   2  1   
  2   2   3  ar  
  3   2   4  ar  
  4   3   5  1   
  5   3   6  ar  
  6   4   7  ar  
  7   4   8  1   
  8   6   9  ar  
  9   6  16  1   
 10   7   9  ar  
 11   7  17  1   
 12   8  10  1   
 13   8  18  1   
 14   8  19  1   
 15   9  20  1   
 16  10  11  1   
 17  10  12  1   
 18  10  21  1   
 19  11  13  1   
 20  11  22  1   
 21  11  23  1   
 22  12  14  1   
 23  12  24  1   
 24  12  25  1   
 25  13  15  1   
 26  13  26  1   
 27  13  27  1   
 28  14  15  1   
 29  14  28  1   
 30  14  29  1   
@<TRIPOS>SUBSTRUCTURE
  1 ****   4 GROUP 4 **** **** 0

# MOE 2024.06 (io_trps.svl 2023.06)
