@<TRIPOS>MOLECULE
NONAME
46 47 1 0 0 
SMALL
USER_CHARGES


@<TRIPOS>ATOM
  1 S        0.1070    -0.0450    -0.5220 S.o2  1 <1>   1.3330 
  2 O       -0.4470     1.2770    -0.3770 O.2   1 <1>  -0.6500 
  3 O        1.1090    -0.3340    -1.5170 O.2   1 <1>  -0.6500 
  4 N       -1.1750    -1.1130    -0.9240 N.am  1 <1>  -0.7570 
  5 C        0.6540    -0.6820     1.0680 C.3   1 <1>  -0.0550 
  6 C       -2.4660    -1.1900    -0.4300 C.ar  1 <1>   0.1990 
  7 C        1.8540     0.0660     1.6740 C.3   1 <1>  -0.2400 
  8 C       -2.9540    -0.3560     0.5720 C.ar  1 <1>  -0.1500 
  9 C       -3.3250    -2.1540    -0.9460 C.ar  1 <1>  -0.1500 
 10 C       -4.2480    -0.4880     1.0370 C.ar  1 <1>  -0.1500 
 11 C       -4.6190    -2.2830    -0.4800 C.ar  1 <1>  -0.1500 
 12 C       -5.1200    -1.4490     0.5230 C.ar  1 <1>   0.0860 
 13 C       -6.4780    -1.5650     1.0180 C.2   1 <1>   0.5440 
 14 O       -6.7500    -1.2520     2.1610 O.2   1 <1>  -0.5700 
 15 N       -7.4790    -2.0150     0.2010 N.am  1 <1>  -0.7300 
 16 C       -8.8940    -2.1780     0.5820 C.3   1 <1>   0.2200 
 17 C       -9.2780    -3.6380     0.3170 C.3   1 <1>  -0.1600 
 18 C       -9.7140    -1.1410    -0.1980 C.3   1 <1>  -0.1600 
 19 C      -10.7540    -3.9810     0.5770 C.3   1 <1>  -0.1600 
 20 C      -11.1430    -0.9950     0.3480 C.3   1 <1>  -0.1600 
 21 C      -11.6870    -3.4100    -0.5010 C.3   1 <1>  -0.1600 
 22 C      -12.1690    -1.9730    -0.2460 C.3   1 <1>  -0.1600 
 23 H       -0.9310    -1.6320    -1.7630 H     1 <1>   0.4200 
 24 H        0.9180    -1.7160     0.9550 H     1 <1>   0.0800 
 25 H       -0.1630    -0.6330     1.7630 H     1 <1>   0.0800 
 26 H        2.7000     0.0080     1.0100 H     1 <1>   0.0800 
 27 H        2.1260    -0.3670     2.6200 H     1 <1>   0.0800 
 28 H        1.6070     1.1030     1.8240 H     1 <1>   0.0800 
 29 H       -2.3320     0.4090     0.9940 H     1 <1>   0.1500 
 30 H       -2.9720    -2.8120    -1.7180 H     1 <1>   0.1500 
 31 H       -4.6040     0.1670     1.8150 H     1 <1>   0.1500 
 32 H       -5.2510    -3.0490    -0.8930 H     1 <1>   0.1500 
 33 H       -7.2890    -2.1500    -0.7900 H     1 <1>   0.3700 
 34 H       -9.0000    -1.9800     1.6360 H     1 <1>   0.0800 
 35 H       -8.6780    -4.2510     0.9670 H     1 <1>   0.0800 
 36 H       -9.0300    -3.8990    -0.6960 H     1 <1>   0.0800 
 37 H       -9.7330    -1.3750    -1.2470 H     1 <1>   0.0800 
 38 H       -9.2280    -0.1890    -0.0780 H     1 <1>   0.0800 
 39 H      -11.0570    -3.6540     1.5570 H     1 <1>   0.0800 
 40 H      -10.8450    -5.0530     0.5570 H     1 <1>   0.0800 
 41 H      -11.4880     0.0050     0.1440 H     1 <1>   0.0800 
 42 H      -11.1270    -1.1000     1.4200 H     1 <1>   0.0800 
 43 H      -12.5590    -4.0380    -0.5670 H     1 <1>   0.0800 
 44 H      -11.2010    -3.4590    -1.4590 H     1 <1>   0.0800 
 45 H      -12.5250    -1.5740    -1.1800 H     1 <1>   0.0800 
 46 H      -13.0140    -2.0060     0.4200 H     1 <1>   0.0800 
@<TRIPOS>BOND
  1   1   2  2   
  2   1   3  2   
  3   1   4  am  
  4   1   5  1   
  5   4   6  1   
  6   4  23  1   
  7   5   7  1   
  8   5  24  1   
  9   5  25  1   
 10   6   8  ar  
 11   6   9  ar  
 12   7  26  1   
 13   7  27  1   
 14   7  28  1   
 15   8  10  ar  
 16   8  29  1   
 17   9  11  ar  
 18   9  30  1   
 19  10  12  ar  
 20  10  31  1   
 21  11  12  ar  
 22  11  32  1   
 23  12  13  1   
 24  13  14  2   
 25  13  15  am  
 26  15  16  1   
 27  15  33  1   
 28  16  17  1   
 29  16  18  1   
 30  16  34  1   
 31  17  19  1   
 32  17  35  1   
 33  17  36  1   
 34  18  20  1   
 35  18  37  1   
 36  18  38  1   
 37  19  21  1   
 38  19  39  1   
 39  19  40  1   
 40  20  22  1   
 41  20  41  1   
 42  20  42  1   
 43  21  22  1   
 44  21  43  1   
 45  21  44  1   
 46  22  45  1   
 47  22  46  1   
@<TRIPOS>SUBSTRUCTURE
  1 ****  12 GROUP 4 **** **** 0

# MOE 2024.06 (io_trps.svl 2023.06)
