@<TRIPOS>MOLECULE
NONAME
44 45 1 0 0 
SMALL
USER_CHARGES


@<TRIPOS>ATOM
  1 O       -0.2860    -0.4690    -0.8490 O.2   1 <1>  -0.5700 
  2 C        0.0470    -1.4300    -0.1870 C.2   1 <1>   0.6160 
  3 N        1.3090    -1.5170     0.3520 N.am  1 <1>  -0.5470 
  4 C       -0.8730    -2.5150     0.0380 C.2   1 <1>   0.0790 
  5 C        2.4000    -0.6350     0.3160 C.ar  1 <1>   0.1170 
  6 C       -2.0150    -2.0760     0.7820 C.1   1 <1>   0.4920 
  7 C       -0.6860    -3.7980    -0.3710 C.2   1 <1>  -0.2760 
  8 C        3.6770    -1.1540     0.4960 C.ar  1 <1>  -0.1500 
  9 C        2.2650     0.7370     0.1300 C.ar  1 <1>  -0.1500 
 10 N       -2.9230    -1.7760     1.4050 N.1   1 <1>  -0.5570 
 11 C        0.5000    -4.2790    -1.2080 C.3   1 <1>  -0.0220 
 12 C       -1.6300    -4.9600    -0.0550 C.3   1 <1>  -0.0220 
 13 C        4.7860    -0.3280     0.4830 C.ar  1 <1>  -0.1500 
 14 C        3.3710     1.5690     0.1140 C.ar  1 <1>  -0.1500 
 15 C        1.2760    -5.3550    -0.4400 C.3   1 <1>  -0.1600 
 16 C       -0.8720    -6.0480     0.7150 C.3   1 <1>  -0.1600 
 17 C        4.6440     1.0360     0.2920 C.ar  1 <1>   0.0830 
 18 C        0.3660    -6.5340    -0.0580 C.3   1 <1>  -0.0800 
 19 O        5.7850     1.7750     0.2920 O.3   1 <1>  -0.3630 
 20 C        1.1420    -7.5650     0.7680 C.3   1 <1>  -0.2400 
 21 C        5.7460     3.1660     0.0770 C.3   1 <1>   0.1200 
 22 C        7.1780     3.6900     0.1200 C.3   1 <1>  -0.2400 
 23 H        1.5020    -2.4040     0.8120 H     1 <1>   0.3700 
 24 H        3.8120    -2.2090     0.6440 H     1 <1>   0.1500 
 25 H        1.2890     1.1680    -0.0020 H     1 <1>   0.1500 
 26 H        1.1640    -3.4770    -1.4730 H     1 <1>   0.0800 
 27 H        0.1330    -4.6970    -2.1310 H     1 <1>   0.0800 
 28 H       -2.0110    -5.3710    -0.9750 H     1 <1>   0.0800 
 29 H       -2.4780    -4.6480     0.5290 H     1 <1>   0.0800 
 30 H        5.7730    -0.7330     0.6210 H     1 <1>   0.1500 
 31 H        3.2190     2.6200    -0.0350 H     1 <1>   0.1500 
 32 H        1.6970    -4.9210     0.4500 H     1 <1>   0.0800 
 33 H        2.0880    -5.7100    -1.0510 H     1 <1>   0.0800 
 34 H       -1.5330    -6.8770     0.8990 H     1 <1>   0.0800 
 35 H       -0.5690    -5.6510     1.6690 H     1 <1>   0.0800 
 36 H        0.0320    -7.0140    -0.9640 H     1 <1>   0.0800 
 37 H        1.4950    -7.1320     1.6870 H     1 <1>   0.0800 
 38 H        1.9890    -7.9280     0.2130 H     1 <1>   0.0800 
 39 H        0.5120    -8.4040     1.0050 H     1 <1>   0.0800 
 40 H        5.1530     3.6160     0.8550 H     1 <1>   0.0800 
 41 H        5.3030     3.3500    -0.8870 H     1 <1>   0.0800 
 42 H        7.6170     3.4860     1.0810 H     1 <1>   0.0800 
 43 H        7.1830     4.7520    -0.0410 H     1 <1>   0.0800 
 44 H        7.7660     3.2220    -0.6500 H     1 <1>   0.0800 
@<TRIPOS>BOND
  1   1   2  2   
  2   2   3  am  
  3   2   4  1   
  4   3   5  1   
  5   3  23  1   
  6   4   6  1   
  7   4   7  2   
  8   5   8  ar  
  9   5   9  ar  
 10   6  10  3   
 11   7  11  1   
 12   7  12  1   
 13   8  13  ar  
 14   8  24  1   
 15   9  14  ar  
 16   9  25  1   
 17  11  15  1   
 18  11  26  1   
 19  11  27  1   
 20  12  16  1   
 21  12  28  1   
 22  12  29  1   
 23  13  17  ar  
 24  13  30  1   
 25  14  17  ar  
 26  14  31  1   
 27  15  18  1   
 28  15  32  1   
 29  15  33  1   
 30  16  18  1   
 31  16  34  1   
 32  16  35  1   
 33  17  19  1   
 34  18  20  1   
 35  18  36  1   
 36  19  21  1   
 37  20  37  1   
 38  20  38  1   
 39  20  39  1   
 40  21  22  1   
 41  21  40  1   
 42  21  41  1   
 43  22  42  1   
 44  22  43  1   
 45  22  44  1   
@<TRIPOS>SUBSTRUCTURE
  1 ****   3 GROUP 4 **** **** 0

# MOE 2024.06 (io_trps.svl 2023.06)
