@<TRIPOS>MOLECULE
NONAME
49 49 1 0 0 
SMALL
USER_CHARGES


@<TRIPOS>ATOM
  1 O        0.2660     8.0850     0.1050 O.3   1 <1>  -0.3630 
  2 C        1.4810     7.4820     0.1540 C.ar  1 <1>   0.0830 
  3 C       -0.9230     7.3360     0.0920 C.3   1 <1>   0.1200 
  4 C        2.5870     8.3150     0.1590 C.ar  1 <1>  -0.1500 
  5 C        1.6620     6.1030     0.1980 C.ar  1 <1>  -0.1500 
  6 C       -2.0870     8.3270     0.0310 C.3   1 <1>  -0.1600 
  7 C        3.8720     7.7970     0.2060 C.ar  1 <1>  -0.1440 
  8 C        2.9390     5.5700     0.2470 C.ar  1 <1>  -0.1430 
  9 C       -3.4470     7.6160     0.0120 C.3   1 <1>  -0.1600 
 10 C        4.0350     6.4190     0.2490 C.ar  1 <1>  -0.1500 
 11 C        5.0730     8.7400     0.2080 C.3   1 <1>   0.0630 
 12 C        3.1460     4.0670     0.2930 C.3   1 <1>  -0.0970 
 13 C       -4.5800     8.6380    -0.0530 C.3   1 <1>   0.3430 
 14 C        5.9500     8.5120    -1.0270 C.3   1 <1>  -0.2400 
 15 C        5.8900     8.5820     1.4950 C.3   1 <1>  -0.2400 
 16 N       -5.8800     7.9240    -0.0730 N.4   1 <1>  -0.9060 
 17 C       -7.0490     8.8140    -0.1060 C.3   1 <1>   0.4230 
 18 C       -8.2740     7.9670     0.2110 C.3   1 <1>  -0.2400 
 19 C       -7.1690     9.4420    -1.4910 C.3   1 <1>  -0.2400 
 20 H       -0.9600     6.7470     0.9930 H     1 <1>   0.0800 
 21 H       -0.9090     6.6970    -0.7740 H     1 <1>   0.0800 
 22 H        2.4270     9.3770     0.1250 H     1 <1>   0.1500 
 23 H        0.8250     5.4330     0.1940 H     1 <1>   0.1500 
 24 H       -1.9750     8.9250    -0.8580 H     1 <1>   0.0800 
 25 H       -2.0250     8.9750     0.8890 H     1 <1>   0.0800 
 26 H       -3.5420     7.0210     0.9040 H     1 <1>   0.0800 
 27 H       -3.4900     6.9690    -0.8480 H     1 <1>   0.0800 
 28 H        5.0250     6.0020     0.2840 H     1 <1>   0.1500 
 29 H        4.7140     9.7550     0.1720 H     1 <1>   0.0800 
 30 H        2.2960     3.5810     0.7360 H     1 <1>   0.0800 
 31 H        4.0150     3.8270     0.8780 H     1 <1>   0.0800 
 32 H        3.2830     3.6890    -0.7040 H     1 <1>   0.0800 
 33 H       -4.4720     9.2380    -0.9420 H     1 <1>   0.0800 
 34 H       -4.5290     9.2890     0.8060 H     1 <1>   0.0800 
 35 H        6.3760     7.5250    -1.0170 H     1 <1>   0.0800 
 36 H        6.7480     9.2320    -1.0550 H     1 <1>   0.0800 
 37 H        5.3580     8.6200    -1.9180 H     1 <1>   0.0800 
 38 H        6.3150     7.5970     1.5600 H     1 <1>   0.0800 
 39 H        5.2560     8.7380     2.3490 H     1 <1>   0.0800 
 40 H        6.6860     9.3030     1.5220 H     1 <1>   0.0800 
 41 H       -5.9520     7.3280     0.7590 H     1 <1>   0.4500 
 42 H       -5.9250     7.3030    -0.8880 H     1 <1>   0.4500 
 43 H       -6.9490     9.5880     0.6410 H     1 <1>   0.0800 
 44 H       -8.4090     7.1840    -0.5140 H     1 <1>   0.0800 
 45 H       -9.1540     8.5870     0.1960 H     1 <1>   0.0800 
 46 H       -8.1980     7.5380     1.1950 H     1 <1>   0.0800 
 47 H       -7.2500     8.6900    -2.2570 H     1 <1>   0.0800 
 48 H       -6.3340    10.0840    -1.7030 H     1 <1>   0.0800 
 49 H       -8.0560    10.0500    -1.5320 H     1 <1>   0.0800 
@<TRIPOS>BOND
  1   1   2  1   
  2   1   3  1   
  3   2   4  ar  
  4   2   5  ar  
  5   3   6  1   
  6   3  20  1   
  7   3  21  1   
  8   4   7  ar  
  9   4  22  1   
 10   5   8  ar  
 11   5  23  1   
 12   6   9  1   
 13   6  24  1   
 14   6  25  1   
 15   7  10  ar  
 16   7  11  1   
 17   8  10  ar  
 18   8  12  1   
 19   9  13  1   
 20   9  26  1   
 21   9  27  1   
 22  10  28  1   
 23  11  14  1   
 24  11  15  1   
 25  11  29  1   
 26  12  30  1   
 27  12  31  1   
 28  12  32  1   
 29  13  16  1   
 30  13  33  1   
 31  13  34  1   
 32  14  35  1   
 33  14  36  1   
 34  14  37  1   
 35  15  38  1   
 36  15  39  1   
 37  15  40  1   
 38  16  17  1   
 39  16  41  1   
 40  16  42  1   
 41  17  18  1   
 42  17  19  1   
 43  17  43  1   
 44  18  44  1   
 45  18  45  1   
 46  18  46  1   
 47  19  47  1   
 48  19  48  1   
 49  19  49  1   
@<TRIPOS>SUBSTRUCTURE
  1 ****   1 GROUP 4 **** **** 0

# MOE 2024.06 (io_trps.svl 2023.06)
