@<TRIPOS>MOLECULE
NONAME
39 41 1 0 0 
SMALL
USER_CHARGES


@<TRIPOS>ATOM
  1 O        0.5360    -0.3860    -0.7570 O.2   1 <1>  -0.5700 
  2 C        1.2390    -1.2960    -0.3990 C.2   1 <1>   0.4230 
  3 C        0.7660    -2.6590    -0.2690 C.ar  1 <1>   0.0860 
  4 C        2.6860    -0.9460    -0.0810 C.3   1 <1>  -0.0990 
  5 C        1.5990    -3.7150     0.1360 C.ar  1 <1>  -0.1500 
  6 C       -0.5770    -2.9670    -0.5530 C.ar  1 <1>  -0.1500 
  7 C        2.9180     0.5590    -0.2600 C.3   1 <1>   0.3430 
  8 C        1.0780    -4.9860     0.2360 C.ar  1 <1>   0.0830 
  9 C       -1.0860    -4.2530    -0.4470 C.ar  1 <1>  -0.1500 
 10 N        4.3070     0.9640     0.1130 N.4   1 <1>  -0.9590 
 11 O        1.7090    -6.1070     0.6000 O.3   1 <1>  -0.3620 
 12 C       -0.2280    -5.2550    -0.0460 C.ar  1 <1>   0.0830 
 13 C        4.3700     2.4490     0.2590 C.3   1 <1>   0.3430 
 14 C        5.3270     0.4770    -0.8650 C.3   1 <1>   0.3430 
 15 C        0.7420    -7.1570     0.5460 C.3   1 <1>   0.4000 
 16 O       -0.4790    -6.5510     0.1270 O.3   1 <1>  -0.3630 
 17 C        5.7500     2.8590     0.7780 C.3   1 <1>  -0.1600 
 18 C        6.7290     0.8410    -0.3730 C.3   1 <1>  -0.1600 
 19 C        6.8730     2.3490    -0.1340 C.3   1 <1>  -0.1600 
 20 H        3.3200    -1.5010    -0.7460 H     1 <1>   0.0800 
 21 H        2.8900    -1.2220     0.9370 H     1 <1>   0.0800 
 22 H        2.6360    -3.5770     0.3730 H     1 <1>   0.1500 
 23 H       -1.2380    -2.1750    -0.8660 H     1 <1>   0.1500 
 24 H        2.2090     1.0830     0.3630 H     1 <1>   0.0800 
 25 H        2.7120     0.8340    -1.2830 H     1 <1>   0.0800 
 26 H       -2.1150    -4.4760    -0.6670 H     1 <1>   0.1500 
 27 H        4.5360     0.5670     1.0330 H     1 <1>   0.4500 
 28 H        3.6130     2.7870     0.9490 H     1 <1>   0.0800 
 29 H        4.1910     2.9180    -0.6960 H     1 <1>   0.0800 
 30 H        5.1540     0.9310    -1.8280 H     1 <1>   0.0800 
 31 H        5.2580    -0.5930    -0.9780 H     1 <1>   0.0800 
 32 H        0.6160    -7.5840     1.5250 H     1 <1>   0.0800 
 33 H        1.0470    -7.8940    -0.1750 H     1 <1>   0.0800 
 34 H        5.8850     2.4790     1.7760 H     1 <1>   0.0800 
 35 H        5.7990     3.9330     0.8350 H     1 <1>   0.0800 
 36 H        7.4510     0.5280    -1.1080 H     1 <1>   0.0800 
 37 H        6.9410     0.3030     0.5340 H     1 <1>   0.0800 
 38 H        7.8320     2.5600     0.3120 H     1 <1>   0.0800 
 39 H        6.8320     2.8680    -1.0780 H     1 <1>   0.0800 
@<TRIPOS>BOND
  1   1   2  2   
  2   2   3  1   
  3   2   4  1   
  4   3   5  ar  
  5   3   6  ar  
  6   4   7  1   
  7   4  20  1   
  8   4  21  1   
  9   5   8  ar  
 10   5  22  1   
 11   6   9  ar  
 12   6  23  1   
 13   7  10  1   
 14   7  24  1   
 15   7  25  1   
 16   8  11  1   
 17   8  12  ar  
 18   9  12  ar  
 19   9  26  1   
 20  10  13  1   
 21  10  14  1   
 22  10  27  1   
 23  11  15  1   
 24  12  16  1   
 25  13  17  1   
 26  13  28  1   
 27  13  29  1   
 28  14  18  1   
 29  14  30  1   
 30  14  31  1   
 31  15  16  1   
 32  15  32  1   
 33  15  33  1   
 34  17  19  1   
 35  17  34  1   
 36  17  35  1   
 37  18  19  1   
 38  18  36  1   
 39  18  37  1   
 40  19  38  1   
 41  19  39  1   
@<TRIPOS>SUBSTRUCTURE
  1 ****   4 GROUP 4 **** **** 0

# MOE 2024.06 (io_trps.svl 2023.06)
