@<TRIPOS>MOLECULE
NONAME
42 45 1 0 0 
SMALL
USER_CHARGES


@<TRIPOS>ATOM
  1 N       -3.9980    -4.3770    -0.0560 N.4   1 <1>  -0.9590 
  2 C       -3.8880    -3.0320     0.5590 C.3   1 <1>   0.6030 
  3 C       -5.1770    -5.1010     0.5450 C.3   1 <1>   0.3430 
  4 C       -2.7390    -5.1650     0.0270 C.3   1 <1>   0.3430 
  5 C       -5.1860    -2.3400     0.2460 C.2   1 <1>  -0.3320 
  6 C       -2.7300    -2.1940    -0.0220 C.3   1 <1>  -0.1600 
  7 C       -6.5290    -4.4260     0.2510 C.3   1 <1>   0.0960 
  8 C       -2.8080    -6.3510    -0.9280 C.3   1 <1>  -0.2400 
  9 N       -6.4020    -2.9580     0.2490 N.pl3 1 <1>   0.0480 
 10 C       -5.3210    -1.0460    -0.1000 C.2   1 <1>  -0.1810 
 11 C       -2.8730    -0.6930     0.3240 C.3   1 <1>  -0.1600 
 12 C       -7.3520    -2.0190    -0.1070 C.ar  1 <1>  -0.1520 
 13 C       -6.6900    -0.8090    -0.3300 C.ar  1 <1>   0.0000 
 14 C       -4.1670    -0.0730    -0.2420 C.3   1 <1>   0.0210 
 15 C       -8.7470    -2.0940    -0.2660 C.ar  1 <1>  -0.1430 
 16 C       -7.4000     0.3290    -0.7180 C.ar  1 <1>  -0.1500 
 17 C       -9.4280    -0.9590    -0.6500 C.ar  1 <1>  -0.1500 
 18 C       -9.5280    -3.3740    -0.0170 C.3   1 <1>  -0.0970 
 19 C       -8.7610     0.2490    -0.8770 C.ar  1 <1>  -0.1500 
 20 H       -4.2080    -4.1750    -1.0410 H     1 <1>   0.4500 
 21 H       -3.7780    -3.1150     1.6290 H     1 <1>   0.0800 
 22 H       -5.0490    -5.1540     1.6140 H     1 <1>   0.0800 
 23 H       -5.2190    -6.1130     0.1780 H     1 <1>   0.0800 
 24 H       -2.5760    -5.5080     1.0370 H     1 <1>   0.0800 
 25 H       -1.9000    -4.5520    -0.2600 H     1 <1>   0.0800 
 26 H       -2.7150    -2.2920    -1.0930 H     1 <1>   0.0800 
 27 H       -1.7930    -2.5430     0.3740 H     1 <1>   0.0800 
 28 H       -7.2500    -4.7200     0.9900 H     1 <1>   0.0800 
 29 H       -6.8840    -4.7330    -0.7160 H     1 <1>   0.0800 
 30 H       -3.5520    -7.0650    -0.6250 H     1 <1>   0.0800 
 31 H       -1.8580    -6.8560    -0.9270 H     1 <1>   0.0800 
 32 H       -3.0040    -6.0230    -1.9330 H     1 <1>   0.0800 
 33 H       -2.0270    -0.1440    -0.0530 H     1 <1>   0.0800 
 34 H       -2.8810    -0.5790     1.3950 H     1 <1>   0.0800 
 35 H       -4.3940     0.8440     0.2750 H     1 <1>   0.0800 
 36 H       -4.0390     0.1540    -1.2860 H     1 <1>   0.0800 
 37 H       -6.8720     1.2500    -0.8870 H     1 <1>   0.1500 
 38 H      -10.4950    -0.9770    -0.7830 H     1 <1>   0.1500 
 39 H       -9.2360    -4.1310    -0.7200 H     1 <1>   0.0800 
 40 H      -10.5840    -3.2040    -0.1330 H     1 <1>   0.0800 
 41 H       -9.3590    -3.7200     0.9860 H     1 <1>   0.0800 
 42 H       -9.3270     1.1130    -1.1760 H     1 <1>   0.1500 
@<TRIPOS>BOND
  1   1   2  1   
  2   1   3  1   
  3   1   4  1   
  4   1  20  1   
  5   2   5  1   
  6   2   6  1   
  7   2  21  1   
  8   3   7  1   
  9   3  22  1   
 10   3  23  1   
 11   4   8  1   
 12   4  24  1   
 13   4  25  1   
 14   5   9  1   
 15   5  10  2   
 16   6  11  1   
 17   6  26  1   
 18   6  27  1   
 19   7   9  1   
 20   7  28  1   
 21   7  29  1   
 22   8  30  1   
 23   8  31  1   
 24   8  32  1   
 25   9  12  1   
 26  10  13  1   
 27  10  14  1   
 28  11  14  1   
 29  11  33  1   
 30  11  34  1   
 31  12  13  ar  
 32  12  15  ar  
 33  13  16  ar  
 34  14  35  1   
 35  14  36  1   
 36  15  17  ar  
 37  15  18  1   
 38  16  19  ar  
 39  16  37  1   
 40  17  19  ar  
 41  17  38  1   
 42  18  39  1   
 43  18  40  1   
 44  18  41  1   
 45  19  42  1   
@<TRIPOS>SUBSTRUCTURE
  1 ****   5 GROUP 4 **** **** 0

# MOE 2024.06 (io_trps.svl 2023.06)
