@<TRIPOS>MOLECULE
NONAME
48 51 1 0 0 
SMALL
USER_CHARGES


@<TRIPOS>ATOM
  1 N        0.3620    -1.1510     0.7910 N.4   1 <1>  -0.9590 
  2 C        0.0480     0.2330     0.3310 C.3   1 <1>   0.3430 
  3 C       -0.7390    -1.7730     1.5820 C.3   1 <1>   0.3430 
  4 C        1.6340    -1.1510     1.5890 C.3   1 <1>   0.2630 
  5 C       -1.2350     0.2270    -0.5030 C.3   1 <1>  -0.1600 
  6 C       -2.0320    -1.7920     0.7630 C.3   1 <1>  -0.1600 
  7 C       -2.3980    -0.3860     0.2770 C.3   1 <1>   0.4230 
  8 N       -3.5900    -0.4300    -0.6030 N.4   1 <1>  -0.9060 
  9 C       -4.8810    -0.7860     0.0460 C.3   1 <1>   0.4230 
 10 C       -5.9620    -0.9390    -1.0460 C.3   1 <1>  -0.0800 
 11 C       -5.3200     0.3030     1.0540 C.3   1 <1>  -0.0800 
 12 C       -7.2750    -1.3900    -0.3740 C.3   1 <1>  -0.1600 
 13 C       -6.2170     0.4070    -1.7670 C.3   1 <1>  -0.1600 
 14 C       -6.6360    -0.1510     1.7190 C.3   1 <1>  -0.1600 
 15 C       -5.5720     1.6500     0.3360 C.3   1 <1>  -0.1600 
 16 C       -7.7310    -0.3350     0.6520 C.3   1 <1>  -0.0800 
 17 C       -6.6560     1.4740    -0.7460 C.3   1 <1>  -0.0800 
 18 C       -7.9590     1.0050    -0.0710 C.3   1 <1>  -0.1600 
 19 H        0.5410    -1.7390    -0.0400 H     1 <1>   0.4500 
 20 H        0.8630     0.6170    -0.2630 H     1 <1>   0.0800 
 21 H       -0.0750     0.8810     1.1850 H     1 <1>   0.0800 
 22 H       -0.8930    -1.2130     2.4920 H     1 <1>   0.0800 
 23 H       -0.4700    -2.7820     1.8560 H     1 <1>   0.0800 
 24 H        1.5240    -0.5530     2.4790 H     1 <1>   0.0800 
 25 H        2.4460    -0.7490     1.0040 H     1 <1>   0.0800 
 26 H        1.8940    -2.1560     1.8820 H     1 <1>   0.0800 
 27 H       -1.0540    -0.3180    -1.4130 H     1 <1>   0.0800 
 28 H       -1.4700     1.2450    -0.7630 H     1 <1>   0.0800 
 29 H       -2.8120    -2.1810     1.3920 H     1 <1>   0.0800 
 30 H       -1.9060    -2.4630    -0.0690 H     1 <1>   0.0800 
 31 H       -2.6050     0.2400     1.1310 H     1 <1>   0.0800 
 32 H       -3.4470    -1.0720    -1.3890 H     1 <1>   0.4500 
 33 H       -3.7570     0.4950    -1.0190 H     1 <1>   0.4500 
 34 H       -4.7840    -1.7270     0.5630 H     1 <1>   0.0800 
 35 H       -5.6700    -1.6920    -1.7580 H     1 <1>   0.0800 
 36 H       -4.5870     0.4280     1.8300 H     1 <1>   0.0800 
 37 H       -7.1400    -2.3390     0.1150 H     1 <1>   0.0800 
 38 H       -8.0420    -1.5210    -1.1190 H     1 <1>   0.0800 
 39 H       -6.9970     0.2780    -2.4990 H     1 <1>   0.0800 
 40 H       -5.3460     0.7410    -2.3010 H     1 <1>   0.0800 
 41 H       -6.4900    -1.0760     2.2510 H     1 <1>   0.0800 
 42 H       -6.9580     0.5840     2.4380 H     1 <1>   0.0800 
 43 H       -4.6710     2.0380    -0.1030 H     1 <1>   0.0800 
 44 H       -5.9080     2.3820     1.0530 H     1 <1>   0.0800 
 45 H       -8.6490    -0.6530     1.1200 H     1 <1>   0.0800 
 46 H       -6.8310     2.4120    -1.2470 H     1 <1>   0.0800 
 47 H       -8.2940     1.7470     0.6340 H     1 <1>   0.0800 
 48 H       -8.7340     0.8940    -0.8100 H     1 <1>   0.0800 
@<TRIPOS>BOND
  1   1   2  1   
  2   1   3  1   
  3   1   4  1   
  4   1  19  1   
  5   2   5  1   
  6   2  20  1   
  7   2  21  1   
  8   3   6  1   
  9   3  22  1   
 10   3  23  1   
 11   4  24  1   
 12   4  25  1   
 13   4  26  1   
 14   5   7  1   
 15   5  27  1   
 16   5  28  1   
 17   6   7  1   
 18   6  29  1   
 19   6  30  1   
 20   7   8  1   
 21   7  31  1   
 22   8   9  1   
 23   8  32  1   
 24   8  33  1   
 25   9  10  1   
 26   9  11  1   
 27   9  34  1   
 28  10  12  1   
 29  10  13  1   
 30  10  35  1   
 31  11  14  1   
 32  11  15  1   
 33  11  36  1   
 34  12  16  1   
 35  12  37  1   
 36  12  38  1   
 37  13  17  1   
 38  13  39  1   
 39  13  40  1   
 40  14  16  1   
 41  14  41  1   
 42  14  42  1   
 43  15  17  1   
 44  15  43  1   
 45  15  44  1   
 46  16  18  1   
 47  16  45  1   
 48  17  18  1   
 49  17  46  1   
 50  18  47  1   
 51  18  48  1   
@<TRIPOS>SUBSTRUCTURE
  1 ****   8 GROUP 4 **** **** 0

# MOE 2024.06 (io_trps.svl 2023.06)
