@<TRIPOS>MOLECULE
NONAME
41 42 1 0 0 
SMALL
USER_CHARGES


@<TRIPOS>ATOM
  1 O       -0.5900    -4.0940     0.8370 O.2   1 <1>  -0.5700 
  2 C        0.0790    -3.1030     0.6700 C.2   1 <1>   0.5690 
  3 N       -0.4930    -1.8750     0.5680 N.am  1 <1>  -0.7300 
  4 C        1.5900    -3.2350     0.5650 C.3   1 <1>   0.0440 
  5 C       -1.9300    -1.6110     0.6650 C.3   1 <1>   0.2200 
  6 C        2.2710    -1.8970     0.2860 C.ar  1 <1>  -0.1440 
  7 C       -2.5080    -1.4850    -0.7410 C.3   1 <1>  -0.1600 
  8 C       -2.1580    -0.3330     1.4670 C.3   1 <1>  -0.1600 
  9 C        2.4660    -1.4690    -1.0180 C.ar  1 <1>  -0.1500 
 10 C        2.6790    -1.0870     1.3340 C.ar  1 <1>  -0.1500 
 11 C       -3.9900    -1.1290    -0.6740 C.3   1 <1>   0.3430 
 12 C       -3.6450     0.0100     1.5020 C.3   1 <1>   0.3430 
 13 C        3.0560    -0.2430    -1.2700 C.ar  1 <1>  -0.1500 
 14 C        3.2690     0.1390     1.0810 C.ar  1 <1>  -0.1500 
 15 N       -4.1740     0.1300     0.1100 N.4   1 <1>  -0.9590 
 16 C        3.4610     0.5670    -0.2220 C.ar  1 <1>  -0.1440 
 17 C       -5.6110     0.5400     0.1220 C.3   1 <1>   0.2630 
 18 C        4.1130     1.9110    -0.4960 C.3   1 <1>  -0.0970 
 19 H        0.1340    -1.0810     0.3940 H     1 <1>   0.3700 
 20 H        1.8170    -3.9320    -0.2210 H     1 <1>   0.0800 
 21 H        1.9600    -3.6510     1.4830 H     1 <1>   0.0800 
 22 H       -2.4060    -2.4380     1.1710 H     1 <1>   0.0800 
 23 H       -2.3990    -2.4260    -1.2500 H     1 <1>   0.0800 
 24 H       -1.9800    -0.7350    -1.3020 H     1 <1>   0.0800 
 25 H       -1.6090     0.4870     1.0390 H     1 <1>   0.0800 
 26 H       -1.8110    -0.4820     2.4750 H     1 <1>   0.0800 
 27 H        2.1600    -2.0860    -1.8450 H     1 <1>   0.1500 
 28 H        2.5400    -1.4040     2.3530 H     1 <1>   0.1500 
 29 H       -4.5300    -1.9360    -0.2030 H     1 <1>   0.0800 
 30 H       -4.3740    -1.0040    -1.6740 H     1 <1>   0.0800 
 31 H       -3.7870     0.9380     2.0340 H     1 <1>   0.0800 
 32 H       -4.1790    -0.7650     2.0290 H     1 <1>   0.0800 
 33 H        3.2020     0.0760    -2.2870 H     1 <1>   0.1500 
 34 H        3.5820     0.7570     1.9030 H     1 <1>   0.1500 
 35 H       -3.6310     0.8680    -0.3640 H     1 <1>   0.4500 
 36 H       -6.2110    -0.2120     0.6100 H     1 <1>   0.0800 
 37 H       -5.9730     0.6680    -0.8860 H     1 <1>   0.0800 
 38 H       -5.7310     1.4720     0.6490 H     1 <1>   0.0800 
 39 H        3.3710     2.6880    -0.4740 H     1 <1>   0.0800 
 40 H        4.5870     1.9110    -1.4610 H     1 <1>   0.0800 
 41 H        4.8610     2.1220     0.2470 H     1 <1>   0.0800 
@<TRIPOS>BOND
  1   1   2  2   
  2   2   3  am  
  3   2   4  1   
  4   3   5  1   
  5   3  19  1   
  6   4   6  1   
  7   4  20  1   
  8   4  21  1   
  9   5   7  1   
 10   5   8  1   
 11   5  22  1   
 12   6   9  ar  
 13   6  10  ar  
 14   7  11  1   
 15   7  23  1   
 16   7  24  1   
 17   8  12  1   
 18   8  25  1   
 19   8  26  1   
 20   9  13  ar  
 21   9  27  1   
 22  10  14  ar  
 23  10  28  1   
 24  11  15  1   
 25  11  29  1   
 26  11  30  1   
 27  12  15  1   
 28  12  31  1   
 29  12  32  1   
 30  13  16  ar  
 31  13  33  1   
 32  14  16  ar  
 33  14  34  1   
 34  15  17  1   
 35  15  35  1   
 36  16  18  1   
 37  17  36  1   
 38  17  37  1   
 39  17  38  1   
 40  18  39  1   
 41  18  40  1   
 42  18  41  1   
@<TRIPOS>SUBSTRUCTURE
  1 ****   3 GROUP 4 **** **** 0

# MOE 2024.06 (io_trps.svl 2023.06)
