@<TRIPOS>MOLECULE
NONAME
46 47 1 0 0 
SMALL
USER_CHARGES


@<TRIPOS>ATOM
  1 O       -1.4560     1.7680    -1.0450 O.2   1 <1>  -0.5700 
  2 C       -0.5210     1.8820    -0.2760 C.2   1 <1>   0.5440 
  3 N       -0.7330     1.5220     1.0280 N.am  1 <1>  -0.7300 
  4 C        0.7640     2.3980    -0.7190 C.ar  1 <1>   0.0860 
  5 C       -1.9470     0.8370     1.5470 C.3   1 <1>   0.1400 
  6 C        1.9490     2.1110    -0.0410 C.ar  1 <1>  -0.1500 
  7 C        0.8590     3.2080    -1.8520 C.ar  1 <1>  -0.1500 
  8 C       -3.2090     1.7130     1.3800 C.3   1 <1>   0.3430 
  9 C        3.1700     2.6140    -0.4540 C.ar  1 <1>   0.0830 
 10 C        2.0720     3.7160    -2.2790 C.ar  1 <1>  -0.1500 
 11 N       -4.3600     0.9810     0.7490 N.4   1 <1>  -0.9590 
 12 O        4.2450     2.2670     0.2970 O.3   1 <1>  -0.3620 
 13 C        3.2300     3.4250    -1.5830 C.ar  1 <1>  -0.1500 
 14 C       -4.0990     0.7380    -0.7180 C.3   1 <1>   0.3430 
 15 C       -5.6400     1.7530     0.9040 C.3   1 <1>   0.3430 
 16 C        5.5710     2.6090    -0.0390 C.3   1 <1>   0.2000 
 17 C       -5.3200     0.1140    -1.4190 C.3   1 <1>   0.1200 
 18 C       -6.8010     1.0720     0.1530 C.3   1 <1>   0.1200 
 19 C        6.0700     1.6540    -1.1260 C.3   1 <1>  -0.2400 
 20 C        6.4040     2.4720     1.2340 C.3   1 <1>  -0.2400 
 21 O       -6.4670     0.8840    -1.1910 O.3   1 <1>  -0.5600 
 22 H        0.0470     1.6220     1.6850 H     1 <1>   0.3700 
 23 H       -1.8020     0.6180     2.5910 H     1 <1>   0.0800 
 24 H       -2.0600    -0.0940     1.0190 H     1 <1>   0.0800 
 25 H        1.9420     1.4770     0.8250 H     1 <1>   0.1500 
 26 H       -0.0340     3.4420    -2.4070 H     1 <1>   0.1500 
 27 H       -2.9580     2.5660     0.7710 H     1 <1>   0.0800 
 28 H       -3.5010     2.0740     2.3520 H     1 <1>   0.0800 
 29 H        2.1150     4.3390    -3.1560 H     1 <1>   0.1500 
 30 H       -4.4810     0.0680     1.2030 H     1 <1>   0.4500 
 31 H        4.1590     3.8330    -1.9350 H     1 <1>   0.1500 
 32 H       -3.2440     0.0940    -0.8440 H     1 <1>   0.0800 
 33 H       -3.8680     1.6720    -1.2050 H     1 <1>   0.0800 
 34 H       -5.5170     2.7460     0.5050 H     1 <1>   0.0800 
 35 H       -5.8950     1.8420     1.9470 H     1 <1>   0.0800 
 36 H        5.5980     3.6330    -0.3670 H     1 <1>   0.0800 
 37 H       -5.5000    -0.8880    -1.0680 H     1 <1>   0.0800 
 38 H       -5.1560     0.0800    -2.4820 H     1 <1>   0.0800 
 39 H       -7.6790     1.6940     0.1860 H     1 <1>   0.0800 
 40 H       -7.0420     0.1170     0.5880 H     1 <1>   0.0800 
 41 H        6.0210     0.6370    -0.7790 H     1 <1>   0.0800 
 42 H        7.0900     1.8820    -1.3740 H     1 <1>   0.0800 
 43 H        5.4790     1.7500    -2.0180 H     1 <1>   0.0800 
 44 H        6.3650     1.4620     1.6010 H     1 <1>   0.0800 
 45 H        6.0290     3.1400     1.9880 H     1 <1>   0.0800 
 46 H        7.4280     2.7270     1.0330 H     1 <1>   0.0800 
@<TRIPOS>BOND
  1   1   2  2   
  2   2   3  am  
  3   2   4  1   
  4   3   5  1   
  5   3  22  1   
  6   4   6  ar  
  7   4   7  ar  
  8   5   8  1   
  9   5  23  1   
 10   5  24  1   
 11   6   9  ar  
 12   6  25  1   
 13   7  10  ar  
 14   7  26  1   
 15   8  11  1   
 16   8  27  1   
 17   8  28  1   
 18   9  12  1   
 19   9  13  ar  
 20  10  13  ar  
 21  10  29  1   
 22  11  14  1   
 23  11  15  1   
 24  11  30  1   
 25  12  16  1   
 26  13  31  1   
 27  14  17  1   
 28  14  32  1   
 29  14  33  1   
 30  15  18  1   
 31  15  34  1   
 32  15  35  1   
 33  16  19  1   
 34  16  20  1   
 35  16  36  1   
 36  17  21  1   
 37  17  37  1   
 38  17  38  1   
 39  18  21  1   
 40  18  39  1   
 41  18  40  1   
 42  19  41  1   
 43  19  42  1   
 44  19  43  1   
 45  20  44  1   
 46  20  45  1   
 47  20  46  1   
@<TRIPOS>SUBSTRUCTURE
  1 ****   2 GROUP 4 **** **** 0

# MOE 2024.06 (io_trps.svl 2023.06)
