@<TRIPOS>MOLECULE
NONAME
51 52 1 0 0 
SMALL
USER_CHARGES


@<TRIPOS>ATOM
  1 CL      -0.5800    -0.2580     0.9780 Cl    1 <1>  -0.1770 
  2 C       -2.0320     0.5210     0.3830 C.ar  1 <1>   0.1770 
  3 C       -2.6320     0.0880    -0.7930 C.ar  1 <1>   0.0820 
  4 C       -2.5530     1.5680     1.1180 C.ar  1 <1>  -0.1500 
  5 O       -2.0630    -0.9540    -1.4620 O.3   1 <1>  -0.3630 
  6 C       -3.7830     0.7360    -1.2310 C.ar  1 <1>  -0.1500 
  7 C       -3.7060     2.2070     0.6760 C.ar  1 <1>   0.0830 
  8 C       -2.6470    -1.4800    -2.6340 C.3   1 <1>   0.0400 
  9 C       -4.3310     1.7890    -0.5050 C.ar  1 <1>   0.1170 
 10 O       -4.2820     3.2500     1.3530 O.3   1 <1>  -0.3630 
 11 N       -5.4960     2.4720    -0.9000 N.am  1 <1>  -0.5470 
 12 C       -3.6260     3.8410     2.4570 C.3   1 <1>   0.0400 
 13 C       -6.4680     2.2070    -1.8270 C.2   1 <1>   0.5690 
 14 O       -6.4140     1.2880    -2.6090 O.2   1 <1>  -0.5700 
 15 C       -7.7000     3.1210    -1.8490 C.3   1 <1>   0.1710 
 16 N       -8.8520     2.6310    -1.0330 N.3   1 <1>  -0.8100 
 17 C       -8.5360     2.4190     0.4020 C.3   1 <1>   0.1100 
 18 C      -10.0640     3.4640    -1.2000 C.3   1 <1>   0.1100 
 19 C       -9.7550     1.8950     1.2010 C.3   1 <1>   0.3430 
 20 C      -11.2890     2.8560    -0.4700 C.3   1 <1>   0.3430 
 21 N      -10.9150     1.6160     0.2930 N.4   1 <1>  -0.9590 
 22 C      -12.0420     0.9410     0.9850 C.3   1 <1>   0.3430 
 23 C      -13.0210     0.3530    -0.0340 C.3   1 <1>  -0.1600 
 24 C      -14.1220    -0.4520     0.6660 C.3   1 <1>  -0.2400 
 25 H       -2.0440     1.8530     2.0180 H     1 <1>   0.1500 
 26 H       -4.2580     0.4290    -2.1400 H     1 <1>   0.1500 
 27 H       -2.0460    -2.3070    -2.9640 H     1 <1>   0.0800 
 28 H       -2.6620    -0.7150    -3.3910 H     1 <1>   0.0800 
 29 H       -3.6430    -1.8190    -2.4090 H     1 <1>   0.0800 
 30 H       -5.6530     3.2890    -0.3080 H     1 <1>   0.3700 
 31 H       -4.2150     4.6760     2.7910 H     1 <1>   0.0800 
 32 H       -2.6540     4.1820     2.1460 H     1 <1>   0.0800 
 33 H       -3.5440     3.1150     3.2470 H     1 <1>   0.0800 
 34 H       -8.0130     3.2010    -2.8760 H     1 <1>   0.0800 
 35 H       -7.4130     4.1030    -1.5200 H     1 <1>   0.0800 
 36 H       -8.1880     3.3370     0.8450 H     1 <1>   0.0800 
 37 H       -7.7440     1.6940     0.4910 H     1 <1>   0.0800 
 38 H      -10.2980     3.5520    -2.2480 H     1 <1>   0.0800 
 39 H       -9.8820     4.4570    -0.8240 H     1 <1>   0.0800 
 40 H      -10.0360     2.6270     1.9400 H     1 <1>   0.0800 
 41 H       -9.4690     0.9960     1.7220 H     1 <1>   0.0800 
 42 H      -12.0420     2.6200    -1.2040 H     1 <1>   0.0800 
 43 H      -11.7050     3.5910     0.1990 H     1 <1>   0.0800 
 44 H      -10.5160     0.9900    -0.4270 H     1 <1>   0.4500 
 45 H      -12.5550     1.6380     1.6280 H     1 <1>   0.0800 
 46 H      -11.6600     0.1390     1.5960 H     1 <1>   0.0800 
 47 H      -12.4950    -0.3010    -0.7080 H     1 <1>   0.0800 
 48 H      -13.4870     1.1380    -0.6030 H     1 <1>   0.0800 
 49 H      -13.7020    -1.2700     1.2250 H     1 <1>   0.0800 
 50 H      -14.8000    -0.8600    -0.0650 H     1 <1>   0.0800 
 51 H      -14.6880     0.1720     1.3360 H     1 <1>   0.0800 
@<TRIPOS>BOND
  1   1   2  1   
  2   2   3  ar  
  3   2   4  ar  
  4   3   5  1   
  5   3   6  ar  
  6   4   7  ar  
  7   4  25  1   
  8   5   8  1   
  9   6   9  ar  
 10   6  26  1   
 11   7   9  ar  
 12   7  10  1   
 13   8  27  1   
 14   8  28  1   
 15   8  29  1   
 16   9  11  1   
 17  10  12  1   
 18  11  13  am  
 19  11  30  1   
 20  12  31  1   
 21  12  32  1   
 22  12  33  1   
 23  13  14  2   
 24  13  15  1   
 25  15  16  1   
 26  15  34  1   
 27  15  35  1   
 28  16  17  1   
 29  16  18  1   
 30  17  19  1   
 31  17  36  1   
 32  17  37  1   
 33  18  20  1   
 34  18  38  1   
 35  18  39  1   
 36  19  21  1   
 37  19  40  1   
 38  19  41  1   
 39  20  21  1   
 40  20  42  1   
 41  20  43  1   
 42  21  22  1   
 43  21  44  1   
 44  22  23  1   
 45  22  45  1   
 46  22  46  1   
 47  23  24  1   
 48  23  47  1   
 49  23  48  1   
 50  24  49  1   
 51  24  50  1   
 52  24  51  1   
@<TRIPOS>SUBSTRUCTURE
  1 ****  11 GROUP 4 **** **** 0

# MOE 2024.06 (io_trps.svl 2023.06)
