@<TRIPOS>MOLECULE
NONAME
34 35 1 0 0 
SMALL
USER_CHARGES


@<TRIPOS>ATOM
  1 BR      -0.5180     0.0010     0.3810 Br    1 <1>  -0.1110 
  2 C       -2.2440     0.8300     0.1690 C.ar  1 <1>   0.1110 
  3 C       -3.2030     0.6320     1.1430 C.ar  1 <1>  -0.1500 
  4 C       -2.4810     1.6030    -0.9510 C.ar  1 <1>  -0.1500 
  5 C       -4.4410     1.2300     0.9810 C.ar  1 <1>  -0.1500 
  6 C       -3.7230     2.1950    -1.0970 C.ar  1 <1>  -0.1500 
  7 C       -4.7190     2.0150    -0.1360 C.ar  1 <1>   0.1170 
  8 N       -5.9970     2.5870    -0.2270 N.am  1 <1>  -0.5470 
  9 C       -6.6670     3.2120    -1.2470 C.2   1 <1>   0.5690 
 10 O       -6.1880     3.4120    -2.3360 O.2   1 <1>  -0.5700 
 11 C       -8.0910     3.6950    -0.9860 C.3   1 <1>   0.2010 
 12 N       -9.0170     2.5990    -0.5850 N.am  1 <1>  -0.4200 
 13 C      -10.0190     2.1100    -1.3710 C.2   1 <1>   0.6900 
 14 C       -8.9760     1.8980     0.5820 C.2   1 <1>   0.5690 
 15 O      -10.2870     2.5050    -2.4810 O.2   1 <1>  -0.5700 
 16 N      -10.6800     1.1110    -0.7550 N.am  1 <1>  -0.7300 
 17 O       -8.1820     2.0820     1.4770 O.2   1 <1>  -0.5700 
 18 C      -10.0820     0.8230     0.5520 C.3   1 <1>   0.3610 
 19 C      -11.1450     1.0170     1.6350 C.3   1 <1>  -0.2400 
 20 C       -9.5310    -0.6040     0.5390 C.3   1 <1>  -0.2400 
 21 H       -2.9850     0.0250     2.0030 H     1 <1>   0.1500 
 22 H       -1.7120     1.7380    -1.6910 H     1 <1>   0.1500 
 23 H       -5.1980     1.0860     1.7310 H     1 <1>   0.1500 
 24 H       -3.9090     2.8000    -1.9650 H     1 <1>   0.1500 
 25 H       -6.5680     2.4500     0.6180 H     1 <1>   0.3700 
 26 H       -8.4620     4.1650    -1.8800 H     1 <1>   0.0800 
 27 H       -8.0680     4.4350    -0.2080 H     1 <1>   0.0800 
 28 H      -11.3530     0.5090    -1.2290 H     1 <1>   0.3700 
 29 H      -11.5460     2.0140     1.5930 H     1 <1>   0.0800 
 30 H      -10.7050     0.8720     2.6060 H     1 <1>   0.0800 
 31 H      -11.9440     0.3080     1.5130 H     1 <1>   0.0800 
 32 H       -8.8180    -0.7250    -0.2570 H     1 <1>   0.0800 
 33 H      -10.3260    -1.3170     0.4150 H     1 <1>   0.0800 
 34 H       -9.0330    -0.8090     1.4700 H     1 <1>   0.0800 
@<TRIPOS>BOND
  1   1   2  1   
  2   2   3  ar  
  3   2   4  ar  
  4   3   5  ar  
  5   3  21  1   
  6   4   6  ar  
  7   4  22  1   
  8   5   7  ar  
  9   5  23  1   
 10   6   7  ar  
 11   6  24  1   
 12   7   8  1   
 13   8   9  am  
 14   8  25  1   
 15   9  10  2   
 16   9  11  1   
 17  11  12  1   
 18  11  26  1   
 19  11  27  1   
 20  12  13  am  
 21  12  14  am  
 22  13  15  2   
 23  13  16  am  
 24  14  17  2   
 25  14  18  1   
 26  16  18  1   
 27  16  28  1   
 28  18  19  1   
 29  18  20  1   
 30  19  29  1   
 31  19  30  1   
 32  19  31  1   
 33  20  32  1   
 34  20  33  1   
 35  20  34  1   
@<TRIPOS>SUBSTRUCTURE
  1 ****   8 GROUP 4 **** **** 0

# MOE 2024.06 (io_trps.svl 2023.06)
