@<TRIPOS>MOLECULE
NONAME
50 51 1 0 0 
SMALL
USER_CHARGES


@<TRIPOS>ATOM
  1 CL       1.5880     2.1320    -0.2160 Cl    1 <1>  -0.1770 
  2 C        0.0540     2.7400     0.3540 C.ar  1 <1>   0.1770 
  3 C       -1.0370     2.7180    -0.4940 C.ar  1 <1>  -0.1500 
  4 C       -0.0410     3.2280     1.6440 C.ar  1 <1>  -0.1500 
  5 C       -2.2610     3.2000    -0.0560 C.ar  1 <1>   0.1170 
  6 C       -1.2600     3.7050     2.0950 C.ar  1 <1>  -0.1500 
  7 N       -3.3580     3.1680    -0.9290 N.am  1 <1>  -0.5470 
  8 C       -2.3640     3.6950     1.2520 C.ar  1 <1>   0.0830 
  9 C       -4.0750     4.2320    -1.3970 C.2   1 <1>   0.5690 
 10 O       -3.5600     4.1430     1.7140 O.3   1 <1>  -0.3630 
 11 O       -3.7030     5.3740    -1.2610 O.2   1 <1>  -0.5700 
 12 C       -5.3940     3.9740    -2.1330 C.3   1 <1>   0.2570 
 13 C       -3.6300     5.5140     2.0380 C.3   1 <1>   0.0400 
 14 N       -6.5120     3.5190    -1.2460 N.am  1 <1>  -0.6930 
 15 S       -6.5280     1.8610    -0.7460 S.o2  1 <1>   1.3330 
 16 C       -7.4420     4.4500    -0.7870 C.ar  1 <1>   0.1990 
 17 O       -7.8220     1.3060    -1.0510 O.2   1 <1>  -0.6500 
 18 O       -5.3310     1.2590    -1.2910 O.2   1 <1>  -0.6500 
 19 C       -6.3340     2.0000     1.0170 C.3   1 <1>  -0.1350 
 20 C       -8.8070     4.2490    -0.9550 C.ar  1 <1>  -0.1500 
 21 C       -7.0250     5.6100    -0.1430 C.ar  1 <1>  -0.1500 
 22 C       -9.7250     5.1720    -0.4860 C.ar  1 <1>  -0.1500 
 23 C       -7.9410     6.5350     0.3240 C.ar  1 <1>  -0.1500 
 24 C       -9.3020     6.3250     0.1590 C.ar  1 <1>  -0.1430 
 25 C      -10.3020     7.3560     0.6800 C.3   1 <1>   0.0630 
 26 C      -11.2160     6.7420     1.7450 C.3   1 <1>  -0.2400 
 27 C      -11.1250     7.9480    -0.4680 C.3   1 <1>  -0.2400 
 28 H       -0.9300     2.3340    -1.4910 H     1 <1>   0.1500 
 29 H        0.8250     3.2300     2.2810 H     1 <1>   0.1500 
 30 H       -1.3550     4.0760     3.0990 H     1 <1>   0.1500 
 31 H       -3.7550     2.2370    -1.1250 H     1 <1>   0.3700 
 32 H       -5.2290     3.2410    -2.9020 H     1 <1>   0.0800 
 33 H       -5.6880     4.8870    -2.6200 H     1 <1>   0.0800 
 34 H       -4.6570     5.7590     2.2410 H     1 <1>   0.0800 
 35 H       -3.2740     6.0890     1.2010 H     1 <1>   0.0800 
 36 H       -3.0290     5.7050     2.9080 H     1 <1>   0.0800 
 37 H       -7.1490     2.5550     1.4370 H     1 <1>   0.0800 
 38 H       -5.4180     2.5020     1.2520 H     1 <1>   0.0800 
 39 H       -6.3150     1.0250     1.4640 H     1 <1>   0.0800 
 40 H       -9.1570     3.3680    -1.4610 H     1 <1>   0.1500 
 41 H       -5.9760     5.7920    -0.0010 H     1 <1>   0.1500 
 42 H      -10.7740     4.9860    -0.6300 H     1 <1>   0.1500 
 43 H       -7.5850     7.4220     0.8170 H     1 <1>   0.1500 
 44 H       -9.7580     8.1630     1.1420 H     1 <1>   0.0800 
 45 H      -11.8210     5.9590     1.3260 H     1 <1>   0.0800 
 46 H      -11.8650     7.4940     2.1570 H     1 <1>   0.0800 
 47 H      -10.6230     6.3280     2.5410 H     1 <1>   0.0800 
 48 H      -11.7300     7.1920    -0.9360 H     1 <1>   0.0800 
 49 H      -10.4680     8.3670    -1.2100 H     1 <1>   0.0800 
 50 H      -11.7700     8.7270    -0.1030 H     1 <1>   0.0800 
@<TRIPOS>BOND
  1   1   2  1   
  2   2   3  ar  
  3   2   4  ar  
  4   3   5  ar  
  5   3  28  1   
  6   4   6  ar  
  7   4  29  1   
  8   5   7  1   
  9   5   8  ar  
 10   6   8  ar  
 11   6  30  1   
 12   7   9  am  
 13   7  31  1   
 14   8  10  1   
 15   9  11  2   
 16   9  12  1   
 17  10  13  1   
 18  12  14  1   
 19  12  32  1   
 20  12  33  1   
 21  13  34  1   
 22  13  35  1   
 23  13  36  1   
 24  14  15  am  
 25  14  16  1   
 26  15  17  2   
 27  15  18  2   
 28  15  19  1   
 29  16  20  ar  
 30  16  21  ar  
 31  19  37  1   
 32  19  38  1   
 33  19  39  1   
 34  20  22  ar  
 35  20  40  1   
 36  21  23  ar  
 37  21  41  1   
 38  22  24  ar  
 39  22  42  1   
 40  23  24  ar  
 41  23  43  1   
 42  24  25  1   
 43  25  26  1   
 44  25  27  1   
 45  25  44  1   
 46  26  45  1   
 47  26  46  1   
 48  26  47  1   
 49  27  48  1   
 50  27  49  1   
 51  27  50  1   
@<TRIPOS>SUBSTRUCTURE
  1 ****  14 GROUP 4 **** **** 0

# MOE 2024.06 (io_trps.svl 2023.06)
