@<TRIPOS>MOLECULE
NONAME
48 49 1 0 0 
SMALL
USER_CHARGES


@<TRIPOS>ATOM
  1 O        0.7200     1.1110    -0.5200 O.2   1 <1>  -0.5700 
  2 C        0.3280     1.9300     0.2880 C.2   1 <1>   0.5440 
  3 N        1.1880     2.3370     1.2710 N.am  1 <1>  -0.7300 
  4 C       -1.0220     2.4540     0.2180 C.ar  1 <1>   0.0860 
  5 C        2.5620     1.8050     1.4690 C.3   1 <1>   0.1400 
  6 C       -1.3250     3.7550     0.6200 C.ar  1 <1>  -0.1500 
  7 C       -2.0640     1.6610    -0.2620 C.ar  1 <1>  -0.1500 
  8 C        3.5000     2.3060     0.3710 C.3   1 <1>   0.1200 
  9 C       -2.6240     4.2490     0.5670 C.ar  1 <1>   0.0830 
 10 C       -3.3700     2.1290    -0.3240 C.ar  1 <1>   0.0830 
 11 O        4.8270     2.0010     0.7450 O.3   1 <1>  -0.3630 
 12 O       -2.9440     5.5190     0.9480 O.3   1 <1>  -0.3630 
 13 C       -3.6490     3.4280     0.0990 C.ar  1 <1>   0.0830 
 14 O       -4.4020     1.3640    -0.7880 O.3   1 <1>  -0.3630 
 15 C        5.8740     2.3670    -0.0360 C.ar  1 <1>   0.0830 
 16 C       -1.9880     6.4070     1.4830 C.3   1 <1>   0.0400 
 17 O       -4.9230     3.8950     0.0770 O.3   1 <1>  -0.3630 
 18 C       -4.2170     0.0160    -1.1610 C.3   1 <1>   0.0400 
 19 C        7.1430     2.1270     0.4680 C.ar  1 <1>  -0.1500 
 20 C        5.7370     2.9600    -1.2880 C.ar  1 <1>  -0.1500 
 21 C       -5.3660     4.4050    -1.1570 C.3   1 <1>   0.0400 
 22 C        8.2720     2.4720    -0.2560 C.ar  1 <1>  -0.1430 
 23 C        6.8620     3.3080    -2.0140 C.ar  1 <1>  -0.1500 
 24 C        8.1250     3.0660    -1.4990 C.ar  1 <1>  -0.1500 
 25 C        9.6580     2.2080     0.3040 C.3   1 <1>  -0.0970 
 26 H        0.8240     2.9030     2.0380 H     1 <1>   0.3700 
 27 H        2.5340     0.7280     1.4480 H     1 <1>   0.0800 
 28 H        2.9280     2.1280     2.4280 H     1 <1>   0.0800 
 29 H       -0.5230     4.3770     0.9640 H     1 <1>   0.1500 
 30 H       -1.8160     0.6660    -0.5830 H     1 <1>   0.1500 
 31 H        3.4200     3.3730     0.2650 H     1 <1>   0.0800 
 32 H        3.2830     1.8120    -0.5600 H     1 <1>   0.0800 
 33 H       -2.4890     7.3270     1.7240 H     1 <1>   0.0800 
 34 H       -1.2270     6.5890     0.7450 H     1 <1>   0.0800 
 35 H       -1.5700     5.9750     2.3750 H     1 <1>   0.0800 
 36 H       -5.1700    -0.3800    -1.4590 H     1 <1>   0.0800 
 37 H       -3.8420    -0.5320    -0.3150 H     1 <1>   0.0800 
 38 H       -3.5290    -0.0270    -1.9870 H     1 <1>   0.0800 
 39 H        7.2340     1.6670     1.4350 H     1 <1>   0.1500 
 40 H        4.7710     3.1560    -1.7130 H     1 <1>   0.1500 
 41 H       -6.3770     4.7480    -1.0340 H     1 <1>   0.0800 
 42 H       -5.3270     3.6220    -1.8930 H     1 <1>   0.0800 
 43 H       -4.7290     5.2240    -1.4410 H     1 <1>   0.0800 
 44 H        6.7580     3.7670    -2.9810 H     1 <1>   0.1500 
 45 H        8.9930     3.3410    -2.0720 H     1 <1>   0.1500 
 46 H        9.6220     1.4400     1.0560 H     1 <1>   0.0800 
 47 H       10.0480     3.1080     0.7450 H     1 <1>   0.0800 
 48 H       10.3210     1.8870    -0.4790 H     1 <1>   0.0800 
@<TRIPOS>BOND
  1   1   2  2   
  2   2   3  am  
  3   2   4  1   
  4   3   5  1   
  5   3  26  1   
  6   4   6  ar  
  7   4   7  ar  
  8   5   8  1   
  9   5  27  1   
 10   5  28  1   
 11   6   9  ar  
 12   6  29  1   
 13   7  10  ar  
 14   7  30  1   
 15   8  11  1   
 16   8  31  1   
 17   8  32  1   
 18   9  12  1   
 19   9  13  ar  
 20  10  13  ar  
 21  10  14  1   
 22  11  15  1   
 23  12  16  1   
 24  13  17  1   
 25  14  18  1   
 26  15  19  ar  
 27  15  20  ar  
 28  16  33  1   
 29  16  34  1   
 30  16  35  1   
 31  17  21  1   
 32  18  36  1   
 33  18  37  1   
 34  18  38  1   
 35  19  22  ar  
 36  19  39  1   
 37  20  23  ar  
 38  20  40  1   
 39  21  41  1   
 40  21  42  1   
 41  21  43  1   
 42  22  24  ar  
 43  22  25  1   
 44  23  24  ar  
 45  23  44  1   
 46  24  45  1   
 47  25  46  1   
 48  25  47  1   
 49  25  48  1   
@<TRIPOS>SUBSTRUCTURE
  1 ****   2 GROUP 4 **** **** 0

# MOE 2024.06 (io_trps.svl 2023.06)
