@<TRIPOS>MOLECULE
NONAME
28 28 1 0 0 
SMALL
USER_CHARGES


@<TRIPOS>ATOM
  1 CL       1.6150     0.9490    -3.4190 Cl    1 <1>  -0.1770 
  2 C        2.5190     0.3550    -2.0390 C.ar  1 <1>   0.1770 
  3 C        2.5660     1.0960    -0.8530 C.ar  1 <1>   0.1990 
  4 C        3.1840    -0.8500    -2.1770 C.ar  1 <1>  -0.1500 
  5 N        1.8780     2.2990    -0.7060 N.am  1 <1>  -0.6930 
  6 C        3.3220     0.5900     0.2000 C.ar  1 <1>  -0.1500 
  7 C        3.9260    -1.3430    -1.1160 C.ar  1 <1>  -0.1500 
  8 S        0.2020     2.2670    -0.2430 S.o2  1 <1>   1.3330 
  9 C        2.6930     3.5620    -0.5470 C.3   1 <1>   0.1700 
 10 C        3.9850    -0.6130     0.0580 C.ar  1 <1>   0.1770 
 11 O       -0.5060     3.3260    -0.9220 O.2   1 <1>  -0.6500 
 12 O       -0.2410     0.9040    -0.4350 O.2   1 <1>  -0.6500 
 13 C        0.1670     2.5570     1.5150 C.3   1 <1>  -0.1350 
 14 C        2.6820     4.1790     0.8750 C.2   1 <1>   0.9060 
 15 C        2.3310     4.5400    -1.6770 C.3   1 <1>  -0.2400 
 16 CL       4.9250    -1.2390     1.3900 Cl    1 <1>  -0.1770 
 17 O        2.1920     5.2960     1.0790 O.co2 1 <1>  -0.9000 
 18 O        3.1280     3.5000     1.8120 O.co2 1 <1>  -0.9000 
 19 H        3.1180    -1.3910    -3.1040 H     1 <1>   0.1500 
 20 H        3.3870     1.1350     1.1260 H     1 <1>   0.1500 
 21 H        4.4520    -2.2780    -1.1930 H     1 <1>   0.1500 
 22 H        3.7210     3.2930    -0.7060 H     1 <1>   0.0800 
 23 H        0.3450     3.5910     1.7320 H     1 <1>   0.0800 
 24 H        0.9150     1.9670     2.0060 H     1 <1>   0.0800 
 25 H       -0.7950     2.2980     1.9080 H     1 <1>   0.0800 
 26 H        1.3510     4.9510    -1.5180 H     1 <1>   0.0800 
 27 H        2.3670     4.0450    -2.6300 H     1 <1>   0.0800 
 28 H        3.0300     5.3560    -1.6770 H     1 <1>   0.0800 
@<TRIPOS>BOND
  1   1   2  1   
  2   2   3  ar  
  3   2   4  ar  
  4   3   5  1   
  5   3   6  ar  
  6   4   7  ar  
  7   4  19  1   
  8   5   8  am  
  9   5   9  1   
 10   6  10  ar  
 11   6  20  1   
 12   7  10  ar  
 13   7  21  1   
 14   8  11  2   
 15   8  12  2   
 16   8  13  1   
 17   9  14  1   
 18   9  15  1   
 19   9  22  1   
 20  10  16  1   
 21  13  23  1   
 22  13  24  1   
 23  13  25  1   
 24  14  17  ar  
 25  14  18  ar  
 26  15  26  1   
 27  15  27  1   
 28  15  28  1   
@<TRIPOS>SUBSTRUCTURE
  1 ****   5 GROUP 4 **** **** 0

# MOE 2024.06 (io_trps.svl 2023.06)
