@<TRIPOS>MOLECULE
NONAME
37 38 1 0 0 
SMALL
USER_CHARGES


@<TRIPOS>ATOM
  1 CL       1.4270     0.9510    -0.1420 Cl    1 <1>  -0.1770 
  2 C        2.5130    -0.4080     0.0450 C.ar  1 <1>   0.1770 
  3 C        2.0360    -1.6970     0.2420 C.ar  1 <1>  -0.1440 
  4 C        3.8690    -0.1410    -0.0110 C.ar  1 <1>  -0.1500 
  5 C        2.9700    -2.7210     0.3780 C.ar  1 <1>  -0.1500 
  6 C        0.5300    -1.9620     0.3050 C.3   1 <1>   1.1640 
  7 C        4.7770    -1.1730     0.1270 C.ar  1 <1>  -0.1500 
  8 C        4.3390    -2.4780     0.3190 C.ar  1 <1>   0.1990 
  9 F       -0.0630    -1.2940     1.2860 F     1 <1>  -0.3400 
 10 F        0.2390    -3.2400     0.5140 F     1 <1>  -0.3400 
 11 F       -0.0930    -1.6280    -0.8180 F     1 <1>  -0.3400 
 12 N        5.2510    -3.5190     0.4550 N.am  1 <1>  -0.6930 
 13 S        5.3450    -4.8280    -0.6760 S.o2  1 <1>   1.3330 
 14 C        6.3120    -3.4360     1.5100 C.3   1 <1>   0.2570 
 15 O        4.0030    -5.2620    -0.9660 O.2   1 <1>  -0.6500 
 16 O        6.3260    -5.7520    -0.1540 O.2   1 <1>  -0.6500 
 17 C        6.0230    -4.0260    -2.1140 C.3   1 <1>  -0.1350 
 18 C        7.7040    -3.0950     0.9720 C.2   1 <1>   0.5690 
 19 O        8.0700    -1.9430     1.0050 O.2   1 <1>  -0.5700 
 20 N        8.4800    -4.0940     0.4670 N.am  1 <1>  -0.5790 
 21 C        9.8320    -3.9560    -0.0920 C.3   1 <1>   0.0490 
 22 C       10.0310    -3.0980    -1.3000 C.3   1 <1>  -0.2000 
 23 C       10.0830    -4.5870    -1.4230 C.3   1 <1>  -0.2000 
 24 H        4.2080     0.8700    -0.1610 H     1 <1>   0.1500 
 25 H        2.6460    -3.7370     0.5360 H     1 <1>   0.1500 
 26 H        5.8320    -0.9610     0.0810 H     1 <1>   0.1500 
 27 H        6.3600    -4.3740     2.0340 H     1 <1>   0.0800 
 28 H        6.0380    -2.6830     2.2270 H     1 <1>   0.0800 
 29 H        6.9710    -3.5820    -1.8840 H     1 <1>   0.0800 
 30 H        5.3570    -3.2590    -2.4570 H     1 <1>   0.0800 
 31 H        6.1600    -4.7390    -2.9020 H     1 <1>   0.0800 
 32 H        8.0740    -5.0400     0.3960 H     1 <1>   0.3700 
 33 H       10.6060    -3.9780     0.6580 H     1 <1>   0.1000 
 34 H       10.9490    -2.5430    -1.3840 H     1 <1>   0.1000 
 35 H        9.1860    -2.5520    -1.6780 H     1 <1>   0.1000 
 36 H        9.2770    -5.0940    -1.9230 H     1 <1>   0.1000 
 37 H       11.0390    -5.0450    -1.6080 H     1 <1>   0.1000 
@<TRIPOS>BOND
  1   1   2  1   
  2   2   3  ar  
  3   2   4  ar  
  4   3   5  ar  
  5   3   6  1   
  6   4   7  ar  
  7   4  24  1   
  8   5   8  ar  
  9   5  25  1   
 10   6   9  1   
 11   6  10  1   
 12   6  11  1   
 13   7   8  ar  
 14   7  26  1   
 15   8  12  1   
 16  12  13  am  
 17  12  14  1   
 18  13  15  2   
 19  13  16  2   
 20  13  17  1   
 21  14  18  1   
 22  14  27  1   
 23  14  28  1   
 24  17  29  1   
 25  17  30  1   
 26  17  31  1   
 27  18  19  2   
 28  18  20  am  
 29  20  21  1   
 30  20  32  1   
 31  21  22  1   
 32  21  23  1   
 33  21  33  1   
 34  22  23  1   
 35  22  34  1   
 36  22  35  1   
 37  23  36  1   
 38  23  37  1   
@<TRIPOS>SUBSTRUCTURE
  1 ****   8 GROUP 4 **** **** 0

# MOE 2024.06 (io_trps.svl 2023.06)
