@<TRIPOS>MOLECULE
NONAME
52 54 1 0 0 
SMALL
USER_CHARGES


@<TRIPOS>ATOM
  1 S        0.4500     0.8530    -1.1560 S.o2  1 <1>   1.4470 
  2 O        0.4080    -0.5810    -0.9740 O.2   1 <1>  -0.6500 
  3 O        0.8670     1.3940    -2.4320 O.2   1 <1>  -0.6500 
  4 N        1.5370     1.4520    -0.0020 N.am  1 <1>  -0.8490 
  5 C       -1.1330     1.5770    -0.6450 C.ar  1 <1>  -0.0090 
  6 C        1.7500     2.9060    -0.1360 C.3   1 <1>   0.1960 
  7 C        2.8290     0.7500    -0.0820 C.3   1 <1>   0.1960 
  8 C       -1.8030     2.4940    -1.4460 C.ar  1 <1>  -0.1500 
  9 C       -1.7080     1.2450     0.5750 C.ar  1 <1>  -0.1500 
 10 C        2.6740     3.4390     0.9710 C.3   1 <1>   0.1400 
 11 C        3.8110     1.2240     1.0070 C.3   1 <1>   0.1400 
 12 C       -2.9990     3.0610    -1.0420 C.ar  1 <1>  -0.1500 
 13 C       -2.9040     1.8080     0.9840 C.ar  1 <1>  -0.1500 
 14 N        3.9770     2.7090     0.9670 N.am  1 <1>  -0.6600 
 15 C       -3.5620     2.7240     0.1790 C.ar  1 <1>  -0.1430 
 16 C        5.1110     3.3120     0.4940 C.2   1 <1>   0.6900 
 17 C       -4.8820     3.3380     0.6420 C.3   1 <1>   0.0640 
 18 O        5.0310     4.3280    -0.1700 O.2   1 <1>  -0.5700 
 19 N        6.3180     2.7560     0.8060 N.am  1 <1>  -0.5470 
 20 C       -6.0190     2.9750    -0.3190 C.3   1 <1>  -0.2400 
 21 C       -4.7570     4.8570     0.7880 C.3   1 <1>  -0.2400 
 22 C        7.6120     3.0360     0.3460 C.ar  1 <1>   0.1170 
 23 C        7.8600     3.6220    -0.8910 C.ar  1 <1>  -0.1500 
 24 C        8.6990     2.6950     1.1450 C.ar  1 <1>  -0.1500 
 25 C        9.1540     3.8650    -1.3160 C.ar  1 <1>  -0.1500 
 26 C        9.9950     2.9360     0.7230 C.ar  1 <1>  -0.1500 
 27 C       10.2240     3.5220    -0.5090 C.ar  1 <1>  -0.1500 
 28 H        0.8070     3.4200    -0.0710 H     1 <1>   0.0800 
 29 H        2.1880     3.1350    -1.0940 H     1 <1>   0.0800 
 30 H        3.2710     0.9070    -1.0520 H     1 <1>   0.0800 
 31 H        2.6730    -0.3090     0.0410 H     1 <1>   0.0800 
 32 H       -1.3840     2.7690    -2.4000 H     1 <1>   0.1500 
 33 H       -1.2090     0.5350     1.2130 H     1 <1>   0.1500 
 34 H        2.1960     3.3070     1.9260 H     1 <1>   0.0800 
 35 H        2.8330     4.4940     0.8280 H     1 <1>   0.0800 
 36 H        4.7550     0.7310     0.8560 H     1 <1>   0.0800 
 37 H        3.4330     0.9360     1.9720 H     1 <1>   0.0800 
 38 H       -3.4910     3.7670    -1.6880 H     1 <1>   0.1500 
 39 H       -3.3200     1.5250     1.9360 H     1 <1>   0.1500 
 40 H       -5.1310     2.9350     1.6090 H     1 <1>   0.0800 
 41 H        6.2600     2.1330     1.6030 H     1 <1>   0.3700 
 42 H       -5.8490     3.3970    -1.2930 H     1 <1>   0.0800 
 43 H       -6.9560     3.3460     0.0570 H     1 <1>   0.0800 
 44 H       -6.0880     1.9060    -0.4160 H     1 <1>   0.0800 
 45 H       -4.5580     5.3200    -0.1620 H     1 <1>   0.0800 
 46 H       -3.9510     5.0940     1.4600 H     1 <1>   0.0800 
 47 H       -5.6670     5.2690     1.1870 H     1 <1>   0.0800 
 48 H        7.0380     3.8920    -1.5290 H     1 <1>   0.1500 
 49 H        8.5340     2.2430     2.1050 H     1 <1>   0.1500 
 50 H        9.3250     4.3220    -2.2750 H     1 <1>   0.1500 
 51 H       10.8260     2.6690     1.3530 H     1 <1>   0.1500 
 52 H       11.2310     3.7110    -0.8390 H     1 <1>   0.1500 
@<TRIPOS>BOND
  1   1   2  2   
  2   1   3  2   
  3   1   4  am  
  4   1   5  1   
  5   4   6  1   
  6   4   7  1   
  7   5   8  ar  
  8   5   9  ar  
  9   6  10  1   
 10   6  28  1   
 11   6  29  1   
 12   7  11  1   
 13   7  30  1   
 14   7  31  1   
 15   8  12  ar  
 16   8  32  1   
 17   9  13  ar  
 18   9  33  1   
 19  10  14  1   
 20  10  34  1   
 21  10  35  1   
 22  11  14  1   
 23  11  36  1   
 24  11  37  1   
 25  12  15  ar  
 26  12  38  1   
 27  13  15  ar  
 28  13  39  1   
 29  14  16  am  
 30  15  17  1   
 31  16  18  2   
 32  16  19  am  
 33  17  20  1   
 34  17  21  1   
 35  17  40  1   
 36  19  22  1   
 37  19  41  1   
 38  20  42  1   
 39  20  43  1   
 40  20  44  1   
 41  21  45  1   
 42  21  46  1   
 43  21  47  1   
 44  22  23  ar  
 45  22  24  ar  
 46  23  25  ar  
 47  23  48  1   
 48  24  26  ar  
 49  24  49  1   
 50  25  27  ar  
 51  25  50  1   
 52  26  27  ar  
 53  26  51  1   
 54  27  52  1   
@<TRIPOS>SUBSTRUCTURE
  1 ****   6 GROUP 4 **** **** 0

# MOE 2024.06 (io_trps.svl 2023.06)
