@<TRIPOS>MOLECULE
NONAME
50 52 1 0 0 
SMALL
USER_CHARGES


@<TRIPOS>ATOM
  1 O       -3.7410     0.8970     1.3410 O.2   1 <1>  -0.5700 
  2 C       -3.5120     1.1000     0.1650 C.2   1 <1>   0.5690 
  3 N       -2.9610     2.2490    -0.3140 N.am  1 <1>  -0.4100 
  4 C       -3.9650     0.0110    -0.8120 C.3   1 <1>   0.4040 
  5 N       -2.5360     3.3860     0.5030 N.pl3 1 <1>  -0.4890 
  6 N       -5.4220    -0.3440    -0.6410 N.4   1 <1>  -0.9590 
  7 C       -1.1840     3.5680     0.7920 C.ar  1 <1>   0.1000 
  8 C       -3.5970     4.1520     1.2300 C.3   1 <1>   0.3530 
  9 C       -5.7870    -1.6060    -1.3440 C.3   1 <1>   0.3430 
 10 C       -6.3140     0.8000    -0.9980 C.3   1 <1>   0.3430 
 11 C       -0.7400     3.7990     2.0940 C.ar  1 <1>  -0.1500 
 12 C       -0.2330     3.5210    -0.2250 C.ar  1 <1>  -0.1500 
 13 C       -4.9330     4.1550     0.4860 C.ar  1 <1>  -0.1440 
 14 C       -7.2260    -1.9890    -0.9940 C.3   1 <1>  -0.1600 
 15 C       -7.7610     0.4500    -0.6480 C.3   1 <1>  -0.1600 
 16 C        0.6030     3.9820     2.3670 C.ar  1 <1>  -0.1500 
 17 C        1.1110     3.7010     0.0440 C.ar  1 <1>  -0.1500 
 18 C       -6.0790     3.6860     1.1150 C.ar  1 <1>  -0.1500 
 19 C       -5.0250     4.6420    -0.8100 C.ar  1 <1>  -0.1500 
 20 C       -8.2110    -0.8580    -1.3120 C.3   1 <1>  -0.1600 
 21 C        1.5320     3.9340     1.3420 C.ar  1 <1>  -0.1500 
 22 C       -7.2980     3.7110     0.4600 C.ar  1 <1>  -0.1500 
 23 C       -6.2410     4.6560    -1.4700 C.ar  1 <1>  -0.1500 
 24 C       -7.3800     4.1920    -0.8340 C.ar  1 <1>  -0.1500 
 25 H       -2.8660     2.4150    -1.3200 H     1 <1>   0.3700 
 26 H       -3.3600    -0.8590    -0.6230 H     1 <1>   0.0800 
 27 H       -3.7810     0.3370    -1.8200 H     1 <1>   0.0800 
 28 H       -5.5470    -0.4940     0.3740 H     1 <1>   0.4500 
 29 H       -3.2640     5.1660     1.3660 H     1 <1>   0.0800 
 30 H       -3.7250     3.7090     2.2010 H     1 <1>   0.0800 
 31 H       -5.1230    -2.4020    -1.0470 H     1 <1>   0.0800 
 32 H       -5.7030    -1.4690    -2.4100 H     1 <1>   0.0800 
 33 H       -6.2420     1.0080    -2.0540 H     1 <1>   0.0800 
 34 H       -6.0190     1.6860    -0.4580 H     1 <1>   0.0800 
 35 H       -1.4450     3.8240     2.9030 H     1 <1>   0.1500 
 36 H       -0.5500     3.3490    -1.2350 H     1 <1>   0.1500 
 37 H       -7.2830    -2.2420     0.0510 H     1 <1>   0.0800 
 38 H       -7.5010    -2.8680    -1.5510 H     1 <1>   0.0800 
 39 H       -8.4020     1.2510    -0.9700 H     1 <1>   0.0800 
 40 H       -7.8570     0.3720     0.4210 H     1 <1>   0.0800 
 41 H        0.9280     4.1580     3.3770 H     1 <1>   0.1500 
 42 H        1.8330     3.6640    -0.7530 H     1 <1>   0.1500 
 43 H       -6.0270     3.3090     2.1230 H     1 <1>   0.1500 
 44 H       -4.1450     5.0200    -1.3020 H     1 <1>   0.1500 
 45 H       -9.1970    -1.1220    -0.9660 H     1 <1>   0.0800 
 46 H       -8.2670    -0.7180    -2.3790 H     1 <1>   0.0800 
 47 H        2.5780     4.0760     1.5540 H     1 <1>   0.1500 
 48 H       -8.1860     3.3650     0.9630 H     1 <1>   0.1500 
 49 H       -6.3050     5.0430    -2.4730 H     1 <1>   0.1500 
 50 H       -8.3290     4.2210    -1.3420 H     1 <1>   0.1500 
@<TRIPOS>BOND
  1   1   2  2   
  2   2   3  am  
  3   2   4  1   
  4   3   5  1   
  5   3  25  1   
  6   4   6  1   
  7   4  26  1   
  8   4  27  1   
  9   5   7  1   
 10   5   8  1   
 11   6   9  1   
 12   6  10  1   
 13   6  28  1   
 14   7  11  ar  
 15   7  12  ar  
 16   8  13  1   
 17   8  29  1   
 18   8  30  1   
 19   9  14  1   
 20   9  31  1   
 21   9  32  1   
 22  10  15  1   
 23  10  33  1   
 24  10  34  1   
 25  11  16  ar  
 26  11  35  1   
 27  12  17  ar  
 28  12  36  1   
 29  13  18  ar  
 30  13  19  ar  
 31  14  20  1   
 32  14  37  1   
 33  14  38  1   
 34  15  20  1   
 35  15  39  1   
 36  15  40  1   
 37  16  21  ar  
 38  16  41  1   
 39  17  21  ar  
 40  17  42  1   
 41  18  22  ar  
 42  18  43  1   
 43  19  23  ar  
 44  19  44  1   
 45  20  45  1   
 46  20  46  1   
 47  21  47  1   
 48  22  24  ar  
 49  22  48  1   
 50  23  24  ar  
 51  23  49  1   
 52  24  50  1   
@<TRIPOS>SUBSTRUCTURE
  1 ****   3 GROUP 4 **** **** 0

# MOE 2024.06 (io_trps.svl 2023.06)
