@<TRIPOS>MOLECULE
NONAME
45 47 1 0 0 
SMALL
USER_CHARGES


@<TRIPOS>ATOM
  1 S       -0.6110    -0.0610     0.5640 S.3   1 <1>  -0.2860 
  2 C        1.0680     0.5730     0.6370 C.2   1 <1>   0.2420 
  3 C       -1.5520     1.1680     1.5980 C.3   1 <1>   0.1310 
  4 N        1.3920     1.6450     1.2650 N.2   1 <1>  -0.3380 
  5 N        2.0950    -0.0320     0.0410 N.pl3 1 <1>   0.0480 
  6 C       -3.0450     0.8810     1.5890 C.2   1 <1>   0.5690 
  7 N        2.7090     1.7790     1.0900 N.2   1 <1>  -0.3380 
  8 C        3.1130     0.7810     0.3690 C.2   1 <1>   0.0060 
  9 C        2.0840    -1.2770    -0.7550 C.3   1 <1>   0.0160 
 10 O       -3.7110     1.3340     2.4870 O.2   1 <1>  -0.5700 
 11 N       -3.5630     0.1350     0.5640 N.am  1 <1>  -0.5470 
 12 C        4.5600     0.5480    -0.0680 C.3   1 <1>   0.1000 
 13 C       -4.8700    -0.2910     0.2490 C.ar  1 <1>   0.1170 
 14 C        5.5690     1.1000     0.9550 C.3   1 <1>  -0.1600 
 15 C        4.8040     1.1760    -1.4500 C.3   1 <1>  -0.1600 
 16 C       -5.0700    -1.1740    -0.8120 C.ar  1 <1>   0.1900 
 17 C       -6.0080     0.1240     0.9370 C.ar  1 <1>  -0.1500 
 18 C        7.0170     0.8800     0.4940 C.3   1 <1>  -0.1600 
 19 C        6.2510     0.9630    -1.9210 C.3   1 <1>  -0.1600 
 20 F       -4.0280    -1.5890    -1.4930 F     1 <1>  -0.1900 
 21 C       -6.3150    -1.6390    -1.1890 C.ar  1 <1>  -0.1500 
 22 C       -7.2670    -0.3310     0.5760 C.ar  1 <1>  -0.1500 
 23 C        7.2540     1.4970    -0.8900 C.3   1 <1>  -0.1600 
 24 C       -7.4260    -1.2110    -0.4840 C.ar  1 <1>  -0.1500 
 25 H       -1.3560     2.1440     1.1940 H     1 <1>   0.0800 
 26 H       -1.1630     1.1060     2.5980 H     1 <1>   0.0800 
 27 H        2.2070    -2.1180    -0.0980 H     1 <1>   0.0800 
 28 H        2.8820    -1.2600    -1.4740 H     1 <1>   0.0800 
 29 H        1.1480    -1.3650    -1.2760 H     1 <1>   0.0800 
 30 H       -2.8560    -0.2310    -0.0790 H     1 <1>   0.3700 
 31 H        4.7270    -0.5120    -0.1390 H     1 <1>   0.0800 
 32 H        5.4140     0.6220     1.9060 H     1 <1>   0.0800 
 33 H        5.4010     2.1560     1.0890 H     1 <1>   0.0800 
 34 H        4.6020     2.2320    -1.3930 H     1 <1>   0.0800 
 35 H        4.1280     0.7530    -2.1710 H     1 <1>   0.0800 
 36 H       -5.9240     0.8070     1.7620 H     1 <1>   0.1500 
 37 H        7.2260    -0.1760     0.4570 H     1 <1>   0.0800 
 38 H        7.6920     1.3240     1.2060 H     1 <1>   0.0800 
 39 H        6.4010     1.4660    -2.8610 H     1 <1>   0.0800 
 40 H        6.4270    -0.0880    -2.0780 H     1 <1>   0.0800 
 41 H       -6.4110    -2.3210    -2.0150 H     1 <1>   0.1500 
 42 H       -8.1310     0.0040     1.1260 H     1 <1>   0.1500 
 43 H        8.2570     1.2810    -1.2160 H     1 <1>   0.0800 
 44 H        7.1550     2.5680    -0.8220 H     1 <1>   0.0800 
 45 H       -8.4080    -1.5580    -0.7560 H     1 <1>   0.1500 
@<TRIPOS>BOND
  1   1   2  1   
  2   1   3  1   
  3   2   4  2   
  4   2   5  1   
  5   3   6  1   
  6   3  25  1   
  7   3  26  1   
  8   4   7  1   
  9   5   8  1   
 10   5   9  1   
 11   6  10  2   
 12   6  11  am  
 13   7   8  2   
 14   8  12  1   
 15   9  27  1   
 16   9  28  1   
 17   9  29  1   
 18  11  13  1   
 19  11  30  1   
 20  12  14  1   
 21  12  15  1   
 22  12  31  1   
 23  13  16  ar  
 24  13  17  ar  
 25  14  18  1   
 26  14  32  1   
 27  14  33  1   
 28  15  19  1   
 29  15  34  1   
 30  15  35  1   
 31  16  20  1   
 32  16  21  ar  
 33  17  22  ar  
 34  17  36  1   
 35  18  23  1   
 36  18  37  1   
 37  18  38  1   
 38  19  23  1   
 39  19  39  1   
 40  19  40  1   
 41  21  24  ar  
 42  21  41  1   
 43  22  24  ar  
 44  22  42  1   
 45  23  43  1   
 46  23  44  1   
 47  24  45  1   
@<TRIPOS>SUBSTRUCTURE
  1 ****   1 GROUP 4 **** **** 0

# MOE 2024.06 (io_trps.svl 2023.06)
