@<TRIPOS>MOLECULE
NONAME
33 33 1 0 0 
SMALL
USER_CHARGES


@<TRIPOS>ATOM
  1 S       -0.1160     0.4510    -0.7300 S.o2  1 <1>   1.4470 
  2 O       -0.1960     0.7000    -2.1540 O.2   1 <1>  -0.6500 
  3 O       -0.7620    -0.7220    -0.1810 O.2   1 <1>  -0.6500 
  4 N       -0.7880     1.8080     0.0370 N.am  1 <1>  -0.8490 
  5 C        1.6140     0.4770    -0.1820 C.ar  1 <1>  -0.0090 
  6 C       -0.2220     3.0710    -0.4540 C.3   1 <1>   0.1960 
  7 C       -2.2520     1.7840    -0.0340 C.3   1 <1>   0.1960 
  8 C        1.9330     0.3450     1.1660 C.ar  1 <1>  -0.1500 
  9 C        2.6590     0.6430    -1.0880 C.ar  1 <1>  -0.1500 
 10 C        0.4380     3.7970     0.7120 C.3   1 <1>  -0.2400 
 11 C       -2.8660     2.7580     0.9710 C.3   1 <1>  -0.2400 
 12 C        3.2470     0.3810     1.6000 C.ar  1 <1>  -0.1500 
 13 C        3.9790     0.6800    -0.6690 C.ar  1 <1>  -0.1500 
 14 C        4.2640     0.5490     0.6800 C.ar  1 <1>   0.1010 
 15 S        5.9480     0.5890     1.3160 S.3   1 <1>  -0.3310 
 16 C        7.0650     0.7940    -0.1410 C.3   1 <1>  -0.0100 
 17 H       -0.9850     3.6940    -0.8910 H     1 <1>   0.0800 
 18 H        0.5200     2.8970    -1.2170 H     1 <1>   0.0800 
 19 H       -2.6090     0.7970     0.2140 H     1 <1>   0.0800 
 20 H       -2.5800     2.0090    -1.0360 H     1 <1>   0.0800 
 21 H        1.1380     0.2140     1.8820 H     1 <1>   0.1500 
 22 H        2.4350     0.7430    -2.1370 H     1 <1>   0.1500 
 23 H       -0.2780     3.9980     1.4880 H     1 <1>   0.0800 
 24 H        0.8450     4.7320     0.3730 H     1 <1>   0.0800 
 25 H        1.2400     3.2060     1.1160 H     1 <1>   0.0800 
 26 H       -2.4900     2.5510     1.9580 H     1 <1>   0.0800 
 27 H       -3.9330     2.6320     0.9820 H     1 <1>   0.0800 
 28 H       -2.6540     3.7770     0.7100 H     1 <1>   0.0800 
 29 H        3.4850     0.2780     2.6440 H     1 <1>   0.1500 
 30 H        4.7580     0.8090    -1.3940 H     1 <1>   0.1500 
 31 H        8.0750     0.8100     0.2250 H     1 <1>   0.0800 
 32 H        6.8180     1.7240    -0.6210 H     1 <1>   0.0800 
 33 H        6.9110    -0.0430    -0.7980 H     1 <1>   0.0800 
@<TRIPOS>BOND
  1   1   2  2   
  2   1   3  2   
  3   1   4  am  
  4   1   5  1   
  5   4   6  1   
  6   4   7  1   
  7   5   8  ar  
  8   5   9  ar  
  9   6  10  1   
 10   6  17  1   
 11   6  18  1   
 12   7  11  1   
 13   7  19  1   
 14   7  20  1   
 15   8  12  ar  
 16   8  21  1   
 17   9  13  ar  
 18   9  22  1   
 19  10  23  1   
 20  10  24  1   
 21  10  25  1   
 22  11  26  1   
 23  11  27  1   
 24  11  28  1   
 25  12  14  ar  
 26  12  29  1   
 27  13  14  ar  
 28  13  30  1   
 29  14  15  1   
 30  15  16  1   
 31  16  31  1   
 32  16  32  1   
 33  16  33  1   
@<TRIPOS>SUBSTRUCTURE
  1 ****   5 GROUP 4 **** **** 0

# MOE 2024.06 (io_trps.svl 2023.06)
