@<TRIPOS>MOLECULE
NONAME
39 40 1 0 0 
SMALL
USER_CHARGES


@<TRIPOS>ATOM
  1 S       -0.1700    -0.2280    -0.2730 S.3   1 <1>  -0.3320 
  2 C       -1.6290     0.7800    -0.0670 C.ar  1 <1>   0.7220 
  3 C        1.2230     0.9420     0.0060 C.3   1 <1>   0.0700 
  4 N       -1.4020     2.0540     0.2140 N.ar  1 <1>  -0.6200 
  5 N       -2.7710     0.1370    -0.2200 N.ar  1 <1>  -0.6200 
  6 C        2.5180     0.1520    -0.1770 C.3   1 <1>   0.3430 
  7 C       -2.4910     2.7740     0.3630 C.ar  1 <1>   0.1660 
  8 C       -3.8390     0.8830    -0.0660 C.ar  1 <1>   0.1660 
  9 N        3.7330     0.9890     0.0770 N.4   1 <1>  -0.9590 
 10 C       -3.7480     2.2250     0.2300 C.ar  1 <1>  -0.1500 
 11 C       -2.3090     4.2410     0.6880 C.3   1 <1>  -0.0970 
 12 C       -5.1800     0.2000    -0.2300 C.3   1 <1>  -0.0970 
 13 C        3.9000     2.0690    -0.9450 C.3   1 <1>   0.3430 
 14 C        4.9470     0.1240     0.1530 C.3   1 <1>   0.3430 
 15 C        5.0880     2.9560    -0.5680 C.3   1 <1>  -0.1600 
 16 C        6.1580     0.9680     0.5550 C.3   1 <1>  -0.1600 
 17 C        6.3780     2.1410    -0.4090 C.3   1 <1>  -0.1600 
 18 H        1.1160     1.3210     1.0070 H     1 <1>   0.0800 
 19 H        1.1140     1.7290    -0.7190 H     1 <1>   0.0800 
 20 H        2.5500    -0.2470    -1.1780 H     1 <1>   0.0800 
 21 H        2.5040    -0.6780     0.5110 H     1 <1>   0.0800 
 22 H        3.6340     1.4450     0.9940 H     1 <1>   0.4500 
 23 H       -4.6300     2.8240     0.3530 H     1 <1>   0.1500 
 24 H       -1.7630     4.3430     1.6080 H     1 <1>   0.0800 
 25 H       -3.2580     4.7340     0.7930 H     1 <1>   0.0800 
 26 H       -1.7560     4.7200    -0.0990 H     1 <1>   0.0800 
 27 H       -5.2690    -0.5940     0.4890 H     1 <1>   0.0800 
 28 H       -5.2520    -0.2190    -1.2170 H     1 <1>   0.0800 
 29 H       -5.9890     0.8920    -0.0860 H     1 <1>   0.0800 
 30 H        3.0100     2.6750    -0.9990 H     1 <1>   0.0800 
 31 H        4.0720     1.6310    -1.9150 H     1 <1>   0.0800 
 32 H        5.1310    -0.3340    -0.8060 H     1 <1>   0.0800 
 33 H        4.8000    -0.6590     0.8810 H     1 <1>   0.0800 
 34 H        4.8690     3.4790     0.3470 H     1 <1>   0.0800 
 35 H        5.2300     3.6980    -1.3350 H     1 <1>   0.0800 
 36 H        7.0350     0.3440     0.5600 H     1 <1>   0.0800 
 37 H        6.0220     1.3370     1.5570 H     1 <1>   0.0800 
 38 H        7.1690     2.7750    -0.0410 H     1 <1>   0.0800 
 39 H        6.6850     1.7630    -1.3700 H     1 <1>   0.0800 
@<TRIPOS>BOND
  1   1   2  1   
  2   1   3  1   
  3   2   4  ar  
  4   2   5  ar  
  5   3   6  1   
  6   3  18  1   
  7   3  19  1   
  8   4   7  ar  
  9   5   8  ar  
 10   6   9  1   
 11   6  20  1   
 12   6  21  1   
 13   7  10  ar  
 14   7  11  1   
 15   8  10  ar  
 16   8  12  1   
 17   9  13  1   
 18   9  14  1   
 19   9  22  1   
 20  10  23  1   
 21  11  24  1   
 22  11  25  1   
 23  11  26  1   
 24  12  27  1   
 25  12  28  1   
 26  12  29  1   
 27  13  15  1   
 28  13  30  1   
 29  13  31  1   
 30  14  16  1   
 31  14  32  1   
 32  14  33  1   
 33  15  17  1   
 34  15  34  1   
 35  15  35  1   
 36  16  17  1   
 37  16  36  1   
 38  16  37  1   
 39  17  38  1   
 40  17  39  1   
@<TRIPOS>SUBSTRUCTURE
  1 ****   3 GROUP 4 **** **** 0

# MOE 2024.06 (io_trps.svl 2023.06)
