@<TRIPOS>MOLECULE
NONAME
29 30 1 0 0 
SMALL
USER_CHARGES


@<TRIPOS>ATOM
  1 S       -0.2810    -0.1490    -0.2680 S.3   1 <1>  -0.0800 
  2 C       -0.7950     1.4890     0.1640 C.2   1 <1>   0.0400 
  3 C        1.4170     0.2800    -0.2030 C.2   1 <1>  -0.1100 
  4 C       -2.1850     1.8430     0.3070 C.2   1 <1>   0.1860 
  5 C        0.3180     2.2480     0.3370 C.2   1 <1>  -0.1500 
  6 C        1.5570     1.5750     0.1290 C.2   1 <1>  -0.1500 
  7 N       -2.5690     2.9290     0.9280 N.2   1 <1>  -0.3380 
  8 N       -3.2660     1.1650    -0.1500 N.pl3 1 <1>   0.0480 
  9 N       -3.8970     2.9780     0.9060 N.2   1 <1>  -0.3380 
 10 C       -4.2730     1.9300     0.2660 C.2   1 <1>   0.2420 
 11 C       -3.3600    -0.0730    -0.9560 C.3   1 <1>   0.0160 
 12 S       -6.0000     1.5430    -0.0370 S.3   1 <1>  -0.2860 
 13 C       -6.8900     2.9320     0.8270 C.3   1 <1>   0.1310 
 14 C       -8.4000     2.8220     0.6760 C.2   1 <1>   0.5690 
 15 O       -9.0970     3.4570     1.4300 O.2   1 <1>  -0.5700 
 16 N       -8.9320     2.0300    -0.2960 N.am  1 <1>  -0.7300 
 17 C      -10.3800     1.8370    -0.5580 C.3   1 <1>   0.0600 
 18 H        2.1360    -0.4900    -0.4210 H     1 <1>   0.1500 
 19 H        0.2940     3.2870     0.6160 H     1 <1>   0.1500 
 20 H        2.4940     2.0930     0.2390 H     1 <1>   0.1500 
 21 H       -2.6870    -0.0080    -1.7910 H     1 <1>   0.0800 
 22 H       -4.3590    -0.2040    -1.3290 H     1 <1>   0.0800 
 23 H       -3.1000    -0.9170    -0.3440 H     1 <1>   0.0800 
 24 H       -6.5390     3.8520     0.3990 H     1 <1>   0.0800 
 25 H       -6.6150     2.8870     1.8640 H     1 <1>   0.0800 
 26 H       -8.2880     1.4890    -0.8800 H     1 <1>   0.3700 
 27 H      -10.9660     2.4420     0.1140 H     1 <1>   0.0800 
 28 H      -10.6420     0.8040    -0.4110 H     1 <1>   0.0800 
 29 H      -10.6080     2.1220    -1.5700 H     1 <1>   0.0800 
@<TRIPOS>BOND
  1   1   2  1   
  2   1   3  1   
  3   2   4  1   
  4   2   5  2   
  5   3   6  2   
  6   3  18  1   
  7   4   7  2   
  8   4   8  1   
  9   5   6  1   
 10   5  19  1   
 11   6  20  1   
 12   7   9  1   
 13   8  10  1   
 14   8  11  1   
 15   9  10  2   
 16  10  12  1   
 17  11  21  1   
 18  11  22  1   
 19  11  23  1   
 20  12  13  1   
 21  13  14  1   
 22  13  24  1   
 23  13  25  1   
 24  14  15  2   
 25  14  16  am  
 26  16  17  1   
 27  16  26  1   
 28  17  27  1   
 29  17  28  1   
 30  17  29  1   
@<TRIPOS>SUBSTRUCTURE
  1 ****  10 GROUP 4 **** **** 0

# MOE 2024.06 (io_trps.svl 2023.06)
