@<TRIPOS>MOLECULE
NONAME
51 53 1 0 0 
SMALL
USER_CHARGES


@<TRIPOS>ATOM
  1 O       -6.6250     1.2800    -0.0480 O.3   1 <1>  -0.3630 
  2 C       -7.9720     1.1610     0.0650 C.ar  1 <1>   0.0830 
  3 C       -6.0160     2.5450    -0.2250 C.3   1 <1>   0.1200 
  4 C       -8.8450     2.2490     0.0930 C.ar  1 <1>  -0.1500 
  5 C       -8.4790    -0.1300     0.1560 C.ar  1 <1>  -0.1500 
  6 C       -4.5000     2.3580    -0.3580 C.3   1 <1>   0.2000 
  7 C      -10.2020     2.0170     0.2080 C.ar  1 <1>  -0.1440 
  8 C       -9.8420    -0.3500     0.2710 C.ar  1 <1>  -0.1500 
  9 O       -4.0510     1.6180     0.7310 O.3   1 <1>  -0.6800 
 10 C       -3.7570     3.7130    -0.4530 C.3   1 <1>   0.1100 
 11 C      -10.6940     0.7380     0.2950 C.ar  1 <1>  -0.1430 
 12 C      -11.3150     3.0340     0.2570 C.3   1 <1>  -0.0170 
 13 N       -2.2890     3.6260    -0.2740 N.3   1 <1>  -0.8100 
 14 C      -12.1970     0.7340     0.4130 C.3   1 <1>  -0.0170 
 15 C      -12.5860     2.1840     0.0780 C.3   1 <1>  -0.1600 
 16 C       -1.6000     2.7570    -1.2590 C.3   1 <1>   0.1100 
 17 C       -1.6320     4.9460    -0.1680 C.3   1 <1>   0.1100 
 18 C       -0.0830     2.6430    -0.9680 C.3   1 <1>   0.3430 
 19 C       -0.1330     4.8090     0.2000 C.3   1 <1>   0.3430 
 20 N        0.2690     3.3660     0.3000 N.4   1 <1>  -0.9590 
 21 C        1.6560     3.1720     0.7800 C.3   1 <1>   0.3430 
 22 C        1.8470     1.7300     1.2340 C.3   1 <1>  -0.2400 
 23 H       -6.2440     3.1560     0.6310 H     1 <1>   0.0800 
 24 H       -6.4190     2.9940    -1.1160 H     1 <1>   0.0800 
 25 H       -8.4970     3.2610     0.0300 H     1 <1>   0.1500 
 26 H       -7.7990    -0.9620     0.1340 H     1 <1>   0.1500 
 27 H       -4.3070     1.7810    -1.2450 H     1 <1>   0.0800 
 28 H      -10.2310    -1.3500     0.3400 H     1 <1>   0.1500 
 29 H       -4.7150     0.9210     0.9200 H     1 <1>   0.4000 
 30 H       -4.1540     4.3570     0.3140 H     1 <1>   0.0800 
 31 H       -3.9790     4.1680    -1.4030 H     1 <1>   0.0800 
 32 H      -11.2170     3.7680    -0.5230 H     1 <1>   0.0800 
 33 H      -11.3150     3.5170     1.2190 H     1 <1>   0.0800 
 34 H      -12.4760     0.4890     1.4230 H     1 <1>   0.0800 
 35 H      -12.6460     0.0360    -0.2720 H     1 <1>   0.0800 
 36 H      -12.8890     2.2300    -0.9540 H     1 <1>   0.0800 
 37 H      -13.3930     2.5350     0.6960 H     1 <1>   0.0800 
 38 H       -1.7490     3.1350    -2.2560 H     1 <1>   0.0800 
 39 H       -2.0200     1.7670    -1.2180 H     1 <1>   0.0800 
 40 H       -2.1220     5.5290     0.5940 H     1 <1>   0.0800 
 41 H       -1.7280     5.4790    -1.0980 H     1 <1>   0.0800 
 42 H        0.4720     3.0550    -1.7940 H     1 <1>   0.0800 
 43 H        0.1730     1.6010    -0.8850 H     1 <1>   0.0800 
 44 H        0.0380     5.3010     1.1430 H     1 <1>   0.0800 
 45 H        0.4630     5.3080    -0.5460 H     1 <1>   0.0800 
 46 H       -0.4060     2.9790     0.9830 H     1 <1>   0.4500 
 47 H        1.8420     3.8270     1.6170 H     1 <1>   0.0800 
 48 H        2.3590     3.4130    -0.0010 H     1 <1>   0.0800 
 49 H        1.1260     1.4690     1.9880 H     1 <1>   0.0800 
 50 H        2.8290     1.6220     1.6610 H     1 <1>   0.0800 
 51 H        1.7740     1.0450     0.4090 H     1 <1>   0.0800 
@<TRIPOS>BOND
  1   1   2  1   
  2   1   3  1   
  3   2   4  ar  
  4   2   5  ar  
  5   3   6  1   
  6   3  23  1   
  7   3  24  1   
  8   4   7  ar  
  9   4  25  1   
 10   5   8  ar  
 11   5  26  1   
 12   6   9  1   
 13   6  10  1   
 14   6  27  1   
 15   7  11  ar  
 16   7  12  1   
 17   8  11  ar  
 18   8  28  1   
 19   9  29  1   
 20  10  13  1   
 21  10  30  1   
 22  10  31  1   
 23  11  14  1   
 24  12  15  1   
 25  12  32  1   
 26  12  33  1   
 27  13  16  1   
 28  13  17  1   
 29  14  15  1   
 30  14  34  1   
 31  14  35  1   
 32  15  36  1   
 33  15  37  1   
 34  16  18  1   
 35  16  38  1   
 36  16  39  1   
 37  17  19  1   
 38  17  40  1   
 39  17  41  1   
 40  18  20  1   
 41  18  42  1   
 42  18  43  1   
 43  19  20  1   
 44  19  44  1   
 45  19  45  1   
 46  20  21  1   
 47  20  46  1   
 48  21  22  1   
 49  21  47  1   
 50  21  48  1   
 51  22  49  1   
 52  22  50  1   
 53  22  51  1   
@<TRIPOS>SUBSTRUCTURE
  1 ****   3 GROUP 4 **** **** 0

# MOE 2024.06 (io_trps.svl 2023.06)
