@<TRIPOS>MOLECULE
NONAME
43 44 1 0 0 
SMALL
USER_CHARGES


@<TRIPOS>ATOM
  1 N        0.0760    -0.1910     0.7460 N.4   1 <1>  -0.9590 
  2 C        1.2740     0.7120     0.7570 C.3   1 <1>   0.4230 
  3 C       -0.0880    -0.9620    -0.5500 C.3   1 <1>   0.3430 
  4 C       -1.1790     0.5610     1.1350 C.3   1 <1>   0.3430 
  5 C        1.3030     1.6440    -0.4700 C.3   1 <1>  -0.1600 
  6 C        2.5310    -0.1540     0.9200 C.3   1 <1>  -0.1600 
  7 C       -1.3780    -1.8320    -0.5950 C.3   1 <1>   0.3430 
  8 C       -2.4670    -0.3110     1.0820 C.3   1 <1>   0.3430 
  9 C        2.2070     2.8620    -0.2270 C.3   1 <1>  -0.1600 
 10 C        3.8390     0.6440     1.0540 C.3   1 <1>  -0.1600 
 11 N       -2.6300    -1.0720    -0.2190 N.4   1 <1>  -0.9590 
 12 C        3.6860     2.6470    -0.5820 C.3   1 <1>  -0.1600 
 13 C        4.2890     1.2690    -0.2730 C.3   1 <1>  -0.1600 
 14 C       -3.8030    -1.9980    -0.1780 C.3   1 <1>   0.3430 
 15 C       -5.0960    -1.1920    -0.1860 C.3   1 <1>  -0.2400 
 16 H        0.2730    -0.8740     1.4940 H     1 <1>   0.4500 
 17 H        1.2120     1.3390     1.6330 H     1 <1>   0.0800 
 18 H        0.7670    -1.5990    -0.7050 H     1 <1>   0.0800 
 19 H       -0.1220    -0.2710    -1.3770 H     1 <1>   0.0800 
 20 H       -1.3160     1.4000     0.4730 H     1 <1>   0.0800 
 21 H       -1.0690     0.9590     2.1310 H     1 <1>   0.0800 
 22 H        0.3180     2.0290    -0.6570 H     1 <1>   0.0800 
 23 H        1.6320     1.1250    -1.3540 H     1 <1>   0.0800 
 24 H        2.6350    -0.8330     0.0930 H     1 <1>   0.0800 
 25 H        2.4280    -0.7380     1.8170 H     1 <1>   0.0800 
 26 H       -1.2490    -2.6640     0.0780 H     1 <1>   0.0800 
 27 H       -1.4870    -2.2400    -1.5880 H     1 <1>   0.0800 
 28 H       -3.3220     0.3280     1.2380 H     1 <1>   0.0800 
 29 H       -2.4400    -1.0100     1.9020 H     1 <1>   0.0800 
 30 H        2.1330     3.1760     0.8010 H     1 <1>   0.0800 
 31 H        1.8520     3.6870    -0.8230 H     1 <1>   0.0800 
 32 H        4.6090    -0.0430     1.3650 H     1 <1>   0.0800 
 33 H        3.7640     1.3960     1.8220 H     1 <1>   0.0800 
 34 H       -2.8420    -0.3960    -0.9710 H     1 <1>   0.4500 
 35 H        4.2620     3.3970    -0.0650 H     1 <1>   0.0800 
 36 H        3.8210     2.8350    -1.6340 H     1 <1>   0.0800 
 37 H        4.0850     0.5930    -1.0850 H     1 <1>   0.0800 
 38 H        5.3600     1.3870    -0.2450 H     1 <1>   0.0800 
 39 H       -3.7630    -2.6240     0.7010 H     1 <1>   0.0800 
 40 H       -3.7930    -2.6400    -1.0460 H     1 <1>   0.0800 
 41 H       -5.2130    -0.6110     0.7100 H     1 <1>   0.0800 
 42 H       -5.9290    -1.8720    -0.2370 H     1 <1>   0.0800 
 43 H       -5.1490    -0.5500    -1.0480 H     1 <1>   0.0800 
@<TRIPOS>BOND
  1   1   2  1   
  2   1   3  1   
  3   1   4  1   
  4   1  16  1   
  5   2   5  1   
  6   2   6  1   
  7   2  17  1   
  8   3   7  1   
  9   3  18  1   
 10   3  19  1   
 11   4   8  1   
 12   4  20  1   
 13   4  21  1   
 14   5   9  1   
 15   5  22  1   
 16   5  23  1   
 17   6  10  1   
 18   6  24  1   
 19   6  25  1   
 20   7  11  1   
 21   7  26  1   
 22   7  27  1   
 23   8  11  1   
 24   8  28  1   
 25   8  29  1   
 26   9  12  1   
 27   9  30  1   
 28   9  31  1   
 29  10  13  1   
 30  10  32  1   
 31  10  33  1   
 32  11  14  1   
 33  11  34  1   
 34  12  13  1   
 35  12  35  1   
 36  12  36  1   
 37  13  37  1   
 38  13  38  1   
 39  14  15  1   
 40  14  39  1   
 41  14  40  1   
 42  15  41  1   
 43  15  42  1   
 44  15  43  1   
@<TRIPOS>SUBSTRUCTURE
  1 ****   1 GROUP 4 **** **** 0

# MOE 2024.06 (io_trps.svl 2023.06)
