@<TRIPOS>MOLECULE
NONAME
41 44 1 0 0 
SMALL
USER_CHARGES


@<TRIPOS>ATOM
  1 N        1.0010     0.3050    -0.9110 N.4   1 <1>  -0.9590 
  2 C        1.8550     0.0140     0.2560 C.3   1 <1>   0.8360 
  3 C        1.1690     1.7030    -1.4180 C.3   1 <1>   0.3430 
  4 C       -0.4250     0.0730    -0.5220 C.3   1 <1>   0.3430 
  5 N        1.5530     1.0000     1.2950 N.3   1 <1>  -0.8100 
  6 C        3.3280    -0.1920    -0.1200 C.ar  1 <1>  -0.1430 
  7 C        0.8170     2.7130    -0.3100 C.3   1 <1>   0.0000 
  8 C       -0.8170     1.0380     0.6170 C.3   1 <1>   0.0000 
  9 C        1.7270     2.4100     0.8950 C.3   1 <1>   0.1100 
 10 C        0.1720     0.8010     1.7800 C.3   1 <1>   0.1100 
 11 C        3.8400    -1.4700     0.0850 C.ar  1 <1>  -0.1500 
 12 C        4.1820     0.7710    -0.6560 C.ar  1 <1>  -0.1500 
 13 C       -0.6520     2.4910     0.1170 C.3   1 <1>  -0.1600 
 14 C        1.0210     4.1550    -0.7970 C.3   1 <1>  -0.2400 
 15 C       -2.2620     0.7910     1.0720 C.3   1 <1>  -0.2400 
 16 C        5.1480    -1.7810    -0.2390 C.ar  1 <1>  -0.1500 
 17 C        5.4910     0.4610    -0.9800 C.ar  1 <1>  -0.1500 
 18 C        5.9760    -0.8150    -0.7750 C.ar  1 <1>  -0.1500 
 19 H        1.2980    -0.3560    -1.6330 H     1 <1>   0.4500 
 20 H        1.5400    -0.9380     0.6530 H     1 <1>   0.0800 
 21 H        2.1780     1.8600    -1.7530 H     1 <1>   0.0800 
 22 H        0.5170     1.8630    -2.2600 H     1 <1>   0.0800 
 23 H       -0.5570    -0.9440    -0.1910 H     1 <1>   0.0800 
 24 H       -1.0700     0.2390    -1.3700 H     1 <1>   0.0800 
 25 H        2.7580     2.6130     0.6780 H     1 <1>   0.0800 
 26 H        1.4590     3.0470     1.7230 H     1 <1>   0.0800 
 27 H        0.0640    -0.1970     2.1730 H     1 <1>   0.0800 
 28 H       -0.0300     1.4880     2.5870 H     1 <1>   0.0800 
 29 H        3.2280    -2.2490     0.5070 H     1 <1>   0.1500 
 30 H        3.8720     1.7800    -0.8340 H     1 <1>   0.1500 
 31 H       -1.3140     2.6790    -0.7120 H     1 <1>   0.0800 
 32 H       -0.9100     3.1800     0.9050 H     1 <1>   0.0800 
 33 H        2.0430     4.3190    -1.0920 H     1 <1>   0.0800 
 34 H        0.7830     4.8540    -0.0130 H     1 <1>   0.0800 
 35 H        0.3850     4.3690    -1.6390 H     1 <1>   0.0800 
 36 H       -2.3870    -0.2180     1.4260 H     1 <1>   0.0800 
 37 H       -2.9520     0.9550     0.2620 H     1 <1>   0.0800 
 38 H       -2.5230     1.4610     1.8740 H     1 <1>   0.0800 
 39 H        5.5260    -2.7760    -0.0720 H     1 <1>   0.1500 
 40 H        6.1410     1.2160    -1.3920 H     1 <1>   0.1500 
 41 H        6.9950    -1.0550    -1.0260 H     1 <1>   0.1500 
@<TRIPOS>BOND
  1   1   2  1   
  2   1   3  1   
  3   1   4  1   
  4   1  19  1   
  5   2   5  1   
  6   2   6  1   
  7   2  20  1   
  8   3   7  1   
  9   3  21  1   
 10   3  22  1   
 11   4   8  1   
 12   4  23  1   
 13   4  24  1   
 14   5   9  1   
 15   5  10  1   
 16   6  11  ar  
 17   6  12  ar  
 18   7   9  1   
 19   7  13  1   
 20   7  14  1   
 21   8  10  1   
 22   8  13  1   
 23   8  15  1   
 24   9  25  1   
 25   9  26  1   
 26  10  27  1   
 27  10  28  1   
 28  11  16  ar  
 29  11  29  1   
 30  12  17  ar  
 31  12  30  1   
 32  13  31  1   
 33  13  32  1   
 34  14  33  1   
 35  14  34  1   
 36  14  35  1   
 37  15  36  1   
 38  15  37  1   
 39  15  38  1   
 40  16  18  ar  
 41  16  39  1   
 42  17  18  ar  
 43  17  40  1   
 44  18  41  1   
@<TRIPOS>SUBSTRUCTURE
  1 ****   2 GROUP 4 **** **** 0

# MOE 2024.06 (io_trps.svl 2023.06)
