@<TRIPOS>MOLECULE
NONAME
37 39 1 0 0 
SMALL
USER_CHARGES


@<TRIPOS>ATOM
  1 O       -2.8760     1.8450     2.4340 O.2   1 <1>  -0.5700 
  2 C       -2.5420     1.9910     1.2660 C.2   1 <1>   0.5440 
  3 N       -2.8610     1.0540     0.3210 N.am  1 <1>  -0.4210 
  4 C       -1.8410     3.1890     0.8660 C.ar  1 <1>   0.0860 
  5 N       -3.5290    -0.2400     0.5430 N.3   1 <1>  -0.5490 
  6 C       -0.5710     3.1270     0.2210 C.ar  1 <1>   0.0000 
  7 C       -2.4240     4.4190     1.0830 C.ar  1 <1>  -0.1500 
  8 C       -4.8500    -0.1780    -0.1370 C.3   1 <1>   0.1100 
  9 C       -2.6750    -1.2950    -0.0650 C.3   1 <1>   0.1100 
 10 C        0.0090     4.3220    -0.2650 C.ar  1 <1>   0.0000 
 11 C        0.1600     1.9280     0.0510 C.ar  1 <1>  -0.1500 
 12 C       -1.8320     5.5990     0.6350 C.ar  1 <1>  -0.1500 
 13 C       -5.5820    -1.5160     0.0150 C.3   1 <1>  -0.1600 
 14 C       -3.3450    -2.6650     0.0900 C.3   1 <1>  -0.1600 
 15 C       -0.6450     5.5470    -0.0370 C.ar  1 <1>  -0.1500 
 16 C        1.2370     4.2610    -0.9540 C.ar  1 <1>  -0.1500 
 17 C        1.3570     1.8990    -0.6110 C.ar  1 <1>  -0.1500 
 18 C       -4.7450    -2.6770    -0.5380 C.3   1 <1>  -0.1600 
 19 C        1.8980     3.0780    -1.1280 C.ar  1 <1>  -0.1500 
 20 H       -2.6110     1.2650    -0.6490 H     1 <1>   0.3700 
 21 H       -3.3660     4.4740     1.6040 H     1 <1>   0.1500 
 22 H       -4.7170     0.0510    -1.1800 H     1 <1>   0.0800 
 23 H       -5.4360     0.6040     0.3150 H     1 <1>   0.0800 
 24 H       -1.7230    -1.3040     0.4370 H     1 <1>   0.0800 
 25 H       -2.5140    -1.0830    -1.1080 H     1 <1>   0.0800 
 26 H       -0.2250     1.0110     0.4620 H     1 <1>   0.1500 
 27 H       -2.3240     6.5390     0.8200 H     1 <1>   0.1500 
 28 H       -6.5250    -1.4690    -0.4990 H     1 <1>   0.0800 
 29 H       -5.7840    -1.6780     1.0600 H     1 <1>   0.0800 
 30 H       -3.4150    -2.8950     1.1400 H     1 <1>   0.0800 
 31 H       -2.7320    -3.4190    -0.3720 H     1 <1>   0.0800 
 32 H       -0.1850     6.4510    -0.3960 H     1 <1>   0.1500 
 33 H        1.6550     5.1740    -1.3400 H     1 <1>   0.1500 
 34 H        1.8980     0.9770    -0.7360 H     1 <1>   0.1500 
 35 H       -4.6580    -2.5780    -1.6060 H     1 <1>   0.0800 
 36 H       -5.2330    -3.6130    -0.3260 H     1 <1>   0.0800 
 37 H        2.8380     3.0390    -1.6530 H     1 <1>   0.1500 
@<TRIPOS>BOND
  1   1   2  2   
  2   2   3  am  
  3   2   4  1   
  4   3   5  1   
  5   3  20  1   
  6   4   6  ar  
  7   4   7  ar  
  8   5   8  1   
  9   5   9  1   
 10   6  10  ar  
 11   6  11  ar  
 12   7  12  ar  
 13   7  21  1   
 14   8  13  1   
 15   8  22  1   
 16   8  23  1   
 17   9  14  1   
 18   9  24  1   
 19   9  25  1   
 20  10  15  ar  
 21  10  16  ar  
 22  11  17  ar  
 23  11  26  1   
 24  12  15  ar  
 25  12  27  1   
 26  13  18  1   
 27  13  28  1   
 28  13  29  1   
 29  14  18  1   
 30  14  30  1   
 31  14  31  1   
 32  15  32  1   
 33  16  19  ar  
 34  16  33  1   
 35  17  19  ar  
 36  17  34  1   
 37  18  35  1   
 38  18  36  1   
 39  19  37  1   
@<TRIPOS>SUBSTRUCTURE
  1 ****   3 GROUP 4 **** **** 0

# MOE 2024.06 (io_trps.svl 2023.06)
