@<TRIPOS>MOLECULE
NONAME
39 40 1 0 0 
SMALL
USER_CHARGES


@<TRIPOS>ATOM
  1 O        1.6870     3.0380    -1.0910 O.2   1 <1>  -0.5700 
  2 C        0.8450     2.5540    -0.3580 C.2   1 <1>   0.5440 
  3 N        1.2500     1.6460     0.5840 N.am  1 <1>  -0.7300 
  4 C       -0.5550     2.9230    -0.4810 C.ar  1 <1>   0.0860 
  5 C        2.6440     1.1760     0.7470 C.3   1 <1>   0.1400 
  6 C       -1.4300     2.8900     0.6070 C.ar  1 <1>  -0.1500 
  7 C       -1.0820     3.3290    -1.7070 C.ar  1 <1>  -0.1500 
  8 C        3.4190     2.1620     1.6170 C.3   1 <1>  -0.0990 
  9 C       -2.7640     3.2310     0.4730 C.ar  1 <1>  -0.1500 
 10 C       -2.4140     3.6720    -1.8470 C.ar  1 <1>  -0.1500 
 11 C        4.9030     1.9010     1.4830 C.2   1 <1>   0.5690 
 12 C       -3.2650     3.6240    -0.7560 C.ar  1 <1>  -0.1430 
 13 O        5.4280     1.2010     2.3150 O.2   1 <1>  -0.5700 
 14 N        5.6050     2.4330     0.4370 N.am  1 <1>  -0.6600 
 15 C       -4.7280     3.9980    -0.9070 C.3   1 <1>  -0.0970 
 16 C        5.0530     3.2520    -0.6710 C.3   1 <1>   0.1400 
 17 C        7.0470     2.1790     0.2420 C.3   1 <1>   0.1400 
 18 C        6.2730     3.6900    -1.4740 C.3   1 <1>  -0.1600 
 19 C        7.3300     2.6280    -1.1870 C.3   1 <1>  -0.1600 
 20 H        0.5490     1.1750     1.1570 H     1 <1>   0.3700 
 21 H        3.1040     1.1050    -0.2250 H     1 <1>   0.0800 
 22 H        2.6570     0.1960     1.1930 H     1 <1>   0.0800 
 23 H       -1.0630     2.6020     1.5750 H     1 <1>   0.1500 
 24 H       -0.4300     3.3730    -2.5630 H     1 <1>   0.1500 
 25 H        3.1330     2.0400     2.6450 H     1 <1>   0.0800 
 26 H        3.2070     3.1720     1.3250 H     1 <1>   0.0800 
 27 H       -3.4130     3.1930     1.3310 H     1 <1>   0.1500 
 28 H       -2.7860     3.9770    -2.8090 H     1 <1>   0.1500 
 29 H       -4.8490     4.7390    -1.6770 H     1 <1>   0.0800 
 30 H       -5.1120     4.4010     0.0130 H     1 <1>   0.0800 
 31 H       -5.3010     3.1270    -1.1700 H     1 <1>   0.0800 
 32 H        4.5050     4.1010    -0.2990 H     1 <1>   0.0800 
 33 H        4.4060     2.6440    -1.2800 H     1 <1>   0.0800 
 34 H        7.2790     1.1370     0.3890 H     1 <1>   0.0800 
 35 H        7.6040     2.7740     0.9450 H     1 <1>   0.0800 
 36 H        6.6060     4.6460    -1.1070 H     1 <1>   0.0800 
 37 H        6.0490     3.7760    -2.5220 H     1 <1>   0.0800 
 38 H        7.1950     1.7890    -1.8480 H     1 <1>   0.0800 
 39 H        8.3320     3.0030    -1.2970 H     1 <1>   0.0800 
@<TRIPOS>BOND
  1   1   2  2   
  2   2   3  am  
  3   2   4  1   
  4   3   5  1   
  5   3  20  1   
  6   4   6  ar  
  7   4   7  ar  
  8   5   8  1   
  9   5  21  1   
 10   5  22  1   
 11   6   9  ar  
 12   6  23  1   
 13   7  10  ar  
 14   7  24  1   
 15   8  11  1   
 16   8  25  1   
 17   8  26  1   
 18   9  12  ar  
 19   9  27  1   
 20  10  12  ar  
 21  10  28  1   
 22  11  13  2   
 23  11  14  am  
 24  12  15  1   
 25  14  16  1   
 26  14  17  1   
 27  15  29  1   
 28  15  30  1   
 29  15  31  1   
 30  16  18  1   
 31  16  32  1   
 32  16  33  1   
 33  17  19  1   
 34  17  34  1   
 35  17  35  1   
 36  18  19  1   
 37  18  36  1   
 38  18  37  1   
 39  19  38  1   
 40  19  39  1   
@<TRIPOS>SUBSTRUCTURE
  1 ****   1 GROUP 4 **** **** 0

# MOE 2024.06 (io_trps.svl 2023.06)
