@<TRIPOS>MOLECULE
NONAME
34 34 1 0 0 
SMALL
USER_CHARGES


@<TRIPOS>ATOM
  1 O        3.5830     1.5310    -2.1270 O.2   1 <1>  -0.5700 
  2 C        3.4650     2.3440    -1.2330 C.2   1 <1>   0.7150 
  3 N        4.6300     2.8790    -0.7700 N.am  1 <1>  -0.7300 
  4 C        2.1610     2.7090    -0.7140 C.2   1 <1>   0.0550 
  5 C        4.9050     3.5000     0.5490 C.3   1 <1>   0.0600 
  6 O        1.1260     1.8860    -0.8580 O.3   1 <1>  -0.2800 
  7 C        1.7190     3.8220    -0.0640 C.2   1 <1>  -0.1500 
  8 C        0.0540     2.4280    -0.3340 C.2   1 <1>  -0.0400 
  9 C        0.3580     3.6400     0.1850 C.2   1 <1>  -0.1500 
 10 C       -1.2270     1.6230    -0.4250 C.3   1 <1>   0.5230 
 11 N       -2.3600     2.4220     0.0990 N.4   1 <1>  -0.9060 
 12 C       -3.6700     1.7720    -0.0310 C.3   1 <1>   0.4230 
 13 C       -4.7590     2.8270     0.1960 C.3   1 <1>  -0.1600 
 14 C       -3.7770     0.6470     0.9950 C.3   1 <1>  -0.2400 
 15 C       -4.7050     4.0020    -0.7970 C.3   1 <1>  -0.2400 
 16 H        5.4520     2.5660    -1.2930 H     1 <1>   0.3700 
 17 H        4.1010     3.3030     1.2370 H     1 <1>   0.0800 
 18 H        5.0250     4.5640     0.4340 H     1 <1>   0.0800 
 19 H        5.8120     3.0890     0.9590 H     1 <1>   0.0800 
 20 H        2.2900     4.6940     0.2050 H     1 <1>   0.1500 
 21 H       -0.2630     4.3620     0.6880 H     1 <1>   0.1500 
 22 H       -1.1120     0.7120     0.1400 H     1 <1>   0.0800 
 23 H       -1.4020     1.3640    -1.4570 H     1 <1>   0.0800 
 24 H       -2.3850     3.3060    -0.4180 H     1 <1>   0.4500 
 25 H       -2.1840     2.6490     1.0820 H     1 <1>   0.4500 
 26 H       -3.7830     1.3680    -1.0260 H     1 <1>   0.0800 
 27 H       -4.7120     3.2030     1.2050 H     1 <1>   0.0800 
 28 H       -5.7170     2.3470     0.0880 H     1 <1>   0.0800 
 29 H       -3.6490     1.0180     1.9970 H     1 <1>   0.0800 
 30 H       -3.0580    -0.1280     0.8040 H     1 <1>   0.0800 
 31 H       -4.7540     0.1980     0.9330 H     1 <1>   0.0800 
 32 H       -3.8340     4.6150    -0.6500 H     1 <1>   0.0800 
 33 H       -5.5690     4.6290    -0.6550 H     1 <1>   0.0800 
 34 H       -4.7210     3.6460    -1.8130 H     1 <1>   0.0800 
@<TRIPOS>BOND
  1   1   2  2   
  2   2   3  am  
  3   2   4  1   
  4   3   5  1   
  5   3  16  1   
  6   4   6  1   
  7   4   7  2   
  8   5  17  1   
  9   5  18  1   
 10   5  19  1   
 11   6   8  1   
 12   7   9  1   
 13   7  20  1   
 14   8   9  2   
 15   8  10  1   
 16   9  21  1   
 17  10  11  1   
 18  10  22  1   
 19  10  23  1   
 20  11  12  1   
 21  11  24  1   
 22  11  25  1   
 23  12  13  1   
 24  12  14  1   
 25  12  26  1   
 26  13  15  1   
 27  13  27  1   
 28  13  28  1   
 29  14  29  1   
 30  14  30  1   
 31  14  31  1   
 32  15  32  1   
 33  15  33  1   
 34  15  34  1   
@<TRIPOS>SUBSTRUCTURE
  1 ****   8 GROUP 4 **** **** 0

# MOE 2024.06 (io_trps.svl 2023.06)
