@<TRIPOS>MOLECULE
NONAME
43 44 1 0 0 
SMALL
USER_CHARGES


@<TRIPOS>ATOM
  1 O       -0.7590    -0.1080     1.3190 O.2   1 <1>  -0.5700 
  2 C       -1.6520     0.5060     0.7870 C.2   1 <1>   0.5690 
  3 N       -2.5200    -0.0830    -0.0990 N.am  1 <1>  -0.6600 
  4 C       -1.7810     1.9700     1.1360 C.3   1 <1>  -0.1790 
  5 C       -2.4090    -1.5250    -0.4330 C.3   1 <1>   0.1400 
  6 C       -3.6180     0.6110    -0.8160 C.3   1 <1>   0.1400 
  7 C       -3.7290    -2.2290    -0.1120 C.3   1 <1>  -0.1600 
  8 C       -4.9510    -0.0750    -0.5040 C.3   1 <1>  -0.1600 
  9 C       -4.9280    -1.5800    -0.8330 C.3   1 <1>   0.1900 
 10 N       -6.2290    -2.1910    -0.4340 N.3   1 <1>  -0.8100 
 11 C       -7.3450    -1.7980    -1.3390 C.3   1 <1>   0.1100 
 12 C       -6.2050    -3.6790    -0.3140 C.3   1 <1>   0.1100 
 13 C       -8.7250    -2.2800    -0.8280 C.3   1 <1>   0.3430 
 14 C       -7.5940    -4.2990    -0.0220 C.3   1 <1>   0.3430 
 15 N       -8.5860    -3.2350     0.3220 N.4   1 <1>  -0.9590 
 16 C       -9.8660    -3.7760     0.8390 C.3   1 <1>   0.3430 
 17 C      -10.6700    -2.6610     1.4960 C.3   1 <1>  -0.2400 
 18 H       -1.6470     2.5690     0.2560 H     1 <1>   0.0800 
 19 H       -1.0260     2.2390     1.8520 H     1 <1>   0.0800 
 20 H       -2.7450     2.1590     1.5680 H     1 <1>   0.0800 
 21 H       -1.6120    -1.9860     0.1260 H     1 <1>   0.0800 
 22 H       -2.1780    -1.6250    -1.4800 H     1 <1>   0.0800 
 23 H       -3.4230     0.5680    -1.8740 H     1 <1>   0.0800 
 24 H       -3.6760     1.6470    -0.5340 H     1 <1>   0.0800 
 25 H       -3.8790    -2.1950     0.9530 H     1 <1>   0.0800 
 26 H       -3.6140    -3.2520    -0.4150 H     1 <1>   0.0800 
 27 H       -5.7040     0.4320    -1.0730 H     1 <1>   0.0800 
 28 H       -5.1690     0.0610     0.5410 H     1 <1>   0.0800 
 29 H       -4.7870    -1.7060    -1.8950 H     1 <1>   0.0800 
 30 H       -7.1710    -2.2040    -2.3220 H     1 <1>   0.0800 
 31 H       -7.3970    -0.7300    -1.4430 H     1 <1>   0.0800 
 32 H       -5.5570    -3.9580     0.4990 H     1 <1>   0.0800 
 33 H       -5.8070    -4.1160    -1.2140 H     1 <1>   0.0800 
 34 H       -9.2600    -2.7460    -1.6380 H     1 <1>   0.0800 
 35 H       -9.2920    -1.4200    -0.5150 H     1 <1>   0.0800 
 36 H       -7.4990    -4.9990     0.7920 H     1 <1>   0.0800 
 37 H       -7.9280    -4.8440    -0.8890 H     1 <1>   0.0800 
 38 H       -8.1140    -2.6800     1.0530 H     1 <1>   0.4500 
 39 H       -9.6640    -4.5390     1.5740 H     1 <1>   0.0800 
 40 H      -10.4350    -4.2210     0.0370 H     1 <1>   0.0800 
 41 H      -10.1020    -2.1910     2.2800 H     1 <1>   0.0800 
 42 H      -11.5580    -3.0800     1.9360 H     1 <1>   0.0800 
 43 H      -10.9800    -1.9230     0.7790 H     1 <1>   0.0800 
@<TRIPOS>BOND
  1   1   2  2   
  2   2   3  am  
  3   2   4  1   
  4   3   5  1   
  5   3   6  1   
  6   4  18  1   
  7   4  19  1   
  8   4  20  1   
  9   5   7  1   
 10   5  21  1   
 11   5  22  1   
 12   6   8  1   
 13   6  23  1   
 14   6  24  1   
 15   7   9  1   
 16   7  25  1   
 17   7  26  1   
 18   8   9  1   
 19   8  27  1   
 20   8  28  1   
 21   9  10  1   
 22   9  29  1   
 23  10  11  1   
 24  10  12  1   
 25  11  13  1   
 26  11  30  1   
 27  11  31  1   
 28  12  14  1   
 29  12  32  1   
 30  12  33  1   
 31  13  15  1   
 32  13  34  1   
 33  13  35  1   
 34  14  15  1   
 35  14  36  1   
 36  14  37  1   
 37  15  16  1   
 38  15  38  1   
 39  16  17  1   
 40  16  39  1   
 41  16  40  1   
 42  17  41  1   
 43  17  42  1   
 44  17  43  1   
@<TRIPOS>SUBSTRUCTURE
  1 ****   9 GROUP 4 **** **** 0

# MOE 2024.06 (io_trps.svl 2023.06)
