@<TRIPOS>MOLECULE
NONAME
50 50 1 0 0 
SMALL
USER_CHARGES


@<TRIPOS>ATOM
  1 N        0.2930    -0.1350    -1.0190 N.4   1 <1>  -0.9590 
  2 C       -0.9130    -1.0340    -0.9170 C.3   1 <1>   0.3430 
  3 C        0.0190     1.2420    -1.5220 C.3   1 <1>   0.3430 
  4 C        1.3540    -0.7860    -1.8290 C.3   1 <1>   0.4810 
  5 C       -2.1800    -0.4370    -0.2360 C.3   1 <1>   0.3430 
  6 C       -0.3370     2.1640    -0.3570 C.3   1 <1>  -0.1600 
  7 C        2.6480    -0.1900    -1.3350 C.2   1 <1>  -0.2880 
  8 N       -1.9400     0.6220     0.8150 N.4   1 <1>  -0.9590 
  9 C       -1.7380     1.9810     0.2280 C.3   1 <1>   0.3430 
 10 C        3.4570    -0.6860    -0.3920 C.2   1 <1>  -0.2760 
 11 C       -3.1210     0.6770     1.7440 C.3   1 <1>   0.2630 
 12 C        4.7460     0.0340     0.0070 C.3   1 <1>  -0.0220 
 13 C        3.2240    -1.9800     0.3860 C.3   1 <1>  -0.1020 
 14 C        6.0020    -0.6940    -0.4830 C.3   1 <1>  -0.0220 
 15 C        7.2420     0.1240    -0.1540 C.2   1 <1>  -0.2880 
 16 C        8.2040    -0.1350     0.7410 C.2   1 <1>  -0.2760 
 17 C        9.3860     0.8040     0.9240 C.3   1 <1>  -0.1020 
 18 C        8.2800    -1.3350     1.6760 C.3   1 <1>  -0.1020 
 19 H        0.7620    -0.0470    -0.1060 H     1 <1>   0.4500 
 20 H       -1.1970    -1.3630    -1.9040 H     1 <1>   0.0800 
 21 H       -0.6330    -1.9210    -0.3710 H     1 <1>   0.0800 
 22 H        0.9090     1.6330    -1.9920 H     1 <1>   0.0800 
 23 H       -0.7640     1.2320    -2.2630 H     1 <1>   0.0800 
 24 H        1.3650    -1.8490    -1.6470 H     1 <1>   0.0800 
 25 H        1.2200    -0.6160    -2.8860 H     1 <1>   0.0800 
 26 H       -2.7250    -1.2580     0.2040 H     1 <1>   0.0800 
 27 H       -2.8180    -0.0280    -1.0030 H     1 <1>   0.0800 
 28 H        0.4060     2.0980     0.4180 H     1 <1>   0.0800 
 29 H       -0.2900     3.1720    -0.7300 H     1 <1>   0.0800 
 30 H        2.8870     0.7290    -1.8450 H     1 <1>   0.1500 
 31 H       -1.1250     0.3820     1.3990 H     1 <1>   0.4500 
 32 H       -2.4820     2.1670    -0.5320 H     1 <1>   0.0800 
 33 H       -1.8760     2.7240     0.9990 H     1 <1>   0.0800 
 34 H       -4.0170     0.9410     1.2040 H     1 <1>   0.0800 
 35 H       -2.9600     1.4140     2.5160 H     1 <1>   0.0800 
 36 H       -3.2760    -0.2790     2.2180 H     1 <1>   0.0800 
 37 H        4.7510     1.0260    -0.4100 H     1 <1>   0.0800 
 38 H        4.7950     0.1410     1.0770 H     1 <1>   0.0800 
 39 H        3.9890    -2.6990     0.1510 H     1 <1>   0.0800 
 40 H        2.2760    -2.4290     0.1610 H     1 <1>   0.0800 
 41 H        3.2620    -1.7880     1.4440 H     1 <1>   0.0800 
 42 H        5.9490    -0.8300    -1.5490 H     1 <1>   0.0800 
 43 H        6.0580    -1.6680    -0.0390 H     1 <1>   0.0800 
 44 H        7.2840     1.0120    -0.7620 H     1 <1>   0.1500 
 45 H        9.4110     1.1780     1.9320 H     1 <1>   0.0800 
 46 H        9.3170     1.6430     0.2540 H     1 <1>   0.0800 
 47 H       10.3050     0.2850     0.7220 H     1 <1>   0.0800 
 48 H        9.1610    -1.9110     1.4600 H     1 <1>   0.0800 
 49 H        7.4280    -1.9790     1.5860 H     1 <1>   0.0800 
 50 H        8.3320    -1.0000     2.6970 H     1 <1>   0.0800 
@<TRIPOS>BOND
  1   1   2  1   
  2   1   3  1   
  3   1   4  1   
  4   1  19  1   
  5   2   5  1   
  6   2  20  1   
  7   2  21  1   
  8   3   6  1   
  9   3  22  1   
 10   3  23  1   
 11   4   7  1   
 12   4  24  1   
 13   4  25  1   
 14   5   8  1   
 15   5  26  1   
 16   5  27  1   
 17   6   9  1   
 18   6  28  1   
 19   6  29  1   
 20   7  10  2   
 21   7  30  1   
 22   8   9  1   
 23   8  11  1   
 24   8  31  1   
 25   9  32  1   
 26   9  33  1   
 27  10  12  1   
 28  10  13  1   
 29  11  34  1   
 30  11  35  1   
 31  11  36  1   
 32  12  14  1   
 33  12  37  1   
 34  12  38  1   
 35  13  39  1   
 36  13  40  1   
 37  13  41  1   
 38  14  15  1   
 39  14  42  1   
 40  14  43  1   
 41  15  16  2   
 42  15  44  1   
 43  16  17  1   
 44  16  18  1   
 45  17  45  1   
 46  17  46  1   
 47  17  47  1   
 48  18  48  1   
 49  18  49  1   
 50  18  50  1   
@<TRIPOS>SUBSTRUCTURE
  1 ****  10 GROUP 4 **** **** 0

# MOE 2024.06 (io_trps.svl 2023.06)
