@<TRIPOS>MOLECULE
NONAME
46 48 1 0 0 
SMALL
USER_CHARGES


@<TRIPOS>ATOM
  1 O       -3.2980     2.4580    -0.7890 O.3   1 <1>  -0.5600 
  2 C       -3.9850     1.5750     0.0570 C.3   1 <1>   0.2000 
  3 C       -3.1580     3.7910    -0.3680 C.3   1 <1>   0.2000 
  4 C       -5.4360     2.0710     0.3000 C.3   1 <1>   0.3430 
  5 C       -3.1820     1.3700     1.3490 C.3   1 <1>  -0.2400 
  6 C       -4.4550     4.3200     0.3000 C.3   1 <1>   0.3430 
  7 C       -2.7990     4.5920    -1.6190 C.3   1 <1>  -0.2400 
  8 N       -5.6420     3.5060    -0.1200 N.4   1 <1>  -0.9590 
  9 C       -6.9330     4.1000     0.3570 C.3   1 <1>   0.3430 
 10 C       -8.1580     3.4360    -0.2750 C.3   1 <1>   0.1200 
 11 O       -9.2920     4.0520     0.2790 O.3   1 <1>  -0.3630 
 12 C      -10.5450     3.6570    -0.0590 C.ar  1 <1>   0.0820 
 13 C      -11.5910     4.2760     0.6110 C.ar  1 <1>  -0.1500 
 14 C      -10.8190     2.6820    -1.0210 C.ar  1 <1>  -0.1500 
 15 C      -12.8920     3.9170     0.3180 C.ar  1 <1>  -0.1440 
 16 C      -12.1290     2.3310    -1.3060 C.ar  1 <1>  -0.1500 
 17 C      -13.1570     2.9580    -0.6270 C.ar  1 <1>  -0.1440 
 18 C      -14.1620     4.4580     0.9230 C.3   1 <1>  -0.0170 
 19 C      -14.6410     2.7330    -0.7770 C.3   1 <1>  -0.0170 
 20 C      -15.2610     3.9110    -0.0050 C.3   1 <1>  -0.1600 
 21 H       -4.0290     0.6300    -0.4570 H     1 <1>   0.0800 
 22 H       -2.3370     3.8430     0.3280 H     1 <1>   0.0800 
 23 H       -5.6650     1.9560     1.3470 H     1 <1>   0.0800 
 24 H       -6.1110     1.4340    -0.2460 H     1 <1>   0.0800 
 25 H       -3.1590     2.2550     1.9580 H     1 <1>   0.0800 
 26 H       -2.1750     1.0780     1.1080 H     1 <1>   0.0800 
 27 H       -3.6230     0.5790     1.9290 H     1 <1>   0.0800 
 28 H       -4.5910     5.3560     0.0350 H     1 <1>   0.0800 
 29 H       -4.3400     4.2700     1.3700 H     1 <1>   0.0800 
 30 H       -3.5840     4.5330    -2.3520 H     1 <1>   0.0800 
 31 H       -1.8920     4.2040    -2.0490 H     1 <1>   0.0800 
 32 H       -2.6340     5.6250    -1.3700 H     1 <1>   0.0800 
 33 H       -5.6090     3.5080    -1.1510 H     1 <1>   0.4500 
 34 H       -6.9570     5.1490     0.1090 H     1 <1>   0.0800 
 35 H       -7.0000     4.0040     1.4280 H     1 <1>   0.0800 
 36 H       -8.2050     2.3880    -0.0380 H     1 <1>   0.0800 
 37 H       -8.1780     3.5950    -1.3390 H     1 <1>   0.0800 
 38 H      -11.3860     5.0280     1.3510 H     1 <1>   0.1500 
 39 H      -10.0380     2.1860    -1.5620 H     1 <1>   0.1500 
 40 H      -12.3500     1.5820    -2.0460 H     1 <1>   0.1500 
 41 H      -14.1630     5.5340     0.9450 H     1 <1>   0.0800 
 42 H      -14.2770     4.0700     1.9200 H     1 <1>   0.0800 
 43 H      -14.9090     1.7960    -0.3200 H     1 <1>   0.0800 
 44 H      -14.9400     2.7360    -1.8100 H     1 <1>   0.0800 
 45 H      -15.5340     4.6790    -0.7070 H     1 <1>   0.0800 
 46 H      -16.1360     3.6120     0.5450 H     1 <1>   0.0800 
@<TRIPOS>BOND
  1   1   2  1   
  2   1   3  1   
  3   2   4  1   
  4   2   5  1   
  5   2  21  1   
  6   3   6  1   
  7   3   7  1   
  8   3  22  1   
  9   4   8  1   
 10   4  23  1   
 11   4  24  1   
 12   5  25  1   
 13   5  26  1   
 14   5  27  1   
 15   6   8  1   
 16   6  28  1   
 17   6  29  1   
 18   7  30  1   
 19   7  31  1   
 20   7  32  1   
 21   8   9  1   
 22   8  33  1   
 23   9  10  1   
 24   9  34  1   
 25   9  35  1   
 26  10  11  1   
 27  10  36  1   
 28  10  37  1   
 29  11  12  1   
 30  12  13  ar  
 31  12  14  ar  
 32  13  15  ar  
 33  13  38  1   
 34  14  16  ar  
 35  14  39  1   
 36  15  17  ar  
 37  15  18  1   
 38  16  17  ar  
 39  16  40  1   
 40  17  19  1   
 41  18  20  1   
 42  18  41  1   
 43  18  42  1   
 44  19  20  1   
 45  19  43  1   
 46  19  44  1   
 47  20  45  1   
 48  20  46  1   
@<TRIPOS>SUBSTRUCTURE
  1 ****  10 GROUP 4 **** **** 0

# MOE 2024.06 (io_trps.svl 2023.06)
