@<TRIPOS>MOLECULE
NONAME
34 36 1 0 0 
SMALL
USER_CHARGES


@<TRIPOS>ATOM
  1 CL       0.2480    -1.5220     2.8340 Cl    1 <1>  -0.1770 
  2 C       -0.1700    -2.2080     1.2810 C.ar  1 <1>   0.1770 
  3 C       -1.4010    -2.8350     1.1100 C.ar  1 <1>   0.0830 
  4 C        0.7370    -2.1100     0.2480 C.ar  1 <1>  -0.1500 
  5 O       -2.2640    -2.9150     2.1500 O.3   1 <1>  -0.1590 
  6 C       -1.7440    -3.3830    -0.1340 C.ar  1 <1>   0.0860 
  7 C        0.3950    -2.6550    -0.9770 C.ar  1 <1>   0.1770 
  8 C       -3.4430    -3.5320     2.0450 C.2   1 <1>  -0.0730 
  9 C       -3.0300    -4.0140    -0.2760 C.2   1 <1>   0.4690 
 10 C       -0.8180    -3.2820    -1.1770 C.ar  1 <1>  -0.1500 
 11 CL       1.5280    -2.5430    -2.2980 Cl    1 <1>  -0.1770 
 12 C       -3.8600    -4.0780     0.8810 C.2   1 <1>  -0.1240 
 13 O       -3.4290    -4.4620    -1.3350 O.2   1 <1>  -0.5700 
 14 C       -5.1830    -4.8060     0.7360 C.3   1 <1>   0.4810 
 15 N       -6.2890    -3.8490     0.4230 N.4   1 <1>  -0.9590 
 16 C       -7.6170    -4.4880     0.7300 C.3   1 <1>   0.3430 
 17 C       -6.2040    -3.3880    -1.0130 C.3   1 <1>   0.3430 
 18 C       -8.7860    -3.4980     0.6470 C.3   1 <1>   0.0700 
 19 C       -7.1960    -2.2650    -1.3430 C.3   1 <1>   0.0700 
 20 S       -8.8840    -2.8490    -1.0400 S.3   1 <1>  -0.4600 
 21 H        1.6860    -1.6250     0.3870 H     1 <1>   0.1500 
 22 H       -3.9960    -3.5460     2.9710 H     1 <1>   0.1500 
 23 H       -1.0480    -3.6950    -2.1450 H     1 <1>   0.1500 
 24 H       -5.3960    -5.3070     1.6660 H     1 <1>   0.0800 
 25 H       -5.1070    -5.5570    -0.0350 H     1 <1>   0.0800 
 26 H       -6.1750    -3.0260     1.0270 H     1 <1>   0.4500 
 27 H       -7.5970    -4.9040     1.7240 H     1 <1>   0.0800 
 28 H       -7.8000    -5.2960     0.0380 H     1 <1>   0.0800 
 29 H       -6.3840    -4.2200    -1.6750 H     1 <1>   0.0800 
 30 H       -5.2130    -3.0200    -1.2200 H     1 <1>   0.0800 
 31 H       -8.6620    -2.6660     1.3170 H     1 <1>   0.0800 
 32 H       -9.7240    -3.9860     0.8480 H     1 <1>   0.0800 
 33 H       -7.1410    -1.9940    -2.3830 H     1 <1>   0.0800 
 34 H       -7.0330    -1.3920    -0.7360 H     1 <1>   0.0800 
@<TRIPOS>BOND
  1   1   2  1   
  2   2   3  ar  
  3   2   4  ar  
  4   3   5  1   
  5   3   6  ar  
  6   4   7  ar  
  7   4  21  1   
  8   5   8  1   
  9   6   9  1   
 10   6  10  ar  
 11   7  10  ar  
 12   7  11  1   
 13   8  12  2   
 14   8  22  1   
 15   9  12  1   
 16   9  13  2   
 17  10  23  1   
 18  12  14  1   
 19  14  15  1   
 20  14  24  1   
 21  14  25  1   
 22  15  16  1   
 23  15  17  1   
 24  15  26  1   
 25  16  18  1   
 26  16  27  1   
 27  16  28  1   
 28  17  19  1   
 29  17  29  1   
 30  17  30  1   
 31  18  20  1   
 32  18  31  1   
 33  18  32  1   
 34  19  20  1   
 35  19  33  1   
 36  19  34  1   
@<TRIPOS>SUBSTRUCTURE
  1 ****   9 GROUP 4 **** **** 0

# MOE 2024.06 (io_trps.svl 2023.06)
