@<TRIPOS>MOLECULE
NONAME
40 41 1 0 0 
SMALL
USER_CHARGES


@<TRIPOS>ATOM
  1 O       -0.0680    -0.6110     1.0460 O.2   1 <1>  -0.5700 
  2 C       -0.0120    -1.6270     0.3810 C.2   1 <1>   0.6160 
  3 N       -1.1800    -2.1600    -0.1240 N.am  1 <1>  -0.6600 
  4 C        1.2600    -2.2540     0.1630 C.2   1 <1>   0.0790 
  5 C       -1.2560    -3.2490    -1.1450 C.3   1 <1>   0.1400 
  6 C       -2.5220    -1.6040     0.2300 C.3   1 <1>   0.1400 
  7 C        2.1420    -1.4540    -0.6240 C.1   1 <1>   0.4920 
  8 C        1.5610    -3.4910     0.6470 C.2   1 <1>  -0.1780 
  9 C       -2.3050    -4.2960    -0.7360 C.3   1 <1>   0.1200 
 10 C       -3.5100    -2.7390     0.5500 C.3   1 <1>   0.1200 
 11 N        2.8800    -0.8620    -1.2620 N.1   1 <1>  -0.5570 
 12 C        2.7570    -4.2800     0.5160 C.ar  1 <1>   0.0280 
 13 O       -3.5360    -3.6840    -0.4840 O.3   1 <1>  -0.5600 
 14 C        4.0370    -3.7310     0.4450 C.ar  1 <1>  -0.1500 
 15 C        2.6560    -5.6670     0.4630 C.ar  1 <1>  -0.1500 
 16 C        5.1740    -4.5120     0.2760 C.ar  1 <1>   0.0820 
 17 C        3.7760    -6.4630     0.3220 C.ar  1 <1>  -0.1500 
 18 O        6.3960    -3.9170     0.1570 O.3   1 <1>  -0.3630 
 19 C        5.0430    -5.9110     0.2260 C.ar  1 <1>   0.0820 
 20 C        6.5190    -2.6270    -0.4080 C.3   1 <1>   0.0400 
 21 O        6.0430    -6.8260     0.0890 O.3   1 <1>  -0.3630 
 22 C        7.4130    -6.5010     0.1500 C.3   1 <1>   0.0400 
 23 H       -1.5430    -2.8240    -2.0920 H     1 <1>   0.0800 
 24 H       -0.3050    -3.7310    -1.2780 H     1 <1>   0.0800 
 25 H       -2.4510    -0.9500     1.0820 H     1 <1>   0.0800 
 26 H       -2.8980    -1.0290    -0.5980 H     1 <1>   0.0800 
 27 H        0.7940    -3.9920     1.2140 H     1 <1>   0.1500 
 28 H       -1.9940    -4.8230     0.1500 H     1 <1>   0.0800 
 29 H       -2.4500    -5.0080    -1.5290 H     1 <1>   0.0800 
 30 H       -4.5040    -2.3450     0.6600 H     1 <1>   0.0800 
 31 H       -3.2330    -3.2350     1.4640 H     1 <1>   0.0800 
 32 H        4.1430    -2.6700     0.5420 H     1 <1>   0.1500 
 33 H        1.6900    -6.1350     0.5290 H     1 <1>   0.1500 
 34 H        3.6770    -7.5330     0.2830 H     1 <1>   0.1500 
 35 H        7.5520    -2.4680    -0.6570 H     1 <1>   0.0800 
 36 H        6.2040    -1.8940     0.3130 H     1 <1>   0.0800 
 37 H        5.9160    -2.5730    -1.2990 H     1 <1>   0.0800 
 38 H        7.9750    -7.4160     0.1240 H     1 <1>   0.0800 
 39 H        7.6070    -5.9760     1.0680 H     1 <1>   0.0800 
 40 H        7.6640    -5.8940    -0.7010 H     1 <1>   0.0800 
@<TRIPOS>BOND
  1   1   2  2   
  2   2   3  am  
  3   2   4  1   
  4   3   5  1   
  5   3   6  1   
  6   4   7  1   
  7   4   8  2   
  8   5   9  1   
  9   5  23  1   
 10   5  24  1   
 11   6  10  1   
 12   6  25  1   
 13   6  26  1   
 14   7  11  3   
 15   8  12  1   
 16   8  27  1   
 17   9  13  1   
 18   9  28  1   
 19   9  29  1   
 20  10  13  1   
 21  10  30  1   
 22  10  31  1   
 23  12  14  ar  
 24  12  15  ar  
 25  14  16  ar  
 26  14  32  1   
 27  15  17  ar  
 28  15  33  1   
 29  16  18  1   
 30  16  19  ar  
 31  17  19  ar  
 32  17  34  1   
 33  18  20  1   
 34  19  21  1   
 35  20  35  1   
 36  20  36  1   
 37  20  37  1   
 38  21  22  1   
 39  22  38  1   
 40  22  39  1   
 41  22  40  1   
@<TRIPOS>SUBSTRUCTURE
  1 ****   8 GROUP 4 **** **** 0

# MOE 2024.06 (io_trps.svl 2023.06)
