@<TRIPOS>MOLECULE
NONAME
38 40 1 0 0 
SMALL
USER_CHARGES


@<TRIPOS>ATOM
  1 O       -1.0260    -0.5910     1.6620 O.3   1 <1>  -0.3370 
  2 N       -0.9090    -1.7610     1.0660 N.2   1 <1>  -0.5130 
  3 C       -1.9270    -2.3420     0.5850 C.2   1 <1>   0.3280 
  4 C       -1.8850    -3.7320    -0.0620 C.3   1 <1>   0.0610 
  5 C       -3.3490    -1.8070     0.6630 C.3   1 <1>  -0.0190 
  6 C       -0.4300    -4.3020    -0.2170 C.3   1 <1>  -0.0800 
  7 C       -2.6680    -4.6420     0.9080 C.3   1 <1>   0.3430 
  8 C       -2.5810    -3.6560    -1.4390 C.3   1 <1>   0.1100 
  9 C       -4.0810    -2.6810     1.6760 C.3   1 <1>   0.3430 
 10 C       -4.0080    -1.7880    -0.7190 C.3   1 <1>   0.1100 
 11 C        0.4340    -3.5490    -1.2500 C.3   1 <1>  -0.2400 
 12 C       -0.3760    -5.8010    -0.5740 C.3   1 <1>  -0.2400 
 13 N       -4.0290    -4.1500     1.3530 N.4   1 <1>  -0.9590 
 14 N       -3.9380    -3.0990    -1.3690 N.3   1 <1>  -0.8100 
 15 C       -5.1260    -4.5480     0.4040 C.3   1 <1>   0.3430 
 16 C       -5.0130    -4.0560    -1.0570 C.3   1 <1>   0.1100 
 17 H       -0.1740    -0.1800     1.9260 H     1 <1>   0.4000 
 18 H       -3.3660    -0.7990     1.0330 H     1 <1>   0.0800 
 19 H        0.0650    -4.1960     0.7360 H     1 <1>   0.0800 
 20 H       -2.0530    -4.7610     1.7860 H     1 <1>   0.0800 
 21 H       -2.7750    -5.6150     0.4600 H     1 <1>   0.0800 
 22 H       -2.0090    -3.0140    -2.0870 H     1 <1>   0.0800 
 23 H       -2.6140    -4.6260    -1.9060 H     1 <1>   0.0800 
 24 H       -3.6130    -2.5210     2.6350 H     1 <1>   0.0800 
 25 H       -5.1050    -2.3570     1.7550 H     1 <1>   0.0800 
 26 H       -3.4860    -1.0760    -1.3380 H     1 <1>   0.0800 
 27 H       -5.0330    -1.4630    -0.6510 H     1 <1>   0.0800 
 28 H        0.1100    -3.7460    -2.2560 H     1 <1>   0.0800 
 29 H        1.4590    -3.8640    -1.1680 H     1 <1>   0.0800 
 30 H        0.4110    -2.4860    -1.0860 H     1 <1>   0.0800 
 31 H       -0.8680    -6.0020    -1.5090 H     1 <1>   0.0800 
 32 H       -0.8110    -6.4160     0.1920 H     1 <1>   0.0800 
 33 H        0.6500    -6.1120    -0.6760 H     1 <1>   0.0800 
 34 H       -4.2350    -4.6400     2.2340 H     1 <1>   0.4500 
 35 H       -5.1950    -5.6230     0.3780 H     1 <1>   0.0800 
 36 H       -6.0660    -4.1940     0.7940 H     1 <1>   0.0800 
 37 H       -5.9530    -3.6090    -1.3320 H     1 <1>   0.0800 
 38 H       -4.9000    -4.9150    -1.6950 H     1 <1>   0.0800 
@<TRIPOS>BOND
  1   1   2  1   
  2   1  17  1   
  3   2   3  2   
  4   3   4  1   
  5   3   5  1   
  6   4   6  1   
  7   4   7  1   
  8   4   8  1   
  9   5   9  1   
 10   5  10  1   
 11   5  18  1   
 12   6  11  1   
 13   6  12  1   
 14   6  19  1   
 15   7  13  1   
 16   7  20  1   
 17   7  21  1   
 18   8  14  1   
 19   8  22  1   
 20   8  23  1   
 21   9  13  1   
 22   9  24  1   
 23   9  25  1   
 24  10  14  1   
 25  10  26  1   
 26  10  27  1   
 27  11  28  1   
 28  11  29  1   
 29  11  30  1   
 30  12  31  1   
 31  12  32  1   
 32  12  33  1   
 33  13  15  1   
 34  13  34  1   
 35  14  16  1   
 36  15  16  1   
 37  15  35  1   
 38  15  36  1   
 39  16  37  1   
 40  16  38  1   
@<TRIPOS>SUBSTRUCTURE
  1 ****   4 GROUP 4 **** **** 0

# MOE 2024.06 (io_trps.svl 2023.06)
