@<TRIPOS>MOLECULE
NONAME
40 42 1 0 0 
SMALL
USER_CHARGES


@<TRIPOS>ATOM
  1 O        0.3190    -0.2690    -0.2580 O.3   1 <1>  -0.3630 
  2 C        1.2280    -1.2050    -0.6340 C.ar  1 <1>   0.0830 
  3 C       -0.9520    -0.2010    -0.8610 C.3   1 <1>   0.1200 
  4 C        2.4490    -1.1850     0.0160 C.ar  1 <1>  -0.1500 
  5 C        0.9930    -2.1570    -1.6200 C.ar  1 <1>  -0.1500 
  6 C       -1.7180     0.9510    -0.2170 C.3   1 <1>  -0.2400 
  7 C        3.4660    -2.0920    -0.2800 C.ar  1 <1>   0.0280 
  8 C        1.9830    -3.0700    -1.9340 C.ar  1 <1>  -0.1500 
  9 C        3.1970    -3.0360    -1.2720 C.ar  1 <1>  -0.1500 
 10 C        4.7140    -2.0120     0.4430 C.2   1 <1>  -0.1780 
 11 C        5.9080    -2.6340     0.2810 C.2   1 <1>  -0.0380 
 12 N        6.2320    -3.5690    -0.7030 N.pl3 1 <1>  -0.8380 
 13 C        7.0890    -2.3370     1.2280 C.3   1 <1>   0.3380 
 14 C        7.3420    -3.0890    -1.5800 C.3   1 <1>   0.2090 
 15 C        6.6260    -4.8790    -0.1010 C.3   1 <1>   0.2090 
 16 O        7.3950    -0.9930     1.1300 O.3   1 <1>  -0.6800 
 17 C        8.3050    -3.1830     0.7710 C.3   1 <1>  -0.0800 
 18 C        8.6090    -2.8720    -0.7180 C.3   1 <1>  -0.1600 
 19 C        7.8560    -4.6630     0.8160 C.3   1 <1>  -0.1600 
 20 H       -0.8190    -0.0270    -1.9150 H     1 <1>   0.0800 
 21 H       -1.4590    -1.1350    -0.6950 H     1 <1>   0.0800 
 22 H        2.6060    -0.4390     0.7720 H     1 <1>   0.1500 
 23 H        0.0600    -2.2050    -2.1480 H     1 <1>   0.1500 
 24 H       -1.1940     1.8760    -0.3730 H     1 <1>   0.0800 
 25 H       -1.8290     0.7750     0.8390 H     1 <1>   0.0800 
 26 H       -2.6950     1.0300    -0.6570 H     1 <1>   0.0800 
 27 H        1.8110    -3.8120    -2.6940 H     1 <1>   0.1500 
 28 H        3.9450    -3.7580    -1.5330 H     1 <1>   0.1500 
 29 H        4.6590    -1.3150     1.2590 H     1 <1>   0.1500 
 30 H        6.8300    -2.5500     2.2500 H     1 <1>   0.0800 
 31 H        7.5300    -3.8100    -2.3580 H     1 <1>   0.0800 
 32 H        7.0450    -2.1640    -2.0450 H     1 <1>   0.0800 
 33 H        5.7990    -5.2670     0.4690 H     1 <1>   0.0800 
 34 H        6.8550    -5.5830    -0.8830 H     1 <1>   0.0800 
 35 H        7.1540    -0.7190     0.2250 H     1 <1>   0.4000 
 36 H        9.1560    -3.0130     1.4060 H     1 <1>   0.0800 
 37 H        9.3970    -3.5100    -1.0750 H     1 <1>   0.0800 
 38 H        8.9480    -1.8580    -0.8290 H     1 <1>   0.0800 
 39 H        7.5970    -4.9400     1.8230 H     1 <1>   0.0800 
 40 H        8.6560    -5.3080     0.5000 H     1 <1>   0.0800 
@<TRIPOS>BOND
  1   1   2  1   
  2   1   3  1   
  3   2   4  ar  
  4   2   5  ar  
  5   3   6  1   
  6   3  20  1   
  7   3  21  1   
  8   4   7  ar  
  9   4  22  1   
 10   5   8  ar  
 11   5  23  1   
 12   6  24  1   
 13   6  25  1   
 14   6  26  1   
 15   7   9  ar  
 16   7  10  1   
 17   8   9  ar  
 18   8  27  1   
 19   9  28  1   
 20  10  11  2   
 21  10  29  1   
 22  11  12  1   
 23  11  13  1   
 24  12  14  1   
 25  12  15  1   
 26  13  16  1   
 27  13  17  1   
 28  13  30  1   
 29  14  18  1   
 30  14  31  1   
 31  14  32  1   
 32  15  19  1   
 33  15  33  1   
 34  15  34  1   
 35  16  35  1   
 36  17  18  1   
 37  17  19  1   
 38  17  36  1   
 39  18  37  1   
 40  18  38  1   
 41  19  39  1   
 42  19  40  1   
@<TRIPOS>SUBSTRUCTURE
  1 ****   7 GROUP 4 **** **** 0

# MOE 2024.06 (io_trps.svl 2023.06)
