@<TRIPOS>MOLECULE
NONAME
34 35 1 0 0 
SMALL
USER_CHARGES


@<TRIPOS>ATOM
  1 CL      -1.1510     1.9350    -2.0330 Cl    1 <1>  -0.1770 
  2 C        0.1840     2.3960    -1.0020 C.ar  1 <1>   0.1770 
  3 C       -0.0380     2.8760     0.2900 C.ar  1 <1>   0.0860 
  4 C        1.4580     2.2430    -1.5180 C.ar  1 <1>  -0.1500 
  5 C       -1.3610     3.0630     0.8360 C.2   1 <1>   0.6340 
  6 C        1.0900     3.1700     1.0590 C.ar  1 <1>  -0.1500 
  7 C        2.5570     2.5570    -0.7380 C.ar  1 <1>  -0.1500 
  8 O       -1.6680     2.7210     1.9580 O.2   1 <1>  -0.5700 
  9 O       -2.2810     3.6620     0.0750 O.3   1 <1>  -0.4300 
 10 C        2.3690     3.0170     0.5540 C.ar  1 <1>  -0.1500 
 11 C       -3.6160     3.8240     0.4840 C.3   1 <1>   0.2000 
 12 C       -4.3540     2.4970     0.2810 C.3   1 <1>  -0.1600 
 13 C       -4.2260     4.9300    -0.3760 C.3   1 <1>  -0.1600 
 14 C       -5.8480     2.6650     0.5290 C.3   1 <1>   0.3430 
 15 C       -5.7250     5.0510    -0.1190 C.3   1 <1>   0.3430 
 16 N       -6.3880     3.7350    -0.3610 N.4   1 <1>  -0.9590 
 17 C       -7.8710     3.8490    -0.2180 C.3   1 <1>   0.2630 
 18 H        1.5880     1.8760    -2.5210 H     1 <1>   0.1500 
 19 H        0.9570     3.5240     2.0680 H     1 <1>   0.1500 
 20 H        3.5530     2.4400    -1.1320 H     1 <1>   0.1500 
 21 H        3.2230     3.2550     1.1670 H     1 <1>   0.1500 
 22 H       -3.6280     4.1170     1.5220 H     1 <1>   0.0800 
 23 H       -3.9730     1.7640     0.9710 H     1 <1>   0.0800 
 24 H       -4.1930     2.1320    -0.7190 H     1 <1>   0.0800 
 25 H       -4.0570     4.7240    -1.4180 H     1 <1>   0.0800 
 26 H       -3.7530     5.8650    -0.1370 H     1 <1>   0.0800 
 27 H       -6.0130     2.9290     1.5620 H     1 <1>   0.0800 
 28 H       -6.3500     1.7310     0.3330 H     1 <1>   0.0800 
 29 H       -6.1410     5.8010    -0.7730 H     1 <1>   0.0800 
 30 H       -5.8920     5.3610     0.9010 H     1 <1>   0.0800 
 31 H       -6.1730     3.4590    -1.3320 H     1 <1>   0.4500 
 32 H       -8.1300     4.1350     0.7880 H     1 <1>   0.0800 
 33 H       -8.3420     2.9050    -0.4400 H     1 <1>   0.0800 
 34 H       -8.2570     4.5910    -0.8980 H     1 <1>   0.0800 
@<TRIPOS>BOND
  1   1   2  1   
  2   2   3  ar  
  3   2   4  ar  
  4   3   5  1   
  5   3   6  ar  
  6   4   7  ar  
  7   4  18  1   
  8   5   8  2   
  9   5   9  1   
 10   6  10  ar  
 11   6  19  1   
 12   7  10  ar  
 13   7  20  1   
 14   9  11  1   
 15  10  21  1   
 16  11  12  1   
 17  11  13  1   
 18  11  22  1   
 19  12  14  1   
 20  12  23  1   
 21  12  24  1   
 22  13  15  1   
 23  13  25  1   
 24  13  26  1   
 25  14  16  1   
 26  14  27  1   
 27  14  28  1   
 28  15  16  1   
 29  15  29  1   
 30  15  30  1   
 31  16  17  1   
 32  16  31  1   
 33  17  32  1   
 34  17  33  1   
 35  17  34  1   
@<TRIPOS>SUBSTRUCTURE
  1 ****   9 GROUP 4 **** **** 0

# MOE 2024.06 (io_trps.svl 2023.06)
