@<TRIPOS>MOLECULE
ka-07468
34 35 1 0 0 
SMALL
USER_CHARGES


@<TRIPOS>ATOM
  1 O       -0.5580    -0.0290    -0.0180 O.2   1 <1>  -0.5700 
  2 C       -1.5110     0.7660    -0.0100 C.2   1 <1>   0.6160 
  3 N       -2.7350     0.1440    -0.0120 N.am  1 <1>  -0.5470 
  4 C       -1.4470     2.1710     0.0010 C.2   1 <1>  -0.1240 
  5 C       -3.9360     0.8420    -0.0040 C.ar  1 <1>   0.1170 
  6 C       -2.6270     2.9220     0.0090 C.2   1 <1>  -0.1780 
  7 C       -0.1470     2.9910     0.0040 C.3   1 <1>  -0.0220 
  8 C       -3.9070     2.2430     0.0070 C.ar  1 <1>   0.0280 
  9 C       -5.1530     0.1670    -0.0060 C.ar  1 <1>  -0.1500 
 10 O       -2.6040     4.1690     0.0190 O.3   1 <1>  -0.8500 
 11 C        1.1950     2.2410    -0.0050 C.3   1 <1>  -0.1600 
 12 C       -5.1220     2.9250     0.0150 C.ar  1 <1>  -0.1500 
 13 C       -6.3450     0.8620     0.0020 C.ar  1 <1>  -0.1500 
 14 C        2.3810     3.2150     0.0000 C.3   1 <1>  -0.1600 
 15 C       -6.3330     2.2580     0.0120 C.ar  1 <1>   0.0820 
 16 C        3.7140     2.4620    -0.0080 C.3   1 <1>  -0.2400 
 17 O       -7.4650     3.0170     0.0210 O.3   1 <1>  -0.3630 
 18 C       -8.7410     2.4200     0.0190 C.3   1 <1>   0.0400 
 19 H       -2.6950    -0.8680    -0.0200 H     1 <1>   0.3700 
 20 H       -0.1810     3.6270     0.8710 H     1 <1>   0.0800 
 21 H       -0.1840     3.6400    -0.8530 H     1 <1>   0.0800 
 22 H       -5.1560    -0.9070    -0.0150 H     1 <1>   0.1500 
 23 H        1.2440     1.6210    -0.8830 H     1 <1>   0.0800 
 24 H        1.2480     1.6080     0.8640 H     1 <1>   0.0800 
 25 H       -5.0910     3.9990     0.0230 H     1 <1>   0.1500 
 26 H       -7.2650     0.3140     0.0000 H     1 <1>   0.1500 
 27 H        2.3270     3.8390     0.8770 H     1 <1>   0.0800 
 28 H        2.3240     3.8520    -0.8660 H     1 <1>   0.0800 
 29 H        3.7920     1.8330     0.8610 H     1 <1>   0.0800 
 30 H        4.5320     3.1600    -0.0050 H     1 <1>   0.0800 
 31 H        3.7880     1.8470    -0.8880 H     1 <1>   0.0800 
 32 H       -9.4740     3.2050     0.0270 H     1 <1>   0.0800 
 33 H       -8.8420     1.8150     0.9020 H     1 <1>   0.0800 
 34 H       -8.8460     1.8280    -0.8730 H     1 <1>   0.0800 
@<TRIPOS>BOND
  1   1   2  2   
  2   2   3  am  
  3   2   4  1   
  4   3   5  1   
  5   3  19  1   
  6   4   6  2   
  7   4   7  1   
  8   5   8  ar  
  9   5   9  ar  
 10   6   8  1   
 11   6  10  1   
 12   7  11  1   
 13   7  20  1   
 14   7  21  1   
 15   8  12  ar  
 16   9  13  ar  
 17   9  22  1   
 18  11  14  1   
 19  11  23  1   
 20  11  24  1   
 21  12  15  ar  
 22  12  25  1   
 23  13  15  ar  
 24  13  26  1   
 25  14  16  1   
 26  14  27  1   
 27  14  28  1   
 28  15  17  1   
 29  16  29  1   
 30  16  30  1   
 31  16  31  1   
 32  17  18  1   
 33  18  32  1   
 34  18  33  1   
 35  18  34  1   
@<TRIPOS>SUBSTRUCTURE
  1 ****   6 GROUP 4 **** **** 0

# MOE 2024.06 (io_trps.svl 2023.06)
