@<TRIPOS>MOLECULE
NONAME
41 41 1 0 0 
SMALL
USER_CHARGES


@<TRIPOS>ATOM
  1 O        0.2720     1.3950    -1.4880 O.2   1 <1>  -0.5700 
  2 C       -0.1210     1.8300    -0.4360 C.2   1 <1>   0.6590 
  3 O        0.6320     1.8200     0.6560 O.3   1 <1>  -0.4300 
  4 C       -1.5040     2.4420    -0.2770 C.3   1 <1>  -0.0190 
  5 C        1.9360     1.2880     0.6430 C.3   1 <1>   0.1200 
  6 C       -2.5190     1.7070    -1.1620 C.3   1 <1>   0.1400 
  7 C       -1.4870     3.9520    -0.5940 C.3   1 <1>  -0.1600 
  8 C        2.5200     1.4340     2.0450 C.3   1 <1>  -0.2400 
  9 N       -3.8650     2.3350    -1.0050 N.am  1 <1>  -0.6600 
 10 C       -2.9020     4.5500    -0.5210 C.3   1 <1>  -0.1600 
 11 C       -4.9200     1.6320    -0.4790 C.2   1 <1>   0.5690 
 12 C       -3.8930     3.7730    -1.3950 C.3   1 <1>   0.1400 
 13 O       -4.8020     0.4770    -0.1390 O.2   1 <1>  -0.5700 
 14 C       -6.2710     2.3030    -0.3010 C.3   1 <1>  -0.0990 
 15 C       -7.3200     1.3710     0.3010 C.3   1 <1>   0.1200 
 16 O       -8.5040     2.0880     0.4260 O.3   1 <1>  -0.5600 
 17 C       -9.5490     1.3520     0.9650 C.3   1 <1>   0.1200 
 18 C      -10.7650     2.2660     1.0380 C.3   1 <1>  -0.2400 
 19 H       -1.8030     2.3000     0.7460 H     1 <1>   0.0800 
 20 H        2.5200     1.8340    -0.0790 H     1 <1>   0.0800 
 21 H        1.8790     0.2520     0.3530 H     1 <1>   0.0800 
 22 H       -2.5480     0.6650    -0.8900 H     1 <1>   0.0800 
 23 H       -2.2220     1.7670    -2.1950 H     1 <1>   0.0800 
 24 H       -1.0910     4.1000    -1.5850 H     1 <1>   0.0800 
 25 H       -0.8410     4.4610     0.1000 H     1 <1>   0.0800 
 26 H        2.5610     2.4720     2.3230 H     1 <1>   0.0800 
 27 H        3.5180     1.0350     2.0650 H     1 <1>   0.0800 
 28 H        1.9200     0.8930     2.7540 H     1 <1>   0.0800 
 29 H       -2.8750     5.5770    -0.8410 H     1 <1>   0.0800 
 30 H       -3.2510     4.5340     0.4970 H     1 <1>   0.0800 
 31 H       -4.8750     4.1940    -1.2880 H     1 <1>   0.0800 
 32 H       -3.6090     3.8580    -2.4310 H     1 <1>   0.0800 
 33 H       -6.6180     2.6350    -1.2610 H     1 <1>   0.0800 
 34 H       -6.1510     3.1470     0.3510 H     1 <1>   0.0800 
 35 H       -7.0100     1.0320     1.2760 H     1 <1>   0.0800 
 36 H       -7.4880     0.5240    -0.3440 H     1 <1>   0.0800 
 37 H       -9.2670     1.0150     1.9480 H     1 <1>   0.0800 
 38 H       -9.7450     0.5070     0.3260 H     1 <1>   0.0800 
 39 H      -10.5520     3.1120     1.6660 H     1 <1>   0.0800 
 40 H      -11.6000     1.7310     1.4510 H     1 <1>   0.0800 
 41 H      -11.0280     2.6080     0.0530 H     1 <1>   0.0800 
@<TRIPOS>BOND
  1   1   2  2   
  2   2   3  1   
  3   2   4  1   
  4   3   5  1   
  5   4   6  1   
  6   4   7  1   
  7   4  19  1   
  8   5   8  1   
  9   5  20  1   
 10   5  21  1   
 11   6   9  1   
 12   6  22  1   
 13   6  23  1   
 14   7  10  1   
 15   7  24  1   
 16   7  25  1   
 17   8  26  1   
 18   8  27  1   
 19   8  28  1   
 20   9  11  am  
 21   9  12  1   
 22  10  12  1   
 23  10  29  1   
 24  10  30  1   
 25  11  13  2   
 26  11  14  1   
 27  12  31  1   
 28  12  32  1   
 29  14  15  1   
 30  14  33  1   
 31  14  34  1   
 32  15  16  1   
 33  15  35  1   
 34  15  36  1   
 35  16  17  1   
 36  17  18  1   
 37  17  37  1   
 38  17  38  1   
 39  18  39  1   
 40  18  40  1   
 41  18  41  1   
@<TRIPOS>SUBSTRUCTURE
  1 ****   9 GROUP 4 **** **** 0

# MOE 2024.06 (io_trps.svl 2023.06)
