@<TRIPOS>MOLECULE
NONAME
39 40 1 0 0 
SMALL
USER_CHARGES


@<TRIPOS>ATOM
  1 S        0.3440    -0.1720    -1.3130 S.3   1 <1>  -0.2850 
  2 C       -0.8720     0.0230     0.0190 C.2   1 <1>   0.0550 
  3 C        0.4290     1.4940    -2.1350 C.3   1 <1>   0.1310 
  4 C       -1.0270     1.0680     0.9310 C.2   1 <1>   0.1080 
  5 C       -1.8280    -0.8820     0.3090 C.2   1 <1>  -0.3320 
  6 C        1.6450     2.2790    -1.6730 C.2   1 <1>   0.5690 
  7 N       -2.0250     0.8410     1.7300 N.2   1 <1>  -0.7070 
  8 C       -0.1900     2.3220     1.0710 C.3   1 <1>  -0.0590 
  9 N       -2.5150    -0.3580     1.3480 N.pl3 1 <1>   0.3000 
 10 C       -2.1530    -2.2220    -0.3290 C.3   1 <1>  -0.0600 
 11 O        1.6150     3.4790    -1.7930 O.2   1 <1>  -0.5700 
 12 N        2.6950     1.5880    -1.1300 N.am  1 <1>  -0.5470 
 13 C        3.9210     1.9780    -0.5670 C.ar  1 <1>   0.1170 
 14 C        4.6560     1.0510     0.1800 C.ar  1 <1>  -0.1430 
 15 C        4.4360     3.2620    -0.7300 C.ar  1 <1>  -0.1500 
 16 C        5.8620     1.4290     0.7520 C.ar  1 <1>  -0.1500 
 17 C        4.1790    -0.3850     0.3950 C.3   1 <1>  -0.0170 
 18 C        5.6410     3.6270    -0.1600 C.ar  1 <1>  -0.1500 
 19 C        6.3560     2.7100     0.5850 C.ar  1 <1>  -0.1500 
 20 C        3.1400    -0.4640     1.5180 C.3   1 <1>  -0.2400 
 21 H       -0.4790     2.0180    -1.9000 H     1 <1>   0.0800 
 22 H        0.4830     1.3210    -3.1930 H     1 <1>   0.0800 
 23 H        0.8540     2.0850     1.0150 H     1 <1>   0.0800 
 24 H       -0.3800     2.7770     2.0260 H     1 <1>   0.0800 
 25 H       -0.4460     3.0280     0.3030 H     1 <1>   0.0800 
 26 H       -3.3180    -0.7910     1.8190 H     1 <1>   0.2700 
 27 H       -1.4730    -2.4310    -1.1360 H     1 <1>   0.0800 
 28 H       -3.1540    -2.2140    -0.7220 H     1 <1>   0.0800 
 29 H       -2.0680    -3.0100     0.3980 H     1 <1>   0.0800 
 30 H        2.5020     0.5920    -1.0160 H     1 <1>   0.3700 
 31 H        3.9000     3.9900    -1.3080 H     1 <1>   0.1500 
 32 H        6.4300     0.7250     1.3350 H     1 <1>   0.1500 
 33 H        5.0180    -1.0080     0.6550 H     1 <1>   0.0800 
 34 H        3.7700    -0.7850    -0.5160 H     1 <1>   0.0800 
 35 H        6.0200     4.6250    -0.2970 H     1 <1>   0.1500 
 36 H        7.2930     2.9910     1.0320 H     1 <1>   0.1500 
 37 H        3.5580    -0.0870     2.4340 H     1 <1>   0.0800 
 38 H        2.8370    -1.4840     1.6710 H     1 <1>   0.0800 
 39 H        2.2700     0.1170     1.2750 H     1 <1>   0.0800 
@<TRIPOS>BOND
  1   1   2  1   
  2   1   3  1   
  3   2   4  1   
  4   2   5  2   
  5   3   6  1   
  6   3  21  1   
  7   3  22  1   
  8   4   7  2   
  9   4   8  1   
 10   5   9  1   
 11   5  10  1   
 12   6  11  2   
 13   6  12  am  
 14   7   9  1   
 15   8  23  1   
 16   8  24  1   
 17   8  25  1   
 18   9  26  1   
 19  10  27  1   
 20  10  28  1   
 21  10  29  1   
 22  12  13  1   
 23  12  30  1   
 24  13  14  ar  
 25  13  15  ar  
 26  14  16  ar  
 27  14  17  1   
 28  15  18  ar  
 29  15  31  1   
 30  16  19  ar  
 31  16  32  1   
 32  17  20  1   
 33  17  33  1   
 34  17  34  1   
 35  18  19  ar  
 36  18  35  1   
 37  19  36  1   
 38  20  37  1   
 39  20  38  1   
 40  20  39  1   
@<TRIPOS>SUBSTRUCTURE
  1 ****  12 GROUP 4 **** **** 0

# MOE 2024.06 (io_trps.svl 2023.06)
