@<TRIPOS>MOLECULE
Structure2439
29 30 1 0 0 
SMALL
USER_CHARGES


@<TRIPOS>ATOM
  1 BR      -1.4590    -0.2740    -1.2760 Br    1 <1>  -0.1110 
  2 C       -0.6810    -1.9280    -0.6510 C.ar  1 <1>   0.1110 
  3 C       -1.3380    -2.7030     0.3000 C.ar  1 <1>   0.0820 
  4 C        0.5450    -2.2970    -1.1730 C.ar  1 <1>  -0.1500 
  5 O       -2.5440    -2.3620     0.8120 O.3   1 <1>  -0.3630 
  6 C       -0.7250    -3.8610     0.7530 C.ar  1 <1>  -0.1500 
  7 C        1.1370    -3.4660    -0.7240 C.ar  1 <1>  -0.1500 
  8 C       -3.6660    -2.4840    -0.0250 C.3   1 <1>   0.2000 
  9 C        0.5050    -4.2420     0.2380 C.ar  1 <1>  -0.1500 
 10 C       -4.6740    -1.4180     0.4060 C.3   1 <1>  -0.1600 
 11 C       -4.2390    -3.8940     0.1320 C.3   1 <1>  -0.1600 
 12 C       -5.9970    -1.5890    -0.3340 C.3   1 <1>   0.3430 
 13 C       -5.5730    -4.0240    -0.5990 C.3   1 <1>   0.3430 
 14 N       -6.5110    -2.9700    -0.1210 N.4   1 <1>  -0.9060 
 15 H        1.0290    -1.6800    -1.9090 H     1 <1>   0.1500 
 16 H       -1.2050    -4.4590     1.5060 H     1 <1>   0.1500 
 17 H        2.0920    -3.7710    -1.1170 H     1 <1>   0.1500 
 18 H       -3.3640    -2.3160    -1.0460 H     1 <1>   0.0800 
 19 H        0.9770    -5.1440     0.5890 H     1 <1>   0.1500 
 20 H       -4.2730    -0.4440     0.1880 H     1 <1>   0.0800 
 21 H       -4.8440    -1.4780     1.4670 H     1 <1>   0.0800 
 22 H       -4.3760    -4.1220     1.1750 H     1 <1>   0.0800 
 23 H       -3.5460    -4.6080    -0.2780 H     1 <1>   0.0800 
 24 H       -5.8460    -1.4120    -1.3870 H     1 <1>   0.0800 
 25 H       -6.7100    -0.8660     0.0310 H     1 <1>   0.0800 
 26 H       -5.9900    -5.0030    -0.4190 H     1 <1>   0.0800 
 27 H       -5.4120    -3.9160    -1.6600 H     1 <1>   0.0800 
 28 H       -7.4210    -3.0770    -0.5900 H     1 <1>   0.4500 
 29 H       -6.6800    -3.1080     0.8840 H     1 <1>   0.4500 
@<TRIPOS>BOND
  1   1   2  1   
  2   2   3  ar  
  3   2   4  ar  
  4   3   5  1   
  5   3   6  ar  
  6   4   7  ar  
  7   4  15  1   
  8   5   8  1   
  9   6   9  ar  
 10   6  16  1   
 11   7   9  ar  
 12   7  17  1   
 13   8  10  1   
 14   8  11  1   
 15   8  18  1   
 16   9  19  1   
 17  10  12  1   
 18  10  20  1   
 19  10  21  1   
 20  11  13  1   
 21  11  22  1   
 22  11  23  1   
 23  12  14  1   
 24  12  24  1   
 25  12  25  1   
 26  13  14  1   
 27  13  26  1   
 28  13  27  1   
 29  14  28  1   
 30  14  29  1   
@<TRIPOS>SUBSTRUCTURE
  1 ****   5 GROUP 4 **** **** 0

# MOE 2024.06 (io_trps.svl 2023.06)
