@<TRIPOS>MOLECULE
NONAME
43 46 1 0 0 
SMALL
USER_CHARGES


@<TRIPOS>ATOM
  1 O       -0.1230     1.4070     1.8370 O.2   1 <1>  -0.5700 
  2 C       -0.5200     2.1280     0.9520 C.2   1 <1>   0.5690 
  3 N        0.2730     2.8310     0.0870 N.am  1 <1>  -0.2370 
  4 C       -2.0090     2.4380     0.7240 C.3   1 <1>   0.2510 
  5 C        1.6710     2.6640    -0.0520 C.ar  1 <1>   0.1170 
  6 C       -0.4940     3.7300    -0.6010 C.2   1 <1>   0.5690 
  7 N       -2.8330     1.3820     0.0560 N.3   1 <1>  -0.8100 
  8 C       -1.9440     3.6640    -0.1980 C.3   1 <1>  -0.0990 
  9 C        2.2140     1.3850    -0.1790 C.ar  1 <1>  -0.1500 
 10 C        2.5270     3.7720    -0.0630 C.ar  1 <1>  -0.1500 
 11 O       -0.1060     4.5270    -1.4160 O.2   1 <1>  -0.5700 
 12 C       -2.5220     0.0210     0.5430 C.3   1 <1>   0.1100 
 13 C       -4.2720     1.7050     0.1650 C.3   1 <1>   0.1100 
 14 C        3.5810     1.2580    -0.3120 C.ar  1 <1>   0.0830 
 15 C        3.9010     3.6260    -0.1970 C.ar  1 <1>  -0.1500 
 16 C       -3.2090    -1.0930    -0.2590 C.3   1 <1>  -0.1600 
 17 C       -5.0370     1.1220    -1.0250 C.3   1 <1>  -0.1600 
 18 O        4.3000     0.1390    -0.4470 O.3   1 <1>  -0.3630 
 19 C        4.4030     2.3470    -0.3200 C.ar  1 <1>   0.0830 
 20 C       -4.7100    -1.2290     0.0340 C.3   1 <1>  -0.1600 
 21 C       -5.5950    -0.2920    -0.7990 C.3   1 <1>  -0.1600 
 22 C        5.6660     0.5390    -0.5420 C.3   1 <1>   0.4000 
 23 O        5.6780     1.9630    -0.4590 O.3   1 <1>  -0.3630 
 24 H       -2.4480     2.6930     1.6740 H     1 <1>   0.0800 
 25 H       -2.2000     4.5600     0.3360 H     1 <1>   0.0800 
 26 H       -2.5580     3.5650    -1.0740 H     1 <1>   0.0800 
 27 H        1.5930     0.5090    -0.1700 H     1 <1>   0.1500 
 28 H        2.1140     4.7610     0.0280 H     1 <1>   0.1500 
 29 H       -2.7710    -0.0640     1.5880 H     1 <1>   0.0800 
 30 H       -1.4660    -0.1560     0.4450 H     1 <1>   0.0800 
 31 H       -4.4070     2.7720     0.1360 H     1 <1>   0.0800 
 32 H       -4.6760     1.3550     1.1000 H     1 <1>   0.0800 
 33 H        4.5630     4.4730    -0.2080 H     1 <1>   0.1500 
 34 H       -2.7400    -2.0170     0.0270 H     1 <1>   0.0800 
 35 H       -3.0280    -0.9590    -1.3110 H     1 <1>   0.0800 
 36 H       -4.3940     1.1290    -1.8890 H     1 <1>   0.0800 
 37 H       -5.8670     1.7690    -1.2490 H     1 <1>   0.0800 
 38 H       -4.8850    -1.0580     1.0820 H     1 <1>   0.0800 
 39 H       -5.0140    -2.2410    -0.1720 H     1 <1>   0.0800 
 40 H       -5.7660    -0.7390    -1.7630 H     1 <1>   0.0800 
 41 H       -6.5520    -0.2180    -0.3120 H     1 <1>   0.0800 
 42 H        6.0670     0.2290    -1.4900 H     1 <1>   0.0800 
 43 H        6.2210     0.1250     0.2810 H     1 <1>   0.0800 
@<TRIPOS>BOND
  1   1   2  2   
  2   2   3  am  
  3   2   4  1   
  4   3   5  1   
  5   3   6  am  
  6   4   7  1   
  7   4   8  1   
  8   4  24  1   
  9   5   9  ar  
 10   5  10  ar  
 11   6   8  1   
 12   6  11  2   
 13   7  12  1   
 14   7  13  1   
 15   8  25  1   
 16   8  26  1   
 17   9  14  ar  
 18   9  27  1   
 19  10  15  ar  
 20  10  28  1   
 21  12  16  1   
 22  12  29  1   
 23  12  30  1   
 24  13  17  1   
 25  13  31  1   
 26  13  32  1   
 27  14  18  1   
 28  14  19  ar  
 29  15  19  ar  
 30  15  33  1   
 31  16  20  1   
 32  16  34  1   
 33  16  35  1   
 34  17  21  1   
 35  17  36  1   
 36  17  37  1   
 37  18  22  1   
 38  19  23  1   
 39  20  21  1   
 40  20  38  1   
 41  20  39  1   
 42  21  40  1   
 43  21  41  1   
 44  22  23  1   
 45  22  42  1   
 46  22  43  1   
@<TRIPOS>SUBSTRUCTURE
  1 ****   3 GROUP 4 **** **** 0

# MOE 2024.06 (io_trps.svl 2023.06)
