@<TRIPOS>MOLECULE
NONAME
46 48 1 0 0 
SMALL
USER_CHARGES


@<TRIPOS>ATOM
  1 F       -1.4200    -2.1360     0.3900 F     1 <1>  -0.1900 
  2 C       -2.5750    -1.5590     0.1790 C.ar  1 <1>   0.1900 
  3 C       -3.6750    -1.9870     0.8990 C.ar  1 <1>  -0.1500 
  4 C       -2.6520    -0.5430    -0.7550 C.ar  1 <1>  -0.1500 
  5 C       -4.8940    -1.3730     0.6700 C.ar  1 <1>  -0.1500 
  6 C       -3.8790     0.0620    -0.9710 C.ar  1 <1>  -0.1500 
  7 C       -5.0060    -0.3450    -0.2650 C.ar  1 <1>   0.1000 
  8 N       -6.2220     0.2820    -0.5080 N.pl3 1 <1>  -0.8380 
  9 C       -6.7920     1.0670     0.6320 C.3   1 <1>   0.2090 
 10 C       -7.2550    -0.5510    -1.1950 C.3   1 <1>   0.2090 
 11 C       -7.9770     1.9300     0.1680 C.3   1 <1>   0.1400 
 12 C       -8.4510     0.3030    -1.6530 C.3   1 <1>   0.1400 
 13 N       -9.0130     1.0930    -0.5130 N.am  1 <1>  -0.6600 
 14 C      -10.1220     0.6810     0.1740 C.2   1 <1>   0.6900 
 15 O      -10.1550     0.7580     1.3870 O.2   1 <1>  -0.5700 
 16 N      -11.1790     0.2040    -0.5450 N.am  1 <1>  -0.5470 
 17 C      -12.3660    -0.4350    -0.1580 C.ar  1 <1>   0.1170 
 18 C      -13.4860    -0.3820    -0.9910 C.ar  1 <1>  -0.1430 
 19 C      -12.4550    -1.1480     1.0330 C.ar  1 <1>  -0.1500 
 20 C      -14.6530    -1.0330    -0.6220 C.ar  1 <1>  -0.1500 
 21 C      -13.4590     0.3880    -2.3050 C.3   1 <1>  -0.0970 
 22 C      -13.6230    -1.7930     1.3940 C.ar  1 <1>  -0.1500 
 23 C      -14.7300    -1.7410     0.5660 C.ar  1 <1>  -0.1430 
 24 C      -16.0160    -2.4460     0.9570 C.3   1 <1>  -0.0970 
 25 H       -3.5750    -2.7810     1.6160 H     1 <1>   0.1500 
 26 H       -1.7750    -0.2360    -1.2940 H     1 <1>   0.1500 
 27 H       -5.7650    -1.6860     1.2150 H     1 <1>   0.1500 
 28 H       -3.9780     0.8560    -1.6880 H     1 <1>   0.1500 
 29 H       -6.0270     1.7000     1.0450 H     1 <1>   0.0800 
 30 H       -7.1280     0.3970     1.4050 H     1 <1>   0.0800 
 31 H       -7.6040    -1.3160    -0.5230 H     1 <1>   0.0800 
 32 H       -6.8100    -1.0330    -2.0480 H     1 <1>   0.0800 
 33 H       -7.6200     2.6790    -0.5160 H     1 <1>   0.0800 
 34 H       -8.4050     2.4360     1.0160 H     1 <1>   0.0800 
 35 H       -9.1990    -0.3440    -2.0740 H     1 <1>   0.0800 
 36 H       -8.1230     0.9800    -2.4230 H     1 <1>   0.0800 
 37 H      -11.1460     0.4950    -1.5140 H     1 <1>   0.3700 
 38 H      -11.6050    -1.2030     1.6880 H     1 <1>   0.1500 
 39 H      -15.5170    -0.9910    -1.2610 H     1 <1>   0.1500 
 40 H      -12.7530    -0.0590    -2.9810 H     1 <1>   0.0800 
 41 H      -13.1820     1.4120    -2.1260 H     1 <1>   0.0800 
 42 H      -14.4260     0.3820    -2.7750 H     1 <1>   0.0800 
 43 H      -13.6630    -2.3330     2.3230 H     1 <1>   0.1500 
 44 H      -16.6630    -1.7590     1.4720 H     1 <1>   0.0800 
 45 H      -15.8070    -3.2790     1.6040 H     1 <1>   0.0800 
 46 H      -16.5220    -2.8140     0.0830 H     1 <1>   0.0800 
@<TRIPOS>BOND
  1   1   2  1   
  2   2   3  ar  
  3   2   4  ar  
  4   3   5  ar  
  5   3  25  1   
  6   4   6  ar  
  7   4  26  1   
  8   5   7  ar  
  9   5  27  1   
 10   6   7  ar  
 11   6  28  1   
 12   7   8  1   
 13   8   9  1   
 14   8  10  1   
 15   9  11  1   
 16   9  29  1   
 17   9  30  1   
 18  10  12  1   
 19  10  31  1   
 20  10  32  1   
 21  11  13  1   
 22  11  33  1   
 23  11  34  1   
 24  12  13  1   
 25  12  35  1   
 26  12  36  1   
 27  13  14  am  
 28  14  15  2   
 29  14  16  am  
 30  16  17  1   
 31  16  37  1   
 32  17  18  ar  
 33  17  19  ar  
 34  18  20  ar  
 35  18  21  1   
 36  19  22  ar  
 37  19  38  1   
 38  20  23  ar  
 39  20  39  1   
 40  21  40  1   
 41  21  41  1   
 42  21  42  1   
 43  22  23  ar  
 44  22  43  1   
 45  23  24  1   
 46  24  44  1   
 47  24  45  1   
 48  24  46  1   
@<TRIPOS>SUBSTRUCTURE
  1 ****  13 GROUP 4 **** **** 0

# MOE 2024.06 (io_trps.svl 2023.06)
