@<TRIPOS>MOLECULE
NONAME
42 43 1 0 0 
SMALL
USER_CHARGES


@<TRIPOS>ATOM
  1 O        0.4870     0.5350    -1.3370 O.3   1 <1>  -0.5600 
  2 C        1.6080    -0.2950    -1.2860 C.3   1 <1>   0.1200 
  3 C        0.3140     1.3480    -0.2160 C.3   1 <1>   0.1200 
  4 C        2.8910     0.5480    -1.1510 C.3   1 <1>   0.3430 
  5 C        1.5350     2.2690    -0.0310 C.3   1 <1>   0.3430 
  6 N        2.8330     1.4960     0.0270 N.4   1 <1>  -0.9590 
  7 C        4.0340     2.3850     0.1330 C.3   1 <1>   0.4230 
  8 C        5.3260     1.5410     0.1360 C.3   1 <1>  -0.1600 
  9 C        3.9210     3.2210     1.4160 C.3   1 <1>  -0.2400 
 10 C        6.6260     2.3520     0.2720 C.3   1 <1>  -0.0170 
 11 C        7.8160     1.4430     0.0240 C.ar  1 <1>  -0.1430 
 12 C        8.3510     0.6920     1.0600 C.ar  1 <1>  -0.1500 
 13 C        8.3750     1.3490    -1.2410 C.ar  1 <1>  -0.1500 
 14 C        9.4290    -0.1480     0.8360 C.ar  1 <1>  -0.1500 
 15 C        9.4520     0.5110    -1.4670 C.ar  1 <1>  -0.1500 
 16 C        9.9860    -0.2430    -0.4350 C.ar  1 <1>   0.0820 
 17 O       11.0400    -1.0400    -0.7420 O.3   1 <1>  -0.3620 
 18 C       11.6800    -1.8200     0.2420 C.3   1 <1>   0.0400 
 19 H        1.6340    -0.8640    -2.2000 H     1 <1>   0.0800 
 20 H        1.4990    -0.9780    -0.4610 H     1 <1>   0.0800 
 21 H        0.1590     0.7240     0.6470 H     1 <1>   0.0800 
 22 H       -0.5730     1.9370    -0.3750 H     1 <1>   0.0800 
 23 H        3.0260     1.1070    -2.0620 H     1 <1>   0.0800 
 24 H        3.7270    -0.1230    -1.0480 H     1 <1>   0.0800 
 25 H        1.3980     2.8350     0.8740 H     1 <1>   0.0800 
 26 H        1.5630     2.9630    -0.8550 H     1 <1>   0.0800 
 27 H        2.8100     0.9210     0.8770 H     1 <1>   0.4500 
 28 H        4.0610     3.0510    -0.7160 H     1 <1>   0.0800 
 29 H        5.4100     1.0110    -0.7950 H     1 <1>   0.0800 
 30 H        5.2920     0.8200     0.9330 H     1 <1>   0.0800 
 31 H        3.8910     2.5890     2.2860 H     1 <1>   0.0800 
 32 H        3.0600     3.8610     1.4040 H     1 <1>   0.0800 
 33 H        4.7680     3.8750     1.5110 H     1 <1>   0.0800 
 34 H        6.7170     2.7750     1.2570 H     1 <1>   0.0800 
 35 H        6.6410     3.1600    -0.4390 H     1 <1>   0.0800 
 36 H        7.9340     0.7560     2.0500 H     1 <1>   0.1500 
 37 H        7.9820     1.9260    -2.0600 H     1 <1>   0.1500 
 38 H        9.8210    -0.7150     1.6590 H     1 <1>   0.1500 
 39 H        9.8900     0.4350    -2.4460 H     1 <1>   0.1500 
 40 H       12.4880    -2.3520    -0.2280 H     1 <1>   0.0800 
 41 H       10.9720    -2.5190     0.6500 H     1 <1>   0.0800 
 42 H       12.0670    -1.1700     1.0060 H     1 <1>   0.0800 
@<TRIPOS>BOND
  1   1   2  1   
  2   1   3  1   
  3   2   4  1   
  4   2  19  1   
  5   2  20  1   
  6   3   5  1   
  7   3  21  1   
  8   3  22  1   
  9   4   6  1   
 10   4  23  1   
 11   4  24  1   
 12   5   6  1   
 13   5  25  1   
 14   5  26  1   
 15   6   7  1   
 16   6  27  1   
 17   7   8  1   
 18   7   9  1   
 19   7  28  1   
 20   8  10  1   
 21   8  29  1   
 22   8  30  1   
 23   9  31  1   
 24   9  32  1   
 25   9  33  1   
 26  10  11  1   
 27  10  34  1   
 28  10  35  1   
 29  11  12  ar  
 30  11  13  ar  
 31  12  14  ar  
 32  12  36  1   
 33  13  15  ar  
 34  13  37  1   
 35  14  16  ar  
 36  14  38  1   
 37  15  16  ar  
 38  15  39  1   
 39  16  17  1   
 40  17  18  1   
 41  18  40  1   
 42  18  41  1   
 43  18  42  1   
@<TRIPOS>SUBSTRUCTURE
  1 ****   8 GROUP 4 **** **** 0

# MOE 2024.06 (io_trps.svl 2023.06)
