@<TRIPOS>MOLECULE
NONAME
49 52 1 0 0 
SMALL
USER_CHARGES


@<TRIPOS>ATOM
  1 O       -0.4660     0.2840     0.3580 O.2   1 <1>  -0.5700 
  2 C       -0.9230     1.4100     0.3880 C.2   1 <1>   0.6900 
  3 N       -2.2550     1.6130     0.6310 N.am  1 <1>  -0.6600 
  4 N       -0.1280     2.5050     0.2110 N.am  1 <1>  -0.5470 
  5 C       -3.1050     0.5150     1.1950 C.3   1 <1>   0.1400 
  6 C       -3.0400     2.7260     0.0040 C.3   1 <1>   0.1400 
  7 C        1.1890     2.6520    -0.2450 C.ar  1 <1>   0.1170 
  8 C       -4.1060    -0.0050     0.1510 C.3   1 <1>   0.1400 
  9 C       -4.0240     2.1700    -1.0370 C.3   1 <1>   0.1400 
 10 C        1.9150     3.8290     0.0980 C.ar  1 <1>   0.0000 
 11 C        1.7790     1.6990    -1.0450 C.ar  1 <1>  -0.1500 
 12 N       -4.8960     1.1340    -0.4090 N.am  1 <1>  -0.6600 
 13 C        3.2180     4.0040    -0.4250 C.ar  1 <1>   0.0000 
 14 C        1.4090     4.8450     0.9450 C.ar  1 <1>  -0.1500 
 15 C        3.0710     1.8670    -1.5420 C.ar  1 <1>  -0.1500 
 16 C       -6.2310     1.2980    -0.1100 C.2   1 <1>   0.5690 
 17 C        3.7730     3.0000    -1.2400 C.ar  1 <1>  -0.1500 
 18 C        3.9360     5.1770    -0.1140 C.ar  1 <1>  -0.1500 
 19 C        2.1300     5.9710     1.2330 C.ar  1 <1>  -0.1500 
 20 O       -6.8440     0.4170     0.4530 O.2   1 <1>  -0.5700 
 21 C       -6.9920     2.5910    -0.4990 C.3   1 <1>   0.2610 
 22 C        3.4070     6.1420     0.6940 C.ar  1 <1>  -0.1500 
 23 O       -6.3810     3.7640    -0.0010 O.3   1 <1>  -0.5600 
 24 C       -8.4450     2.6770    -0.0290 C.3   1 <1>  -0.1600 
 25 C       -7.3210     4.7180     0.3930 C.3   1 <1>   0.1200 
 26 C       -8.6890     4.1700     0.0120 C.3   1 <1>  -0.1600 
 27 H       -0.5610     3.3490     0.5630 H     1 <1>   0.3700 
 28 H       -3.6490     0.8920     2.0430 H     1 <1>   0.0800 
 29 H       -2.4920    -0.3000     1.5380 H     1 <1>   0.0800 
 30 H       -2.3880     3.4310    -0.4800 H     1 <1>   0.0800 
 31 H       -3.5920     3.2470     0.7670 H     1 <1>   0.0800 
 32 H       -4.7530    -0.7330     0.6090 H     1 <1>   0.0800 
 33 H       -3.5700    -0.4950    -0.6430 H     1 <1>   0.0800 
 34 H       -3.4680     1.7210    -1.8410 H     1 <1>   0.0800 
 35 H       -4.6020     2.9730    -1.4550 H     1 <1>   0.0800 
 36 H        1.2490     0.8030    -1.3100 H     1 <1>   0.1500 
 37 H        0.4370     4.7330     1.3830 H     1 <1>   0.1500 
 38 H        3.4980     1.0980    -2.1620 H     1 <1>   0.1500 
 39 H        4.7680     3.1380    -1.6230 H     1 <1>   0.1500 
 40 H        4.9200     5.2990    -0.5280 H     1 <1>   0.1500 
 41 H        1.7290     6.7350     1.8770 H     1 <1>   0.1500 
 42 H       -6.9780     2.6720    -1.5700 H     1 <1>   0.0800 
 43 H        3.9610     7.0350     0.9280 H     1 <1>   0.1500 
 44 H       -8.5340     2.2630     0.9610 H     1 <1>   0.0800 
 45 H       -9.1140     2.1570    -0.6900 H     1 <1>   0.0800 
 46 H       -7.1040     5.6520    -0.0960 H     1 <1>   0.0800 
 47 H       -7.2380     4.8330     1.4600 H     1 <1>   0.0800 
 48 H       -9.4480     4.4480     0.7230 H     1 <1>   0.0800 
 49 H       -8.9640     4.5360    -0.9620 H     1 <1>   0.0800 
@<TRIPOS>BOND
  1   1   2  2   
  2   2   3  am  
  3   2   4  am  
  4   3   5  1   
  5   3   6  1   
  6   4   7  1   
  7   4  27  1   
  8   5   8  1   
  9   5  28  1   
 10   5  29  1   
 11   6   9  1   
 12   6  30  1   
 13   6  31  1   
 14   7  10  ar  
 15   7  11  ar  
 16   8  12  1   
 17   8  32  1   
 18   8  33  1   
 19   9  12  1   
 20   9  34  1   
 21   9  35  1   
 22  10  13  ar  
 23  10  14  ar  
 24  11  15  ar  
 25  11  36  1   
 26  12  16  am  
 27  13  17  ar  
 28  13  18  ar  
 29  14  19  ar  
 30  14  37  1   
 31  15  17  ar  
 32  15  38  1   
 33  16  20  2   
 34  16  21  1   
 35  17  39  1   
 36  18  22  ar  
 37  18  40  1   
 38  19  22  ar  
 39  19  41  1   
 40  21  23  1   
 41  21  24  1   
 42  21  42  1   
 43  22  43  1   
 44  23  25  1   
 45  24  26  1   
 46  24  44  1   
 47  24  45  1   
 48  25  26  1   
 49  25  46  1   
 50  25  47  1   
 51  26  48  1   
 52  26  49  1   
@<TRIPOS>SUBSTRUCTURE
  1 ****   6 GROUP 4 **** **** 0

# MOE 2024.06 (io_trps.svl 2023.06)
