@<TRIPOS>MOLECULE
NONAME
49 50 1 0 0 
SMALL
USER_CHARGES


@<TRIPOS>ATOM
  1 O        4.7020    -5.3180    -0.2380 O.3   1 <1>  -0.3630 
  2 C        6.0310    -5.2550    -0.5280 C.ar  1 <1>   0.0830 
  3 C        3.7800    -5.9590    -1.0850 C.3   1 <1>   0.1200 
  4 C        6.8760    -4.6190     0.3840 C.ar  1 <1>  -0.1440 
  5 C        6.5590    -5.8070    -1.6930 C.ar  1 <1>  -0.1500 
  6 C        2.3980    -5.8520    -0.4420 C.3   1 <1>  -0.1600 
  7 C        8.2450    -4.5590     0.1270 C.ar  1 <1>  -0.1440 
  8 C        6.3050    -4.0000     1.6610 C.3   1 <1>  -0.0960 
  9 C        7.9140    -5.7340    -1.9440 C.ar  1 <1>  -0.1500 
 10 C        1.3450    -6.5730    -1.2870 C.3   1 <1>   0.1100 
 11 C        8.7510    -5.1150    -1.0370 C.ar  1 <1>  -0.1500 
 12 C        9.2200    -3.8990     1.0940 C.3   1 <1>  -0.0970 
 13 N       -0.0080    -6.3080    -0.7700 N.3   1 <1>  -0.8100 
 14 C       -1.0420    -6.6500    -1.7750 C.3   1 <1>   0.1100 
 15 C       -0.2840    -7.0110     0.5110 C.3   1 <1>   0.1100 
 16 C       -2.4750    -6.3250    -1.2810 C.3   1 <1>   0.3430 
 17 C       -1.7290    -6.7790     1.0180 C.3   1 <1>   0.3430 
 18 N       -2.4630    -5.8160     0.1300 N.4   1 <1>  -0.9590 
 19 C       -3.8060    -5.4140     0.6120 C.3   1 <1>   0.3430 
 20 C       -3.6680    -4.5590     1.8660 C.3   1 <1>  -0.2400 
 21 H        4.0770    -6.9890    -1.1870 H     1 <1>   0.0800 
 22 H        3.7980    -5.4650    -2.0410 H     1 <1>   0.0800 
 23 H        5.9370    -6.2960    -2.4160 H     1 <1>   0.1500 
 24 H        2.1370    -4.8120    -0.3600 H     1 <1>   0.0800 
 25 H        2.4500    -6.2880     0.5380 H     1 <1>   0.0800 
 26 H        5.2530    -3.8000     1.5720 H     1 <1>   0.0800 
 27 H        6.7840    -3.0650     1.8810 H     1 <1>   0.0800 
 28 H        6.4540    -4.6730     2.4850 H     1 <1>   0.0800 
 29 H        8.3200    -6.1600    -2.8450 H     1 <1>   0.1500 
 30 H        1.5400    -7.6330    -1.3080 H     1 <1>   0.0800 
 31 H        1.4130    -6.1990    -2.2960 H     1 <1>   0.0800 
 32 H        9.8060    -5.0690    -1.2460 H     1 <1>   0.1500 
 33 H        9.0710    -4.2770     2.0890 H     1 <1>   0.0800 
 34 H        9.0700    -2.8340     1.0940 H     1 <1>   0.0800 
 35 H       10.2380    -4.0980     0.8110 H     1 <1>   0.0800 
 36 H       -0.9820    -7.6980    -2.0200 H     1 <1>   0.0800 
 37 H       -0.8590    -6.0970    -2.6810 H     1 <1>   0.0800 
 38 H        0.3940    -6.6590     1.2680 H     1 <1>   0.0800 
 39 H       -0.1170    -8.0680     0.3950 H     1 <1>   0.0800 
 40 H       -3.0820    -7.2120    -1.3500 H     1 <1>   0.0800 
 41 H       -2.9040    -5.5820    -1.9320 H     1 <1>   0.0800 
 42 H       -1.6840    -6.3960     2.0240 H     1 <1>   0.0800 
 43 H       -2.2510    -7.7210     1.0490 H     1 <1>   0.0800 
 44 H       -1.8390    -4.9950     0.0890 H     1 <1>   0.4500 
 45 H       -4.4050    -6.2870     0.8200 H     1 <1>   0.0800 
 46 H       -4.3040    -4.8360    -0.1500 H     1 <1>   0.0800 
 47 H       -3.2690    -5.1250     2.6870 H     1 <1>   0.0800 
 48 H       -4.6410    -4.2040     2.1570 H     1 <1>   0.0800 
 49 H       -3.0460    -3.7020     1.6780 H     1 <1>   0.0800 
@<TRIPOS>BOND
  1   1   2  1   
  2   1   3  1   
  3   2   4  ar  
  4   2   5  ar  
  5   3   6  1   
  6   3  21  1   
  7   3  22  1   
  8   4   7  ar  
  9   4   8  1   
 10   5   9  ar  
 11   5  23  1   
 12   6  10  1   
 13   6  24  1   
 14   6  25  1   
 15   7  11  ar  
 16   7  12  1   
 17   8  26  1   
 18   8  27  1   
 19   8  28  1   
 20   9  11  ar  
 21   9  29  1   
 22  10  13  1   
 23  10  30  1   
 24  10  31  1   
 25  11  32  1   
 26  12  33  1   
 27  12  34  1   
 28  12  35  1   
 29  13  14  1   
 30  13  15  1   
 31  14  16  1   
 32  14  36  1   
 33  14  37  1   
 34  15  17  1   
 35  15  38  1   
 36  15  39  1   
 37  16  18  1   
 38  16  40  1   
 39  16  41  1   
 40  17  18  1   
 41  17  42  1   
 42  17  43  1   
 43  18  19  1   
 44  18  44  1   
 45  19  20  1   
 46  19  45  1   
 47  19  46  1   
 48  20  47  1   
 49  20  48  1   
 50  20  49  1   
@<TRIPOS>SUBSTRUCTURE
  1 ****   6 GROUP 4 **** **** 0

# MOE 2024.06 (io_trps.svl 2023.06)
