@<TRIPOS>MOLECULE
NONAME
29 30 1 0 0 
SMALL
USER_CHARGES


@<TRIPOS>ATOM
  1 O        2.0730    -0.2890     0.1830 O.2   1 <1>  -0.5700 
  2 C        1.7630    -1.4530    -0.0030 C.2   1 <1>   0.6160 
  3 N        0.5650    -1.7270    -0.6010 N.am  1 <1>  -0.5390 
  4 C        2.5750    -2.5580     0.3670 C.2   1 <1>  -0.1360 
  5 C        0.1440    -3.0110    -0.8400 C.2   1 <1>  -0.0410 
  6 C        2.1650    -3.8360     0.1400 C.2   1 <1>  -0.1500 
  7 C        0.9020    -4.1000    -0.4770 C.2   1 <1>   0.0140 
  8 C        0.4840    -5.4650    -0.7050 C.2   1 <1>   0.6160 
  9 O        1.2940    -6.3360    -0.9470 O.2   1 <1>  -0.5700 
 10 N       -0.8140    -5.8640    -0.6550 N.am  1 <1>  -0.7300 
 11 C       -1.8700    -5.3370     0.2270 C.3   1 <1>   0.2200 
 12 C       -2.2650    -6.4250     1.2170 C.3   1 <1>  -0.1600 
 13 C       -3.1380    -5.1310    -0.5920 C.3   1 <1>  -0.1600 
 14 C       -3.2410    -7.3400     0.4690 C.3   1 <1>  -0.1600 
 15 C       -3.7900    -6.5130    -0.7010 C.3   1 <1>  -0.1600 
 16 H        0.0270    -0.8990    -0.8640 H     1 <1>   0.3700 
 17 H        3.5160    -2.3250     0.8270 H     1 <1>   0.1500 
 18 H       -0.8060    -3.1390    -1.3320 H     1 <1>   0.1500 
 19 H        2.7770    -4.6800     0.4120 H     1 <1>   0.1500 
 20 H       -0.9580    -6.8410    -0.9140 H     1 <1>   0.3700 
 21 H       -1.5490    -4.4380     0.7260 H     1 <1>   0.0800 
 22 H       -2.7830    -5.9640     2.0400 H     1 <1>   0.0800 
 23 H       -1.4120    -6.9560     1.6050 H     1 <1>   0.0800 
 24 H       -2.9370    -4.6930    -1.5550 H     1 <1>   0.0800 
 25 H       -3.7960    -4.4780    -0.0460 H     1 <1>   0.0800 
 26 H       -4.0310    -7.6720     1.1210 H     1 <1>   0.0800 
 27 H       -2.7210    -8.2030     0.0900 H     1 <1>   0.0800 
 28 H       -3.5100    -6.9760    -1.6320 H     1 <1>   0.0800 
 29 H       -4.8640    -6.4380    -0.6620 H     1 <1>   0.0800 
@<TRIPOS>BOND
  1   1   2  2   
  2   2   3  am  
  3   2   4  1   
  4   3   5  1   
  5   3  16  1   
  6   4   6  2   
  7   4  17  1   
  8   5   7  2   
  9   5  18  1   
 10   6   7  1   
 11   6  19  1   
 12   7   8  1   
 13   8   9  2   
 14   8  10  am  
 15  10  11  1   
 16  10  20  1   
 17  11  12  1   
 18  11  13  1   
 19  11  21  1   
 20  12  14  1   
 21  12  22  1   
 22  12  23  1   
 23  13  15  1   
 24  13  24  1   
 25  13  25  1   
 26  14  15  1   
 27  14  26  1   
 28  14  27  1   
 29  15  28  1   
 30  15  29  1   
@<TRIPOS>SUBSTRUCTURE
  1 ****   7 GROUP 4 **** **** 0

# MOE 2024.06 (io_trps.svl 2023.06)
