@<TRIPOS>MOLECULE
NONAME
48 50 1 0 0 
SMALL
USER_CHARGES


@<TRIPOS>ATOM
  1 CL       4.0700    -3.3530     3.6720 Cl    1 <1>  -0.1770 
  2 C        4.7530    -2.4790     2.3240 C.ar  1 <1>   0.1770 
  3 C        4.5200    -2.9310     1.0370 C.ar  1 <1>  -0.1500 
  4 C        5.5150    -1.3510     2.5620 C.ar  1 <1>  -0.1500 
  5 C        5.0580    -2.2390    -0.0350 C.ar  1 <1>  -0.1500 
  6 C        6.0520    -0.6610     1.4890 C.ar  1 <1>  -0.1500 
  7 C        5.8280    -1.0980     0.1910 C.ar  1 <1>   0.0830 
  8 O        6.4020    -0.3740    -0.8020 O.3   1 <1>  -0.3630 
  9 C        6.6960    -0.9460    -2.0700 C.3   1 <1>   0.2610 
 10 C        7.6880    -2.1120    -1.9400 C.2   1 <1>   0.5690 
 11 C        7.2540     0.1830    -2.9420 C.3   1 <1>  -0.2400 
 12 O        7.6540    -2.9910    -2.7680 O.2   1 <1>  -0.5700 
 13 N        8.5760    -2.0880    -0.8960 N.am  1 <1>  -0.5470 
 14 C        9.5940    -2.9510    -0.4630 C.ar  1 <1>   0.1170 
 15 C       10.5450    -2.4720     0.4530 C.ar  1 <1>   0.0860 
 16 C        9.6750    -4.2710    -0.8980 C.ar  1 <1>  -0.1500 
 17 C       10.5210    -1.0960     0.9030 C.2   1 <1>   0.5440 
 18 C       11.5230    -3.3520     0.9220 C.ar  1 <1>  -0.1500 
 19 C       10.6610    -5.1180    -0.4350 C.ar  1 <1>  -0.1500 
 20 O        9.4940    -0.6320     1.3680 O.2   1 <1>  -0.5700 
 21 N       11.6210    -0.2720     0.7970 N.am  1 <1>  -0.6600 
 22 C       11.5880    -4.6590     0.4840 C.ar  1 <1>  -0.1500 
 23 C       11.6830     1.0550     1.4770 C.3   1 <1>   0.1400 
 24 C       12.7680    -0.5050    -0.1320 C.3   1 <1>   0.1400 
 25 C       13.0780     1.2870     2.0820 C.3   1 <1>   0.1200 
 26 C       14.1000    -0.1970     0.5720 C.3   1 <1>   0.1200 
 27 O       14.0790     1.0900     1.1220 O.3   1 <1>  -0.5600 
 28 H        3.9260    -3.8130     0.8820 H     1 <1>   0.1500 
 29 H        5.6870    -1.0210     3.5710 H     1 <1>   0.1500 
 30 H        4.8660    -2.6010    -1.0280 H     1 <1>   0.1500 
 31 H        6.6570     0.2140     1.6530 H     1 <1>   0.1500 
 32 H        5.7790    -1.3000    -2.5020 H     1 <1>   0.0800 
 33 H        8.1610     0.5710    -2.5150 H     1 <1>   0.0800 
 34 H        6.5300     0.9730    -3.0310 H     1 <1>   0.0800 
 35 H        7.4720    -0.1940    -3.9250 H     1 <1>   0.0800 
 36 H        8.4300    -1.2890    -0.2600 H     1 <1>   0.3700 
 37 H        8.9560    -4.6510    -1.6010 H     1 <1>   0.1500 
 38 H       12.2390    -2.9970     1.6430 H     1 <1>   0.1500 
 39 H       10.7050    -6.1360    -0.7840 H     1 <1>   0.1500 
 40 H       12.3520    -5.3220     0.8530 H     1 <1>   0.1500 
 41 H       10.9460     1.1120     2.2590 H     1 <1>   0.0800 
 42 H       11.4710     1.8310     0.7620 H     1 <1>   0.0800 
 43 H       12.6660     0.1470    -0.9820 H     1 <1>   0.0800 
 44 H       12.7780    -1.5160    -0.4950 H     1 <1>   0.0800 
 45 H       13.2490     0.6120     2.9030 H     1 <1>   0.0800 
 46 H       13.1630     2.2960     2.4430 H     1 <1>   0.0800 
 47 H       14.9110    -0.2390    -0.1330 H     1 <1>   0.0800 
 48 H       14.2870    -0.9060     1.3600 H     1 <1>   0.0800 
@<TRIPOS>BOND
  1   1   2  1   
  2   2   3  ar  
  3   2   4  ar  
  4   3   5  ar  
  5   3  28  1   
  6   4   6  ar  
  7   4  29  1   
  8   5   7  ar  
  9   5  30  1   
 10   6   7  ar  
 11   6  31  1   
 12   7   8  1   
 13   8   9  1   
 14   9  10  1   
 15   9  11  1   
 16   9  32  1   
 17  10  12  2   
 18  10  13  am  
 19  11  33  1   
 20  11  34  1   
 21  11  35  1   
 22  13  14  1   
 23  13  36  1   
 24  14  15  ar  
 25  14  16  ar  
 26  15  17  1   
 27  15  18  ar  
 28  16  19  ar  
 29  16  37  1   
 30  17  20  2   
 31  17  21  am  
 32  18  22  ar  
 33  18  38  1   
 34  19  22  ar  
 35  19  39  1   
 36  21  23  1   
 37  21  24  1   
 38  22  40  1   
 39  23  25  1   
 40  23  41  1   
 41  23  42  1   
 42  24  26  1   
 43  24  43  1   
 44  24  44  1   
 45  25  27  1   
 46  25  45  1   
 47  25  46  1   
 48  26  27  1   
 49  26  47  1   
 50  26  48  1   
@<TRIPOS>SUBSTRUCTURE
  1 ****  13 GROUP 4 **** **** 0

# MOE 2024.06 (io_trps.svl 2023.06)
