@<TRIPOS>MOLECULE
NONAME
42 43 1 0 0 
SMALL
USER_CHARGES


@<TRIPOS>ATOM
  1 O       -8.5730    -0.1180    -0.0560 O.3   1 <1>  -0.5600 
  2 C       -9.2240     1.0800     0.2390 C.3   1 <1>   0.2640 
  3 C       -7.1910    -0.0170    -0.2030 C.3   1 <1>   0.1200 
  4 C      -10.7000     0.7830     0.4390 C.ar  1 <1>  -0.1440 
  5 C       -6.6430    -1.4230    -0.4910 C.3   1 <1>   0.2000 
  6 C      -11.4920     0.4290    -0.6430 C.ar  1 <1>  -0.1500 
  7 C      -11.2720     0.8650     1.7000 C.ar  1 <1>  -0.1500 
  8 O       -7.2200    -2.3120     0.4140 O.3   1 <1>  -0.6800 
  9 C       -5.1070    -1.5160    -0.3790 C.3   1 <1>   0.3430 
 10 C      -12.8400     0.1650    -0.4690 C.ar  1 <1>  -0.1500 
 11 C      -12.6200     0.6010     1.8760 C.ar  1 <1>  -0.1500 
 12 N       -4.6930    -2.9270    -0.1050 N.4   1 <1>  -0.9590 
 13 C      -13.4040     0.2510     0.7910 C.ar  1 <1>  -0.1500 
 14 C       -3.4110    -3.0200     0.6460 C.3   1 <1>   0.3430 
 15 C       -4.7200    -3.7840    -1.3240 C.3   1 <1>   0.3430 
 16 C       -3.1670    -4.4710     1.0670 C.3   1 <1>  -0.1600 
 17 C       -4.4950    -5.2450    -0.9290 C.3   1 <1>  -0.1600 
 18 C       -3.1960    -5.4270    -0.1320 C.3   1 <1>  -0.1600 
 19 H       -9.0900     1.7610    -0.5830 H     1 <1>   0.0800 
 20 H       -8.7970     1.5000     1.1330 H     1 <1>   0.0800 
 21 H       -6.7750     0.3710     0.7120 H     1 <1>   0.0800 
 22 H       -6.9730     0.6540    -1.0160 H     1 <1>   0.0800 
 23 H       -6.9540    -1.7190    -1.4790 H     1 <1>   0.0800 
 24 H      -11.0590     0.3540    -1.6250 H     1 <1>   0.1500 
 25 H      -10.6740     1.1340     2.5530 H     1 <1>   0.1500 
 26 H       -8.1620    -2.0290     0.5300 H     1 <1>   0.4000 
 27 H       -4.7970    -0.8920     0.4430 H     1 <1>   0.0800 
 28 H       -4.6390    -1.1440    -1.2750 H     1 <1>   0.0800 
 29 H      -13.4480    -0.1090    -1.3130 H     1 <1>   0.1500 
 30 H      -13.0580     0.6670     2.8560 H     1 <1>   0.1500 
 31 H       -5.4580    -3.2760     0.5060 H     1 <1>   0.4500 
 32 H      -14.4510     0.0450     0.9280 H     1 <1>   0.1500 
 33 H       -3.4500    -2.3950     1.5230 H     1 <1>   0.0800 
 34 H       -2.5980    -2.6860     0.0220 H     1 <1>   0.0800 
 35 H       -3.9470    -3.4730    -2.0080 H     1 <1>   0.0800 
 36 H       -5.6740    -3.6930    -1.8180 H     1 <1>   0.0800 
 37 H       -3.9140    -4.7620     1.7860 H     1 <1>   0.0800 
 38 H       -2.2100    -4.5390     1.5550 H     1 <1>   0.0800 
 39 H       -4.4550    -5.8480    -1.8200 H     1 <1>   0.0800 
 40 H       -5.3330    -5.5870    -0.3470 H     1 <1>   0.0800 
 41 H       -3.1180    -6.4450     0.2110 H     1 <1>   0.0800 
 42 H       -2.3510    -5.2300    -0.7710 H     1 <1>   0.0800 
@<TRIPOS>BOND
  1   1   2  1   
  2   1   3  1   
  3   2   4  1   
  4   2  19  1   
  5   2  20  1   
  6   3   5  1   
  7   3  21  1   
  8   3  22  1   
  9   4   6  ar  
 10   4   7  ar  
 11   5   8  1   
 12   5   9  1   
 13   5  23  1   
 14   6  10  ar  
 15   6  24  1   
 16   7  11  ar  
 17   7  25  1   
 18   8  26  1   
 19   9  12  1   
 20   9  27  1   
 21   9  28  1   
 22  10  13  ar  
 23  10  29  1   
 24  11  13  ar  
 25  11  30  1   
 26  12  14  1   
 27  12  15  1   
 28  12  31  1   
 29  13  32  1   
 30  14  16  1   
 31  14  33  1   
 32  14  34  1   
 33  15  17  1   
 34  15  35  1   
 35  15  36  1   
 36  16  18  1   
 37  16  37  1   
 38  16  38  1   
 39  17  18  1   
 40  17  39  1   
 41  17  40  1   
 42  18  41  1   
 43  18  42  1   
@<TRIPOS>SUBSTRUCTURE
  1 ****   8 GROUP 4 **** **** 0

# MOE 2024.06 (io_trps.svl 2023.06)
