@<TRIPOS>MOLECULE
NONAME
31 32 1 0 0 
SMALL
USER_CHARGES


@<TRIPOS>ATOM
  1 O       -0.1940    -0.5370    -1.1180 O.2   1 <1>  -0.5700 
  2 C       -0.3220    -1.4860    -0.3910 C.2   1 <1>   0.6590 
  3 O       -1.4690    -1.8540     0.1760 O.3   1 <1>  -0.2330 
  4 C        0.8580    -2.3660    -0.0640 C.3   1 <1>  -0.1790 
  5 C       -2.6780    -1.2290     0.1180 C.ar  1 <1>   0.0830 
  6 C       -3.8400    -2.0010     0.1060 C.ar  1 <1>  -0.1440 
  7 C       -2.7620     0.1550     0.0940 C.ar  1 <1>  -0.1500 
  8 C       -5.0850    -1.3720     0.0370 C.ar  1 <1>  -0.1430 
  9 C       -3.7450    -3.5280     0.1630 C.3   1 <1>  -0.0960 
 10 C       -3.9940     0.7720     0.0390 C.ar  1 <1>  -0.1500 
 11 C       -5.1560     0.0200     0.0100 C.ar  1 <1>  -0.1440 
 12 C       -6.3720    -2.2050     0.0060 C.3   1 <1>  -0.0170 
 13 C       -6.4770     0.7780    -0.0680 C.3   1 <1>  -0.0170 
 14 C       -7.6120    -1.4200    -0.4330 C.3   1 <1>  -0.1600 
 15 C       -7.6830    -0.0850     0.3080 C.3   1 <1>  -0.1600 
 16 H        0.6620    -3.3680    -0.3970 H     1 <1>   0.0800 
 17 H        1.0220    -2.3670     0.9970 H     1 <1>   0.0800 
 18 H        1.7370    -1.9950    -0.5580 H     1 <1>   0.0800 
 19 H       -1.8750     0.7610     0.1210 H     1 <1>   0.1500 
 20 H       -2.7830    -3.8640     0.5020 H     1 <1>   0.0800 
 21 H       -3.9200    -3.9370    -0.8160 H     1 <1>   0.0800 
 22 H       -4.4720    -3.9270     0.8450 H     1 <1>   0.0800 
 23 H       -4.0430     1.8460     0.0160 H     1 <1>   0.1500 
 24 H       -6.5420    -2.5920     0.9960 H     1 <1>   0.0800 
 25 H       -6.2550    -3.0390    -0.6620 H     1 <1>   0.0800 
 26 H       -6.6000     1.1330    -1.0770 H     1 <1>   0.0800 
 27 H       -6.4440     1.6350     0.5810 H     1 <1>   0.0800 
 28 H       -8.4960    -2.0000    -0.2330 H     1 <1>   0.0800 
 29 H       -7.5620    -1.2390    -1.4930 H     1 <1>   0.0800 
 30 H       -8.5910     0.4320     0.0550 H     1 <1>   0.0800 
 31 H       -7.6800    -0.2620     1.3700 H     1 <1>   0.0800 
@<TRIPOS>BOND
  1   1   2  2   
  2   2   3  1   
  3   2   4  1   
  4   3   5  1   
  5   4  16  1   
  6   4  17  1   
  7   4  18  1   
  8   5   6  ar  
  9   5   7  ar  
 10   6   8  ar  
 11   6   9  1   
 12   7  10  ar  
 13   7  19  1   
 14   8  11  ar  
 15   8  12  1   
 16   9  20  1   
 17   9  21  1   
 18   9  22  1   
 19  10  11  ar  
 20  10  23  1   
 21  11  13  1   
 22  12  14  1   
 23  12  24  1   
 24  12  25  1   
 25  13  15  1   
 26  13  26  1   
 27  13  27  1   
 28  14  15  1   
 29  14  28  1   
 30  14  29  1   
 31  15  30  1   
 32  15  31  1   
@<TRIPOS>SUBSTRUCTURE
  1 ****   6 GROUP 4 **** **** 0

# MOE 2024.06 (io_trps.svl 2023.06)
