@<TRIPOS>MOLECULE
NONAME
44 46 1 0 0 
SMALL
USER_CHARGES


@<TRIPOS>ATOM
  1 S       -0.1620    -0.0630    -0.0650 S.o2  1 <1>   1.3330 
  2 O       -0.5710    -0.2890     1.3040 O.2   1 <1>  -0.6500 
  3 O       -0.9620    -0.5860    -1.1510 O.2   1 <1>  -0.6500 
  4 N        1.4070    -0.6750    -0.2480 N.am  1 <1>  -0.8490 
  5 C        0.0780     1.7050    -0.2920 C.3   1 <1>  -0.0550 
  6 C        1.6130    -1.8840     0.5680 C.3   1 <1>   0.1960 
  7 C        1.7720    -0.9180    -1.6440 C.3   1 <1>   0.1960 
  8 C       -1.2080     2.5430    -0.1770 C.3   1 <1>  -0.2400 
  9 C        2.9390    -2.5960     0.2440 C.3   1 <1>  -0.1600 
 10 C        3.2890    -1.1320    -1.7630 C.3   1 <1>  -0.1600 
 11 C        3.9360    -1.6600    -0.4620 C.3   1 <1>  -0.0190 
 12 C        5.2830    -2.3340    -0.7340 C.2   1 <1>   0.5690 
 13 O        5.2600    -3.4440    -1.2170 O.2   1 <1>  -0.5700 
 14 N        6.4830    -1.7300    -0.4180 N.am  1 <1>  -0.4770 
 15 C        6.8310    -0.4320    -0.0100 C.ar  1 <1>   0.1170 
 16 C        7.6950    -2.5890    -0.3040 C.3   1 <1>   0.1400 
 17 C        8.0820    -0.4160     0.5720 C.ar  1 <1>  -0.1440 
 18 C        6.1400     0.7690    -0.1410 C.ar  1 <1>  -0.1500 
 19 C        8.6880    -1.7950     0.5550 C.3   1 <1>  -0.0170 
 20 C        8.6440     0.7450     1.0680 C.ar  1 <1>  -0.1500 
 21 C        6.6900     1.9410     0.3510 C.ar  1 <1>  -0.1500 
 22 C        7.9360     1.9300     0.9590 C.ar  1 <1>  -0.1500 
 23 H        0.5110     1.8770    -1.2580 H     1 <1>   0.0800 
 24 H        0.7790     2.0520     0.4420 H     1 <1>   0.0800 
 25 H        0.7950    -2.5710     0.4210 H     1 <1>   0.0800 
 26 H        1.6160    -1.5950     1.6060 H     1 <1>   0.0800 
 27 H        1.4820    -0.0840    -2.2610 H     1 <1>   0.0800 
 28 H        1.2480    -1.7900    -2.0020 H     1 <1>   0.0800 
 29 H       -1.9210     2.2310    -0.9200 H     1 <1>   0.0800 
 30 H       -0.9890     3.5860    -0.3210 H     1 <1>   0.0800 
 31 H       -1.6480     2.4120     0.7970 H     1 <1>   0.0800 
 32 H        2.7320    -3.4410    -0.3900 H     1 <1>   0.0800 
 33 H        3.3670    -2.9800     1.1520 H     1 <1>   0.0800 
 34 H        3.7570    -0.2100    -2.0520 H     1 <1>   0.0800 
 35 H        3.4600    -1.8330    -2.5620 H     1 <1>   0.0800 
 36 H        4.0880    -0.8440     0.2160 H     1 <1>   0.0800 
 37 H        8.0950    -2.7580    -1.2880 H     1 <1>   0.0800 
 38 H        7.4530    -3.5320     0.1540 H     1 <1>   0.0800 
 39 H        5.1890     0.8100    -0.6290 H     1 <1>   0.1500 
 40 H        9.6690    -1.7960     0.1150 H     1 <1>   0.0800 
 41 H        8.7320    -2.1980     1.5510 H     1 <1>   0.0800 
 42 H        9.6170     0.7310     1.5260 H     1 <1>   0.1500 
 43 H        6.1510     2.8680     0.2580 H     1 <1>   0.1500 
 44 H        8.3570     2.8440     1.3420 H     1 <1>   0.1500 
@<TRIPOS>BOND
  1   1   2  2   
  2   1   3  2   
  3   1   4  am  
  4   1   5  1   
  5   4   6  1   
  6   4   7  1   
  7   5   8  1   
  8   5  23  1   
  9   5  24  1   
 10   6   9  1   
 11   6  25  1   
 12   6  26  1   
 13   7  10  1   
 14   7  27  1   
 15   7  28  1   
 16   8  29  1   
 17   8  30  1   
 18   8  31  1   
 19   9  11  1   
 20   9  32  1   
 21   9  33  1   
 22  10  11  1   
 23  10  34  1   
 24  10  35  1   
 25  11  12  1   
 26  11  36  1   
 27  12  13  2   
 28  12  14  am  
 29  14  15  1   
 30  14  16  1   
 31  15  17  ar  
 32  15  18  ar  
 33  16  19  1   
 34  16  37  1   
 35  16  38  1   
 36  17  19  1   
 37  17  20  ar  
 38  18  21  ar  
 39  18  39  1   
 40  19  40  1   
 41  19  41  1   
 42  20  22  ar  
 43  20  42  1   
 44  21  22  ar  
 45  21  43  1   
 46  22  44  1   
@<TRIPOS>SUBSTRUCTURE
  1 ****  11 GROUP 4 **** **** 0

# MOE 2024.06 (io_trps.svl 2023.06)
