@<TRIPOS>MOLECULE
NONAME
51 52 1 0 0 
SMALL
USER_CHARGES


@<TRIPOS>ATOM
  1 O        0.3930    -4.0280    -0.2990 O.2   1 <1>  -0.5700 
  2 C       -0.1510    -5.0100     0.1670 C.2   1 <1>   0.5690 
  3 N        0.4300    -5.6190     1.2500 N.am  1 <1>  -0.7300 
  4 C       -1.4390    -5.6030    -0.5000 C.3   1 <1>   0.6280 
  5 C        1.5980    -5.0980     2.0180 C.3   1 <1>   0.1400 
  6 O       -1.2280    -5.6960    -1.8750 O.3   1 <1>  -0.6800 
  7 C       -1.6720    -7.0260     0.0600 C.ar  1 <1>  -0.1430 
  8 C       -2.6970    -4.7270    -0.3450 C.ar  1 <1>  -0.1430 
  9 C        2.9520    -5.4670     1.3730 C.3   1 <1>   0.3430 
 10 C       -2.3830    -7.1980     1.2440 C.ar  1 <1>  -0.1500 
 11 C       -1.1530    -8.1560    -0.5670 C.ar  1 <1>  -0.1500 
 12 C       -2.6890    -3.4970     0.3080 C.ar  1 <1>  -0.1500 
 13 C       -3.8990    -5.1810    -0.8790 C.ar  1 <1>  -0.1500 
 14 N        2.9790    -5.1370    -0.0890 N.4   1 <1>  -0.9590 
 15 C       -2.5630    -8.4560     1.7890 C.ar  1 <1>  -0.1500 
 16 C       -1.3320    -9.4150    -0.0230 C.ar  1 <1>  -0.1500 
 17 C       -3.8490    -2.7500     0.4240 C.ar  1 <1>  -0.1500 
 18 C       -5.0580    -4.4360    -0.7640 C.ar  1 <1>  -0.1500 
 19 C        2.8900    -6.3740    -0.9090 C.3   1 <1>   0.3430 
 20 C        4.1110    -4.2540    -0.4720 C.3   1 <1>   0.3430 
 21 C       -2.0350    -9.5670     1.1580 C.ar  1 <1>  -0.1500 
 22 C       -5.0350    -3.2180    -0.1110 C.ar  1 <1>  -0.1500 
 23 C        2.4890    -6.0330    -2.3400 C.3   1 <1>  -0.2400 
 24 C        3.8790    -2.8580     0.0940 C.3   1 <1>  -0.2400 
 25 H       -0.0290    -6.4650     1.6220 H     1 <1>   0.3700 
 26 H        1.5630    -5.4830     3.0230 H     1 <1>   0.0800 
 27 H        1.5250    -4.0250     2.0830 H     1 <1>   0.0800 
 28 H       -1.4300    -4.8180    -2.2510 H     1 <1>   0.4000 
 29 H        3.1330    -6.5190     1.5150 H     1 <1>   0.0800 
 30 H        3.7340    -4.9320     1.8850 H     1 <1>   0.0800 
 31 H       -2.8110    -6.3510     1.7570 H     1 <1>   0.1500 
 32 H       -0.6060    -8.0690    -1.4900 H     1 <1>   0.1500 
 33 H       -1.7910    -3.0880     0.7380 H     1 <1>   0.1500 
 34 H       -3.9370    -6.1290    -1.3910 H     1 <1>   0.1500 
 35 H        2.1000    -4.6050    -0.2760 H     1 <1>   0.4500 
 36 H       -3.1190    -8.5740     2.7040 H     1 <1>   0.1500 
 37 H       -0.9310   -10.2810    -0.5210 H     1 <1>   0.1500 
 38 H       -3.8310    -1.8010     0.9300 H     1 <1>   0.1500 
 39 H       -5.9790    -4.8050    -1.1830 H     1 <1>   0.1500 
 40 H        2.1380    -7.0240    -0.4900 H     1 <1>   0.0800 
 41 H        3.8330    -6.8970    -0.9010 H     1 <1>   0.0800 
 42 H        4.1710    -4.1810    -1.5450 H     1 <1>   0.0800 
 43 H        5.0420    -4.6590    -0.1090 H     1 <1>   0.0800 
 44 H       -2.1780   -10.5470     1.5790 H     1 <1>   0.1500 
 45 H       -5.9360    -2.6370    -0.0210 H     1 <1>   0.1500 
 46 H        1.5780    -5.4620    -2.3580 H     1 <1>   0.0800 
 47 H        2.3160    -6.9450    -2.8830 H     1 <1>   0.0800 
 48 H        3.2640    -5.4930    -2.8510 H     1 <1>   0.0800 
 49 H        2.9370    -2.4650    -0.2470 H     1 <1>   0.0800 
 50 H        4.6570    -2.2030    -0.2540 H     1 <1>   0.0800 
 51 H        3.9040    -2.8560     1.1680 H     1 <1>   0.0800 
@<TRIPOS>BOND
  1   1   2  2   
  2   2   3  am  
  3   2   4  1   
  4   3   5  1   
  5   3  25  1   
  6   4   6  1   
  7   4   7  1   
  8   4   8  1   
  9   5   9  1   
 10   5  26  1   
 11   5  27  1   
 12   6  28  1   
 13   7  10  ar  
 14   7  11  ar  
 15   8  12  ar  
 16   8  13  ar  
 17   9  14  1   
 18   9  29  1   
 19   9  30  1   
 20  10  15  ar  
 21  10  31  1   
 22  11  16  ar  
 23  11  32  1   
 24  12  17  ar  
 25  12  33  1   
 26  13  18  ar  
 27  13  34  1   
 28  14  19  1   
 29  14  20  1   
 30  14  35  1   
 31  15  21  ar  
 32  15  36  1   
 33  16  21  ar  
 34  16  37  1   
 35  17  22  ar  
 36  17  38  1   
 37  18  22  ar  
 38  18  39  1   
 39  19  23  1   
 40  19  40  1   
 41  19  41  1   
 42  20  24  1   
 43  20  42  1   
 44  20  43  1   
 45  21  44  1   
 46  22  45  1   
 47  23  46  1   
 48  23  47  1   
 49  23  48  1   
 50  24  49  1   
 51  24  50  1   
 52  24  51  1   
@<TRIPOS>SUBSTRUCTURE
  1 ****   2 GROUP 4 **** **** 0

# MOE 2024.06 (io_trps.svl 2023.06)
