@<TRIPOS>MOLECULE
NONAME
47 48 1 0 0 
SMALL
USER_CHARGES


@<TRIPOS>ATOM
  1 O       -0.2190    -0.6180     0.6930 O.3   1 <1>  -0.3630 
  2 C       -1.4440    -1.0330     0.2720 C.ar  1 <1>   0.0830 
  3 C        0.4110     0.5340     0.1770 C.3   1 <1>   0.0400 
  4 C       -1.9380    -2.2450     0.7580 C.ar  1 <1>  -0.1440 
  5 C       -2.2010    -0.2880    -0.6240 C.ar  1 <1>  -0.1500 
  6 C       -3.1790    -2.7170     0.3260 C.ar  1 <1>  -0.1430 
  7 C       -1.0920    -3.0450     1.7550 C.3   1 <1>  -0.0960 
  8 C       -3.4380    -0.7410    -1.0290 C.ar  1 <1>  -0.1500 
  9 C       -3.9390    -1.9430    -0.5530 C.ar  1 <1>  -0.1440 
 10 C       -3.6760    -4.0810     0.8140 C.3   1 <1>  -0.0970 
 11 C       -5.3280    -2.3490    -1.0160 C.3   1 <1>   0.4860 
 12 N       -6.2830    -2.1910     0.1250 N.4   1 <1>  -0.9590 
 13 C       -7.6350    -2.7790    -0.1390 C.3   1 <1>   0.4230 
 14 C       -6.3290    -0.7500     0.5470 C.3   1 <1>   0.2630 
 15 C       -8.5470    -2.5930     1.0910 C.3   1 <1>  -0.1600 
 16 C       -7.5110    -4.2780    -0.4810 C.3   1 <1>  -0.1600 
 17 C       -9.9140    -3.2690     0.9090 C.3   1 <1>  -0.1600 
 18 C       -8.8810    -4.9480    -0.6610 C.3   1 <1>  -0.1600 
 19 C       -9.7600    -4.7550     0.5770 C.3   1 <1>  -0.1600 
 20 H        1.3800     0.6160     0.6350 H     1 <1>   0.0800 
 21 H       -0.1820     1.3970     0.4220 H     1 <1>   0.0800 
 22 H        0.5190     0.4260    -0.8880 H     1 <1>   0.0800 
 23 H       -1.8420     0.6450    -1.0150 H     1 <1>   0.1500 
 24 H       -0.3990    -2.4180     2.2860 H     1 <1>   0.0800 
 25 H       -0.5300    -3.7970     1.2320 H     1 <1>   0.0800 
 26 H       -1.7060    -3.5180     2.4990 H     1 <1>   0.0800 
 27 H       -4.0020    -0.1400    -1.7220 H     1 <1>   0.1500 
 28 H       -2.8690    -4.7930     0.8040 H     1 <1>   0.0800 
 29 H       -4.4440    -4.4940     0.1910 H     1 <1>   0.0800 
 30 H       -4.0440    -4.0010     1.8210 H     1 <1>   0.0800 
 31 H       -5.2910    -3.3700    -1.3500 H     1 <1>   0.0800 
 32 H       -5.6350    -1.7330    -1.8450 H     1 <1>   0.0800 
 33 H       -5.8600    -2.7140     0.9020 H     1 <1>   0.4500 
 34 H       -8.0890    -2.2740    -0.9760 H     1 <1>   0.0800 
 35 H       -6.7780    -0.1460    -0.2240 H     1 <1>   0.0800 
 36 H       -5.3330    -0.3810     0.7390 H     1 <1>   0.0800 
 37 H       -6.9000    -0.6370     1.4540 H     1 <1>   0.0800 
 38 H       -8.7350    -1.5510     1.2700 H     1 <1>   0.0800 
 39 H       -8.0710    -3.0130     1.9610 H     1 <1>   0.0800 
 40 H       -6.9870    -4.7870     0.3090 H     1 <1>   0.0800 
 41 H       -6.9740    -4.4180    -1.4000 H     1 <1>   0.0800 
 42 H      -10.4580    -2.7810     0.1180 H     1 <1>   0.0800 
 43 H      -10.4920    -3.1640     1.8120 H     1 <1>   0.0800 
 44 H       -8.7480    -6.0020    -0.8420 H     1 <1>   0.0800 
 45 H       -9.3800    -4.5320    -1.5200 H     1 <1>   0.0800 
 46 H      -10.7320    -5.1860     0.3990 H     1 <1>   0.0800 
 47 H       -9.3250    -5.2710     1.4160 H     1 <1>   0.0800 
@<TRIPOS>BOND
  1   1   2  1   
  2   1   3  1   
  3   2   4  ar  
  4   2   5  ar  
  5   3  20  1   
  6   3  21  1   
  7   3  22  1   
  8   4   6  ar  
  9   4   7  1   
 10   5   8  ar  
 11   5  23  1   
 12   6   9  ar  
 13   6  10  1   
 14   7  24  1   
 15   7  25  1   
 16   7  26  1   
 17   8   9  ar  
 18   8  27  1   
 19   9  11  1   
 20  10  28  1   
 21  10  29  1   
 22  10  30  1   
 23  11  12  1   
 24  11  31  1   
 25  11  32  1   
 26  12  13  1   
 27  12  14  1   
 28  12  33  1   
 29  13  15  1   
 30  13  16  1   
 31  13  34  1   
 32  14  35  1   
 33  14  36  1   
 34  14  37  1   
 35  15  17  1   
 36  15  38  1   
 37  15  39  1   
 38  16  18  1   
 39  16  40  1   
 40  16  41  1   
 41  17  19  1   
 42  17  42  1   
 43  17  43  1   
 44  18  19  1   
 45  18  44  1   
 46  18  45  1   
 47  19  46  1   
 48  19  47  1   
@<TRIPOS>SUBSTRUCTURE
  1 ****   9 GROUP 4 **** **** 0

# MOE 2024.06 (io_trps.svl 2023.06)
