@<TRIPOS>MOLECULE
NONAME
33 33 1 0 0 
SMALL
USER_CHARGES


@<TRIPOS>ATOM
  1 S        0.0490     2.8660    -0.7870 S.3   1 <1>  -0.4600 
  2 C       -1.4290     2.0040    -1.4030 C.3   1 <1>   0.2140 
  3 C        1.4090     2.2080    -1.8250 C.3   1 <1>   0.1310 
  4 C       -1.4990     0.6230    -0.7730 C.ar  1 <1>  -0.1440 
  5 C        1.8470     0.8080    -1.4150 C.2   1 <1>   0.5690 
  6 C       -1.3380    -0.5150    -1.5470 C.ar  1 <1>  -0.1500 
  7 C       -1.7330     0.4880     0.5860 C.ar  1 <1>  -0.1500 
  8 O        2.3440     0.0920    -2.2510 O.2   1 <1>  -0.5700 
  9 N        1.6770     0.4030    -0.1340 N.am  1 <1>  -0.7300 
 10 C       -1.4170    -1.7710    -0.9700 C.ar  1 <1>  -0.1500 
 11 C       -1.8100    -0.7670     1.1640 C.ar  1 <1>  -0.1500 
 12 C        1.9620    -0.9430     0.3670 C.3   1 <1>   0.2780 
 13 C       -1.6550    -1.9040     0.3880 C.ar  1 <1>  -0.1430 
 14 C        2.2690    -0.8220     1.8440 C.2   1 <1>  -0.2880 
 15 C       -1.7370    -3.2870     1.0090 C.3   1 <1>  -0.0970 
 16 C        1.5370    -1.3480     2.8310 C.2   1 <1>  -0.3000 
 17 H       -1.3600     1.9590    -2.4750 H     1 <1>   0.0800 
 18 H       -2.2800     2.5960    -1.1180 H     1 <1>   0.0800 
 19 H        2.2350     2.8860    -1.7230 H     1 <1>   0.0800 
 20 H        1.0680     2.2080    -2.8440 H     1 <1>   0.0800 
 21 H       -1.1460    -0.4350    -2.6030 H     1 <1>   0.1500 
 22 H       -1.8560     1.3640     1.2010 H     1 <1>   0.1500 
 23 H        1.0750     0.9640     0.4750 H     1 <1>   0.3700 
 24 H       -1.2900    -2.6450    -1.5840 H     1 <1>   0.1500 
 25 H       -1.9930    -0.8510     2.2210 H     1 <1>   0.1500 
 26 H        2.8000    -1.3670    -0.1600 H     1 <1>   0.0800 
 27 H        1.1010    -1.5690     0.2110 H     1 <1>   0.0800 
 28 H        3.1630    -0.2490     2.0230 H     1 <1>   0.1500 
 29 H       -2.0970    -3.2330     2.0200 H     1 <1>   0.0800 
 30 H       -0.7640    -3.7440     1.0120 H     1 <1>   0.0800 
 31 H       -2.4090    -3.9040     0.4410 H     1 <1>   0.0800 
 32 H        1.7770    -1.2470     3.8760 H     1 <1>   0.1500 
 33 H        0.6380    -1.9200     2.6770 H     1 <1>   0.1500 
@<TRIPOS>BOND
  1   1   2  1   
  2   1   3  1   
  3   2   4  1   
  4   2  17  1   
  5   2  18  1   
  6   3   5  1   
  7   3  19  1   
  8   3  20  1   
  9   4   6  ar  
 10   4   7  ar  
 11   5   8  2   
 12   5   9  am  
 13   6  10  ar  
 14   6  21  1   
 15   7  11  ar  
 16   7  22  1   
 17   9  12  1   
 18   9  23  1   
 19  10  13  ar  
 20  10  24  1   
 21  11  13  ar  
 22  11  25  1   
 23  12  14  1   
 24  12  26  1   
 25  12  27  1   
 26  13  15  1   
 27  14  16  2   
 28  14  28  1   
 29  15  29  1   
 30  15  30  1   
 31  15  31  1   
 32  16  32  1   
 33  16  33  1   
@<TRIPOS>SUBSTRUCTURE
  1 ****   9 GROUP 4 **** **** 0

# MOE 2024.06 (io_trps.svl 2023.06)
