@<TRIPOS>MOLECULE
ka-06902
48 51 1 0 0 
SMALL
USER_CHARGES


@<TRIPOS>ATOM
  1 O       -0.3680    -1.1910    -1.4450 O.2   1 <1>  -0.5700 
  2 C        0.6210    -1.0700    -0.7740 C.2   1 <1>   0.6590 
  3 O        0.8650     0.1100    -0.2090 O.3   1 <1>  -0.4300 
  4 C        1.6090    -2.2260    -0.6000 C.3   1 <1>  -0.0190 
  5 C        2.0900     0.5960     0.2880 C.3   1 <1>   0.1200 
  6 C        1.1730    -3.4810    -1.4030 C.3   1 <1>   0.2070 
  7 C        1.8400    -2.6330     0.9070 C.3   1 <1>  -0.0190 
  8 C        2.0560     2.1170     0.1950 C.3   1 <1>  -0.2400 
  9 C        0.0080    -4.1320    -0.6520 C.ar  1 <1>  -0.1440 
 10 C        2.3450    -4.4550    -1.2630 C.ar  1 <1>  -0.1430 
 11 C        3.1720    -2.1780     1.4740 C.2   1 <1>   0.6590 
 12 C        1.7220    -4.1650     1.0900 C.3   1 <1>   0.2070 
 13 C        0.3000    -4.5020     0.6530 C.ar  1 <1>  -0.1440 
 14 C       -1.2540    -4.3570    -1.1730 C.ar  1 <1>  -0.1500 
 15 C        2.6370    -4.8100     0.0470 C.ar  1 <1>  -0.1440 
 16 C        3.0980    -4.9630    -2.3070 C.ar  1 <1>  -0.1500 
 17 O        3.2520    -1.7640     2.6000 O.2   1 <1>  -0.5700 
 18 O        4.2300    -2.2480     0.6790 O.3   1 <1>  -0.4300 
 19 C       -0.6630    -5.1070     1.4420 C.ar  1 <1>  -0.1500 
 20 C       -2.2190    -4.9620    -0.3840 C.ar  1 <1>  -0.1500 
 21 C        3.6840    -5.6720     0.3220 C.ar  1 <1>  -0.1500 
 22 C        4.1470    -5.8250    -2.0320 C.ar  1 <1>  -0.1500 
 23 C        5.5240    -1.9190     1.1220 C.3   1 <1>   0.1200 
 24 C       -1.9240    -5.3370     0.9180 C.ar  1 <1>  -0.1500 
 25 C        4.4390    -6.1770    -0.7240 C.ar  1 <1>  -0.1500 
 26 C        6.4880    -2.1820    -0.0290 C.3   1 <1>  -0.2400 
 27 H        2.5290    -1.9020    -1.0460 H     1 <1>   0.0800 
 28 H        2.9010     0.2050    -0.3010 H     1 <1>   0.0800 
 29 H        2.1860     0.2920     1.3160 H     1 <1>   0.0800 
 30 H        0.9420    -3.2670    -2.4320 H     1 <1>   0.0800 
 31 H        1.0690    -2.1850     1.5090 H     1 <1>   0.0800 
 32 H        1.9420     2.4240    -0.8300 H     1 <1>   0.0800 
 33 H        2.9750     2.5260     0.5750 H     1 <1>   0.0800 
 34 H        1.2410     2.5050     0.7780 H     1 <1>   0.0800 
 35 H        1.9310    -4.4880     2.0950 H     1 <1>   0.0800 
 36 H       -1.4870    -4.0610    -2.1800 H     1 <1>   0.1500 
 37 H        2.8740    -4.6940    -3.3240 H     1 <1>   0.1500 
 38 H       -0.4390    -5.3990     2.4530 H     1 <1>   0.1500 
 39 H       -3.2020    -5.1380    -0.7840 H     1 <1>   0.1500 
 40 H        3.9130    -5.9500     1.3350 H     1 <1>   0.1500 
 41 H        4.7370    -6.2250    -2.8390 H     1 <1>   0.1500 
 42 H        5.7600    -2.5370     1.9720 H     1 <1>   0.0800 
 43 H        5.5340    -0.8820     1.4130 H     1 <1>   0.0800 
 44 H       -2.6790    -5.8070     1.5230 H     1 <1>   0.1500 
 45 H        5.2550    -6.8490    -0.5200 H     1 <1>   0.1500 
 46 H        6.4410    -3.2170    -0.3190 H     1 <1>   0.0800 
 47 H        7.4930    -1.9580     0.2800 H     1 <1>   0.0800 
 48 H        6.2410    -1.5620    -0.8720 H     1 <1>   0.0800 
@<TRIPOS>BOND
  1   1   2  2   
  2   2   3  1   
  3   2   4  1   
  4   3   5  1   
  5   4   6  1   
  6   4   7  1   
  7   4  27  1   
  8   5   8  1   
  9   5  28  1   
 10   5  29  1   
 11   6   9  1   
 12   6  10  1   
 13   6  30  1   
 14   7  11  1   
 15   7  12  1   
 16   7  31  1   
 17   8  32  1   
 18   8  33  1   
 19   8  34  1   
 20   9  13  ar  
 21   9  14  ar  
 22  10  15  ar  
 23  10  16  ar  
 24  11  17  2   
 25  11  18  1   
 26  12  13  1   
 27  12  15  1   
 28  12  35  1   
 29  13  19  ar  
 30  14  20  ar  
 31  14  36  1   
 32  15  21  ar  
 33  16  22  ar  
 34  16  37  1   
 35  18  23  1   
 36  19  24  ar  
 37  19  38  1   
 38  20  24  ar  
 39  20  39  1   
 40  21  25  ar  
 41  21  40  1   
 42  22  25  ar  
 43  22  41  1   
 44  23  26  1   
 45  23  42  1   
 46  23  43  1   
 47  24  44  1   
 48  25  45  1   
 49  26  46  1   
 50  26  47  1   
 51  26  48  1   
@<TRIPOS>SUBSTRUCTURE
  1 ****   7 GROUP 4 **** **** 0

# MOE 2024.06 (io_trps.svl 2023.06)
