@<TRIPOS>MOLECULE
NONAME
29 30 1 0 0 
SMALL
USER_CHARGES


@<TRIPOS>ATOM
  1 F       -0.5320     0.0010     0.1200 F     1 <1>  -0.1900 
  2 C       -1.8390     0.0310     0.1400 C.ar  1 <1>   0.1900 
  3 C       -2.5250    -1.0990     0.5420 C.ar  1 <1>  -0.1500 
  4 C       -2.4870     1.1890    -0.2400 C.ar  1 <1>  -0.1500 
  5 C       -3.9090    -1.0610     0.5600 C.ar  1 <1>  -0.1500 
  6 C       -3.8710     1.2090    -0.2180 C.ar  1 <1>  -0.1500 
  7 C       -4.6020     0.0890     0.1780 C.ar  1 <1>   0.1170 
  8 N       -6.0110     0.1120     0.1840 N.am  1 <1>  -0.4770 
  9 C       -6.8410     1.1510     0.4950 C.2   1 <1>   0.5690 
 10 C       -6.7980    -1.0760    -0.2100 C.3   1 <1>   0.1400 
 11 O       -6.5180     2.2560     0.8550 O.2   1 <1>  -0.5700 
 12 C       -8.2860     0.7690     0.3310 C.3   1 <1>  -0.0990 
 13 C       -8.2100    -0.5350    -0.4750 C.3   1 <1>  -0.0190 
 14 C       -9.3140    -1.5240    -0.1450 C.2   1 <1>   0.6590 
 15 O       -9.0820    -2.6480     0.2180 O.2   1 <1>  -0.5700 
 16 O      -10.5530    -1.0710    -0.2910 O.3   1 <1>  -0.4300 
 17 C      -11.6780    -1.8830    -0.0240 C.3   1 <1>   0.0400 
 18 H       -1.9850    -1.9800     0.8360 H     1 <1>   0.1500 
 19 H       -1.9220     2.0510    -0.5440 H     1 <1>   0.1500 
 20 H       -4.4490    -1.9320     0.8820 H     1 <1>   0.1500 
 21 H       -4.3900     2.1050    -0.5110 H     1 <1>   0.1500 
 22 H       -6.7960    -1.7770     0.6080 H     1 <1>   0.0800 
 23 H       -6.3830    -1.5400    -1.0890 H     1 <1>   0.0800 
 24 H       -8.8330     1.5340    -0.1890 H     1 <1>   0.0800 
 25 H       -8.7110     0.6090     1.3050 H     1 <1>   0.0800 
 26 H       -8.2800    -0.2990    -1.5210 H     1 <1>   0.0800 
 27 H      -12.5670    -1.3070    -0.2090 H     1 <1>   0.0800 
 28 H      -11.6460    -2.1950     1.0060 H     1 <1>   0.0800 
 29 H      -11.6500    -2.7420    -0.6720 H     1 <1>   0.0800 
@<TRIPOS>BOND
  1   1   2  1   
  2   2   3  ar  
  3   2   4  ar  
  4   3   5  ar  
  5   3  18  1   
  6   4   6  ar  
  7   4  19  1   
  8   5   7  ar  
  9   5  20  1   
 10   6   7  ar  
 11   6  21  1   
 12   7   8  1   
 13   8   9  am  
 14   8  10  1   
 15   9  11  2   
 16   9  12  1   
 17  10  13  1   
 18  10  22  1   
 19  10  23  1   
 20  12  13  1   
 21  12  24  1   
 22  12  25  1   
 23  13  14  1   
 24  13  26  1   
 25  14  15  2   
 26  14  16  1   
 27  16  17  1   
 28  17  27  1   
 29  17  28  1   
 30  17  29  1   
@<TRIPOS>SUBSTRUCTURE
  1 ****   8 GROUP 4 **** **** 0

# MOE 2024.06 (io_trps.svl 2023.06)
