@<TRIPOS>MOLECULE
NONAME
42 42 1 0 0 
SMALL
USER_CHARGES


@<TRIPOS>ATOM
  1 S       -5.5210    -2.1730    -0.6090 S.o2  1 <1>   1.4470 
  2 O       -5.8860    -0.8720    -1.1290 O.2   1 <1>  -0.6500 
  3 O       -6.0740    -3.3620    -1.2170 O.2   1 <1>  -0.6500 
  4 N       -5.9650    -2.1900     1.0330 N.am  1 <1>  -0.8490 
  5 C       -3.7110    -2.3290    -0.5540 C.ar  1 <1>  -0.0090 
  6 C       -7.3890    -2.4870     1.2100 C.3   1 <1>   0.1160 
  7 C       -5.6210    -0.9500     1.7340 C.3   1 <1>   0.1160 
  8 C       -2.8860    -1.4650    -1.2630 C.ar  1 <1>  -0.1500 
  9 C       -3.1010    -3.3250     0.1960 C.ar  1 <1>  -0.1500 
 10 C       -1.5090    -1.5850    -1.2190 C.ar  1 <1>  -0.1500 
 11 C       -1.7240    -3.4480     0.2420 C.ar  1 <1>  -0.1500 
 12 C       -0.8900    -2.5840    -0.4660 C.ar  1 <1>   0.0860 
 13 C        0.5550    -2.7250    -0.4020 C.2   1 <1>   0.5440 
 14 O        1.0940    -3.1910     0.5830 O.2   1 <1>  -0.5700 
 15 N        1.3610    -2.3210    -1.4320 N.am  1 <1>  -0.7300 
 16 C        2.8110    -2.6530    -1.5960 C.3   1 <1>   0.1400 
 17 C        3.7310    -1.7210    -0.7790 C.3   1 <1>   0.3430 
 18 N        3.4900    -1.8550     0.6900 N.4   1 <1>  -0.9590 
 19 C        3.7280    -0.5850     1.4320 C.3   1 <1>   0.2630 
 20 C        4.2340    -3.0000     1.2920 C.3   1 <1>   0.2630 
 21 H       -7.6220    -3.4490     0.7840 H     1 <1>   0.0800 
 22 H       -7.9930    -1.7380     0.7230 H     1 <1>   0.0800 
 23 H       -7.6370    -2.5160     2.2580 H     1 <1>   0.0800 
 24 H       -4.5670    -0.7500     1.6390 H     1 <1>   0.0800 
 25 H       -5.8540    -1.0410     2.7810 H     1 <1>   0.0800 
 26 H       -6.1700    -0.1170     1.3240 H     1 <1>   0.0800 
 27 H       -3.3350    -0.6830    -1.8560 H     1 <1>   0.1500 
 28 H       -3.7180    -4.0110     0.7530 H     1 <1>   0.1500 
 29 H       -0.9130    -0.8840    -1.7760 H     1 <1>   0.1500 
 30 H       -1.2850    -4.2310     0.8380 H     1 <1>   0.1500 
 31 H        0.8890    -2.0440    -2.2990 H     1 <1>   0.3700 
 32 H        3.0670    -2.5680    -2.6380 H     1 <1>   0.0800 
 33 H        2.9800    -3.6760    -1.3040 H     1 <1>   0.0800 
 34 H        3.5380    -0.7070    -1.0890 H     1 <1>   0.0800 
 35 H        4.7620    -1.9430    -1.0000 H     1 <1>   0.0800 
 36 H        2.4770    -2.1100     0.7750 H     1 <1>   0.4500 
 37 H        4.7650    -0.3000     1.3670 H     1 <1>   0.0800 
 38 H        3.4670    -0.7090     2.4710 H     1 <1>   0.0800 
 39 H        3.1220     0.2060     1.0210 H     1 <1>   0.0800 
 40 H        5.2970    -2.8470     1.2090 H     1 <1>   0.0800 
 41 H        3.9700    -3.9180     0.7920 H     1 <1>   0.0800 
 42 H        3.9770    -3.1000     2.3350 H     1 <1>   0.0800 
@<TRIPOS>BOND
  1   1   2  2   
  2   1   3  2   
  3   1   4  am  
  4   1   5  1   
  5   4   6  1   
  6   4   7  1   
  7   5   8  ar  
  8   5   9  ar  
  9   6  21  1   
 10   6  22  1   
 11   6  23  1   
 12   7  24  1   
 13   7  25  1   
 14   7  26  1   
 15   8  10  ar  
 16   8  27  1   
 17   9  11  ar  
 18   9  28  1   
 19  10  12  ar  
 20  10  29  1   
 21  11  12  ar  
 22  11  30  1   
 23  12  13  1   
 24  13  14  2   
 25  13  15  am  
 26  15  16  1   
 27  15  31  1   
 28  16  17  1   
 29  16  32  1   
 30  16  33  1   
 31  17  18  1   
 32  17  34  1   
 33  17  35  1   
 34  18  19  1   
 35  18  20  1   
 36  18  36  1   
 37  19  37  1   
 38  19  38  1   
 39  19  39  1   
 40  20  40  1   
 41  20  41  1   
 42  20  42  1   
@<TRIPOS>SUBSTRUCTURE
  1 ****  12 GROUP 4 **** **** 0

# MOE 2024.06 (io_trps.svl 2023.06)
