@<TRIPOS>MOLECULE
NONAME
40 41 1 0 0 
SMALL
USER_CHARGES


@<TRIPOS>ATOM
  1 S        0.4770    -0.2240     0.0220 S.o2  1 <1>   1.3330 
  2 O        0.3170     0.3100    -1.3070 O.2   1 <1>  -0.6500 
  3 O        1.6040    -1.0510     0.3690 O.2   1 <1>  -0.6500 
  4 N       -0.8760    -1.2260     0.3590 N.am  1 <1>  -0.7570 
  5 C        0.3010     1.0780     1.2490 C.3   1 <1>  -0.0550 
  6 C       -2.2190    -1.0540     0.0680 C.ar  1 <1>   0.1990 
  7 C        1.4220     2.1320     1.2220 C.3   1 <1>  -0.2400 
  8 C       -3.1190    -2.0380     0.4600 C.ar  1 <1>  -0.1500 
  9 C       -2.7240     0.0600    -0.5990 C.ar  1 <1>  -0.1500 
 10 C       -4.4710    -1.9110     0.2070 C.ar  1 <1>  -0.1500 
 11 C       -4.0770     0.1830    -0.8510 C.ar  1 <1>  -0.1500 
 12 C       -4.9890    -0.7930    -0.4470 C.ar  1 <1>   0.0860 
 13 C       -6.4100    -0.6720    -0.7050 C.2   1 <1>   0.5440 
 14 O       -6.9990    -1.6170    -1.1970 O.2   1 <1>  -0.5700 
 15 N       -7.1180     0.4770    -0.4080 N.am  1 <1>  -0.6600 
 16 C       -8.4950     0.7010    -0.9350 C.3   1 <1>   0.1400 
 17 C       -6.6720     1.4910     0.5880 C.3   1 <1>   0.1400 
 18 C       -9.4960     0.7410     0.2240 C.3   1 <1>  -0.1600 
 19 C       -7.6640     1.5460     1.7550 C.3   1 <1>  -0.1600 
 20 C       -9.1010     1.7890     1.2730 C.3   1 <1>  -0.1600 
 21 H       -0.5510    -2.1420     0.6540 H     1 <1>   0.4200 
 22 H        0.2750     0.6330     2.2250 H     1 <1>   0.0800 
 23 H       -0.6370     1.5760     1.0970 H     1 <1>   0.0800 
 24 H        2.3750     1.6640     1.4020 H     1 <1>   0.0800 
 25 H        1.2530     2.8770     1.9800 H     1 <1>   0.0800 
 26 H        1.4540     2.6160     0.2610 H     1 <1>   0.0800 
 27 H       -2.7570    -2.9140     0.9670 H     1 <1>   0.1500 
 28 H       -2.0640     0.8350    -0.9380 H     1 <1>   0.1500 
 29 H       -5.1530    -2.6870     0.5110 H     1 <1>   0.1500 
 30 H       -4.4440     1.0450    -1.3810 H     1 <1>   0.1500 
 31 H       -8.7710    -0.0770    -1.6260 H     1 <1>   0.0800 
 32 H       -8.5150     1.6360    -1.4680 H     1 <1>   0.0800 
 33 H       -6.6200     2.4530     0.1080 H     1 <1>   0.0800 
 34 H       -5.6960     1.2510     0.9720 H     1 <1>   0.0800 
 35 H       -9.5340    -0.2350     0.6760 H     1 <1>   0.0800 
 36 H      -10.4750     0.9620    -0.1610 H     1 <1>   0.0800 
 37 H       -7.3740     2.3290     2.4330 H     1 <1>   0.0800 
 38 H       -7.6180     0.6140     2.2920 H     1 <1>   0.0800 
 39 H       -9.7790     1.7400     2.1080 H     1 <1>   0.0800 
 40 H       -9.1730     2.7720     0.8420 H     1 <1>   0.0800 
@<TRIPOS>BOND
  1   1   2  2   
  2   1   3  2   
  3   1   4  am  
  4   1   5  1   
  5   4   6  1   
  6   4  21  1   
  7   5   7  1   
  8   5  22  1   
  9   5  23  1   
 10   6   8  ar  
 11   6   9  ar  
 12   7  24  1   
 13   7  25  1   
 14   7  26  1   
 15   8  10  ar  
 16   8  27  1   
 17   9  11  ar  
 18   9  28  1   
 19  10  12  ar  
 20  10  29  1   
 21  11  12  ar  
 22  11  30  1   
 23  12  13  1   
 24  13  14  2   
 25  13  15  am  
 26  15  16  1   
 27  15  17  1   
 28  16  18  1   
 29  16  31  1   
 30  16  32  1   
 31  17  19  1   
 32  17  33  1   
 33  17  34  1   
 34  18  20  1   
 35  18  35  1   
 36  18  36  1   
 37  19  20  1   
 38  19  37  1   
 39  19  38  1   
 40  20  39  1   
 41  20  40  1   
@<TRIPOS>SUBSTRUCTURE
  1 ****  11 GROUP 4 **** **** 0

# MOE 2024.06 (io_trps.svl 2023.06)
