@<TRIPOS>MOLECULE
NONAME
45 47 1 0 0 
SMALL
USER_CHARGES


@<TRIPOS>ATOM
  1 O       -1.6050     0.5220     2.2190 O.2   1 <1>  -0.5700 
  2 C       -2.0220     1.2250     1.3320 C.2   1 <1>   0.5690 
  3 N       -2.5580     0.7060     0.1830 N.am  1 <1>  -0.6600 
  4 C       -1.9370     2.7200     1.5350 C.3   1 <1>  -0.1790 
  5 C       -3.0950     1.5390    -0.9310 C.3   1 <1>   0.2780 
  6 C       -2.7040    -0.7740    -0.0050 C.3   1 <1>   0.1400 
  7 C       -4.5620     1.9040    -0.7340 C.2   1 <1>  -0.1240 
  8 C       -1.5630    -1.3560    -0.8510 C.3   1 <1>   0.2000 
  9 C       -5.1220     2.7190    -1.7690 C.2   1 <1>   0.6160 
 10 C       -5.3320     1.5200     0.3190 C.2   1 <1>  -0.1780 
 11 O       -1.8140    -2.7050    -1.0990 O.3   1 <1>  -0.5600 
 12 C       -0.1920    -1.3170    -0.1890 C.3   1 <1>  -0.1600 
 13 O       -4.4860     3.1020    -2.7350 O.2   1 <1>  -0.5700 
 14 N       -6.4280     3.0890    -1.6690 N.am  1 <1>  -0.5470 
 15 C       -6.7050     1.9190     0.4140 C.ar  1 <1>   0.0280 
 16 C       -0.6370    -3.4550    -1.1260 C.3   1 <1>   0.1200 
 17 C        0.5090    -2.4930    -0.8350 C.3   1 <1>  -0.1600 
 18 C       -7.2450     2.7170    -0.6070 C.ar  1 <1>   0.1170 
 19 C       -7.5280     1.5490     1.4780 C.ar  1 <1>  -0.1500 
 20 C       -8.5760     3.1200    -0.5430 C.ar  1 <1>  -0.1500 
 21 C       -8.8440     1.9560     1.5290 C.ar  1 <1>  -0.1500 
 22 C       -9.3770     2.7450     0.5160 C.ar  1 <1>  -0.1430 
 23 C      -10.8300     3.1810     0.5950 C.3   1 <1>  -0.0970 
 24 H       -2.9060     3.1660     1.4190 H     1 <1>   0.0800 
 25 H       -1.2510     3.1460     0.8280 H     1 <1>   0.0800 
 26 H       -1.5810     2.9290     2.5270 H     1 <1>   0.0800 
 27 H       -2.9900     1.0040    -1.8590 H     1 <1>   0.0800 
 28 H       -2.5150     2.4410    -1.0240 H     1 <1>   0.0800 
 29 H       -3.6420    -0.9780    -0.4910 H     1 <1>   0.0800 
 30 H       -2.7140    -1.2640     0.9530 H     1 <1>   0.0800 
 31 H       -1.5250    -0.8710    -1.8100 H     1 <1>   0.0800 
 32 H       -4.9530     0.9080     1.1190 H     1 <1>   0.1500 
 33 H       -0.2940    -1.4790     0.8710 H     1 <1>   0.0800 
 34 H        0.3110    -0.3810    -0.3570 H     1 <1>   0.0800 
 35 H       -6.7820     3.6640    -2.4310 H     1 <1>   0.3700 
 36 H       -0.5400    -3.9210    -2.0910 H     1 <1>   0.0800 
 37 H       -0.7140    -4.2070    -0.3600 H     1 <1>   0.0800 
 38 H        1.2530    -2.9330    -0.1950 H     1 <1>   0.0800 
 39 H        0.9680    -2.1950    -1.7610 H     1 <1>   0.0800 
 40 H       -7.1250     0.9380     2.2660 H     1 <1>   0.1500 
 41 H       -8.9740     3.7300    -1.3330 H     1 <1>   0.1500 
 42 H       -9.4650     1.6610     2.3580 H     1 <1>   0.1500 
 43 H      -11.0990     3.7820    -0.2540 H     1 <1>   0.0800 
 44 H      -10.9910     3.7580     1.4880 H     1 <1>   0.0800 
 45 H      -11.4700     2.3170     0.6190 H     1 <1>   0.0800 
@<TRIPOS>BOND
  1   1   2  2   
  2   2   3  am  
  3   2   4  1   
  4   3   5  1   
  5   3   6  1   
  6   4  24  1   
  7   4  25  1   
  8   4  26  1   
  9   5   7  1   
 10   5  27  1   
 11   5  28  1   
 12   6   8  1   
 13   6  29  1   
 14   6  30  1   
 15   7   9  1   
 16   7  10  2   
 17   8  11  1   
 18   8  12  1   
 19   8  31  1   
 20   9  13  2   
 21   9  14  am  
 22  10  15  1   
 23  10  32  1   
 24  11  16  1   
 25  12  17  1   
 26  12  33  1   
 27  12  34  1   
 28  14  18  1   
 29  14  35  1   
 30  15  18  ar  
 31  15  19  ar  
 32  16  17  1   
 33  16  36  1   
 34  16  37  1   
 35  17  38  1   
 36  17  39  1   
 37  18  20  ar  
 38  19  21  ar  
 39  19  40  1   
 40  20  22  ar  
 41  20  41  1   
 42  21  22  ar  
 43  21  42  1   
 44  22  23  1   
 45  23  43  1   
 46  23  44  1   
 47  23  45  1   
@<TRIPOS>SUBSTRUCTURE
  1 ****   7 GROUP 4 **** **** 0

# MOE 2024.06 (io_trps.svl 2023.06)
