@<TRIPOS>MOLECULE
NONAME
48 51 1 0 0 
SMALL
USER_CHARGES


@<TRIPOS>ATOM
  1 S        0.4580     4.0480     1.8660 S.3   1 <1>  -0.0800 
  2 C        0.0770     2.7250     0.7720 C.2   1 <1>   0.3250 
  3 C       -1.1350     4.6970     1.6390 C.2   1 <1>  -0.1100 
  4 N       -1.1210     2.8010     0.3040 N.2   1 <1>  -0.5650 
  5 C        1.0970     1.7440     0.4910 C.ar  1 <1>   0.0530 
  6 C       -1.8040     3.9060     0.7870 C.2   1 <1>   0.0460 
  7 C        1.6450     0.8980     1.4660 C.ar  1 <1>  -0.1440 
  8 C        1.5630     1.6220    -0.8170 C.ar  1 <1>  -0.1500 
  9 C       -3.2420     4.1180     0.3250 C.3   1 <1>   0.5240 
 10 C        2.6340    -0.0100     1.1220 C.ar  1 <1>  -0.1500 
 11 C        1.1760     0.9360     2.9150 C.3   1 <1>  -0.0970 
 12 C        2.5460     0.7120    -1.1550 C.ar  1 <1>  -0.1500 
 13 N       -3.9990     2.8410     0.4600 N.4   1 <1>  -0.9590 
 14 C        3.0860    -0.1060    -0.1810 C.ar  1 <1>  -0.1500 
 15 C       -3.8970     2.0090    -0.7960 C.3   1 <1>   0.3430 
 16 C       -5.4330     3.0350     0.8720 C.3   1 <1>   0.3430 
 17 C       -4.6530     0.6710    -0.6760 C.3   1 <1>   0.2090 
 18 C       -6.1930     1.6990     0.9990 C.3   1 <1>   0.2090 
 19 N       -6.0680     0.8790    -0.2430 N.pl3 1 <1>  -0.8380 
 20 C       -6.8200    -0.2750    -0.2300 C.ar  1 <1>   0.4100 
 21 N       -6.5100    -1.1630     0.7050 N.ar  1 <1>  -0.6200 
 22 C       -7.8340    -0.4550    -1.1640 C.ar  1 <1>  -0.1500 
 23 C       -7.2380    -2.2690     0.7050 C.ar  1 <1>   0.1600 
 24 C       -8.5830    -1.6080    -1.1510 C.ar  1 <1>  -0.1500 
 25 C       -8.2660    -2.5390    -0.1810 C.ar  1 <1>  -0.1500 
 26 H       -1.3820     5.5990     2.1720 H     1 <1>   0.1500 
 27 H        1.1490     2.2560    -1.5810 H     1 <1>   0.1500 
 28 H       -3.2480     4.4470    -0.7010 H     1 <1>   0.0800 
 29 H       -3.6910     4.8850     0.9330 H     1 <1>   0.0800 
 30 H        3.0630    -0.6560     1.8690 H     1 <1>   0.1500 
 31 H        0.1090     1.0480     2.9670 H     1 <1>   0.0800 
 32 H        1.6420     1.7570     3.4310 H     1 <1>   0.0800 
 33 H        1.4370     0.0250     3.4240 H     1 <1>   0.0800 
 34 H        2.8930     0.6390    -2.1710 H     1 <1>   0.1500 
 35 H       -3.5040     2.3030     1.1860 H     1 <1>   0.4500 
 36 H        3.8540    -0.8150    -0.4360 H     1 <1>   0.1500 
 37 H       -2.8630     1.8030    -1.0200 H     1 <1>   0.0800 
 38 H       -4.3120     2.5540    -1.6270 H     1 <1>   0.0800 
 39 H       -5.9420     3.6380     0.1390 H     1 <1>   0.0800 
 40 H       -5.4780     3.5510     1.8170 H     1 <1>   0.0800 
 41 H       -4.1490     0.0330     0.0310 H     1 <1>   0.0800 
 42 H       -4.6450     0.1710    -1.6290 H     1 <1>   0.0800 
 43 H       -7.2350     1.8960     1.1870 H     1 <1>   0.0800 
 44 H       -5.8100     1.1440     1.8380 H     1 <1>   0.0800 
 45 H       -8.0190     0.3160    -1.8870 H     1 <1>   0.1500 
 46 H       -7.0030    -3.0040     1.4560 H     1 <1>   0.1500 
 47 H       -9.3750    -1.7800    -1.8590 H     1 <1>   0.1500 
 48 H       -8.8120    -3.4630    -0.1140 H     1 <1>   0.1500 
@<TRIPOS>BOND
  1   1   2  1   
  2   1   3  1   
  3   2   4  2   
  4   2   5  1   
  5   3   6  2   
  6   3  26  1   
  7   4   6  1   
  8   5   7  ar  
  9   5   8  ar  
 10   6   9  1   
 11   7  10  ar  
 12   7  11  1   
 13   8  12  ar  
 14   8  27  1   
 15   9  13  1   
 16   9  28  1   
 17   9  29  1   
 18  10  14  ar  
 19  10  30  1   
 20  11  31  1   
 21  11  32  1   
 22  11  33  1   
 23  12  14  ar  
 24  12  34  1   
 25  13  15  1   
 26  13  16  1   
 27  13  35  1   
 28  14  36  1   
 29  15  17  1   
 30  15  37  1   
 31  15  38  1   
 32  16  18  1   
 33  16  39  1   
 34  16  40  1   
 35  17  19  1   
 36  17  41  1   
 37  17  42  1   
 38  18  19  1   
 39  18  43  1   
 40  18  44  1   
 41  19  20  1   
 42  20  21  ar  
 43  20  22  ar  
 44  21  23  ar  
 45  22  24  ar  
 46  22  45  1   
 47  23  25  ar  
 48  23  46  1   
 49  24  25  ar  
 50  24  47  1   
 51  25  48  1   
@<TRIPOS>SUBSTRUCTURE
  1 ****  15 GROUP 4 **** **** 0

# MOE 2024.06 (io_trps.svl 2023.06)
