@<TRIPOS>MOLECULE
NONAME
49 49 1 0 0 
SMALL
USER_CHARGES


@<TRIPOS>ATOM
  1 O       -0.6380     0.0900    -0.0660 O.2   1 <1>  -0.5700 
  2 C       -1.1940     1.1740    -0.0530 C.2   1 <1>   0.6160 
  3 N       -0.4280     2.3040    -0.0130 N.am  1 <1>  -0.7300 
  4 C       -2.6590     1.2340    -0.0670 C.2   1 <1>   0.1230 
  5 C        1.0250     2.4760    -0.0260 C.3   1 <1>   0.3000 
  6 N       -3.3770     2.4040     0.2910 N.am  1 <1>  -0.5390 
  7 C       -3.4050     0.1300    -0.3530 C.2   1 <1>  -0.1780 
  8 C        1.2760     3.9810     0.0340 C.3   1 <1>  -0.2400 
  9 C        1.6000     1.9120    -1.3250 C.3   1 <1>  -0.2400 
 10 C        1.6430     1.8050     1.2010 C.3   1 <1>  -0.2400 
 11 C       -3.2240     3.7270     0.0000 C.2   1 <1>   0.5690 
 12 C       -4.8340     0.0170    -0.4190 C.ar  1 <1>   0.0280 
 13 O       -2.3330     4.1700    -0.6770 O.2   1 <1>  -0.5700 
 14 C       -4.2610     4.6750     0.5460 C.3   1 <1>  -0.1790 
 15 C       -5.4930    -1.0080     0.2560 C.ar  1 <1>  -0.1500 
 16 C       -5.6050     0.9220    -1.1480 C.ar  1 <1>  -0.1500 
 17 C       -6.8790    -1.1110     0.2440 C.ar  1 <1>   0.0820 
 18 C       -6.9830     0.8360    -1.1680 C.ar  1 <1>  -0.1500 
 19 O       -7.5570    -2.0950     0.9010 O.3   1 <1>  -0.3620 
 20 C       -7.6280    -0.1690    -0.4610 C.ar  1 <1>   0.0820 
 21 C       -6.8810    -3.1170     1.6020 C.3   1 <1>   0.0400 
 22 O       -8.9850    -0.2660    -0.4510 O.3   1 <1>  -0.2320 
 23 C       -9.8400     0.7420    -0.3070 C.2   1 <1>   0.6590 
 24 O       -9.5050     1.8860    -0.1380 O.2   1 <1>  -0.5700 
 25 C      -11.2970     0.3610    -0.3620 C.3   1 <1>  -0.1790 
 26 H       -0.9320     3.1770    -0.2110 H     1 <1>   0.3700 
 27 H       -4.2750     2.1850     0.7250 H     1 <1>   0.3700 
 28 H       -2.8930    -0.7960    -0.5500 H     1 <1>   0.1500 
 29 H        2.3320     4.1830     0.0240 H     1 <1>   0.0800 
 30 H        0.8610     4.3960     0.9350 H     1 <1>   0.0800 
 31 H        0.8310     4.4710    -0.8150 H     1 <1>   0.0800 
 32 H        2.6550     2.1070    -1.3780 H     1 <1>   0.0800 
 33 H        1.1240     2.3660    -2.1750 H     1 <1>   0.0800 
 34 H        1.4570     0.8480    -1.3720 H     1 <1>   0.0800 
 35 H        1.1880     2.1780     2.1000 H     1 <1>   0.0800 
 36 H        2.6970     2.0060     1.2410 H     1 <1>   0.0800 
 37 H        1.5100     0.7400     1.1580 H     1 <1>   0.0800 
 38 H       -5.2330     4.4110     0.1720 H     1 <1>   0.0800 
 39 H       -4.0330     5.6790     0.2380 H     1 <1>   0.0800 
 40 H       -4.2640     4.6340     1.6190 H     1 <1>   0.0800 
 41 H       -4.8910    -1.7130     0.7960 H     1 <1>   0.1500 
 42 H       -5.1160     1.6990    -1.7100 H     1 <1>   0.1500 
 43 H       -7.5540     1.5500    -1.7360 H     1 <1>   0.1500 
 44 H       -7.6190    -3.7830     2.0120 H     1 <1>   0.0800 
 45 H       -6.3060    -2.6750     2.3960 H     1 <1>   0.0800 
 46 H       -6.2480    -3.6510     0.9160 H     1 <1>   0.0800 
 47 H      -11.5120    -0.3450     0.4180 H     1 <1>   0.0800 
 48 H      -11.5180    -0.0820    -1.3150 H     1 <1>   0.0800 
 49 H      -11.9080     1.2340    -0.2270 H     1 <1>   0.0800 
@<TRIPOS>BOND
  1   1   2  2   
  2   2   3  am  
  3   2   4  1   
  4   3   5  1   
  5   3  26  1   
  6   4   6  1   
  7   4   7  2   
  8   5   8  1   
  9   5   9  1   
 10   5  10  1   
 11   6  11  am  
 12   6  27  1   
 13   7  12  1   
 14   7  28  1   
 15   8  29  1   
 16   8  30  1   
 17   8  31  1   
 18   9  32  1   
 19   9  33  1   
 20   9  34  1   
 21  10  35  1   
 22  10  36  1   
 23  10  37  1   
 24  11  13  2   
 25  11  14  1   
 26  12  15  ar  
 27  12  16  ar  
 28  14  38  1   
 29  14  39  1   
 30  14  40  1   
 31  15  17  ar  
 32  15  41  1   
 33  16  18  ar  
 34  16  42  1   
 35  17  19  1   
 36  17  20  ar  
 37  18  20  ar  
 38  18  43  1   
 39  19  21  1   
 40  20  22  1   
 41  21  44  1   
 42  21  45  1   
 43  21  46  1   
 44  22  23  1   
 45  23  24  2   
 46  23  25  1   
 47  25  47  1   
 48  25  48  1   
 49  25  49  1   
@<TRIPOS>SUBSTRUCTURE
  1 ****  12 GROUP 4 **** **** 0

# MOE 2024.06 (io_trps.svl 2023.06)
