@<TRIPOS>MOLECULE
NONAME
45 47 1 0 0 
SMALL
USER_CHARGES


@<TRIPOS>ATOM
  1 O       -0.1870     0.0480     0.3560 O.3   1 <1>  -0.3630 
  2 C       -0.6050     1.3310     0.2180 C.ar  1 <1>   0.0830 
  3 C       -0.4210    -0.6730     1.5420 C.3   1 <1>   0.1200 
  4 C       -1.3320     2.0190     1.1840 C.ar  1 <1>  -0.1500 
  5 C       -0.2740     1.9710    -0.9650 C.ar  1 <1>  -0.1500 
  6 C        0.1940    -2.0600     1.3810 C.3   1 <1>  -0.2400 
  7 C       -1.7250     3.3260     0.9550 C.ar  1 <1>  -0.1500 
  8 C       -0.6670     3.2780    -1.1910 C.ar  1 <1>  -0.1500 
  9 C       -1.4070     3.9650    -0.2380 C.ar  1 <1>  -0.1430 
 10 C       -1.8650     5.3970    -0.5080 C.3   1 <1>   0.5230 
 11 O       -1.0170     6.2450     0.1670 O.3   1 <1>  -0.6800 
 12 C       -3.2880     5.6820    -0.0060 C.2   1 <1>   0.0060 
 13 N       -3.5130     6.4390     1.0220 N.2   1 <1>  -0.5650 
 14 N       -4.4290     5.1640    -0.5700 N.pl3 1 <1>   0.0480 
 15 C       -4.8600     6.4320     1.1710 C.ar  1 <1>   0.2270 
 16 C       -5.4490     5.6440     0.2020 C.ar  1 <1>  -0.1520 
 17 C       -4.6800     4.2650    -1.7400 C.3   1 <1>   0.1760 
 18 C       -5.6390     7.0800     2.1270 C.ar  1 <1>  -0.1500 
 19 C       -6.8400     5.4780     0.1750 C.ar  1 <1>  -0.1500 
 20 C       -4.5600     2.7910    -1.3360 C.3   1 <1>  -0.2400 
 21 C       -3.8150     4.5860    -2.9650 C.3   1 <1>  -0.2400 
 22 C       -7.0070     6.9230     2.1000 C.ar  1 <1>  -0.1500 
 23 C       -7.6050     6.1200     1.1230 C.ar  1 <1>  -0.1500 
 24 H       -1.4840    -0.7440     1.6940 H     1 <1>   0.0800 
 25 H        0.0400    -0.1450     2.3590 H     1 <1>   0.0800 
 26 H       -1.6000     1.5610     2.1160 H     1 <1>   0.1500 
 27 H        0.2970     1.4370    -1.7030 H     1 <1>   0.1500 
 28 H       -0.2610    -2.5710     0.5520 H     1 <1>   0.0800 
 29 H        0.0320    -2.6370     2.2730 H     1 <1>   0.0800 
 30 H        1.2530    -1.9760     1.2130 H     1 <1>   0.0800 
 31 H       -2.2830     3.8500     1.7130 H     1 <1>   0.1500 
 32 H       -0.3890     3.7570    -2.1130 H     1 <1>   0.1500 
 33 H       -1.7750     5.6440    -1.5490 H     1 <1>   0.0800 
 34 H       -1.5810     6.6230     0.8800 H     1 <1>   0.4000 
 35 H       -5.6980     4.4320    -2.0420 H     1 <1>   0.0800 
 36 H       -5.1490     7.6880     2.8650 H     1 <1>   0.1500 
 37 H       -7.3060     4.8590    -0.5700 H     1 <1>   0.1500 
 38 H       -3.5470     2.5350    -1.0880 H     1 <1>   0.0800 
 39 H       -4.8720     2.1620    -2.1500 H     1 <1>   0.0800 
 40 H       -5.1910     2.5860    -0.4900 H     1 <1>   0.0800 
 41 H       -2.8170     4.2100    -2.8520 H     1 <1>   0.0800 
 42 H       -3.7950     5.6470    -3.1460 H     1 <1>   0.0800 
 43 H       -4.2380     4.1090    -3.8310 H     1 <1>   0.0800 
 44 H       -7.6250     7.4160     2.8300 H     1 <1>   0.1500 
 45 H       -8.6760     6.0090     1.1220 H     1 <1>   0.1500 
@<TRIPOS>BOND
  1   1   2  1   
  2   1   3  1   
  3   2   4  ar  
  4   2   5  ar  
  5   3   6  1   
  6   3  24  1   
  7   3  25  1   
  8   4   7  ar  
  9   4  26  1   
 10   5   8  ar  
 11   5  27  1   
 12   6  28  1   
 13   6  29  1   
 14   6  30  1   
 15   7   9  ar  
 16   7  31  1   
 17   8   9  ar  
 18   8  32  1   
 19   9  10  1   
 20  10  11  1   
 21  10  12  1   
 22  10  33  1   
 23  11  34  1   
 24  12  13  2   
 25  12  14  1   
 26  13  15  1   
 27  14  16  1   
 28  14  17  1   
 29  15  16  ar  
 30  15  18  ar  
 31  16  19  ar  
 32  17  20  1   
 33  17  21  1   
 34  17  35  1   
 35  18  22  ar  
 36  18  36  1   
 37  19  23  ar  
 38  19  37  1   
 39  20  38  1   
 40  20  39  1   
 41  20  40  1   
 42  21  41  1   
 43  21  42  1   
 44  21  43  1   
 45  22  23  ar  
 46  22  44  1   
 47  23  45  1   
@<TRIPOS>SUBSTRUCTURE
  1 ****   7 GROUP 4 **** **** 0

# MOE 2024.06 (io_trps.svl 2023.06)
