@<TRIPOS>MOLECULE
NONAME
50 52 1 0 0 
SMALL
USER_CHARGES


@<TRIPOS>ATOM
  1 CL       0.1680    -0.4290    -1.1200 Cl    1 <1>  -0.1770 
  2 C        1.6810    -1.0290    -0.4930 C.ar  1 <1>   0.1770 
  3 C        2.2240    -2.1840    -1.0220 C.ar  1 <1>  -0.1500 
  4 C        2.3140    -0.3430     0.5250 C.ar  1 <1>  -0.1500 
  5 C        3.4260    -2.6590    -0.5240 C.ar  1 <1>  -0.1500 
  6 C        3.5160    -0.8190     1.0200 C.ar  1 <1>  -0.1500 
  7 C        4.0790    -1.9760     0.4950 C.ar  1 <1>  -0.1430 
  8 C        5.4040    -2.4890     1.0260 C.3   1 <1>  -0.0160 
  9 C        6.5290    -1.9040     0.1730 C.3   1 <1>   0.3430 
 10 N        7.8670    -2.3670     0.6580 N.4   1 <1>  -0.9060 
 11 C        9.0120    -1.8930    -0.1620 C.3   1 <1>   0.4230 
 12 C       10.2670    -2.6590     0.2580 C.3   1 <1>  -0.1600 
 13 C        9.2240    -0.3850     0.0180 C.3   1 <1>  -0.1600 
 14 C       11.5000    -2.1640    -0.5010 C.3   1 <1>   0.3430 
 15 C       10.4680     0.0970    -0.7350 C.3   1 <1>   0.3430 
 16 N       11.6570    -0.6920    -0.3110 N.4   1 <1>  -0.9590 
 17 C       12.8980    -0.1970    -0.9880 C.3   1 <1>   0.4860 
 18 C       14.0880    -0.8520    -0.3170 C.ar  1 <1>  -0.1430 
 19 C       14.4920    -0.4440     0.9470 C.ar  1 <1>  -0.1500 
 20 C       14.7770    -1.8730    -0.9590 C.ar  1 <1>  -0.1500 
 21 C       15.5600    -1.0650     1.5690 C.ar  1 <1>  -0.1500 
 22 C       15.8450    -2.4900    -0.3340 C.ar  1 <1>  -0.1500 
 23 C       16.2350    -2.0890     0.9310 C.ar  1 <1>  -0.1500 
 24 H        1.7060    -2.7010    -1.8100 H     1 <1>   0.1500 
 25 H        1.8650     0.5510     0.9220 H     1 <1>   0.1500 
 26 H        3.8360    -3.5640    -0.9390 H     1 <1>   0.1500 
 27 H        3.9970    -0.2790     1.8180 H     1 <1>   0.1500 
 28 H        5.4110    -3.5640     0.9780 H     1 <1>   0.0800 
 29 H        5.5130    -2.1900     2.0540 H     1 <1>   0.0800 
 30 H        6.4680    -0.8290     0.2130 H     1 <1>   0.0800 
 31 H        6.3800    -2.2080    -0.8510 H     1 <1>   0.0800 
 32 H        7.8590    -3.3960     0.6650 H     1 <1>   0.4500 
 33 H        7.9860    -2.0800     1.6390 H     1 <1>   0.4500 
 34 H        8.8130    -2.1000    -1.2030 H     1 <1>   0.0800 
 35 H       10.1440    -3.7070     0.0440 H     1 <1>   0.0800 
 36 H       10.4480    -2.5510     1.3140 H     1 <1>   0.0800 
 37 H        9.3340    -0.1380     1.0600 H     1 <1>   0.0800 
 38 H        8.3780     0.1570    -0.3670 H     1 <1>   0.0800 
 39 H       11.4010    -2.3890    -1.5520 H     1 <1>   0.0800 
 40 H       12.3760    -2.6790    -0.1330 H     1 <1>   0.0800 
 41 H       10.6290     1.1450    -0.5320 H     1 <1>   0.0800 
 42 H       10.3170    -0.0160    -1.7980 H     1 <1>   0.0800 
 43 H       11.8450    -0.5280     0.6900 H     1 <1>   0.4500 
 44 H       12.9820     0.8730    -0.8860 H     1 <1>   0.0800 
 45 H       12.8830    -0.4420    -2.0370 H     1 <1>   0.0800 
 46 H       13.9950     0.3590     1.4640 H     1 <1>   0.1500 
 47 H       14.5020    -2.1990    -1.9480 H     1 <1>   0.1500 
 48 H       15.8760    -0.7500     2.5500 H     1 <1>   0.1500 
 49 H       16.3820    -3.2820    -0.8300 H     1 <1>   0.1500 
 50 H       17.0680    -2.5700     1.4160 H     1 <1>   0.1500 
@<TRIPOS>BOND
  1   1   2  1   
  2   2   3  ar  
  3   2   4  ar  
  4   3   5  ar  
  5   3  24  1   
  6   4   6  ar  
  7   4  25  1   
  8   5   7  ar  
  9   5  26  1   
 10   6   7  ar  
 11   6  27  1   
 12   7   8  1   
 13   8   9  1   
 14   8  28  1   
 15   8  29  1   
 16   9  10  1   
 17   9  30  1   
 18   9  31  1   
 19  10  11  1   
 20  10  32  1   
 21  10  33  1   
 22  11  12  1   
 23  11  13  1   
 24  11  34  1   
 25  12  14  1   
 26  12  35  1   
 27  12  36  1   
 28  13  15  1   
 29  13  37  1   
 30  13  38  1   
 31  14  16  1   
 32  14  39  1   
 33  14  40  1   
 34  15  16  1   
 35  15  41  1   
 36  15  42  1   
 37  16  17  1   
 38  16  43  1   
 39  17  18  1   
 40  17  44  1   
 41  17  45  1   
 42  18  19  ar  
 43  18  20  ar  
 44  19  21  ar  
 45  19  46  1   
 46  20  22  ar  
 47  20  47  1   
 48  21  23  ar  
 49  21  48  1   
 50  22  23  ar  
 51  22  49  1   
 52  23  50  1   
@<TRIPOS>SUBSTRUCTURE
  1 ****  11 GROUP 4 **** **** 0

# MOE 2024.06 (io_trps.svl 2023.06)
