@<TRIPOS>MOLECULE
NONAME
37 40 1 0 0 
SMALL
USER_CHARGES


@<TRIPOS>ATOM
  1 O        0.6910    -1.2570    -0.7220 O.3   1 <1>  -0.3630 
  2 C       -0.3460    -2.0570    -0.4540 C.ar  1 <1>   0.0830 
  3 C        1.0400    -0.6170     0.5040 C.3   1 <1>   0.4000 
  4 C       -0.6800    -1.9680     0.8660 C.ar  1 <1>   0.0830 
  5 C       -1.0350    -2.8830    -1.3200 C.ar  1 <1>  -0.1500 
  6 O        0.1310    -1.1060     1.4890 O.3   1 <1>  -0.3630 
  7 C       -1.7250    -2.6990     1.3950 C.ar  1 <1>  -0.1500 
  8 C       -2.0910    -3.6340    -0.8110 C.ar  1 <1>  -0.1440 
  9 C       -2.4290    -3.5360     0.5390 C.ar  1 <1>  -0.1500 
 10 C       -2.8840    -4.5580    -1.7190 C.3   1 <1>   0.3530 
 11 N       -4.1730    -3.9070    -2.0140 N.pl3 1 <1>  -0.8690 
 12 C       -5.3100    -4.4690    -1.4540 C.ar  1 <1>   0.1000 
 13 C       -6.0450    -3.7550    -0.5130 C.ar  1 <1>  -0.1500 
 14 C       -5.7300    -5.7470    -1.8150 C.ar  1 <1>  -0.1500 
 15 C       -7.1660    -4.3290     0.0550 C.ar  1 <1>  -0.1430 
 16 C       -6.8550    -6.3160    -1.2420 C.ar  1 <1>  -0.1500 
 17 C       -7.5660    -5.5930    -0.3020 C.ar  1 <1>  -0.1430 
 18 C       -8.0900    -3.7330     1.0880 C.3   1 <1>  -0.0170 
 19 C       -8.8090    -6.0070     0.4450 C.3   1 <1>  -0.0170 
 20 C       -9.2920    -4.6950     1.0890 C.3   1 <1>  -0.1600 
 21 H        0.9230     0.4470     0.4020 H     1 <1>   0.0800 
 22 H        2.0450    -0.8840     0.7780 H     1 <1>   0.0800 
 23 H       -0.7500    -2.9290    -2.3550 H     1 <1>   0.1500 
 24 H       -1.9750    -2.6140     2.4370 H     1 <1>   0.1500 
 25 H       -3.2530    -4.1140     0.9240 H     1 <1>   0.1500 
 26 H       -3.0420    -5.5050    -1.2310 H     1 <1>   0.0800 
 27 H       -2.3540    -4.7320    -2.6390 H     1 <1>   0.0800 
 28 H       -4.0800    -2.9090    -1.8010 H     1 <1>   0.4000 
 29 H       -5.7380    -2.7670    -0.2310 H     1 <1>   0.1500 
 30 H       -5.1710    -6.2880    -2.5550 H     1 <1>   0.1500 
 31 H       -7.1740    -7.3040    -1.5240 H     1 <1>   0.1500 
 32 H       -8.3850    -2.7330     0.8240 H     1 <1>   0.0800 
 33 H       -7.6020    -3.7320     2.0460 H     1 <1>   0.0800 
 34 H       -8.5480    -6.7280     1.1990 H     1 <1>   0.0800 
 35 H       -9.5490    -6.4190    -0.2180 H     1 <1>   0.0800 
 36 H      -10.0690    -4.2760     0.4740 H     1 <1>   0.0800 
 37 H       -9.6760    -4.8540     2.0810 H     1 <1>   0.0800 
@<TRIPOS>BOND
  1   1   2  1   
  2   1   3  1   
  3   2   4  ar  
  4   2   5  ar  
  5   3   6  1   
  6   3  21  1   
  7   3  22  1   
  8   4   6  1   
  9   4   7  ar  
 10   5   8  ar  
 11   5  23  1   
 12   7   9  ar  
 13   7  24  1   
 14   8   9  ar  
 15   8  10  1   
 16   9  25  1   
 17  10  11  1   
 18  10  26  1   
 19  10  27  1   
 20  11  12  1   
 21  11  28  1   
 22  12  13  ar  
 23  12  14  ar  
 24  13  15  ar  
 25  13  29  1   
 26  14  16  ar  
 27  14  30  1   
 28  15  17  ar  
 29  15  18  1   
 30  16  17  ar  
 31  16  31  1   
 32  17  19  1   
 33  18  20  1   
 34  18  32  1   
 35  18  33  1   
 36  19  20  1   
 37  19  34  1   
 38  19  35  1   
 39  20  36  1   
 40  20  37  1   
@<TRIPOS>SUBSTRUCTURE
  1 ****   9 GROUP 4 **** **** 0

# MOE 2024.06 (io_trps.svl 2023.06)
