@<TRIPOS>MOLECULE
NONAME
29 30 1 0 0 
SMALL
USER_CHARGES


@<TRIPOS>ATOM
  1 O       -0.8360     0.9320     2.2810 O.2   1 <1>  -0.5700 
  2 C       -1.6840     0.9240     1.4120 C.2   1 <1>   0.5690 
  3 N       -2.5160    -0.0910     1.1420 N.am  1 <1>  -0.4100 
  4 C       -1.8980     2.0470     0.4080 C.3   1 <1>   0.0610 
  5 N       -3.3070     0.1280    -0.0440 N.pl3 1 <1>  -0.4890 
  6 C       -2.7030     1.3230    -0.7060 C.3   1 <1>   0.2090 
  7 C       -0.5640     2.6190    -0.1060 C.3   1 <1>   0.1200 
  8 C       -2.7390     3.1760     1.0440 C.3   1 <1>  -0.2400 
  9 C       -4.6670    -0.1720    -0.0470 C.ar  1 <1>   0.1000 
 10 O        0.2430     1.6180    -0.6270 O.3   1 <1>  -0.6800 
 11 C       -5.0660    -1.5040     0.0170 C.ar  1 <1>  -0.1500 
 12 C       -5.6590     0.8080    -0.1010 C.ar  1 <1>  -0.1500 
 13 C       -6.4040    -1.8510     0.0190 C.ar  1 <1>  -0.1500 
 14 C       -6.9980     0.4650    -0.1010 C.ar  1 <1>  -0.1500 
 15 C       -7.3740    -0.8660    -0.0420 C.ar  1 <1>  -0.1500 
 16 H       -2.4140    -1.0200     1.5600 H     1 <1>   0.3700 
 17 H       -2.0470     0.9720    -1.4840 H     1 <1>   0.0800 
 18 H       -3.4480     1.9570    -1.1480 H     1 <1>   0.0800 
 19 H       -0.0220     3.0950     0.6940 H     1 <1>   0.0800 
 20 H       -0.7380     3.3390    -0.8870 H     1 <1>   0.0800 
 21 H       -3.6650     2.7820     1.4250 H     1 <1>   0.0800 
 22 H       -2.9600     3.9420     0.3210 H     1 <1>   0.0800 
 23 H       -2.2030     3.6190     1.8650 H     1 <1>   0.0800 
 24 H        0.5690     1.0400     0.0970 H     1 <1>   0.4000 
 25 H       -4.3120    -2.2680     0.0590 H     1 <1>   0.1500 
 26 H       -5.3880     1.8450    -0.1350 H     1 <1>   0.1500 
 27 H       -6.6920    -2.8870     0.0660 H     1 <1>   0.1500 
 28 H       -7.7520     1.2320    -0.1440 H     1 <1>   0.1500 
 29 H       -8.4170    -1.1340    -0.0410 H     1 <1>   0.1500 
@<TRIPOS>BOND
  1   1   2  2   
  2   2   3  am  
  3   2   4  1   
  4   3   5  1   
  5   3  16  1   
  6   4   6  1   
  7   4   7  1   
  8   4   8  1   
  9   5   6  1   
 10   5   9  1   
 11   6  17  1   
 12   6  18  1   
 13   7  10  1   
 14   7  19  1   
 15   7  20  1   
 16   8  21  1   
 17   8  22  1   
 18   8  23  1   
 19   9  11  ar  
 20   9  12  ar  
 21  10  24  1   
 22  11  13  ar  
 23  11  25  1   
 24  12  14  ar  
 25  12  26  1   
 26  13  15  ar  
 27  13  27  1   
 28  14  15  ar  
 29  14  28  1   
 30  15  29  1   
@<TRIPOS>SUBSTRUCTURE
  1 ****   5 GROUP 4 **** **** 0

# MOE 2024.06 (io_trps.svl 2023.06)
