@<TRIPOS>MOLECULE
NONAME
39 39 1 0 0 
SMALL
USER_CHARGES


@<TRIPOS>ATOM
  1 S        0.0440     0.1830     1.0490 S.o2  1 <1>   1.3330 
  2 O        1.2190    -0.2770     1.7440 O.2   1 <1>  -0.6500 
  3 O       -0.6340     1.3950     1.4380 O.2   1 <1>  -0.6500 
  4 N       -1.0620    -1.1180     1.2220 N.am  1 <1>  -0.7570 
  5 C        0.3640     0.1790    -0.7210 C.3   1 <1>  -0.0550 
  6 C       -2.4130    -1.1950     0.9250 C.ar  1 <1>   0.1990 
  7 C        1.3750     1.2410    -1.1860 C.3   1 <1>  -0.2400 
  8 C       -3.0880    -2.3830     1.1790 C.ar  1 <1>  -0.1500 
  9 C       -3.1390    -0.1430     0.3730 C.ar  1 <1>  -0.1500 
 10 C       -4.4330    -2.5140     0.8940 C.ar  1 <1>  -0.1500 
 11 C       -4.4850    -0.2780     0.0890 C.ar  1 <1>  -0.1500 
 12 C       -5.1740    -1.4650     0.3470 C.ar  1 <1>   0.0860 
 13 C       -6.5880    -1.6160     0.0640 C.2   1 <1>   0.5440 
 14 O       -7.0410    -2.7110    -0.2080 O.2   1 <1>  -0.5700 
 15 N       -7.4210    -0.5280     0.1200 N.am  1 <1>  -0.7300 
 16 C       -8.8630    -0.4420    -0.1400 C.3   1 <1>   0.3000 
 17 C       -9.2480     1.0250     0.0420 C.3   1 <1>  -0.2400 
 18 C       -9.1630    -0.8710    -1.5770 C.3   1 <1>  -0.2400 
 19 C       -9.6260    -1.2980     0.8720 C.3   1 <1>  -0.2400 
 20 H       -0.6350    -1.8550     1.7750 H     1 <1>   0.4200 
 21 H       -0.5600     0.3380    -1.2420 H     1 <1>   0.0800 
 22 H        0.7310    -0.7890    -1.0040 H     1 <1>   0.0800 
 23 H        1.0190     2.2260    -0.9390 H     1 <1>   0.0800 
 24 H        1.5180     1.1800    -2.2500 H     1 <1>   0.0800 
 25 H        2.3230     1.0870    -0.6990 H     1 <1>   0.0800 
 26 H       -2.5550    -3.2150     1.6010 H     1 <1>   0.1500 
 27 H       -2.6600     0.7940     0.1640 H     1 <1>   0.1500 
 28 H       -4.9340    -3.4470     1.0960 H     1 <1>   0.1500 
 29 H       -5.0100     0.5530    -0.3480 H     1 <1>   0.1500 
 30 H       -7.0350     0.3400     0.4830 H     1 <1>   0.3700 
 31 H       -9.0380     1.3510     1.0450 H     1 <1>   0.0800 
 32 H      -10.3000     1.1550    -0.1380 H     1 <1>   0.0800 
 33 H       -8.7110     1.6460    -0.6540 H     1 <1>   0.0800 
 34 H       -8.5810    -0.2940    -2.2710 H     1 <1>   0.0800 
 35 H      -10.2040    -0.7270    -1.7980 H     1 <1>   0.0800 
 36 H       -8.9380    -1.9130    -1.7160 H     1 <1>   0.0800 
 37 H       -9.3710    -1.0120     1.8760 H     1 <1>   0.0800 
 38 H       -9.3950    -2.3390     0.7370 H     1 <1>   0.0800 
 39 H      -10.6850    -1.1750     0.7380 H     1 <1>   0.0800 
@<TRIPOS>BOND
  1   1   2  2   
  2   1   3  2   
  3   1   4  am  
  4   1   5  1   
  5   4   6  1   
  6   4  20  1   
  7   5   7  1   
  8   5  21  1   
  9   5  22  1   
 10   6   8  ar  
 11   6   9  ar  
 12   7  23  1   
 13   7  24  1   
 14   7  25  1   
 15   8  10  ar  
 16   8  26  1   
 17   9  11  ar  
 18   9  27  1   
 19  10  12  ar  
 20  10  28  1   
 21  11  12  ar  
 22  11  29  1   
 23  12  13  1   
 24  13  14  2   
 25  13  15  am  
 26  15  16  1   
 27  15  30  1   
 28  16  17  1   
 29  16  18  1   
 30  16  19  1   
 31  17  31  1   
 32  17  32  1   
 33  17  33  1   
 34  18  34  1   
 35  18  35  1   
 36  18  36  1   
 37  19  37  1   
 38  19  38  1   
 39  19  39  1   
@<TRIPOS>SUBSTRUCTURE
  1 ****  11 GROUP 4 **** **** 0

# MOE 2024.06 (io_trps.svl 2023.06)
