@<TRIPOS>MOLECULE
NONAME
46 48 1 0 0 
SMALL
USER_CHARGES


@<TRIPOS>ATOM
  1 F       -0.6220    -0.8160     0.8700 F     1 <1>  -0.1900 
  2 C       -1.8240    -1.2410     0.5900 C.ar  1 <1>   0.1900 
  3 C       -2.1620    -1.4620    -0.7310 C.ar  1 <1>  -0.1500 
  4 C       -2.7130    -1.4550     1.6240 C.ar  1 <1>  -0.1500 
  5 C       -3.4400    -1.9090    -1.0240 C.ar  1 <1>  -0.1500 
  6 C       -3.9890    -1.9010     1.3220 C.ar  1 <1>  -0.1500 
  7 C       -4.3590    -2.1240    -0.0010 C.ar  1 <1>  -0.1430 
  8 C       -5.7630    -2.5990    -0.3260 C.3   1 <1>   0.4870 
  9 N       -6.5350    -1.4590    -0.8890 N.4   1 <1>  -0.9590 
 10 C       -6.6860    -0.3310     0.1070 C.3   1 <1>   0.3430 
 11 C       -7.8800    -1.8940    -1.4150 C.3   1 <1>   0.3430 
 12 C       -7.4670     0.8700    -0.4650 C.3   1 <1>   0.2090 
 13 C       -8.6850    -0.7290    -2.0280 C.3   1 <1>   0.2090 
 14 N       -8.7430     0.4440    -1.1090 N.pl3 1 <1>  -0.8380 
 15 C       -9.9260     0.6500    -0.4010 C.ar  1 <1>   0.1000 
 16 C      -10.8180     1.6530    -0.7810 C.ar  1 <1>  -0.1430 
 17 C      -10.2340    -0.1480     0.6970 C.ar  1 <1>  -0.1500 
 18 C      -11.9880     1.8370    -0.0640 C.ar  1 <1>  -0.1500 
 19 C      -10.5210     2.5500    -1.9740 C.3   1 <1>  -0.0970 
 20 C      -11.4040     0.0370     1.4120 C.ar  1 <1>  -0.1430 
 21 C      -12.2810     1.0350     1.0250 C.ar  1 <1>  -0.1500 
 22 C      -11.7420    -0.8320     2.6100 C.3   1 <1>  -0.0970 
 23 H       -1.4340    -1.2890    -1.5050 H     1 <1>   0.1500 
 24 H       -2.4040    -1.2770     2.6400 H     1 <1>   0.1500 
 25 H       -3.6990    -2.0890    -2.0540 H     1 <1>   0.1500 
 26 H       -4.6800    -2.0740     2.1310 H     1 <1>   0.1500 
 27 H       -6.2420    -2.9700     0.5650 H     1 <1>   0.0800 
 28 H       -5.7080    -3.4010    -1.0440 H     1 <1>   0.0800 
 29 H       -5.9910    -1.0810    -1.6740 H     1 <1>   0.4500 
 30 H       -5.7150     0.0100     0.4280 H     1 <1>   0.0800 
 31 H       -7.2130    -0.6860     0.9770 H     1 <1>   0.0800 
 32 H       -8.4630    -2.3120    -0.6110 H     1 <1>   0.0800 
 33 H       -7.7550    -2.6590    -2.1630 H     1 <1>   0.0800 
 34 H       -6.8630     1.3860    -1.1910 H     1 <1>   0.0800 
 35 H       -7.6830     1.5660     0.3280 H     1 <1>   0.0800 
 36 H       -9.6870    -1.0620    -2.2430 H     1 <1>   0.0800 
 37 H       -8.2390    -0.4240    -2.9580 H     1 <1>   0.0800 
 38 H       -9.5540    -0.9190     0.9930 H     1 <1>   0.1500 
 39 H      -12.6830     2.6070    -0.3480 H     1 <1>   0.1500 
 40 H      -10.4350     1.9540    -2.8640 H     1 <1>   0.0800 
 41 H       -9.5960     3.0720    -1.8150 H     1 <1>   0.0800 
 42 H      -11.3020     3.2740    -2.1200 H     1 <1>   0.0800 
 43 H      -13.1960     1.1940     1.5700 H     1 <1>   0.1500 
 44 H      -10.9900    -1.5820     2.7720 H     1 <1>   0.0800 
 45 H      -12.6860    -1.3220     2.4510 H     1 <1>   0.0800 
 46 H      -11.8150    -0.2220     3.4930 H     1 <1>   0.0800 
@<TRIPOS>BOND
  1   1   2  1   
  2   2   3  ar  
  3   2   4  ar  
  4   3   5  ar  
  5   3  23  1   
  6   4   6  ar  
  7   4  24  1   
  8   5   7  ar  
  9   5  25  1   
 10   6   7  ar  
 11   6  26  1   
 12   7   8  1   
 13   8   9  1   
 14   8  27  1   
 15   8  28  1   
 16   9  10  1   
 17   9  11  1   
 18   9  29  1   
 19  10  12  1   
 20  10  30  1   
 21  10  31  1   
 22  11  13  1   
 23  11  32  1   
 24  11  33  1   
 25  12  14  1   
 26  12  34  1   
 27  12  35  1   
 28  13  14  1   
 29  13  36  1   
 30  13  37  1   
 31  14  15  1   
 32  15  16  ar  
 33  15  17  ar  
 34  16  18  ar  
 35  16  19  1   
 36  17  20  ar  
 37  17  38  1   
 38  18  21  ar  
 39  18  39  1   
 40  19  40  1   
 41  19  41  1   
 42  19  42  1   
 43  20  21  ar  
 44  20  22  1   
 45  21  43  1   
 46  22  44  1   
 47  22  45  1   
 48  22  46  1   
@<TRIPOS>SUBSTRUCTURE
  1 ****  10 GROUP 4 **** **** 0

# MOE 2024.06 (io_trps.svl 2023.06)
