@<TRIPOS>MOLECULE
NONAME
39 41 1 0 0 
SMALL
USER_CHARGES


@<TRIPOS>ATOM
  1 S        0.0350    -0.0050     0.7270 S.3   1 <1>  -0.0800 
  2 C        1.0340     1.4220     0.4640 C.2   1 <1>   0.1660 
  3 C       -1.4220     0.9810     0.7270 C.2   1 <1>  -0.1400 
  4 N        2.3660     1.3400     0.3480 N.2   1 <1>  -0.5760 
  5 C        0.2690     2.5490     0.3890 C.2   1 <1>  -0.0860 
  6 C       -1.1350     2.2730     0.5320 C.2   1 <1>  -0.1810 
  7 C       -2.7990     0.3850     0.9190 C.3   1 <1>   0.3000 
  8 C        2.9740     2.4730     0.1480 C.2   1 <1>   0.5600 
  9 C        0.9670     3.7650     0.1980 C.2   1 <1>   0.7160 
 10 C       -2.2700     3.2780     0.4950 C.3   1 <1>   0.0210 
 11 O       -3.7360     1.4230     1.0990 O.3   1 <1>  -0.5600 
 12 N        2.3470     3.7060     0.1410 N.am  1 <1>  -0.4200 
 13 N        4.3040     2.3680    -0.0650 N.pl3 1 <1>  -0.8190 
 14 O        0.3910     4.8450     0.0900 O.2   1 <1>  -0.5700 
 15 C       -3.6420     2.5720     0.2850 C.3   1 <1>   0.2800 
 16 C        3.1140     4.9820     0.2500 C.3   1 <1>   0.0600 
 17 C        5.0570     2.9870    -1.1830 C.3   1 <1>   0.1290 
 18 C       -4.7790     3.5200     0.7290 C.3   1 <1>  -0.1600 
 19 C       -3.8320     2.1550    -1.1850 C.3   1 <1>  -0.2400 
 20 C       -6.2030     2.9450     0.6260 C.3   1 <1>  -0.2400 
 21 H       -2.8240    -0.2340     1.7980 H     1 <1>   0.0800 
 22 H       -3.0880    -0.1990     0.0630 H     1 <1>   0.0800 
 23 H       -2.1100     3.9870    -0.2970 H     1 <1>   0.0800 
 24 H       -2.2720     3.8220     1.4220 H     1 <1>   0.0800 
 25 H        4.6490     1.4380     0.1890 H     1 <1>   0.4000 
 26 H        2.5750     5.6900     0.8550 H     1 <1>   0.0800 
 27 H        4.0680     4.8100     0.7140 H     1 <1>   0.0800 
 28 H        3.2570     5.4010    -0.7300 H     1 <1>   0.0800 
 29 H        5.5530     2.2210    -1.7540 H     1 <1>   0.0800 
 30 H        4.3870     3.5210    -1.8360 H     1 <1>   0.0800 
 31 H        5.7940     3.6680    -0.7940 H     1 <1>   0.0800 
 32 H       -4.7300     4.4210     0.1430 H     1 <1>   0.0800 
 33 H       -4.6040     3.8000     1.7530 H     1 <1>   0.0800 
 34 H       -2.9700     1.6310    -1.5550 H     1 <1>   0.0800 
 35 H       -3.9660     3.0270    -1.7990 H     1 <1>   0.0800 
 36 H       -4.6960     1.5250    -1.2930 H     1 <1>   0.0800 
 37 H       -6.4700     2.7520    -0.3970 H     1 <1>   0.0800 
 38 H       -6.9100     3.6470     1.0310 H     1 <1>   0.0800 
 39 H       -6.2790     2.0280     1.1850 H     1 <1>   0.0800 
@<TRIPOS>BOND
  1   1   2  1   
  2   1   3  1   
  3   2   4  1   
  4   2   5  2   
  5   3   6  2   
  6   3   7  1   
  7   4   8  2   
  8   5   6  1   
  9   5   9  1   
 10   6  10  1   
 11   7  11  1   
 12   7  21  1   
 13   7  22  1   
 14   8  12  1   
 15   8  13  1   
 16   9  12  am  
 17   9  14  2   
 18  10  15  1   
 19  10  23  1   
 20  10  24  1   
 21  11  15  1   
 22  12  16  1   
 23  13  17  1   
 24  13  25  1   
 25  15  18  1   
 26  15  19  1   
 27  16  26  1   
 28  16  27  1   
 29  16  28  1   
 30  17  29  1   
 31  17  30  1   
 32  17  31  1   
 33  18  20  1   
 34  18  32  1   
 35  18  33  1   
 36  19  34  1   
 37  19  35  1   
 38  19  36  1   
 39  20  37  1   
 40  20  38  1   
 41  20  39  1   
@<TRIPOS>SUBSTRUCTURE
  1 ****   5 GROUP 4 **** **** 0

# MOE 2024.06 (io_trps.svl 2023.06)
