@<TRIPOS>MOLECULE
NONAME
34 34 1 0 0 
SMALL
USER_CHARGES


@<TRIPOS>ATOM
  1 I        0.3040     0.5260    -2.0700 I     1 <1>  -0.0810 
  2 C        2.1400     1.2960    -1.3320 C.ar  1 <1>   0.0810 
  3 C        2.5210     2.5740    -1.6930 C.ar  1 <1>  -0.1500 
  4 C        2.9140     0.5020    -0.5080 C.ar  1 <1>  -0.1500 
  5 C        3.7190     3.0650    -1.2050 C.ar  1 <1>  -0.1500 
  6 C        4.1090     1.0120    -0.0320 C.ar  1 <1>  -0.1500 
  7 C        4.5380     2.3040    -0.3650 C.ar  1 <1>   0.0860 
  8 C        5.7910     2.8490     0.1320 C.2   1 <1>   0.5440 
  9 O        6.3840     3.7120    -0.4850 O.2   1 <1>  -0.5700 
 10 N        6.3550     2.3930     1.2920 N.am  1 <1>  -0.7300 
 11 C        7.3800     3.1130     2.0850 C.3   1 <1>   0.1400 
 12 C        8.7960     2.6770     1.6920 C.3   1 <1>  -0.1600 
 13 C        9.2790     3.3640     0.4080 C.3   1 <1>   0.3430 
 14 N        9.7290     2.3750    -0.6150 N.4   1 <1>  -0.9590 
 15 C       10.4840     3.0710    -1.6990 C.3   1 <1>   0.2630 
 16 C        8.5570     1.6540    -1.2030 C.3   1 <1>   0.2630 
 17 H        1.8980     3.1700    -2.3380 H     1 <1>   0.1500 
 18 H        2.5890    -0.4910    -0.2480 H     1 <1>   0.1500 
 19 H        4.0280     4.0600    -1.4780 H     1 <1>   0.1500 
 20 H        4.7140     0.3890     0.6010 H     1 <1>   0.1500 
 21 H        5.7950     1.7400     1.8480 H     1 <1>   0.3700 
 22 H        7.2160     2.8950     3.1280 H     1 <1>   0.0800 
 23 H        7.2610     4.1770     1.9520 H     1 <1>   0.0800 
 24 H        8.8460     1.6050     1.6330 H     1 <1>   0.0800 
 25 H        9.4550     2.9860     2.4830 H     1 <1>   0.0800 
 26 H       10.1000     4.0150     0.6600 H     1 <1>   0.0800 
 27 H        8.4970     3.9820    -0.0010 H     1 <1>   0.0800 
 28 H       10.3490     1.6930    -0.1560 H     1 <1>   0.4500 
 29 H        9.8520     3.7960    -2.1870 H     1 <1>   0.0800 
 30 H       10.8240     2.3600    -2.4340 H     1 <1>   0.0800 
 31 H       11.3420     3.5810    -1.2910 H     1 <1>   0.0800 
 32 H        7.9050     2.3520    -1.7020 H     1 <1>   0.0800 
 33 H        7.9940     1.1600    -0.4280 H     1 <1>   0.0800 
 34 H        8.8870     0.9170    -1.9160 H     1 <1>   0.0800 
@<TRIPOS>BOND
  1   1   2  1   
  2   2   3  ar  
  3   2   4  ar  
  4   3   5  ar  
  5   3  17  1   
  6   4   6  ar  
  7   4  18  1   
  8   5   7  ar  
  9   5  19  1   
 10   6   7  ar  
 11   6  20  1   
 12   7   8  1   
 13   8   9  2   
 14   8  10  am  
 15  10  11  1   
 16  10  21  1   
 17  11  12  1   
 18  11  22  1   
 19  11  23  1   
 20  12  13  1   
 21  12  24  1   
 22  12  25  1   
 23  13  14  1   
 24  13  26  1   
 25  13  27  1   
 26  14  15  1   
 27  14  16  1   
 28  14  28  1   
 29  15  29  1   
 30  15  30  1   
 31  15  31  1   
 32  16  32  1   
 33  16  33  1   
 34  16  34  1   
@<TRIPOS>SUBSTRUCTURE
  1 ****   8 GROUP 4 **** **** 0

# MOE 2024.06 (io_trps.svl 2023.06)
