@<TRIPOS>MOLECULE
NONAME
41 42 1 0 0 
SMALL
USER_CHARGES


@<TRIPOS>ATOM
  1 O       -0.0570    -0.8300    -1.4800 O.2   1 <1>  -0.5700 
  2 C       -0.1200    -1.5790    -0.5280 C.2   1 <1>   0.6160 
  3 N        1.0010    -1.8830     0.2070 N.am  1 <1>  -0.5470 
  4 C       -1.3770    -2.1800    -0.1560 C.2   1 <1>   0.0790 
  5 C        2.3290    -1.4370     0.1050 C.ar  1 <1>   0.1170 
  6 C       -2.3640    -1.1860     0.1430 C.1   1 <1>   0.4920 
  7 C       -1.6140    -3.5160    -0.0800 C.2   1 <1>  -0.2760 
  8 C        2.6780    -0.2140    -0.4600 C.ar  1 <1>  -0.1500 
  9 C        3.3420    -2.2440     0.6100 C.ar  1 <1>  -0.1500 
 10 N       -3.1700    -0.4310     0.4290 N.1   1 <1>  -0.5570 
 11 C       -0.5760    -4.5770    -0.4740 C.3   1 <1>  -0.0220 
 12 C       -2.9580    -4.1030     0.3780 C.3   1 <1>  -0.0220 
 13 C        4.0010     0.1840    -0.5220 C.ar  1 <1>  -0.1500 
 14 C        4.6680    -1.8500     0.5520 C.ar  1 <1>  -0.1500 
 15 C       -1.2510    -5.8330    -1.0340 C.3   1 <1>  -0.1600 
 16 C       -2.7820    -5.4910     1.0020 C.3   1 <1>  -0.1600 
 17 C        5.0040    -0.6260    -0.0190 C.ar  1 <1>   0.0830 
 18 C       -2.1770    -6.4940     0.0030 C.3   1 <1>  -0.1600 
 19 O        6.2760    -0.1570    -0.1180 O.3   1 <1>  -0.3620 
 20 C        7.3690    -0.9140     0.3460 C.3   1 <1>   0.1200 
 21 C        8.6420    -0.1180     0.0770 C.3   1 <1>  -0.2400 
 22 H        0.8470    -2.5790     0.9340 H     1 <1>   0.3700 
 23 H        1.9190     0.4380    -0.8530 H     1 <1>   0.1500 
 24 H        3.0970    -3.1920     1.0510 H     1 <1>   0.1500 
 25 H        0.1030    -4.1890    -1.2150 H     1 <1>   0.0800 
 26 H        0.0010    -4.8540     0.3920 H     1 <1>   0.0800 
 27 H       -3.4380    -3.4580     1.0950 H     1 <1>   0.0800 
 28 H       -3.6140    -4.1870    -0.4720 H     1 <1>   0.0800 
 29 H        4.2620     1.1300    -0.9620 H     1 <1>   0.1500 
 30 H        5.4190    -2.5030     0.9520 H     1 <1>   0.1500 
 31 H       -1.8290    -5.5510    -1.8980 H     1 <1>   0.0800 
 32 H       -0.5070    -6.5400    -1.3580 H     1 <1>   0.0800 
 33 H       -2.1320    -5.4030     1.8560 H     1 <1>   0.0800 
 34 H       -3.7300    -5.8600     1.3540 H     1 <1>   0.0800 
 35 H       -1.6280    -7.2390     0.5550 H     1 <1>   0.0800 
 36 H       -2.9680    -7.0020    -0.5210 H     1 <1>   0.0800 
 37 H        7.2420    -1.0840     1.4010 H     1 <1>   0.0800 
 38 H        7.3860    -1.8500    -0.1860 H     1 <1>   0.0800 
 39 H        8.6060     0.8210     0.5990 H     1 <1>   0.0800 
 40 H        8.7490     0.0610    -0.9780 H     1 <1>   0.0800 
 41 H        9.4970    -0.6710     0.4210 H     1 <1>   0.0800 
@<TRIPOS>BOND
  1   1   2  2   
  2   2   3  am  
  3   2   4  1   
  4   3   5  1   
  5   3  22  1   
  6   4   6  1   
  7   4   7  2   
  8   5   8  ar  
  9   5   9  ar  
 10   6  10  3   
 11   7  11  1   
 12   7  12  1   
 13   8  13  ar  
 14   8  23  1   
 15   9  14  ar  
 16   9  24  1   
 17  11  15  1   
 18  11  25  1   
 19  11  26  1   
 20  12  16  1   
 21  12  27  1   
 22  12  28  1   
 23  13  17  ar  
 24  13  29  1   
 25  14  17  ar  
 26  14  30  1   
 27  15  18  1   
 28  15  31  1   
 29  15  32  1   
 30  16  18  1   
 31  16  33  1   
 32  16  34  1   
 33  17  19  1   
 34  18  35  1   
 35  18  36  1   
 36  19  20  1   
 37  20  21  1   
 38  20  37  1   
 39  20  38  1   
 40  21  39  1   
 41  21  40  1   
 42  21  41  1   
@<TRIPOS>SUBSTRUCTURE
  1 ****   3 GROUP 4 **** **** 0

# MOE 2024.06 (io_trps.svl 2023.06)
