@<TRIPOS>MOLECULE
NONAME
42 43 1 0 0 
SMALL
USER_CHARGES


@<TRIPOS>ATOM
  1 O       -0.9660    -0.3890    -0.5470 O.3   1 <1>  -0.5600 
  2 C       -0.9450    -1.1550     0.6220 C.3   1 <1>   0.1200 
  3 C       -1.8110    -0.8690    -1.5520 C.3   1 <1>   0.1200 
  4 C       -2.3570    -1.2270     1.2350 C.3   1 <1>   0.3430 
  5 C       -3.2640    -0.9300    -1.0430 C.3   1 <1>   0.3430 
  6 N       -3.3730    -1.7190     0.2390 N.4   1 <1>  -0.9590 
  7 C       -4.7460    -1.6840     0.8160 C.3   1 <1>   0.3430 
  8 C       -5.7110    -2.4780    -0.0600 C.3   1 <1>  -0.1600 
  9 C       -7.1010    -2.5270     0.5730 C.3   1 <1>   0.1200 
 10 O       -7.9220    -3.2600    -0.2970 O.3   1 <1>  -0.3630 
 11 C       -9.2370    -3.4770    -0.0250 C.ar  1 <1>   0.0820 
 12 C       -9.9750    -4.2090    -0.9500 C.ar  1 <1>  -0.1430 
 13 C       -9.8610    -3.0010     1.1270 C.ar  1 <1>  -0.1500 
 14 C      -11.3190    -4.4540    -0.7160 C.ar  1 <1>  -0.1500 
 15 C       -9.3230    -4.7440    -2.2170 C.3   1 <1>  -0.0970 
 16 C      -11.2020    -3.2530     1.3480 C.ar  1 <1>  -0.1500 
 17 C      -11.9390    -3.9780     0.4270 C.ar  1 <1>  -0.1430 
 18 C      -13.4110    -4.2570     0.6690 C.3   1 <1>  -0.0970 
 19 H       -0.2660    -0.6820     1.3090 H     1 <1>   0.0800 
 20 H       -0.5680    -2.1360     0.3890 H     1 <1>   0.0800 
 21 H       -1.4640    -1.8390    -1.8640 H     1 <1>   0.0800 
 22 H       -1.7390    -0.1950    -2.3880 H     1 <1>   0.0800 
 23 H       -2.6270    -0.2390     1.5730 H     1 <1>   0.0800 
 24 H       -2.3370    -1.8770     2.0950 H     1 <1>   0.0800 
 25 H       -3.8850    -1.3710    -1.8050 H     1 <1>   0.0800 
 26 H       -3.6060     0.0790    -0.8800 H     1 <1>   0.0800 
 27 H       -3.1400    -2.6970     0.0190 H     1 <1>   0.4500 
 28 H       -5.0830    -0.6640     0.9060 H     1 <1>   0.0800 
 29 H       -4.7320    -2.1220     1.8020 H     1 <1>   0.0800 
 30 H       -5.3560    -3.4870    -0.1730 H     1 <1>   0.0800 
 31 H       -5.8050    -2.0180    -1.0270 H     1 <1>   0.0800 
 32 H       -7.5190    -1.5400     0.6780 H     1 <1>   0.0800 
 33 H       -7.0830    -3.0340     1.5240 H     1 <1>   0.0800 
 34 H       -9.3280    -2.4350     1.8640 H     1 <1>   0.1500 
 35 H      -11.8910    -5.0200    -1.4290 H     1 <1>   0.1500 
 36 H       -8.9290    -3.9290    -2.7960 H     1 <1>   0.0800 
 37 H      -10.0300    -5.2830    -2.8210 H     1 <1>   0.0800 
 38 H       -8.5180    -5.4080    -1.9580 H     1 <1>   0.0800 
 39 H      -11.6730    -2.8810     2.2410 H     1 <1>   0.1500 
 40 H      -13.5260    -5.2140     1.1450 H     1 <1>   0.0800 
 41 H      -13.9480    -4.2650    -0.2630 H     1 <1>   0.0800 
 42 H      -13.8410    -3.5000     1.3000 H     1 <1>   0.0800 
@<TRIPOS>BOND
  1   1   2  1   
  2   1   3  1   
  3   2   4  1   
  4   2  19  1   
  5   2  20  1   
  6   3   5  1   
  7   3  21  1   
  8   3  22  1   
  9   4   6  1   
 10   4  23  1   
 11   4  24  1   
 12   5   6  1   
 13   5  25  1   
 14   5  26  1   
 15   6   7  1   
 16   6  27  1   
 17   7   8  1   
 18   7  28  1   
 19   7  29  1   
 20   8   9  1   
 21   8  30  1   
 22   8  31  1   
 23   9  10  1   
 24   9  32  1   
 25   9  33  1   
 26  10  11  1   
 27  11  12  ar  
 28  11  13  ar  
 29  12  14  ar  
 30  12  15  1   
 31  13  16  ar  
 32  13  34  1   
 33  14  17  ar  
 34  14  35  1   
 35  15  36  1   
 36  15  37  1   
 37  15  38  1   
 38  16  17  ar  
 39  16  39  1   
 40  17  18  1   
 41  18  40  1   
 42  18  41  1   
 43  18  42  1   
@<TRIPOS>SUBSTRUCTURE
  1 ****   9 GROUP 4 **** **** 0

# MOE 2024.06 (io_trps.svl 2023.06)
