@<TRIPOS>MOLECULE
NONAME
47 50 1 0 0 
SMALL
USER_CHARGES


@<TRIPOS>ATOM
  1 O       -4.0760     1.8530    -2.6150 O.2   1 <1>  -0.5700 
  2 C       -3.3820     2.1430    -1.6700 C.2   1 <1>   0.5690 
  3 N       -3.2020     1.3220    -0.6000 N.am  1 <1>  -0.7300 
  4 C       -2.6800     3.4950    -1.6870 C.3   1 <1>   0.1810 
  5 C       -3.7610    -0.0150    -0.3450 C.3   1 <1>   0.3000 
  6 O       -1.9050     3.7000    -0.5110 O.3   1 <1>  -0.3620 
  7 C       -3.2290    -0.4900     1.0200 C.3   1 <1>  -0.1600 
  8 C       -3.3100    -1.0110    -1.4300 C.3   1 <1>  -0.1600 
  9 C       -5.2990     0.0370    -0.2890 C.3   1 <1>  -0.1600 
 10 C       -1.2000     4.8450    -0.3280 C.ar  1 <1>   0.0830 
 11 C       -3.7780    -1.8920     1.3500 C.3   1 <1>  -0.0800 
 12 C       -3.8670    -2.4150    -1.1180 C.3   1 <1>  -0.0800 
 13 C       -5.8620    -1.3630     0.0260 C.3   1 <1>  -0.0800 
 14 C       -0.4780     4.9500     0.8500 C.ar  1 <1>  -0.1500 
 15 C       -1.1700     5.8910    -1.2470 C.ar  1 <1>  -0.1500 
 16 C       -3.3360    -2.8780     0.2520 C.3   1 <1>  -0.1600 
 17 C       -5.3180    -1.8330     1.3880 C.3   1 <1>  -0.1600 
 18 C       -5.4060    -2.3480    -1.0680 C.3   1 <1>  -0.1600 
 19 C        0.2720     6.0830     1.1230 C.ar  1 <1>  -0.1430 
 20 C       -0.4210     7.0230    -0.9770 C.ar  1 <1>  -0.1500 
 21 C        0.2970     7.1180     0.2030 C.ar  1 <1>  -0.1500 
 22 C        1.0630     6.1950     2.4140 C.3   1 <1>  -0.0970 
 23 H       -2.5940     1.6720     0.1420 H     1 <1>   0.3700 
 24 H       -3.4180     4.2730    -1.7470 H     1 <1>   0.0800 
 25 H       -2.0260     3.5410    -2.5370 H     1 <1>   0.0800 
 26 H       -3.5300     0.1990     1.7890 H     1 <1>   0.0800 
 27 H       -2.1540    -0.5270     1.0000 H     1 <1>   0.0800 
 28 H       -2.2370    -1.0460    -1.4710 H     1 <1>   0.0800 
 29 H       -3.6740    -0.6960    -2.3910 H     1 <1>   0.0800 
 30 H       -5.6890     0.3670    -1.2360 H     1 <1>   0.0800 
 31 H       -5.6140     0.7350     0.4650 H     1 <1>   0.0800 
 32 H       -3.4020    -2.2170     2.3050 H     1 <1>   0.0800 
 33 H       -3.5570    -3.1070    -1.8830 H     1 <1>   0.0800 
 34 H       -6.9380    -1.3240     0.0560 H     1 <1>   0.0800 
 35 H       -0.5080     4.1360     1.5500 H     1 <1>   0.1500 
 36 H       -1.7150     5.8480    -2.1700 H     1 <1>   0.1500 
 37 H       -3.7120    -3.8620     0.4740 H     1 <1>   0.0800 
 38 H       -2.2620    -2.9380     0.2260 H     1 <1>   0.0800 
 39 H       -5.6390    -1.1570     2.1620 H     1 <1>   0.0800 
 40 H       -5.7130    -2.8060     1.6210 H     1 <1>   0.0800 
 41 H       -5.8060    -3.3260    -0.8670 H     1 <1>   0.0800 
 42 H       -5.7870    -2.0310    -2.0240 H     1 <1>   0.0800 
 43 H       -0.3940     7.8330    -1.6850 H     1 <1>   0.1500 
 44 H        0.8770     8.0020     0.4020 H     1 <1>   0.1500 
 45 H        0.7070     5.4880     3.1420 H     1 <1>   0.0800 
 46 H        0.9640     7.1830     2.8250 H     1 <1>   0.0800 
 47 H        2.1020     6.0000     2.2210 H     1 <1>   0.0800 
@<TRIPOS>BOND
  1   1   2  2   
  2   2   3  am  
  3   2   4  1   
  4   3   5  1   
  5   3  23  1   
  6   4   6  1   
  7   4  24  1   
  8   4  25  1   
  9   5   7  1   
 10   5   8  1   
 11   5   9  1   
 12   6  10  1   
 13   7  11  1   
 14   7  26  1   
 15   7  27  1   
 16   8  12  1   
 17   8  28  1   
 18   8  29  1   
 19   9  13  1   
 20   9  30  1   
 21   9  31  1   
 22  10  14  ar  
 23  10  15  ar  
 24  11  16  1   
 25  11  17  1   
 26  11  32  1   
 27  12  16  1   
 28  12  18  1   
 29  12  33  1   
 30  13  17  1   
 31  13  18  1   
 32  13  34  1   
 33  14  19  ar  
 34  14  35  1   
 35  15  20  ar  
 36  15  36  1   
 37  16  37  1   
 38  16  38  1   
 39  17  39  1   
 40  17  40  1   
 41  18  41  1   
 42  18  42  1   
 43  19  21  ar  
 44  19  22  1   
 45  20  21  ar  
 46  20  43  1   
 47  21  44  1   
 48  22  45  1   
 49  22  46  1   
 50  22  47  1   
@<TRIPOS>SUBSTRUCTURE
  1 ****   3 GROUP 4 **** **** 0

# MOE 2024.06 (io_trps.svl 2023.06)
