@<TRIPOS>MOLECULE
NONAME
41 43 1 0 0 
SMALL
USER_CHARGES


@<TRIPOS>ATOM
  1 S        0.4880    -0.1340    -0.6220 S.3   1 <1>  -0.0800 
  2 C       -0.3660    -1.4470     0.2000 C.2   1 <1>  -0.0450 
  3 C       -0.8410     0.9790    -0.3850 C.2   1 <1>  -0.1100 
  4 C        0.2630    -2.7350     0.3410 C.2   1 <1>   0.7150 
  5 C       -1.5790    -0.9860     0.5990 C.2   1 <1>  -0.1500 
  6 C       -1.8480     0.3750     0.2720 C.2   1 <1>  -0.1500 
  7 O       -0.3220    -3.6360     0.9100 O.2   1 <1>  -0.5700 
  8 N        1.5280    -2.9340    -0.1560 N.am  1 <1>  -0.5470 
  9 C        2.3950    -4.0370    -0.1870 C.ar  1 <1>   0.1170 
 10 C        3.7830    -3.8290    -0.3160 C.ar  1 <1>   0.0860 
 11 C        1.9090    -5.3410    -0.1100 C.ar  1 <1>  -0.1500 
 12 C        4.3560    -2.4980    -0.3970 C.2   1 <1>   0.5440 
 13 C        4.6180    -4.9490    -0.3610 C.ar  1 <1>  -0.1500 
 14 C        2.7570    -6.4290    -0.1490 C.ar  1 <1>  -0.1500 
 15 O        3.7800    -1.5880    -0.9690 O.2   1 <1>  -0.5700 
 16 N        5.5650    -2.2290     0.1750 N.am  1 <1>  -0.7300 
 17 C        4.1190    -6.2330    -0.2750 C.ar  1 <1>  -0.1500 
 18 C        6.3290    -0.9640     0.0810 C.3   1 <1>   0.1400 
 19 C        7.8020    -1.2660    -0.2370 C.3   1 <1>   0.2000 
 20 O        8.2850    -2.2690     0.6060 O.3   1 <1>  -0.5600 
 21 C        8.7460    -0.0950    -0.0160 C.3   1 <1>  -0.1600 
 22 C        9.6700    -2.1800     0.7340 C.3   1 <1>   0.1200 
 23 C       10.0710    -0.7880     0.2470 C.3   1 <1>  -0.1600 
 24 H       -0.7290     1.9790    -0.7660 H     1 <1>   0.1500 
 25 H       -2.3040    -1.5840     1.1260 H     1 <1>   0.1500 
 26 H       -2.7810     0.8380     0.5430 H     1 <1>   0.1500 
 27 H        1.9650    -2.0710    -0.5110 H     1 <1>   0.3700 
 28 H        0.8530    -5.5170    -0.0220 H     1 <1>   0.1500 
 29 H        5.6800    -4.8130    -0.4710 H     1 <1>   0.1500 
 30 H        2.3580    -7.4270    -0.0830 H     1 <1>   0.1500 
 31 H        6.0870    -2.9630     0.6650 H     1 <1>   0.3700 
 32 H        4.7830    -7.0800    -0.3090 H     1 <1>   0.1500 
 33 H        6.2610    -0.4460     1.0210 H     1 <1>   0.0800 
 34 H        5.9140    -0.3300    -0.6840 H     1 <1>   0.0800 
 35 H        7.8910    -1.6250    -1.2480 H     1 <1>   0.0800 
 36 H        8.4430     0.4630     0.8530 H     1 <1>   0.0800 
 37 H        8.7820     0.5610    -0.8680 H     1 <1>   0.0800 
 38 H       10.1190    -2.9530     0.1340 H     1 <1>   0.0800 
 39 H        9.9190    -2.3280     1.7710 H     1 <1>   0.0800 
 40 H       10.6630    -0.2680     0.9800 H     1 <1>   0.0800 
 41 H       10.6400    -0.8790    -0.6620 H     1 <1>   0.0800 
@<TRIPOS>BOND
  1   1   2  1   
  2   1   3  1   
  3   2   4  1   
  4   2   5  2   
  5   3   6  2   
  6   3  24  1   
  7   4   7  2   
  8   4   8  am  
  9   5   6  1   
 10   5  25  1   
 11   6  26  1   
 12   8   9  1   
 13   8  27  1   
 14   9  10  ar  
 15   9  11  ar  
 16  10  12  1   
 17  10  13  ar  
 18  11  14  ar  
 19  11  28  1   
 20  12  15  2   
 21  12  16  am  
 22  13  17  ar  
 23  13  29  1   
 24  14  17  ar  
 25  14  30  1   
 26  16  18  1   
 27  16  31  1   
 28  17  32  1   
 29  18  19  1   
 30  18  33  1   
 31  18  34  1   
 32  19  20  1   
 33  19  21  1   
 34  19  35  1   
 35  20  22  1   
 36  21  23  1   
 37  21  36  1   
 38  21  37  1   
 39  22  23  1   
 40  22  38  1   
 41  22  39  1   
 42  23  40  1   
 43  23  41  1   
@<TRIPOS>SUBSTRUCTURE
  1 ****  12 GROUP 4 **** **** 0

# MOE 2024.06 (io_trps.svl 2023.06)
