@<TRIPOS>MOLECULE
NONAME
57 59 1 0 0 
SMALL
USER_CHARGES


@<TRIPOS>ATOM
  1 O       -2.4050     0.0780     0.5050 O.co2 1 <1>  -0.9000 
  2 C       -2.2630     1.0700     1.2280 C.2   1 <1>   0.9060 
  3 O       -2.4480     0.9980     2.4510 O.co2 1 <1>  -0.9000 
  4 C       -1.9780     2.4390     0.6160 C.3   1 <1>  -0.1860 
  5 C       -2.8540     3.5480     1.2510 C.3   1 <1>  -0.0190 
  6 C       -2.1450     2.4260    -0.9140 C.3   1 <1>  -0.0220 
  7 C       -4.3490     3.2160     1.1740 C.2   1 <1>   0.5690 
  8 C       -2.4950     4.9310     0.6750 C.3   1 <1>  -0.0220 
  9 C       -2.0710     3.8150    -1.5430 C.2   1 <1>  -0.2760 
 10 O       -5.0660     3.7040     0.3280 O.2   1 <1>  -0.5700 
 11 N       -4.8170     2.3090     2.0750 N.am  1 <1>  -0.7300 
 12 C       -2.2150     4.9410    -0.8270 C.2   1 <1>  -0.2760 
 13 C       -1.8390     3.7140    -3.0460 C.3   1 <1>  -0.1020 
 14 C       -5.9390     1.3860     1.8870 C.3   1 <1>   0.2200 
 15 C       -2.1310     6.3690    -1.3540 C.3   1 <1>  -0.1020 
 16 C       -5.6360     0.5080     0.6680 C.3   1 <1>  -0.1600 
 17 C       -7.2720     2.1400     1.7950 C.3   1 <1>  -0.1600 
 18 C       -6.8300    -0.3110     0.2250 C.3   1 <1>   0.3430 
 19 C       -8.3960     1.2370     1.3080 C.3   1 <1>   0.3430 
 20 N       -7.9790     0.6070     0.0240 N.4   1 <1>  -0.9590 
 21 C       -9.1010    -0.0450    -0.6960 C.3   1 <1>   0.4860 
 22 C      -10.1460     1.0040    -1.0200 C.ar  1 <1>  -0.1430 
 23 C       -9.8780     1.9990    -1.9510 C.ar  1 <1>  -0.1500 
 24 C      -11.3770     0.9830    -0.3790 C.ar  1 <1>  -0.1500 
 25 C      -10.8270     2.9670    -2.2280 C.ar  1 <1>  -0.1500 
 26 C      -12.3240     1.9530    -0.6580 C.ar  1 <1>  -0.1500 
 27 C      -12.0490     2.9450    -1.5810 C.ar  1 <1>  -0.1500 
 28 H       -0.9520     2.6610     0.8330 H     1 <1>   0.0800 
 29 H       -2.6170     3.5870     2.2990 H     1 <1>   0.0800 
 30 H       -3.0930     1.9860    -1.1710 H     1 <1>   0.0800 
 31 H       -1.3750     1.7940    -1.3240 H     1 <1>   0.0800 
 32 H       -1.6110     5.2860     1.1740 H     1 <1>   0.0800 
 33 H       -3.2920     5.6170     0.9030 H     1 <1>   0.0800 
 34 H       -4.0340     1.8340     2.5780 H     1 <1>   0.3700 
 35 H       -0.8730     3.2830    -3.2360 H     1 <1>   0.0800 
 36 H       -1.8890     4.6620    -3.5420 H     1 <1>   0.0800 
 37 H       -2.5890     3.0800    -3.4840 H     1 <1>   0.0800 
 38 H       -5.9790     0.7430     2.7520 H     1 <1>   0.0800 
 39 H       -1.4100     6.9260    -0.7840 H     1 <1>   0.0800 
 40 H       -3.0900     6.8460    -1.2560 H     1 <1>   0.0800 
 41 H       -1.8370     6.4170    -2.3820 H     1 <1>   0.0800 
 42 H       -4.8410    -0.1700     0.9200 H     1 <1>   0.0800 
 43 H       -5.3040     1.1030    -0.1640 H     1 <1>   0.0800 
 44 H       -7.2090     2.9720     1.1210 H     1 <1>   0.0800 
 45 H       -7.5220     2.5300     2.7650 H     1 <1>   0.0800 
 46 H       -7.0660    -1.0480     0.9750 H     1 <1>   0.0800 
 47 H       -6.5850    -0.8190    -0.6940 H     1 <1>   0.0800 
 48 H       -9.2850     1.8310     1.1630 H     1 <1>   0.0800 
 49 H       -8.6050     0.4780     2.0430 H     1 <1>   0.0800 
 50 H       -7.6440     1.3810    -0.5680 H     1 <1>   0.4500 
 51 H       -9.5330    -0.8210    -0.0880 H     1 <1>   0.0800 
 52 H       -8.7440    -0.4850    -1.6130 H     1 <1>   0.0800 
 53 H       -8.9360     2.0360    -2.4710 H     1 <1>   0.1500 
 54 H      -11.6160     0.2190     0.3410 H     1 <1>   0.1500 
 55 H      -10.6170     3.7400    -2.9490 H     1 <1>   0.1500 
 56 H      -13.2790     1.9370    -0.1600 H     1 <1>   0.1500 
 57 H      -12.7860     3.7000    -1.7980 H     1 <1>   0.1500 
@<TRIPOS>BOND
  1   1   2  ar  
  2   2   3  ar  
  3   2   4  1   
  4   4   5  1   
  5   4   6  1   
  6   4  28  1   
  7   5   7  1   
  8   5   8  1   
  9   5  29  1   
 10   6   9  1   
 11   6  30  1   
 12   6  31  1   
 13   7  10  2   
 14   7  11  am  
 15   8  12  1   
 16   8  32  1   
 17   8  33  1   
 18   9  12  2   
 19   9  13  1   
 20  11  14  1   
 21  11  34  1   
 22  12  15  1   
 23  13  35  1   
 24  13  36  1   
 25  13  37  1   
 26  14  16  1   
 27  14  17  1   
 28  14  38  1   
 29  15  39  1   
 30  15  40  1   
 31  15  41  1   
 32  16  18  1   
 33  16  42  1   
 34  16  43  1   
 35  17  19  1   
 36  17  44  1   
 37  17  45  1   
 38  18  20  1   
 39  18  46  1   
 40  18  47  1   
 41  19  20  1   
 42  19  48  1   
 43  19  49  1   
 44  20  21  1   
 45  20  50  1   
 46  21  22  1   
 47  21  51  1   
 48  21  52  1   
 49  22  23  ar  
 50  22  24  ar  
 51  23  25  ar  
 52  23  53  1   
 53  24  26  ar  
 54  24  54  1   
 55  25  27  ar  
 56  25  55  1   
 57  26  27  ar  
 58  26  56  1   
 59  27  57  1   
@<TRIPOS>SUBSTRUCTURE
  1 ****  10 GROUP 4 **** **** 0

# MOE 2024.06 (io_trps.svl 2023.06)
