@<TRIPOS>MOLECULE
NONAME
47 48 1 0 0 
SMALL
USER_CHARGES


@<TRIPOS>ATOM
  1 O        0.1800    -0.1370    -2.2070 O.2   1 <1>  -0.5700 
  2 C       -0.1390     0.6720    -1.3700 C.2   1 <1>   0.5690 
  3 N        0.7310     1.2260    -0.4710 N.am  1 <1>  -0.5470 
  4 C       -1.5970     1.1110    -1.3200 C.3   1 <1>   0.1810 
  5 C        2.1080     1.0440    -0.2550 C.ar  1 <1>   0.1170 
  6 O       -1.8000     2.1110    -0.3280 O.3   1 <1>  -0.3630 
  7 C        2.8030     2.0160     0.4530 C.ar  1 <1>  -0.1500 
  8 C        2.8010    -0.0740    -0.7060 C.ar  1 <1>  -0.1500 
  9 C       -3.0300     2.6380    -0.1110 C.ar  1 <1>   0.0830 
 10 C        4.1660     1.8940     0.7100 C.ar  1 <1>   0.0830 
 11 C        4.1560    -0.2080    -0.4660 C.ar  1 <1>  -0.1500 
 12 C       -3.1340     3.5920     0.8880 C.ar  1 <1>  -0.1500 
 13 C       -4.1680     2.2760    -0.8270 C.ar  1 <1>  -0.1500 
 14 O        4.8490     2.8310     1.4320 O.3   1 <1>  -0.3630 
 15 C        4.8490     0.7680     0.2270 C.ar  1 <1>   0.0830 
 16 C       -4.3540     4.1790     1.1730 C.ar  1 <1>  -0.1500 
 17 C       -5.3850     2.8670    -0.5380 C.ar  1 <1>  -0.1500 
 18 C        4.1860     3.8500     2.1470 C.3   1 <1>   0.0400 
 19 O        6.1820     0.5440     0.4020 O.3   1 <1>  -0.3630 
 20 C       -5.4920     3.8230     0.4630 C.ar  1 <1>  -0.1430 
 21 C        7.0870     1.5830     0.1000 C.3   1 <1>   0.0400 
 22 C       -6.8460     4.4620     0.7650 C.3   1 <1>   0.0630 
 23 C       -6.8050     5.9730     0.5170 C.3   1 <1>  -0.2400 
 24 C       -7.2870     4.1570     2.2000 C.3   1 <1>  -0.2400 
 25 H        0.2830     1.9230     0.1280 H     1 <1>   0.3700 
 26 H       -2.2130     0.2640    -1.0820 H     1 <1>   0.0800 
 27 H       -1.8770     1.5160    -2.2750 H     1 <1>   0.0800 
 28 H        2.2570     2.8710     0.7960 H     1 <1>   0.1500 
 29 H        2.2880    -0.8490    -1.2460 H     1 <1>   0.1500 
 30 H        4.6850    -1.0740    -0.8200 H     1 <1>   0.1500 
 31 H       -2.2590     3.8730     1.4420 H     1 <1>   0.1500 
 32 H       -4.1330     1.5430    -1.6100 H     1 <1>   0.1500 
 33 H       -4.4120     4.9170     1.9530 H     1 <1>   0.1500 
 34 H       -6.2550     2.5770    -1.1000 H     1 <1>   0.1500 
 35 H        4.9220     4.3930     2.7120 H     1 <1>   0.0800 
 36 H        3.4730     3.4010     2.8150 H     1 <1>   0.0800 
 37 H        3.7040     4.5110     1.4490 H     1 <1>   0.0800 
 38 H        8.0400     1.1410    -0.1250 H     1 <1>   0.0800 
 39 H        7.1790     2.2250     0.9570 H     1 <1>   0.0800 
 40 H        6.7240     2.1330    -0.7510 H     1 <1>   0.0800 
 41 H       -7.5830     4.0420     0.1000 H     1 <1>   0.0800 
 42 H       -6.1200     6.4540     1.1920 H     1 <1>   0.0800 
 43 H       -7.7820     6.4000     0.6570 H     1 <1>   0.0800 
 44 H       -6.4870     6.1690    -0.4910 H     1 <1>   0.0800 
 45 H       -6.6120     4.5990     2.9110 H     1 <1>   0.0800 
 46 H       -7.3030     3.0930     2.3580 H     1 <1>   0.0800 
 47 H       -8.2740     4.5440     2.3770 H     1 <1>   0.0800 
@<TRIPOS>BOND
  1   1   2  2   
  2   2   3  am  
  3   2   4  1   
  4   3   5  1   
  5   3  25  1   
  6   4   6  1   
  7   4  26  1   
  8   4  27  1   
  9   5   7  ar  
 10   5   8  ar  
 11   6   9  1   
 12   7  10  ar  
 13   7  28  1   
 14   8  11  ar  
 15   8  29  1   
 16   9  12  ar  
 17   9  13  ar  
 18  10  14  1   
 19  10  15  ar  
 20  11  15  ar  
 21  11  30  1   
 22  12  16  ar  
 23  12  31  1   
 24  13  17  ar  
 25  13  32  1   
 26  14  18  1   
 27  15  19  1   
 28  16  20  ar  
 29  16  33  1   
 30  17  20  ar  
 31  17  34  1   
 32  18  35  1   
 33  18  36  1   
 34  18  37  1   
 35  19  21  1   
 36  20  22  1   
 37  21  38  1   
 38  21  39  1   
 39  21  40  1   
 40  22  23  1   
 41  22  24  1   
 42  22  41  1   
 43  23  42  1   
 44  23  43  1   
 45  23  44  1   
 46  24  45  1   
 47  24  46  1   
 48  24  47  1   
@<TRIPOS>SUBSTRUCTURE
  1 ****   3 GROUP 4 **** **** 0

# MOE 2024.06 (io_trps.svl 2023.06)
