@<TRIPOS>MOLECULE
NONAME
39 41 1 0 0 
SMALL
USER_CHARGES


@<TRIPOS>ATOM
  1 O       -0.2330    -1.3420     1.1280 O.2   1 <1>  -0.5700 
  2 C       -1.1430    -2.1190     0.9810 C.2   1 <1>   0.5690 
  3 N       -0.9550    -3.4060     1.3360 N.am  1 <1>  -0.8000 
  4 C       -2.5010    -1.6690     0.4000 C.3   1 <1>   0.0610 
  5 C       -2.5020    -0.1560     0.0600 C.3   1 <1>  -0.1600 
  6 C       -2.8170    -2.4520    -0.8990 C.3   1 <1>  -0.1600 
  7 C       -3.6360    -1.9300     1.4210 C.3   1 <1>  -0.1600 
  8 C       -3.8590     0.2900    -0.5200 C.3   1 <1>   0.0000 
  9 C       -4.1790    -2.0320    -1.4870 C.3   1 <1>   0.0000 
 10 C       -5.0060    -1.5060     0.8550 C.3   1 <1>   0.0000 
 11 C       -4.1440    -0.5230    -1.7980 C.3   1 <1>  -0.1600 
 12 C       -4.9610    -0.0030     0.5160 C.3   1 <1>  -0.1600 
 13 C       -3.8250     1.7890    -0.8450 C.3   1 <1>  -0.2400 
 14 C       -5.2780    -2.3000    -0.4390 C.3   1 <1>  -0.1600 
 15 C       -4.4660    -2.8260    -2.7680 C.3   1 <1>  -0.2400 
 16 C       -6.1090    -1.7810     1.8840 C.3   1 <1>  -0.2400 
 17 H       -0.0530    -3.6880     1.7180 H     1 <1>   0.3700 
 18 H       -1.6680    -4.1270     1.2460 H     1 <1>   0.3700 
 19 H       -1.7200     0.0500    -0.6500 H     1 <1>   0.0800 
 20 H       -2.2850     0.4090     0.9490 H     1 <1>   0.0800 
 21 H       -2.8280    -3.5070    -0.6960 H     1 <1>   0.0800 
 22 H       -2.0380    -2.2690    -1.6190 H     1 <1>   0.0800 
 23 H       -3.6660    -2.9750     1.6750 H     1 <1>   0.0800 
 24 H       -3.4310    -1.3830     2.3240 H     1 <1>   0.0800 
 25 H       -5.0870    -0.2180    -2.2160 H     1 <1>   0.0800 
 26 H       -3.3830    -0.3220    -2.5310 H     1 <1>   0.0800 
 27 H       -5.9150     0.3080     0.1260 H     1 <1>   0.0800 
 28 H       -4.7750     0.5640     1.4120 H     1 <1>   0.0800 
 29 H       -3.0550     2.0000    -1.5660 H     1 <1>   0.0800 
 30 H       -3.6240     2.3610     0.0430 H     1 <1>   0.0800 
 31 H       -4.7690     2.1080    -1.2500 H     1 <1>   0.0800 
 32 H       -5.3190    -3.3520    -0.2180 H     1 <1>   0.0800 
 33 H       -6.2350    -2.0150    -0.8410 H     1 <1>   0.0800 
 34 H       -3.7020    -2.6440    -3.5030 H     1 <1>   0.0800 
 35 H       -5.4140    -2.5370    -3.1840 H     1 <1>   0.0800 
 36 H       -4.4940    -3.8810    -2.5600 H     1 <1>   0.0800 
 37 H       -5.9250    -1.2300     2.7890 H     1 <1>   0.0800 
 38 H       -6.1490    -2.8290     2.1240 H     1 <1>   0.0800 
 39 H       -7.0680    -1.4850     1.4950 H     1 <1>   0.0800 
@<TRIPOS>BOND
  1   1   2  2   
  2   2   3  am  
  3   2   4  1   
  4   3  17  1   
  5   3  18  1   
  6   4   5  1   
  7   4   6  1   
  8   4   7  1   
  9   5   8  1   
 10   5  19  1   
 11   5  20  1   
 12   6   9  1   
 13   6  21  1   
 14   6  22  1   
 15   7  10  1   
 16   7  23  1   
 17   7  24  1   
 18   8  11  1   
 19   8  12  1   
 20   8  13  1   
 21   9  11  1   
 22   9  14  1   
 23   9  15  1   
 24  10  12  1   
 25  10  14  1   
 26  10  16  1   
 27  11  25  1   
 28  11  26  1   
 29  12  27  1   
 30  12  28  1   
 31  13  29  1   
 32  13  30  1   
 33  13  31  1   
 34  14  32  1   
 35  14  33  1   
 36  15  34  1   
 37  15  35  1   
 38  15  36  1   
 39  16  37  1   
 40  16  38  1   
 41  16  39  1   
@<TRIPOS>SUBSTRUCTURE
  1 ****   4 GROUP 4 **** **** 0

# MOE 2024.06 (io_trps.svl 2023.06)
