@<TRIPOS>MOLECULE
NONAME
48 50 1 0 0 
SMALL
USER_CHARGES


@<TRIPOS>ATOM
  1 O       -1.2350    -3.2240    -2.0690 O.3   1 <1>  -0.6800 
  2 C       -1.3820    -3.6630    -0.7770 C.3   1 <1>   0.5670 
  3 C       -1.2840    -5.1860    -0.7490 C.ar  1 <1>  -0.1440 
  4 C       -2.8200    -3.4450    -0.3300 C.ar  1 <1>  -0.1440 
  5 C       -0.3920    -2.9200     0.1390 C.3   1 <1>  -0.1600 
  6 C       -2.4590    -5.7160    -0.2430 C.ar  1 <1>   0.0000 
  7 C       -0.2540    -6.0170    -1.1580 C.ar  1 <1>  -0.1500 
  8 C       -3.3950    -4.6580     0.0070 C.ar  1 <1>   0.0000 
  9 C       -3.5350    -2.2640    -0.2270 C.ar  1 <1>  -0.1500 
 10 C        1.0970    -3.0660    -0.2340 C.3   1 <1>  -0.1600 
 11 C       -2.5910    -7.0890    -0.0880 C.ar  1 <1>  -0.1500 
 12 C       -0.3910    -7.3890    -1.0090 C.ar  1 <1>  -0.1500 
 13 C       -4.7010    -4.6940     0.4770 C.ar  1 <1>  -0.1500 
 14 C       -4.8400    -2.3050     0.2380 C.ar  1 <1>  -0.1500 
 15 C        1.9590    -2.1260     0.6080 C.3   1 <1>   0.3430 
 16 C       -1.5520    -7.9210    -0.4690 C.ar  1 <1>  -0.1500 
 17 C       -5.4190    -3.5150     0.5910 C.ar  1 <1>  -0.1500 
 18 N        3.3830    -2.2060     0.1680 N.4   1 <1>  -0.9590 
 19 C        4.0350    -3.4470     0.6710 C.3   1 <1>   0.3430 
 20 C        4.1430    -0.9920     0.5730 C.3   1 <1>   0.3430 
 21 C        5.2470    -3.7700    -0.1950 C.3   1 <1>  -0.2400 
 22 C        3.7840     0.1650    -0.3520 C.3   1 <1>  -0.2400 
 23 H       -1.9310    -3.6620    -2.5950 H     1 <1>   0.4000 
 24 H       -0.5440    -3.2770     1.1420 H     1 <1>   0.0800 
 25 H       -0.6640    -1.8800     0.1270 H     1 <1>   0.0800 
 26 H        0.6390    -5.6130    -1.5970 H     1 <1>   0.1500 
 27 H       -3.0870    -1.3260    -0.5050 H     1 <1>   0.1500 
 28 H        1.2230    -2.8250    -1.2750 H     1 <1>   0.0800 
 29 H        1.3960    -4.0840    -0.0690 H     1 <1>   0.0800 
 30 H       -3.4980    -7.4990     0.3170 H     1 <1>   0.1500 
 31 H        0.4030    -8.0470    -1.3180 H     1 <1>   0.1500 
 32 H       -5.1500    -5.6340     0.7430 H     1 <1>   0.1500 
 33 H       -5.4070    -1.3940     0.3250 H     1 <1>   0.1500 
 34 H        1.8760    -2.3780     1.6530 H     1 <1>   0.0800 
 35 H        1.5920    -1.1210     0.4760 H     1 <1>   0.0800 
 36 H       -1.6490    -8.9870    -0.3520 H     1 <1>   0.1500 
 37 H       -6.4320    -3.5370     0.9540 H     1 <1>   0.1500 
 38 H        3.3870    -2.2450    -0.8600 H     1 <1>   0.4500 
 39 H        3.3460    -4.2740     0.6180 H     1 <1>   0.0800 
 40 H        4.3320    -3.3230     1.7000 H     1 <1>   0.0800 
 41 H        5.2020    -1.1770     0.4940 H     1 <1>   0.0800 
 42 H        3.9230    -0.7350     1.5970 H     1 <1>   0.0800 
 43 H        4.9580    -3.8970    -1.2240 H     1 <1>   0.0800 
 44 H        5.6810    -4.6960     0.1410 H     1 <1>   0.0800 
 45 H        6.0030    -3.0110    -0.1210 H     1 <1>   0.0800 
 46 H        4.0020    -0.0820    -1.3760 H     1 <1>   0.0800 
 47 H        4.3780     1.0230    -0.0880 H     1 <1>   0.0800 
 48 H        2.7500     0.4450    -0.2590 H     1 <1>   0.0800 
@<TRIPOS>BOND
  1   1   2  1   
  2   1  23  1   
  3   2   3  1   
  4   2   4  1   
  5   2   5  1   
  6   3   6  ar  
  7   3   7  ar  
  8   4   8  ar  
  9   4   9  ar  
 10   5  10  1   
 11   5  24  1   
 12   5  25  1   
 13   6   8  1   
 14   6  11  ar  
 15   7  12  ar  
 16   7  26  1   
 17   8  13  ar  
 18   9  14  ar  
 19   9  27  1   
 20  10  15  1   
 21  10  28  1   
 22  10  29  1   
 23  11  16  ar  
 24  11  30  1   
 25  12  16  ar  
 26  12  31  1   
 27  13  17  ar  
 28  13  32  1   
 29  14  17  ar  
 30  14  33  1   
 31  15  18  1   
 32  15  34  1   
 33  15  35  1   
 34  16  36  1   
 35  17  37  1   
 36  18  19  1   
 37  18  20  1   
 38  18  38  1   
 39  19  21  1   
 40  19  39  1   
 41  19  40  1   
 42  20  22  1   
 43  20  41  1   
 44  20  42  1   
 45  21  43  1   
 46  21  44  1   
 47  21  45  1   
 48  22  46  1   
 49  22  47  1   
 50  22  48  1   
@<TRIPOS>SUBSTRUCTURE
  1 ****   2 GROUP 4 **** **** 0

# MOE 2024.06 (io_trps.svl 2023.06)
