@<TRIPOS>MOLECULE
NONAME
57 59 1 0 0 
SMALL
USER_CHARGES


@<TRIPOS>ATOM
  1 O       -1.5140     1.4260    -1.2550 O.3   1 <1>  -0.3630 
  2 C       -0.9530     2.0830    -0.2090 C.ar  1 <1>   0.0830 
  3 C       -1.0230     0.1240    -1.5140 C.3   1 <1>   0.0400 
  4 C       -1.7020     2.2140     0.9560 C.ar  1 <1>  -0.1440 
  5 C        0.3240     2.6340    -0.3010 C.ar  1 <1>  -0.1440 
  6 C       -1.1470     2.8370     2.0610 C.ar  1 <1>  -0.1500 
  7 C       -3.1270     1.7000     1.0110 C.3   1 <1>   0.4870 
  8 C        0.8760     3.2500     0.8200 C.ar  1 <1>   0.0820 
  9 C        1.1270     2.5980    -1.6020 C.3   1 <1>  -0.0970 
 10 C        0.1370     3.3440     1.9970 C.ar  1 <1>  -0.1500 
 11 N       -3.9010     2.3770    -0.0590 N.4   1 <1>  -0.9590 
 12 O        2.1380     3.7430     0.7150 O.3   1 <1>  -0.3630 
 13 C       -3.9690     3.8710     0.1370 C.3   1 <1>   0.3430 
 14 C       -5.2630     1.7770    -0.2750 C.3   1 <1>   0.3430 
 15 C        2.8260     4.2970     1.8150 C.3   1 <1>   0.0400 
 16 C       -4.7180     4.5850    -1.0080 C.3   1 <1>   0.2090 
 17 C       -6.0280     2.4510    -1.4330 C.3   1 <1>   0.2090 
 18 N       -6.0310     3.9370    -1.3030 N.pl3 1 <1>  -0.8380 
 19 C       -7.1840     4.5380    -0.7990 C.ar  1 <1>   0.1000 
 20 C       -8.0800     5.1830    -1.6500 C.ar  1 <1>  -0.1430 
 21 C       -7.4570     4.4990     0.5650 C.ar  1 <1>  -0.1500 
 22 C       -9.2210     5.7700    -1.1280 C.ar  1 <1>  -0.1500 
 23 C       -7.8200     5.2530    -3.1480 C.3   1 <1>  -0.0970 
 24 C       -8.5970     5.0850     1.0860 C.ar  1 <1>  -0.1430 
 25 C       -9.4790     5.7220     0.2300 C.ar  1 <1>  -0.1500 
 26 C       -8.8970     5.0440     2.5730 C.3   1 <1>  -0.0970 
 27 H        0.0250     0.1710    -1.7470 H     1 <1>   0.0800 
 28 H       -1.5610    -0.2830    -2.3520 H     1 <1>   0.0800 
 29 H       -1.1750    -0.4900    -0.6430 H     1 <1>   0.0800 
 30 H       -1.6990     2.9370     2.9800 H     1 <1>   0.1500 
 31 H       -3.5620     1.9020     1.9750 H     1 <1>   0.0800 
 32 H       -3.1220     0.6350     0.8460 H     1 <1>   0.0800 
 33 H        0.4970     2.4200    -2.4540 H     1 <1>   0.0800 
 34 H        1.8740     1.8260    -1.5480 H     1 <1>   0.0800 
 35 H        1.6230     3.5390    -1.7610 H     1 <1>   0.0800 
 36 H        0.5470     3.8140     2.8720 H     1 <1>   0.1500 
 37 H       -3.3320     2.2230    -0.9100 H     1 <1>   0.4500 
 38 H       -2.9740     4.2790     0.2050 H     1 <1>   0.0800 
 39 H       -4.4790     4.0910     1.0590 H     1 <1>   0.0800 
 40 H       -5.8510     1.8870     0.6200 H     1 <1>   0.0800 
 41 H       -5.1720     0.7240    -0.4850 H     1 <1>   0.0800 
 42 H        3.8120     4.5750     1.4860 H     1 <1>   0.0800 
 43 H        2.8970     3.5570     2.5920 H     1 <1>   0.0800 
 44 H        2.2980     5.1690     2.1560 H     1 <1>   0.0800 
 45 H       -4.1140     4.5730    -1.8970 H     1 <1>   0.0800 
 46 H       -4.8810     5.6150    -0.7400 H     1 <1>   0.0800 
 47 H       -7.0440     2.0930    -1.4470 H     1 <1>   0.0800 
 48 H       -5.5770     2.1840    -2.3730 H     1 <1>   0.0800 
 49 H       -6.7730     4.0060     1.2230 H     1 <1>   0.1500 
 50 H       -9.9190     6.2700    -1.7760 H     1 <1>   0.1500 
 51 H       -7.7830     4.2600    -3.5570 H     1 <1>   0.0800 
 52 H       -6.8780     5.7370    -3.3310 H     1 <1>   0.0800 
 53 H       -8.5920     5.8040    -3.6530 H     1 <1>   0.0800 
 54 H      -10.3710     6.1840     0.6170 H     1 <1>   0.1500 
 55 H       -8.1560     4.4750     3.1040 H     1 <1>   0.0800 
 56 H       -9.8590     4.5930     2.7400 H     1 <1>   0.0800 
 57 H       -8.9110     6.0440     2.9700 H     1 <1>   0.0800 
@<TRIPOS>BOND
  1   1   2  1   
  2   1   3  1   
  3   2   4  ar  
  4   2   5  ar  
  5   3  27  1   
  6   3  28  1   
  7   3  29  1   
  8   4   6  ar  
  9   4   7  1   
 10   5   8  ar  
 11   5   9  1   
 12   6  10  ar  
 13   6  30  1   
 14   7  11  1   
 15   7  31  1   
 16   7  32  1   
 17   8  10  ar  
 18   8  12  1   
 19   9  33  1   
 20   9  34  1   
 21   9  35  1   
 22  10  36  1   
 23  11  13  1   
 24  11  14  1   
 25  11  37  1   
 26  12  15  1   
 27  13  16  1   
 28  13  38  1   
 29  13  39  1   
 30  14  17  1   
 31  14  40  1   
 32  14  41  1   
 33  15  42  1   
 34  15  43  1   
 35  15  44  1   
 36  16  18  1   
 37  16  45  1   
 38  16  46  1   
 39  17  18  1   
 40  17  47  1   
 41  17  48  1   
 42  18  19  1   
 43  19  20  ar  
 44  19  21  ar  
 45  20  22  ar  
 46  20  23  1   
 47  21  24  ar  
 48  21  49  1   
 49  22  25  ar  
 50  22  50  1   
 51  23  51  1   
 52  23  52  1   
 53  23  53  1   
 54  24  25  ar  
 55  24  26  1   
 56  25  54  1   
 57  26  55  1   
 58  26  56  1   
 59  26  57  1   
@<TRIPOS>SUBSTRUCTURE
  1 ****  13 GROUP 4 **** **** 0

# MOE 2024.06 (io_trps.svl 2023.06)
