@<TRIPOS>MOLECULE
NONAME
68 70 1 0 0 
SMALL
USER_CHARGES


@<TRIPOS>ATOM
  1 O        3.8870    -1.4460     1.5790 O.3   1 <1>  -0.3630 
  2 C        3.1900    -2.0610     0.5920 C.ar  1 <1>   0.0820 
  3 C        3.1920    -0.9820     2.7200 C.3   1 <1>   0.0400 
  4 C        3.5160    -1.7770    -0.7330 C.ar  1 <1>  -0.1440 
  5 C        2.1810    -2.9720     0.8840 C.ar  1 <1>  -0.1500 
  6 C        2.8220    -2.4220    -1.7470 C.ar  1 <1>  -0.1500 
  7 C        4.6050    -0.7820    -1.1170 C.3   1 <1>   0.5660 
  8 C        1.4930    -3.6030    -0.1360 C.ar  1 <1>  -0.1500 
  9 C        1.8150    -3.3280    -1.4610 C.ar  1 <1>   0.0820 
 10 N        5.8060    -1.1940    -0.3980 N.4   1 <1>  -0.9060 
 11 C        4.2340     0.7260    -0.9910 C.3   1 <1>  -0.0800 
 12 O        1.1990    -3.9000    -2.5260 O.3   1 <1>  -0.3620 
 13 C        6.7970    -0.1610    -0.1500 C.3   1 <1>   0.5660 
 14 C        4.9860     1.5850     0.0970 C.3   1 <1>   0.2800 
 15 C        2.6920     0.9400    -1.0460 C.3   1 <1>  -0.2400 
 16 C        0.1410    -4.8170    -2.3530 C.3   1 <1>   0.0400 
 17 C        8.0190    -0.8720     0.4030 C.ar  1 <1>  -0.1440 
 18 C        6.1690     0.8560     0.8060 C.3   1 <1>  -0.0800 
 19 O        4.0950     1.8810     1.1070 O.3   1 <1>  -0.6800 
 20 C        5.4130     2.9640    -0.4890 C.3   1 <1>  -0.0220 
 21 C        9.2210    -0.7690    -0.2860 C.ar  1 <1>   0.0820 
 22 C        7.9600    -1.6230     1.5700 C.ar  1 <1>  -0.1500 
 23 C        7.2240     1.7760     1.4710 C.3   1 <1>  -0.2400 
 24 C        4.2910     3.7820    -1.1170 C.2   1 <1>  -0.2880 
 25 O        9.2210    -0.0230    -1.4240 O.3   1 <1>  -0.3620 
 26 C       10.3530    -1.4200     0.1990 C.ar  1 <1>  -0.1500 
 27 C        9.0820    -2.2720     2.0520 C.ar  1 <1>   0.0820 
 28 C        3.7240     4.8490    -0.5490 C.2   1 <1>  -0.3000 
 29 C       10.4200     0.2380    -2.1240 C.3   1 <1>   0.0400 
 30 C       10.2850    -2.1670     1.3610 C.ar  1 <1>  -0.1500 
 31 O        8.9220    -2.9830     3.1960 O.3   1 <1>  -0.3620 
 32 C       10.0120    -3.6370     3.8080 C.3   1 <1>   0.0400 
 33 H        3.8300    -0.2970     3.2500 H     1 <1>   0.0800 
 34 H        2.9500    -1.8160     3.3540 H     1 <1>   0.0800 
 35 H        2.2990    -0.4700     2.4050 H     1 <1>   0.0800 
 36 H        1.9290    -3.2050     1.9030 H     1 <1>   0.1500 
 37 H        3.0410    -2.2340    -2.7840 H     1 <1>   0.1500 
 38 H        4.7950    -0.9420    -2.1660 H     1 <1>   0.0800 
 39 H        0.7180    -4.3020     0.1160 H     1 <1>   0.1500 
 40 H        6.2450    -2.0090    -0.8310 H     1 <1>   0.4500 
 41 H        5.4540    -1.5060     0.5190 H     1 <1>   0.4500 
 42 H        4.5830     1.1110    -1.9320 H     1 <1>   0.0800 
 43 H        7.0570     0.3300    -1.0730 H     1 <1>   0.0800 
 44 H        2.2170     0.5400    -0.1660 H     1 <1>   0.0800 
 45 H        2.2690     0.4510    -1.9060 H     1 <1>   0.0800 
 46 H        2.4300     1.9780    -1.1100 H     1 <1>   0.0800 
 47 H       -0.1950    -5.1270    -3.3260 H     1 <1>   0.0800 
 48 H       -0.6630    -4.3310    -1.8280 H     1 <1>   0.0800 
 49 H        0.5010    -5.6690    -1.8040 H     1 <1>   0.0800 
 50 H        5.7570     0.2900     1.6210 H     1 <1>   0.0800 
 51 H        3.4920     2.5870     0.7930 H     1 <1>   0.4000 
 52 H        6.1850     2.8240    -1.2240 H     1 <1>   0.0800 
 53 H        5.8350     3.5730     0.2900 H     1 <1>   0.0800 
 54 H        7.0500    -1.7200     2.1370 H     1 <1>   0.1500 
 55 H        7.8130     2.3030     0.7400 H     1 <1>   0.0800 
 56 H        7.8970     1.2050     2.0880 H     1 <1>   0.0800 
 57 H        6.7410     2.4900     2.1160 H     1 <1>   0.0800 
 58 H        3.9880     3.4280    -2.0890 H     1 <1>   0.1500 
 59 H       11.2970    -1.3600    -0.3110 H     1 <1>   0.1500 
 60 H        2.9350     5.4250    -1.0050 H     1 <1>   0.1500 
 61 H        3.9960     5.2470     0.4150 H     1 <1>   0.1500 
 62 H       10.1930     0.8820    -2.9550 H     1 <1>   0.0800 
 63 H       10.8270    -0.6900    -2.4860 H     1 <1>   0.0800 
 64 H       11.1140     0.7300    -1.4640 H     1 <1>   0.0800 
 65 H       11.1730    -2.6590     1.7120 H     1 <1>   0.1500 
 66 H       10.7640    -2.9090     4.0560 H     1 <1>   0.0800 
 67 H       10.4010    -4.3780     3.1320 H     1 <1>   0.0800 
 68 H        9.6560    -4.1130     4.7040 H     1 <1>   0.0800 
@<TRIPOS>BOND
  1   1   2  1   
  2   1   3  1   
  3   2   4  ar  
  4   2   5  ar  
  5   3  33  1   
  6   3  34  1   
  7   3  35  1   
  8   4   6  ar  
  9   4   7  1   
 10   5   8  ar  
 11   5  36  1   
 12   6   9  ar  
 13   6  37  1   
 14   7  10  1   
 15   7  11  1   
 16   7  38  1   
 17   8   9  ar  
 18   8  39  1   
 19   9  12  1   
 20  10  13  1   
 21  10  40  1   
 22  10  41  1   
 23  11  14  1   
 24  11  15  1   
 25  11  42  1   
 26  12  16  1   
 27  13  17  1   
 28  13  18  1   
 29  13  43  1   
 30  14  18  1   
 31  14  19  1   
 32  14  20  1   
 33  15  44  1   
 34  15  45  1   
 35  15  46  1   
 36  16  47  1   
 37  16  48  1   
 38  16  49  1   
 39  17  21  ar  
 40  17  22  ar  
 41  18  23  1   
 42  18  50  1   
 43  19  51  1   
 44  20  24  1   
 45  20  52  1   
 46  20  53  1   
 47  21  25  1   
 48  21  26  ar  
 49  22  27  ar  
 50  22  54  1   
 51  23  55  1   
 52  23  56  1   
 53  23  57  1   
 54  24  28  2   
 55  24  58  1   
 56  25  29  1   
 57  26  30  ar  
 58  26  59  1   
 59  27  30  ar  
 60  27  31  1   
 61  28  60  1   
 62  28  61  1   
 63  29  62  1   
 64  29  63  1   
 65  29  64  1   
 66  30  65  1   
 67  31  32  1   
 68  32  66  1   
 69  32  67  1   
 70  32  68  1   
@<TRIPOS>SUBSTRUCTURE
  1 ****  10 GROUP 4 **** **** 0

# MOE 2024.06 (io_trps.svl 2023.06)
