@<TRIPOS>MOLECULE
NONAME
43 45 1 0 0 
SMALL
USER_CHARGES


@<TRIPOS>ATOM
  1 S        0.7580    -0.3240    -0.2310 S.o2  1 <1>   1.3330 
  2 O        0.2970    -1.0680     0.9180 O.2   1 <1>  -0.6500 
  3 O        1.0600    -1.0110    -1.4640 O.2   1 <1>  -0.6500 
  4 N        2.2070     0.4240     0.2440 N.am  1 <1>  -0.8490 
  5 C       -0.3670     1.0480    -0.5310 C.3   1 <1>  -0.0550 
  6 C        3.0200    -0.5090     1.0610 C.3   1 <1>   0.1960 
  7 C        3.0060     0.9030    -0.9090 C.3   1 <1>   0.1960 
  8 C       -1.7790     0.6230    -0.9700 C.3   1 <1>  -0.2400 
  9 C        4.4230     0.0430     1.4200 C.3   1 <1>   0.3430 
 10 C        4.2910     1.6430    -0.4650 C.3   1 <1>   0.3430 
 11 N        4.5690     1.4830     1.0160 N.4   1 <1>  -0.9590 
 12 C        5.8420     2.1260     1.5030 C.3   1 <1>   0.4230 
 13 C        5.7960     3.6480     1.2580 C.3   1 <1>  -0.0170 
 14 C        7.0740     1.6390     0.7060 C.3   1 <1>  -0.0170 
 15 C        6.4770     3.7980    -0.0800 C.ar  1 <1>  -0.1440 
 16 C        7.1960     2.6700    -0.3900 C.ar  1 <1>  -0.1440 
 17 C        6.4320     4.8720    -0.9490 C.ar  1 <1>  -0.1500 
 18 C        7.8940     2.5790    -1.5800 C.ar  1 <1>  -0.1500 
 19 C        7.1260     4.7890    -2.1460 C.ar  1 <1>  -0.1500 
 20 C        7.8530     3.6490    -2.4600 C.ar  1 <1>  -0.1500 
 21 H        0.0440     1.6830    -1.2910 H     1 <1>   0.0800 
 22 H       -0.4520     1.6280     0.3680 H     1 <1>   0.0800 
 23 H        3.1350    -1.4480     0.5420 H     1 <1>   0.0800 
 24 H        2.4970    -0.7220     1.9800 H     1 <1>   0.0800 
 25 H        2.4160     1.5660    -1.5190 H     1 <1>   0.0800 
 26 H        3.2890     0.0690    -1.5310 H     1 <1>   0.0800 
 27 H       -1.7300     0.0580    -1.8860 H     1 <1>   0.0800 
 28 H       -2.3980     1.4880    -1.1290 H     1 <1>   0.0800 
 29 H       -2.2330     0.0070    -0.2120 H     1 <1>   0.0800 
 30 H        5.1670    -0.5540     0.9200 H     1 <1>   0.0800 
 31 H        4.5770    -0.0650     2.4810 H     1 <1>   0.0800 
 32 H        4.1880     2.6890    -0.7020 H     1 <1>   0.0800 
 33 H        5.1210     1.2710    -1.0440 H     1 <1>   0.0800 
 34 H        3.7720     1.9520     1.4700 H     1 <1>   0.4500 
 35 H        5.9680     1.9230     2.5540 H     1 <1>   0.0800 
 36 H        6.3860     4.1560     2.0010 H     1 <1>   0.0800 
 37 H        4.7970     4.0460     1.2630 H     1 <1>   0.0800 
 38 H        6.9700     0.6410     0.3220 H     1 <1>   0.0800 
 39 H        7.9530     1.6940     1.3240 H     1 <1>   0.0800 
 40 H        5.8750     5.7610    -0.7070 H     1 <1>   0.1500 
 41 H        8.4660     1.7000    -1.8240 H     1 <1>   0.1500 
 42 H        7.1060     5.6160    -2.8360 H     1 <1>   0.1500 
 43 H        8.3920     3.5990    -3.3910 H     1 <1>   0.1500 
@<TRIPOS>BOND
  1   1   2  2   
  2   1   3  2   
  3   1   4  am  
  4   1   5  1   
  5   4   6  1   
  6   4   7  1   
  7   5   8  1   
  8   5  21  1   
  9   5  22  1   
 10   6   9  1   
 11   6  23  1   
 12   6  24  1   
 13   7  10  1   
 14   7  25  1   
 15   7  26  1   
 16   8  27  1   
 17   8  28  1   
 18   8  29  1   
 19   9  11  1   
 20   9  30  1   
 21   9  31  1   
 22  10  11  1   
 23  10  32  1   
 24  10  33  1   
 25  11  12  1   
 26  11  34  1   
 27  12  13  1   
 28  12  14  1   
 29  12  35  1   
 30  13  15  1   
 31  13  36  1   
 32  13  37  1   
 33  14  16  1   
 34  14  38  1   
 35  14  39  1   
 36  15  16  ar  
 37  15  17  ar  
 38  16  18  ar  
 39  17  19  ar  
 40  17  40  1   
 41  18  20  ar  
 42  18  41  1   
 43  19  20  ar  
 44  19  42  1   
 45  20  43  1   
@<TRIPOS>SUBSTRUCTURE
  1 ****  10 GROUP 4 **** **** 0

# MOE 2024.06 (io_trps.svl 2023.06)
