@<TRIPOS>MOLECULE
NONAME
35 35 1 0 0 
SMALL
USER_CHARGES


@<TRIPOS>ATOM
  1 O       -0.1550     0.3260    -1.0070 O.2   1 <1>  -0.5700 
  2 C       -0.1960     1.3560    -0.3600 C.2   1 <1>   0.7800 
  3 O       -1.3710     1.8560     0.0520 O.3   1 <1>  -0.2330 
  4 N        0.9460     2.0560    -0.0320 N.am  1 <1>  -0.6600 
  5 C       -2.6020     1.2910    -0.0810 C.ar  1 <1>   0.0830 
  6 C        0.9450     3.3090     0.7740 C.3   1 <1>   0.0600 
  7 C        2.2950     1.6130    -0.4830 C.3   1 <1>   0.0600 
  8 C       -2.8210    -0.0770     0.0100 C.ar  1 <1>  -0.1500 
  9 C       -3.6730     2.1450    -0.2920 C.ar  1 <1>  -0.1500 
 10 C       -4.0980    -0.6080    -0.1270 C.ar  1 <1>   0.1170 
 11 C       -4.9500     1.6320    -0.4250 C.ar  1 <1>  -0.1500 
 12 N       -4.2480    -2.0000    -0.0590 N.am  1 <1>  -0.5470 
 13 C       -5.1590     0.2670    -0.3460 C.ar  1 <1>  -0.1500 
 14 C       -5.3230    -2.8070     0.1920 C.2   1 <1>   0.6900 
 15 O       -6.4190    -2.3390     0.4370 O.2   1 <1>  -0.5700 
 16 N       -5.1410    -4.1720     0.1630 N.am  1 <1>  -0.6600 
 17 C       -3.8100    -4.8380     0.1020 C.3   1 <1>   0.0600 
 18 C       -6.3000    -5.1050     0.2440 C.3   1 <1>   0.0600 
 19 H       -0.0400     3.5400     1.1400 H     1 <1>   0.0800 
 20 H        1.2870     4.1290     0.1670 H     1 <1>   0.0800 
 21 H        1.6030     3.1970     1.6180 H     1 <1>   0.0800 
 22 H        2.2290     0.7180    -1.0780 H     1 <1>   0.0800 
 23 H        2.9160     1.4100     0.3720 H     1 <1>   0.0800 
 24 H        2.7510     2.3850    -1.0770 H     1 <1>   0.0800 
 25 H       -1.9990    -0.7400     0.1940 H     1 <1>   0.1500 
 26 H       -3.5050     3.2050    -0.3530 H     1 <1>   0.1500 
 27 H       -5.7840     2.2920    -0.5910 H     1 <1>   0.1500 
 28 H       -3.4010    -2.5270    -0.2280 H     1 <1>   0.3700 
 29 H       -6.1560    -0.1170    -0.4610 H     1 <1>   0.1500 
 30 H       -3.0750    -4.2610     0.6360 H     1 <1>   0.0800 
 31 H       -3.5070    -4.9470    -0.9250 H     1 <1>   0.0800 
 32 H       -3.8640    -5.8120     0.5560 H     1 <1>   0.0800 
 33 H       -7.2270    -4.5790     0.0940 H     1 <1>   0.0800 
 34 H       -6.3220    -5.5710     1.2140 H     1 <1>   0.0800 
 35 H       -6.2130    -5.8630    -0.5150 H     1 <1>   0.0800 
@<TRIPOS>BOND
  1   1   2  2   
  2   2   3  1   
  3   2   4  am  
  4   3   5  1   
  5   4   6  1   
  6   4   7  1   
  7   5   8  ar  
  8   5   9  ar  
  9   6  19  1   
 10   6  20  1   
 11   6  21  1   
 12   7  22  1   
 13   7  23  1   
 14   7  24  1   
 15   8  10  ar  
 16   8  25  1   
 17   9  11  ar  
 18   9  26  1   
 19  10  12  1   
 20  10  13  ar  
 21  11  13  ar  
 22  11  27  1   
 23  12  14  am  
 24  12  28  1   
 25  13  29  1   
 26  14  15  2   
 27  14  16  am  
 28  16  17  1   
 29  16  18  1   
 30  17  30  1   
 31  17  31  1   
 32  17  32  1   
 33  18  33  1   
 34  18  34  1   
 35  18  35  1   
@<TRIPOS>SUBSTRUCTURE
  1 ****   8 GROUP 4 **** **** 0

# MOE 2024.06 (io_trps.svl 2023.06)
