@<TRIPOS>MOLECULE
NONAME
36 39 1 0 0 
SMALL
USER_CHARGES


@<TRIPOS>ATOM
  1 BR      -0.2260     0.4090     0.8220 Br    1 <1>  -0.1110 
  2 C       -1.7880    -0.5870     0.3010 C.ar  1 <1>   0.1110 
  3 C       -3.0050     0.0610     0.2590 C.ar  1 <1>  -0.1500 
  4 C       -1.6450    -1.9240    -0.0160 C.ar  1 <1>  -0.1500 
  5 C       -4.1440    -0.6470    -0.1140 C.ar  1 <1>   0.1170 
  6 C       -2.7740    -2.6330    -0.3890 C.ar  1 <1>  -0.1500 
  7 N       -5.4070    -0.0130    -0.1650 N.am  1 <1>  -0.2370 
  8 C       -4.0060    -1.9980    -0.4360 C.ar  1 <1>  -0.1500 
  9 C       -6.6230    -0.5920     0.1700 C.2   1 <1>   0.5690 
 10 C       -5.6450     1.3010    -0.5440 C.2   1 <1>   0.5690 
 11 O       -6.8430    -1.6290     0.7430 O.2   1 <1>  -0.5700 
 12 C       -7.6980     0.3010    -0.3580 C.3   1 <1>  -0.0190 
 13 O       -4.9060     2.0660    -1.1060 O.2   1 <1>  -0.5700 
 14 C       -7.0290     1.6410    -0.0890 C.3   1 <1>  -0.0190 
 15 C       -9.1630     0.6500    -0.0410 C.3   1 <1>   0.4180 
 16 C       -8.2200     2.5780    -0.2640 C.3   1 <1>   0.4180 
 17 O       -9.0450     1.8800     0.6130 O.3   1 <1>  -0.5600 
 18 C       -9.6860     1.2060    -1.3510 C.2   1 <1>  -0.2880 
 19 C      -10.0120    -0.3850     0.7220 C.3   1 <1>   0.1200 
 20 C       -9.0530     2.3670    -1.5170 C.2   1 <1>  -0.2880 
 21 C       -8.0700     4.0190     0.2020 C.3   1 <1>  -0.2400 
 22 O       -9.3630    -0.8640     1.8640 O.3   1 <1>  -0.6800 
 23 H       -3.0560     1.1040     0.5130 H     1 <1>   0.1500 
 24 H       -0.6790    -2.3940     0.0280 H     1 <1>   0.1500 
 25 H       -2.6950    -3.6770    -0.6400 H     1 <1>   0.1500 
 26 H       -4.8700    -2.5700    -0.7250 H     1 <1>   0.1500 
 27 H       -7.6710     0.0730    -1.4120 H     1 <1>   0.0800 
 28 H       -6.8430     1.7390     0.9720 H     1 <1>   0.0800 
 29 H      -10.3900     0.6660    -1.9590 H     1 <1>   0.1500 
 30 H      -10.2210    -1.2290     0.0890 H     1 <1>   0.0800 
 31 H      -10.9420     0.0620     1.0260 H     1 <1>   0.0800 
 32 H       -9.0620     3.0960    -2.3090 H     1 <1>   0.1500 
 33 H       -7.6660     4.0530     1.1980 H     1 <1>   0.0800 
 34 H       -9.0280     4.5070     0.1910 H     1 <1>   0.0800 
 35 H       -7.4060     4.5450    -0.4590 H     1 <1>   0.0800 
 36 H       -8.5410    -1.3600     1.6350 H     1 <1>   0.4000 
@<TRIPOS>BOND
  1   1   2  1   
  2   2   3  ar  
  3   2   4  ar  
  4   3   5  ar  
  5   3  23  1   
  6   4   6  ar  
  7   4  24  1   
  8   5   7  1   
  9   5   8  ar  
 10   6   8  ar  
 11   6  25  1   
 12   7   9  am  
 13   7  10  am  
 14   8  26  1   
 15   9  11  2   
 16   9  12  1   
 17  10  13  2   
 18  10  14  1   
 19  12  14  1   
 20  12  15  1   
 21  12  27  1   
 22  14  16  1   
 23  14  28  1   
 24  15  17  1   
 25  15  18  1   
 26  15  19  1   
 27  16  17  1   
 28  16  20  1   
 29  16  21  1   
 30  18  20  2   
 31  18  29  1   
 32  19  22  1   
 33  19  30  1   
 34  19  31  1   
 35  20  32  1   
 36  21  33  1   
 37  21  34  1   
 38  21  35  1   
 39  22  36  1   
@<TRIPOS>SUBSTRUCTURE
  1 ****   7 GROUP 4 **** **** 0

# MOE 2024.06 (io_trps.svl 2023.06)
