@<TRIPOS>MOLECULE
NONAME
50 52 1 0 0 
SMALL
USER_CHARGES


@<TRIPOS>ATOM
  1 BR       0.0970    -1.3810    -3.2630 Br    1 <1>  -0.1110 
  2 C        1.1540    -1.7600    -1.6940 C.ar  1 <1>   0.1110 
  3 C        1.9090    -0.7590    -1.0980 C.ar  1 <1>   0.0820 
  4 C        1.1340    -3.0510    -1.2010 C.ar  1 <1>  -0.1500 
  5 O        1.9430     0.5000    -1.5830 O.3   1 <1>  -0.3630 
  6 C        2.6730    -1.0760     0.0130 C.ar  1 <1>  -0.1500 
  7 C        1.8920    -3.3580    -0.0780 C.ar  1 <1>  -0.1430 
  8 C        0.8970     1.3580    -1.1890 C.3   1 <1>   0.0400 
  9 C        2.6640    -2.3660     0.5200 C.ar  1 <1>  -0.1500 
 10 C        1.8730    -4.7710     0.4760 C.3   1 <1>   0.4870 
 11 N        1.0770    -4.7990     1.7420 N.4   1 <1>  -0.9590 
 12 C        1.1110    -6.1680     2.3820 C.3   1 <1>   0.3430 
 13 C       -0.3320    -4.2760     1.5220 C.3   1 <1>   0.3430 
 14 C        0.0670    -7.1790     1.8270 C.3   1 <1>   0.1960 
 15 C       -1.4340    -5.2370     2.0250 C.3   1 <1>   0.1960 
 16 N       -1.2520    -6.5950     1.4790 N.am  1 <1>  -0.8490 
 17 S       -1.6300    -6.6900    -0.1780 S.o2  1 <1>   1.4470 
 18 O       -0.4120    -6.2930    -0.8540 O.2   1 <1>  -0.6500 
 19 O       -2.8090    -5.8790    -0.3650 O.2   1 <1>  -0.6500 
 20 C       -1.9880    -8.4480    -0.4360 C.ar  1 <1>  -0.0090 
 21 C       -1.3360    -9.1790    -1.4220 C.ar  1 <1>  -0.1500 
 22 C       -2.9220    -9.1100     0.3530 C.ar  1 <1>  -0.1500 
 23 C       -1.5980   -10.5250    -1.6070 C.ar  1 <1>  -0.1500 
 24 C       -3.1870   -10.4560     0.1730 C.ar  1 <1>  -0.1500 
 25 C       -2.5230   -11.1720    -0.8070 C.ar  1 <1>  -0.1430 
 26 C       -2.8140   -12.6480    -1.0090 C.3   1 <1>  -0.0970 
 27 H        0.5360    -3.7950    -1.7020 H     1 <1>   0.1500 
 28 H        3.2760    -0.3080     0.4680 H     1 <1>   0.1500 
 29 H        1.0530     2.3140    -1.6550 H     1 <1>   0.0800 
 30 H        0.9150     1.4620    -0.1180 H     1 <1>   0.0800 
 31 H       -0.0420     0.9430    -1.5110 H     1 <1>   0.0800 
 32 H        3.2770    -2.5830     1.3790 H     1 <1>   0.1500 
 33 H        2.8860    -5.0840     0.6700 H     1 <1>   0.0800 
 34 H        1.4580    -5.4400    -0.2550 H     1 <1>   0.0800 
 35 H        1.5460    -4.1330     2.3680 H     1 <1>   0.4500 
 36 H        0.9070    -6.0550     3.4340 H     1 <1>   0.0800 
 37 H        2.0970    -6.5950     2.3010 H     1 <1>   0.0800 
 38 H       -0.4990    -4.1110     0.4700 H     1 <1>   0.0800 
 39 H       -0.4460    -3.3230     2.0120 H     1 <1>   0.0800 
 40 H       -0.0900    -7.9380     2.5740 H     1 <1>   0.0800 
 41 H        0.4930    -7.6850     0.9760 H     1 <1>   0.0800 
 42 H       -2.4030    -4.8490     1.7580 H     1 <1>   0.0800 
 43 H       -1.4090    -5.2780     3.1010 H     1 <1>   0.0800 
 44 H       -0.6160    -8.6940    -2.0600 H     1 <1>   0.1500 
 45 H       -3.4510    -8.5660     1.1170 H     1 <1>   0.1500 
 46 H       -1.0800   -11.0680    -2.3800 H     1 <1>   0.1500 
 47 H       -3.9170   -10.9440     0.7970 H     1 <1>   0.1500 
 48 H       -3.1000   -13.1070    -0.0800 H     1 <1>   0.0800 
 49 H       -1.9440   -13.1570    -1.3840 H     1 <1>   0.0800 
 50 H       -3.6160   -12.7670    -1.7150 H     1 <1>   0.0800 
@<TRIPOS>BOND
  1   1   2  1   
  2   2   3  ar  
  3   2   4  ar  
  4   3   5  1   
  5   3   6  ar  
  6   4   7  ar  
  7   4  27  1   
  8   5   8  1   
  9   6   9  ar  
 10   6  28  1   
 11   7   9  ar  
 12   7  10  1   
 13   8  29  1   
 14   8  30  1   
 15   8  31  1   
 16   9  32  1   
 17  10  11  1   
 18  10  33  1   
 19  10  34  1   
 20  11  12  1   
 21  11  13  1   
 22  11  35  1   
 23  12  14  1   
 24  12  36  1   
 25  12  37  1   
 26  13  15  1   
 27  13  38  1   
 28  13  39  1   
 29  14  16  1   
 30  14  40  1   
 31  14  41  1   
 32  15  16  1   
 33  15  42  1   
 34  15  43  1   
 35  16  17  am  
 36  17  18  2   
 37  17  19  2   
 38  17  20  1   
 39  20  21  ar  
 40  20  22  ar  
 41  21  23  ar  
 42  21  44  1   
 43  22  24  ar  
 44  22  45  1   
 45  23  25  ar  
 46  23  46  1   
 47  24  25  ar  
 48  24  47  1   
 49  25  26  1   
 50  26  48  1   
 51  26  49  1   
 52  26  50  1   
@<TRIPOS>SUBSTRUCTURE
  1 ****  18 GROUP 4 **** **** 0

# MOE 2024.06 (io_trps.svl 2023.06)
