@<TRIPOS>MOLECULE
NONAME
51 53 1 0 0 
SMALL
USER_CHARGES


@<TRIPOS>ATOM
  1 S       -0.2940     0.4040    -0.1350 S.3   1 <1>  -0.0800 
  2 C       -0.4590    -1.3510    -0.2350 C.2   1 <1>   0.1040 
  3 C        1.4530     0.2870    -0.0900 C.2   1 <1>  -0.1400 
  4 N       -1.7330    -1.9310    -0.2840 N.am  1 <1>  -0.4940 
  5 C        0.7710    -1.9360    -0.2180 C.2   1 <1>   0.0190 
  6 C        1.8510    -0.9920    -0.1310 C.2   1 <1>  -0.1810 
  7 C        2.3050     1.5350    -0.0150 C.3   1 <1>   0.0200 
  8 C       -2.9510    -1.3880    -0.6150 C.2   1 <1>   0.5690 
  9 C        0.9870    -3.3480    -0.2770 C.1   1 <1>   0.5380 
 10 C        3.3300    -1.3580    -0.0960 C.3   1 <1>   0.0210 
 11 C        3.7680     1.1610    -0.3160 C.3   1 <1>  -0.1600 
 12 O       -3.0750    -0.2860    -1.0920 O.2   1 <1>  -0.5700 
 13 C       -4.2060    -2.2490    -0.3670 C.3   1 <1>   0.1710 
 14 N        1.1100    -4.4810    -0.3110 N.1   1 <1>  -0.5570 
 15 C        4.1820    -0.1590     0.3690 C.3   1 <1>  -0.1600 
 16 N       -5.4740    -1.4960    -0.1320 N.3   1 <1>  -0.8100 
 17 C       -6.6760    -2.3550    -0.0580 C.3   1 <1>   0.1100 
 18 C       -5.4090    -0.5670     1.0240 C.3   1 <1>   0.1100 
 19 C       -7.9740    -1.5190     0.0940 C.3   1 <1>   0.3430 
 20 C       -6.6820     0.3070     1.1350 C.3   1 <1>   0.3430 
 21 N       -7.6780    -0.0480     0.0670 N.4   1 <1>  -0.9590 
 22 C       -8.9000     0.7960     0.0440 C.3   1 <1>   0.3430 
 23 C       -8.5530     2.2290    -0.3660 C.3   1 <1>  -0.1600 
 24 C       -9.8210     3.0780    -0.5180 C.3   1 <1>  -0.2400 
 25 H       -1.7500    -2.9300    -0.0770 H     1 <1>   0.3700 
 26 H        2.2230     1.9520     0.9740 H     1 <1>   0.0800 
 27 H        1.9580     2.2640    -0.7250 H     1 <1>   0.0800 
 28 H        3.6360    -1.6570    -1.0830 H     1 <1>   0.0800 
 29 H        3.4940    -2.1850     0.5730 H     1 <1>   0.0800 
 30 H        4.4140     1.9600     0.0040 H     1 <1>   0.0800 
 31 H        3.8850     1.0490    -1.3800 H     1 <1>   0.0800 
 32 H       -4.0210    -2.8910     0.4760 H     1 <1>   0.0800 
 33 H       -4.3350    -2.8710    -1.2350 H     1 <1>   0.0800 
 34 H        5.2200    -0.3620     0.1690 H     1 <1>   0.0800 
 35 H        4.0710    -0.0450     1.4340 H     1 <1>   0.0800 
 36 H       -6.5920    -3.0370     0.7720 H     1 <1>   0.0800 
 37 H       -6.7480    -2.9440    -0.9570 H     1 <1>   0.0800 
 38 H       -4.5630     0.0920     0.9210 H     1 <1>   0.0800 
 39 H       -5.2750    -1.1230     1.9370 H     1 <1>   0.0800 
 40 H       -8.4570    -1.7790     1.0210 H     1 <1>   0.0800 
 41 H       -8.6460    -1.7730    -0.7090 H     1 <1>   0.0800 
 42 H       -6.3940     1.3410     1.0390 H     1 <1>   0.0800 
 43 H       -7.1200     0.1780     2.1100 H     1 <1>   0.0800 
 44 H       -7.1430     0.0810    -0.8080 H     1 <1>   0.4500 
 45 H       -9.3710     0.7950     1.0140 H     1 <1>   0.0800 
 46 H       -9.6000     0.3940    -0.6700 H     1 <1>   0.0800 
 47 H       -8.0310     2.2210    -1.3080 H     1 <1>   0.0800 
 48 H       -7.9240     2.6900     0.3740 H     1 <1>   0.0800 
 49 H      -10.4690     2.6680    -1.2740 H     1 <1>   0.0800 
 50 H       -9.5580     4.0810    -0.8090 H     1 <1>   0.0800 
 51 H      -10.3620     3.1290     0.4120 H     1 <1>   0.0800 
@<TRIPOS>BOND
  1   1   2  1   
  2   1   3  1   
  3   2   4  1   
  4   2   5  2   
  5   3   6  2   
  6   3   7  1   
  7   4   8  am  
  8   4  25  1   
  9   5   6  1   
 10   5   9  1   
 11   6  10  1   
 12   7  11  1   
 13   7  26  1   
 14   7  27  1   
 15   8  12  2   
 16   8  13  1   
 17   9  14  3   
 18  10  15  1   
 19  10  28  1   
 20  10  29  1   
 21  11  15  1   
 22  11  30  1   
 23  11  31  1   
 24  13  16  1   
 25  13  32  1   
 26  13  33  1   
 27  15  34  1   
 28  15  35  1   
 29  16  17  1   
 30  16  18  1   
 31  17  19  1   
 32  17  36  1   
 33  17  37  1   
 34  18  20  1   
 35  18  38  1   
 36  18  39  1   
 37  19  21  1   
 38  19  40  1   
 39  19  41  1   
 40  20  21  1   
 41  20  42  1   
 42  20  43  1   
 43  21  22  1   
 44  21  44  1   
 45  22  23  1   
 46  22  45  1   
 47  22  46  1   
 48  23  24  1   
 49  23  47  1   
 50  23  48  1   
 51  24  49  1   
 52  24  50  1   
 53  24  51  1   
@<TRIPOS>SUBSTRUCTURE
  1 ****   8 GROUP 4 **** **** 0

# MOE 2024.06 (io_trps.svl 2023.06)
