@<TRIPOS>MOLECULE
NONAME
47 48 1 0 0 
SMALL
USER_CHARGES


@<TRIPOS>ATOM
  1 F       -8.6560    -1.6020    -0.0620 F     1 <1>  -0.3400 
  2 C       -7.6740    -1.9900     0.7440 C.3   1 <1>   1.1640 
  3 F       -7.8330    -1.3160     1.8750 F     1 <1>  -0.3400 
  4 F       -7.9150    -3.2640     1.0310 F     1 <1>  -0.3400 
  5 C       -6.2820    -1.7650     0.1330 C.ar  1 <1>  -0.1440 
  6 C       -5.2230    -2.6120     0.4440 C.ar  1 <1>  -0.1500 
  7 C       -6.0480    -0.7040    -0.7360 C.ar  1 <1>  -0.1500 
  8 C       -3.9640    -2.4150    -0.0980 C.ar  1 <1>   0.0830 
  9 C       -4.7920    -0.5000    -1.2820 C.ar  1 <1>  -0.1500 
 10 O       -3.0030    -3.2980     0.2690 O.3   1 <1>  -0.3630 
 11 C       -3.7490    -1.3510    -0.9690 C.ar  1 <1>  -0.1500 
 12 C       -1.6830    -3.1860    -0.2010 C.3   1 <1>   0.1200 
 13 C       -0.8910    -4.3450     0.4130 C.3   1 <1>   0.3430 
 14 N        0.5460    -4.3700    -0.0190 N.4   1 <1>  -0.9590 
 15 C        1.1680    -5.6690     0.3690 C.3   1 <1>   0.3430 
 16 C        1.3240    -3.2150     0.5230 C.3   1 <1>   0.3430 
 17 C        2.5770    -5.7550    -0.2120 C.3   1 <1>  -0.1600 
 18 C        2.7380    -3.2370    -0.0540 C.3   1 <1>  -0.1600 
 19 C        3.4580    -4.5700     0.2260 C.3   1 <1>  -0.0190 
 20 C        4.8150    -4.6170    -0.4700 C.2   1 <1>   0.6590 
 21 O        4.9080    -4.4740    -1.6610 O.2   1 <1>  -0.5700 
 22 O        5.8620    -4.8270     0.3120 O.3   1 <1>  -0.4300 
 23 C        7.1690    -4.8940    -0.2130 C.3   1 <1>   0.1200 
 24 C        8.1310    -5.1450     0.9440 C.3   1 <1>  -0.2400 
 25 H       -5.3660    -3.4410     1.1170 H     1 <1>   0.1500 
 26 H       -6.8440    -0.0250    -0.9940 H     1 <1>   0.1500 
 27 H       -4.6320     0.3260    -1.9550 H     1 <1>   0.1500 
 28 H       -2.7900    -1.1640    -1.4120 H     1 <1>   0.1500 
 29 H       -1.3000    -2.2330     0.1170 H     1 <1>   0.0800 
 30 H       -1.7030    -3.2590    -1.2740 H     1 <1>   0.0800 
 31 H       -1.3680    -5.2640     0.1150 H     1 <1>   0.0800 
 32 H       -0.9440    -4.2710     1.4880 H     1 <1>   0.0800 
 33 H        0.5840    -4.3200    -1.0480 H     1 <1>   0.4500 
 34 H        0.5770    -6.4900    -0.0060 H     1 <1>   0.0800 
 35 H        1.2130    -5.7480     1.4440 H     1 <1>   0.0800 
 36 H        1.3700    -3.2770     1.5990 H     1 <1>   0.0800 
 37 H        0.8480    -2.2850     0.2580 H     1 <1>   0.0800 
 38 H        2.5160    -5.7910    -1.2870 H     1 <1>   0.0800 
 39 H        3.0350    -6.6750     0.1110 H     1 <1>   0.0800 
 40 H        3.3050    -2.4300     0.3770 H     1 <1>   0.0800 
 41 H        2.6880    -3.0590    -1.1150 H     1 <1>   0.0800 
 42 H        3.6320    -4.6470     1.2860 H     1 <1>   0.0800 
 43 H        7.3900    -3.9610    -0.7030 H     1 <1>   0.0800 
 44 H        7.2090    -5.6970    -0.9300 H     1 <1>   0.0800 
 45 H        8.0750    -4.3410     1.6560 H     1 <1>   0.0800 
 46 H        9.1380    -5.2000     0.5710 H     1 <1>   0.0800 
 47 H        7.8950    -6.0750     1.4300 H     1 <1>   0.0800 
@<TRIPOS>BOND
  1   1   2  1   
  2   2   3  1   
  3   2   4  1   
  4   2   5  1   
  5   5   6  ar  
  6   5   7  ar  
  7   6   8  ar  
  8   6  25  1   
  9   7   9  ar  
 10   7  26  1   
 11   8  10  1   
 12   8  11  ar  
 13   9  11  ar  
 14   9  27  1   
 15  10  12  1   
 16  11  28  1   
 17  12  13  1   
 18  12  29  1   
 19  12  30  1   
 20  13  14  1   
 21  13  31  1   
 22  13  32  1   
 23  14  15  1   
 24  14  16  1   
 25  14  33  1   
 26  15  17  1   
 27  15  34  1   
 28  15  35  1   
 29  16  18  1   
 30  16  36  1   
 31  16  37  1   
 32  17  19  1   
 33  17  38  1   
 34  17  39  1   
 35  18  19  1   
 36  18  40  1   
 37  18  41  1   
 38  19  20  1   
 39  19  42  1   
 40  20  21  2   
 41  20  22  1   
 42  22  23  1   
 43  23  24  1   
 44  23  43  1   
 45  23  44  1   
 46  24  45  1   
 47  24  46  1   
 48  24  47  1   
@<TRIPOS>SUBSTRUCTURE
  1 ****  12 GROUP 4 **** **** 0

# MOE 2024.06 (io_trps.svl 2023.06)
