@<TRIPOS>MOLECULE
NONAME
35 37 1 0 0 
SMALL
USER_CHARGES


@<TRIPOS>ATOM
  1 O       -1.8390    -2.7810     1.2620 O.2   1 <1>  -0.5700 
  2 C       -1.4690    -2.5160     0.1390 C.2   1 <1>   0.6900 
  3 N       -1.4570    -1.2630    -0.3400 N.am  1 <1>  -0.7300 
  4 N       -1.0870    -3.5030    -0.6710 N.am  1 <1>  -0.8000 
  5 C       -1.8780    -0.0970     0.4410 C.3   1 <1>   0.4000 
  6 C       -3.3840     0.0060     0.3620 C.2   1 <1>  -0.3320 
  7 C       -1.2340     1.1650    -0.1660 C.3   1 <1>  -0.1600 
  8 N       -4.2400    -1.0150     0.6580 N.pl3 1 <1>   0.0330 
  9 C       -4.0890     1.1060     0.0230 C.2   1 <1>  -0.1810 
 10 C       -1.9960     2.4610     0.1880 C.3   1 <1>  -0.1600 
 11 C       -5.5220    -0.5570     0.4770 C.ar  1 <1>  -0.1520 
 12 C       -5.4610     0.7750     0.0740 C.ar  1 <1>   0.0000 
 13 C       -3.4510     2.4360    -0.3240 C.3   1 <1>   0.0210 
 14 C       -6.7510    -1.1990     0.6320 C.ar  1 <1>  -0.1500 
 15 C       -6.6440     1.4750    -0.1790 C.ar  1 <1>  -0.1500 
 16 C       -7.9070    -0.4960     0.3800 C.ar  1 <1>  -0.1500 
 17 C       -7.8600     0.8440    -0.0280 C.ar  1 <1>  -0.1430 
 18 C       -9.1610     1.5770    -0.2950 C.3   1 <1>  -0.0970 
 19 H       -1.6420    -1.1550    -1.3320 H     1 <1>   0.3700 
 20 H       -1.0060    -4.4340    -0.2670 H     1 <1>   0.3700 
 21 H       -0.5280    -3.3160    -1.4990 H     1 <1>   0.3700 
 22 H       -1.5810    -0.2110     1.4710 H     1 <1>   0.0800 
 23 H       -1.2180     1.0750    -1.2380 H     1 <1>   0.0800 
 24 H       -0.2190     1.2360     0.1810 H     1 <1>   0.0800 
 25 H       -3.9510    -1.9510     0.9730 H     1 <1>   0.2700 
 26 H       -1.4870     3.3130    -0.2270 H     1 <1>   0.0800 
 27 H       -2.0100     2.5740     1.2590 H     1 <1>   0.0800 
 28 H       -4.0100     3.2360     0.1270 H     1 <1>   0.0800 
 29 H       -3.4720     2.5620    -1.3910 H     1 <1>   0.0800 
 30 H       -6.7820    -2.2270     0.9460 H     1 <1>   0.1500 
 31 H       -6.5780     2.5010    -0.4890 H     1 <1>   0.1500 
 32 H       -8.8620    -0.9770     0.4950 H     1 <1>   0.1500 
 33 H       -8.9740     2.5920    -0.5980 H     1 <1>   0.0800 
 34 H       -9.7620     1.5910     0.5970 H     1 <1>   0.0800 
 35 H       -9.7060     1.0800    -1.0760 H     1 <1>   0.0800 
@<TRIPOS>BOND
  1   1   2  2   
  2   2   3  am  
  3   2   4  am  
  4   3   5  1   
  5   3  19  1   
  6   4  20  1   
  7   4  21  1   
  8   5   6  1   
  9   5   7  1   
 10   5  22  1   
 11   6   8  1   
 12   6   9  2   
 13   7  10  1   
 14   7  23  1   
 15   7  24  1   
 16   8  11  1   
 17   8  25  1   
 18   9  12  1   
 19   9  13  1   
 20  10  13  1   
 21  10  26  1   
 22  10  27  1   
 23  11  12  ar  
 24  11  14  ar  
 25  12  15  ar  
 26  13  28  1   
 27  13  29  1   
 28  14  16  ar  
 29  14  30  1   
 30  15  17  ar  
 31  15  31  1   
 32  16  17  ar  
 33  16  32  1   
 34  17  18  1   
 35  18  33  1   
 36  18  34  1   
 37  18  35  1   
@<TRIPOS>SUBSTRUCTURE
  1 ****   6 GROUP 4 **** **** 0

# MOE 2024.06 (io_trps.svl 2023.06)
