@<TRIPOS>MOLECULE
NONAME
42 43 1 0 0 
SMALL
USER_CHARGES


@<TRIPOS>ATOM
  1 S       -1.4270     1.2190     0.2540 S.3   1 <1>  -0.2860 
  2 C        0.3090     1.5790    -0.0460 C.2   1 <1>   0.2420 
  3 C       -1.4380    -0.6340     0.4230 C.3   1 <1>   0.1310 
  4 N        1.2000     0.6590    -0.1360 N.2   1 <1>  -0.3380 
  5 N        0.7910     2.8170    -0.1890 N.pl3 1 <1>   0.0480 
  6 C       -2.8490    -1.1710     0.6070 C.2   1 <1>   0.5690 
  7 N        2.3530     1.2940    -0.3480 N.2   1 <1>  -0.3380 
  8 C        2.1020     2.5610    -0.3740 C.2   1 <1>   0.0060 
  9 C        0.0090     4.0860    -0.1130 C.3   1 <1>   0.1760 
 10 O       -2.9790    -2.2290     1.1740 O.2   1 <1>  -0.5700 
 11 N       -3.8950    -0.4410     0.1130 N.am  1 <1>  -0.5470 
 12 C        3.1950     3.5910    -0.5920 C.3   1 <1>  -0.0600 
 13 C        0.2910     5.0160    -1.3000 C.3   1 <1>  -0.2400 
 14 C        0.2540     4.7940     1.2240 C.3   1 <1>  -0.2400 
 15 C       -5.2890    -0.6300     0.0800 C.ar  1 <1>   0.1170 
 16 C       -6.0790     0.3940    -0.4550 C.ar  1 <1>   0.0820 
 17 C       -5.9130    -1.7810     0.5480 C.ar  1 <1>  -0.1500 
 18 O       -5.4310     1.5100    -0.9100 O.3   1 <1>  -0.3630 
 19 C       -7.4630     0.2520    -0.5100 C.ar  1 <1>  -0.1500 
 20 C       -7.2890    -1.9170     0.4920 C.ar  1 <1>  -0.1500 
 21 C       -6.1420     2.5930    -1.4700 C.3   1 <1>   0.0400 
 22 C       -8.0640    -0.9010    -0.0360 C.ar  1 <1>  -0.1500 
 23 H       -0.8290    -0.8790     1.2740 H     1 <1>   0.0800 
 24 H       -0.9980    -1.0410    -0.4680 H     1 <1>   0.0800 
 25 H       -1.0350     3.8300    -0.1590 H     1 <1>   0.0800 
 26 H       -3.6320     0.4640    -0.2860 H     1 <1>   0.3700 
 27 H        3.1440     4.3650     0.1500 H     1 <1>   0.0800 
 28 H        3.1070     4.0200    -1.5730 H     1 <1>   0.0800 
 29 H        4.1570     3.1160    -0.5180 H     1 <1>   0.0800 
 30 H        1.2680     5.4560    -1.2330 H     1 <1>   0.0800 
 31 H       -0.4270     5.8170    -1.3070 H     1 <1>   0.0800 
 32 H        0.2000     4.4770    -2.2270 H     1 <1>   0.0800 
 33 H        0.0130     4.1340     2.0400 H     1 <1>   0.0800 
 34 H        1.2770     5.1080     1.3170 H     1 <1>   0.0800 
 35 H       -0.3740     5.6630     1.2990 H     1 <1>   0.0800 
 36 H       -5.3320    -2.5840     0.9620 H     1 <1>   0.1500 
 37 H       -8.0920     1.0210    -0.9140 H     1 <1>   0.1500 
 38 H       -7.7540    -2.8150     0.8600 H     1 <1>   0.1500 
 39 H       -5.4330     3.3480    -1.7550 H     1 <1>   0.0800 
 40 H       -6.8180     2.9870    -0.7310 H     1 <1>   0.0800 
 41 H       -6.6770     2.2480    -2.3370 H     1 <1>   0.0800 
 42 H       -9.1340    -1.0090    -0.0790 H     1 <1>   0.1500 
@<TRIPOS>BOND
  1   1   2  1   
  2   1   3  1   
  3   2   4  2   
  4   2   5  1   
  5   3   6  1   
  6   3  23  1   
  7   3  24  1   
  8   4   7  1   
  9   5   8  1   
 10   5   9  1   
 11   6  10  2   
 12   6  11  am  
 13   7   8  2   
 14   8  12  1   
 15   9  13  1   
 16   9  14  1   
 17   9  25  1   
 18  11  15  1   
 19  11  26  1   
 20  12  27  1   
 21  12  28  1   
 22  12  29  1   
 23  13  30  1   
 24  13  31  1   
 25  13  32  1   
 26  14  33  1   
 27  14  34  1   
 28  14  35  1   
 29  15  16  ar  
 30  15  17  ar  
 31  16  18  1   
 32  16  19  ar  
 33  17  20  ar  
 34  17  36  1   
 35  18  21  1   
 36  19  22  ar  
 37  19  37  1   
 38  20  22  ar  
 39  20  38  1   
 40  21  39  1   
 41  21  40  1   
 42  21  41  1   
 43  22  42  1   
@<TRIPOS>SUBSTRUCTURE
  1 ****   1 GROUP 4 **** **** 0

# MOE 2024.06 (io_trps.svl 2023.06)
