@<TRIPOS>MOLECULE
NONAME
45 45 1 0 0 
SMALL
USER_CHARGES


@<TRIPOS>ATOM
  1 O       -0.6370     2.2080    -0.4800 O.2   1 <1>  -0.5700 
  2 C       -1.2380     1.5130     0.3030 C.2   1 <1>   0.6590 
  3 O       -2.1870     1.9520     1.1200 O.3   1 <1>  -0.4300 
  4 C       -0.9360     0.0410     0.4170 C.3   1 <1>  -0.1790 
  5 C       -2.7700     3.2410     1.1440 C.3   1 <1>   0.4800 
  6 C       -1.6970     4.2840     1.1560 C.1   1 <1>  -0.2000 
  7 C       -3.6660     3.4170    -0.0970 C.3   1 <1>  -0.1600 
  8 C       -3.5620     3.3290     2.4500 C.3   1 <1>  -0.2400 
  9 C       -0.7460     4.9640     0.9450 C.1   1 <1>  -0.2000 
 10 C       -4.7330     2.3290    -0.2970 C.3   1 <1>  -0.0220 
 11 C        0.5140     5.5310     0.4160 C.3   1 <1>   0.5430 
 12 C       -5.4820     2.5750    -1.5930 C.2   1 <1>  -0.2880 
 13 N        1.2710     4.3670    -0.0950 N.4   1 <1>  -0.9590 
 14 C       -5.4750     1.7520    -2.6440 C.2   1 <1>  -0.3000 
 15 C        2.0710     3.7210     0.9820 C.3   1 <1>   0.3430 
 16 C        2.0650     4.6870    -1.3090 C.3   1 <1>   0.3430 
 17 C        2.7150     2.4350     0.4570 C.3   1 <1>  -0.1600 
 18 C        2.6860     3.4050    -1.8660 C.3   1 <1>  -0.1600 
 19 C        3.5380     2.6830    -0.8140 C.3   1 <1>  -0.1600 
 20 H       -0.6090    -0.1840     1.4150 H     1 <1>   0.0800 
 21 H       -0.1650    -0.2330    -0.2800 H     1 <1>   0.0800 
 22 H       -1.8220    -0.5240     0.1990 H     1 <1>   0.0800 
 23 H       -3.0420     3.4480    -0.9730 H     1 <1>   0.0800 
 24 H       -4.1570     4.3720    -0.0330 H     1 <1>   0.0800 
 25 H       -2.8960     3.2610     3.2910 H     1 <1>   0.0800 
 26 H       -4.2830     2.5360     2.5160 H     1 <1>   0.0800 
 27 H       -4.0790     4.2700     2.5050 H     1 <1>   0.0800 
 28 H       -5.4390     2.3330     0.5150 H     1 <1>   0.0800 
 29 H       -4.2710     1.3580    -0.3330 H     1 <1>   0.0800 
 30 H        1.0640     6.0490     1.1840 H     1 <1>   0.0800 
 31 H        0.2850     6.2150    -0.3850 H     1 <1>   0.0800 
 32 H       -6.0380     3.4990    -1.5900 H     1 <1>   0.1500 
 33 H        0.5450     3.6710    -0.3700 H     1 <1>   0.4500 
 34 H       -6.0130     1.9420    -3.5570 H     1 <1>   0.1500 
 35 H       -4.9350     0.8210    -2.6860 H     1 <1>   0.1500 
 36 H        1.4340     3.4850     1.8200 H     1 <1>   0.0800 
 37 H        2.8420     4.3950     1.3180 H     1 <1>   0.0800 
 38 H        2.8470     5.3870    -1.0620 H     1 <1>   0.0800 
 39 H        1.4300     5.1300    -2.0600 H     1 <1>   0.0800 
 40 H        1.9450     1.7110     0.2560 H     1 <1>   0.0800 
 41 H        3.3510     2.0230     1.2210 H     1 <1>   0.0800 
 42 H        3.2990     3.6490    -2.7160 H     1 <1>   0.0800 
 43 H        1.9010     2.7530    -2.2110 H     1 <1>   0.0800 
 44 H        3.8890     1.7440    -1.2100 H     1 <1>   0.0800 
 45 H        4.4010     3.2820    -0.5750 H     1 <1>   0.0800 
@<TRIPOS>BOND
  1   1   2  2   
  2   2   3  1   
  3   2   4  1   
  4   3   5  1   
  5   4  20  1   
  6   4  21  1   
  7   4  22  1   
  8   5   6  1   
  9   5   7  1   
 10   5   8  1   
 11   6   9  3   
 12   7  10  1   
 13   7  23  1   
 14   7  24  1   
 15   8  25  1   
 16   8  26  1   
 17   8  27  1   
 18   9  11  1   
 19  10  12  1   
 20  10  28  1   
 21  10  29  1   
 22  11  13  1   
 23  11  30  1   
 24  11  31  1   
 25  12  14  2   
 26  12  32  1   
 27  13  15  1   
 28  13  16  1   
 29  13  33  1   
 30  14  34  1   
 31  14  35  1   
 32  15  17  1   
 33  15  36  1   
 34  15  37  1   
 35  16  18  1   
 36  16  38  1   
 37  16  39  1   
 38  17  19  1   
 39  17  40  1   
 40  17  41  1   
 41  18  19  1   
 42  18  42  1   
 43  18  43  1   
 44  19  44  1   
 45  19  45  1   
@<TRIPOS>SUBSTRUCTURE
  1 ****   1 GROUP 4 **** **** 0

# MOE 2024.06 (io_trps.svl 2023.06)
