@<TRIPOS>MOLECULE
NONAME
50 51 1 0 0 
SMALL
USER_CHARGES


@<TRIPOS>ATOM
  1 O        1.9690    -1.5580     1.6200 O.2   1 <1>  -0.5700 
  2 C        2.2850    -1.8840     0.4980 C.2   1 <1>   0.5690 
  3 N        1.5950    -2.8540    -0.1890 N.am  1 <1>  -0.6600 
  4 C        3.4920    -1.1620    -0.1020 C.3   1 <1>  -0.0190 
  5 C        2.0070    -3.4570    -1.4910 C.3   1 <1>   0.1400 
  6 C        0.4080    -3.4990     0.4470 C.3   1 <1>   0.1400 
  7 C        4.2010    -0.3700     1.0080 C.3   1 <1>   0.3430 
  8 C        3.0930    -0.2200    -1.2640 C.3   1 <1>  -0.1600 
  9 C        1.0450    -3.0450    -2.6030 C.3   1 <1>  -0.2400 
 10 C       -0.8160    -2.5910     0.3270 C.3   1 <1>  -0.2400 
 11 N        5.4370     0.3430     0.5250 N.4   1 <1>  -0.9590 
 12 C        4.0710     0.9550    -1.4540 C.3   1 <1>  -0.1600 
 13 C        5.4750     0.6230    -0.9470 C.3   1 <1>   0.3430 
 14 C        6.6780    -0.3410     0.9800 C.3   1 <1>   0.4860 
 15 C        7.8580     0.5660     0.6950 C.ar  1 <1>  -0.1440 
 16 C        8.7150     0.2900    -0.3600 C.ar  1 <1>  -0.1500 
 17 C        8.0860     1.6850     1.4820 C.ar  1 <1>  -0.1500 
 18 C        9.7780     1.1320    -0.6330 C.ar  1 <1>  -0.1500 
 19 C        9.1510     2.5250     1.2060 C.ar  1 <1>  -0.1500 
 20 C        9.9980     2.2550     0.1450 C.ar  1 <1>  -0.1440 
 21 C       11.1680     3.1770    -0.1540 C.3   1 <1>  -0.0970 
 22 H        4.1840    -1.9050    -0.4490 H     1 <1>   0.0800 
 23 H        2.0150    -4.5310    -1.4000 H     1 <1>   0.0800 
 24 H        3.0020    -3.1550    -1.7560 H     1 <1>   0.0800 
 25 H        0.6140    -3.6840     1.4880 H     1 <1>   0.0800 
 26 H        0.2040    -4.4480    -0.0200 H     1 <1>   0.0800 
 27 H        4.4420    -1.0330     1.8240 H     1 <1>   0.0800 
 28 H        3.4990     0.3560     1.3870 H     1 <1>   0.0800 
 29 H        2.1070     0.1790    -1.0880 H     1 <1>   0.0800 
 30 H        3.0450    -0.7920    -2.1740 H     1 <1>   0.0800 
 31 H        0.0810    -3.4960    -2.4530 H     1 <1>   0.0800 
 32 H        1.4230    -3.3830    -3.5510 H     1 <1>   0.0800 
 33 H        0.9360    -1.9760    -2.6380 H     1 <1>   0.0800 
 34 H       -0.6440    -1.6640     0.8440 H     1 <1>   0.0800 
 35 H       -1.6650    -3.0720     0.7770 H     1 <1>   0.0800 
 36 H       -1.0470    -2.3870    -0.7020 H     1 <1>   0.0800 
 37 H        5.4530     1.2620     0.9860 H     1 <1>   0.4500 
 38 H        3.7090     1.8240    -0.9320 H     1 <1>   0.0800 
 39 H        4.1200     1.2120    -2.4990 H     1 <1>   0.0800 
 40 H        5.8400    -0.2430    -1.4750 H     1 <1>   0.0800 
 41 H        6.1470     1.4450    -1.1470 H     1 <1>   0.0800 
 42 H        6.7990    -1.2790     0.4640 H     1 <1>   0.0800 
 43 H        6.6280    -0.5360     2.0390 H     1 <1>   0.0800 
 44 H        8.5730    -0.5790    -0.9800 H     1 <1>   0.1500 
 45 H        7.4500     1.9190     2.3190 H     1 <1>   0.1500 
 46 H       10.4410     0.9100    -1.4530 H     1 <1>   0.1500 
 47 H        9.3230     3.3910     1.8220 H     1 <1>   0.1500 
 48 H       10.9380     4.1860     0.1370 H     1 <1>   0.0800 
 49 H       11.3930     3.1720    -1.2060 H     1 <1>   0.0800 
 50 H       12.0370     2.8500     0.3880 H     1 <1>   0.0800 
@<TRIPOS>BOND
  1   1   2  2   
  2   2   3  am  
  3   2   4  1   
  4   3   5  1   
  5   3   6  1   
  6   4   7  1   
  7   4   8  1   
  8   4  22  1   
  9   5   9  1   
 10   5  23  1   
 11   5  24  1   
 12   6  10  1   
 13   6  25  1   
 14   6  26  1   
 15   7  11  1   
 16   7  27  1   
 17   7  28  1   
 18   8  12  1   
 19   8  29  1   
 20   8  30  1   
 21   9  31  1   
 22   9  32  1   
 23   9  33  1   
 24  10  34  1   
 25  10  35  1   
 26  10  36  1   
 27  11  13  1   
 28  11  14  1   
 29  11  37  1   
 30  12  13  1   
 31  12  38  1   
 32  12  39  1   
 33  13  40  1   
 34  13  41  1   
 35  14  15  1   
 36  14  42  1   
 37  14  43  1   
 38  15  16  ar  
 39  15  17  ar  
 40  16  18  ar  
 41  16  44  1   
 42  17  19  ar  
 43  17  45  1   
 44  18  20  ar  
 45  18  46  1   
 46  19  20  ar  
 47  19  47  1   
 48  20  21  1   
 49  21  48  1   
 50  21  49  1   
 51  21  50  1   
@<TRIPOS>SUBSTRUCTURE
  1 ****  11 GROUP 4 **** **** 0

# MOE 2024.06 (io_trps.svl 2023.06)
