@<TRIPOS>MOLECULE
NONAME
51 53 1 0 0 
SMALL
USER_CHARGES


@<TRIPOS>ATOM
  1 CL      -1.3750    -2.8940     3.3220 Cl    1 <1>  -0.1770 
  2 C       -2.7170    -3.1000     2.2220 C.ar  1 <1>   0.1770 
  3 C       -2.6270    -2.5920     0.9390 C.ar  1 <1>  -0.1500 
  4 C       -3.8490    -3.7690     2.6520 C.ar  1 <1>  -0.1500 
  5 C       -3.6940    -2.7590     0.0730 C.ar  1 <1>  -0.1500 
  6 C       -4.9100    -3.9300     1.7780 C.ar  1 <1>  -0.1500 
  7 C       -4.8420    -3.4270     0.4810 C.ar  1 <1>   0.1000 
  8 N       -5.8950    -3.5760    -0.4110 N.pl3 1 <1>  -0.8380 
  9 C       -6.2050    -4.9730    -0.8400 C.3   1 <1>   0.2090 
 10 C       -7.1330    -2.8020    -0.0980 C.3   1 <1>   0.2090 
 11 C       -7.2380    -4.9930    -1.9830 C.3   1 <1>   0.1100 
 12 C       -8.1370    -2.8700    -1.2640 C.3   1 <1>   0.1100 
 13 N       -8.4770    -4.2720    -1.6190 N.3   1 <1>  -0.8100 
 14 C       -9.4820    -4.3250    -2.7250 C.3   1 <1>   0.1710 
 15 C      -10.8920    -3.9080    -2.2990 C.2   1 <1>   0.5690 
 16 O      -11.6810    -3.5530    -3.1410 O.2   1 <1>  -0.5700 
 17 N      -11.1590    -3.9560    -0.9630 N.am  1 <1>  -0.5470 
 18 C      -12.2440    -3.5550    -0.1660 C.ar  1 <1>   0.1170 
 19 C      -12.0330    -3.3810     1.2070 C.ar  1 <1>   0.0830 
 20 C      -13.5120    -3.3330    -0.6860 C.ar  1 <1>  -0.1500 
 21 O      -10.7670    -3.6070     1.6800 O.3   1 <1>  -0.3630 
 22 C      -13.0870    -2.9910     2.0270 C.ar  1 <1>  -0.1500 
 23 C      -14.5610    -2.9440     0.1280 C.ar  1 <1>   0.0830 
 24 C      -10.4800    -3.5290     3.0590 C.3   1 <1>   0.0400 
 25 C      -14.3450    -2.7730     1.4920 C.ar  1 <1>  -0.1500 
 26 O      -15.7640    -2.7510    -0.4740 O.3   1 <1>  -0.3620 
 27 C      -16.8900    -2.3270     0.2600 C.3   1 <1>   0.0400 
 28 H       -1.7380    -2.0770     0.6270 H     1 <1>   0.1500 
 29 H       -3.8930    -4.1540     3.6540 H     1 <1>   0.1500 
 30 H       -3.6520    -2.3750    -0.9300 H     1 <1>   0.1500 
 31 H       -5.7970    -4.4460     2.0950 H     1 <1>   0.1500 
 32 H       -6.5940    -5.5290    -0.0050 H     1 <1>   0.0800 
 33 H       -5.2980    -5.4500    -1.1680 H     1 <1>   0.0800 
 34 H       -6.8710    -1.7760     0.0890 H     1 <1>   0.0800 
 35 H       -7.5960    -3.1990     0.7880 H     1 <1>   0.0800 
 36 H       -7.4750    -6.0170    -2.2140 H     1 <1>   0.0800 
 37 H       -6.7950    -4.5450    -2.8570 H     1 <1>   0.0800 
 38 H       -7.7090    -2.3680    -2.1150 H     1 <1>   0.0800 
 39 H       -9.0260    -2.3350    -0.9770 H     1 <1>   0.0800 
 40 H       -9.5510    -5.3330    -3.0920 H     1 <1>   0.0800 
 41 H       -9.1660    -3.6970    -3.5390 H     1 <1>   0.0800 
 42 H      -10.3260    -4.2130    -0.4190 H     1 <1>   0.3700 
 43 H      -13.6970    -3.4630    -1.7360 H     1 <1>   0.1500 
 44 H      -12.9540    -2.8490     3.0820 H     1 <1>   0.1500 
 45 H       -9.4430    -3.7740     3.1990 H     1 <1>   0.0800 
 46 H      -11.0960    -4.2360     3.5850 H     1 <1>   0.0800 
 47 H      -10.6670    -2.5250     3.3990 H     1 <1>   0.0800 
 48 H      -15.1400    -2.4730     2.1480 H     1 <1>   0.1500 
 49 H      -17.7160    -2.2320    -0.4220 H     1 <1>   0.0800 
 50 H      -16.6760    -1.3730     0.7090 H     1 <1>   0.0800 
 51 H      -17.1180    -3.0650     1.0080 H     1 <1>   0.0800 
@<TRIPOS>BOND
  1   1   2  1   
  2   2   3  ar  
  3   2   4  ar  
  4   3   5  ar  
  5   3  28  1   
  6   4   6  ar  
  7   4  29  1   
  8   5   7  ar  
  9   5  30  1   
 10   6   7  ar  
 11   6  31  1   
 12   7   8  1   
 13   8   9  1   
 14   8  10  1   
 15   9  11  1   
 16   9  32  1   
 17   9  33  1   
 18  10  12  1   
 19  10  34  1   
 20  10  35  1   
 21  11  13  1   
 22  11  36  1   
 23  11  37  1   
 24  12  13  1   
 25  12  38  1   
 26  12  39  1   
 27  13  14  1   
 28  14  15  1   
 29  14  40  1   
 30  14  41  1   
 31  15  16  2   
 32  15  17  am  
 33  17  18  1   
 34  17  42  1   
 35  18  19  ar  
 36  18  20  ar  
 37  19  21  1   
 38  19  22  ar  
 39  20  23  ar  
 40  20  43  1   
 41  21  24  1   
 42  22  25  ar  
 43  22  44  1   
 44  23  25  ar  
 45  23  26  1   
 46  24  45  1   
 47  24  46  1   
 48  24  47  1   
 49  25  48  1   
 50  26  27  1   
 51  27  49  1   
 52  27  50  1   
 53  27  51  1   
@<TRIPOS>SUBSTRUCTURE
  1 ****  12 GROUP 4 **** **** 0

# MOE 2024.06 (io_trps.svl 2023.06)
