@<TRIPOS>MOLECULE
NONAME
51 54 1 0 0 
SMALL
USER_CHARGES


@<TRIPOS>ATOM
  1 S       -0.5780     0.1300    -1.4400 S.3   1 <1>  -0.0800 
  2 C       -1.2670     1.6860    -1.0060 C.2   1 <1>   0.1660 
  3 C       -2.0840    -0.6750    -1.0300 C.2   1 <1>  -0.1400 
  4 N       -0.5610     2.8330    -1.0930 N.2   1 <1>  -0.5760 
  5 C       -2.5510     1.5640    -0.5810 C.2   1 <1>  -0.0860 
  6 C       -3.0000     0.1980    -0.5940 C.2   1 <1>  -0.1810 
  7 C       -2.2610    -2.1720    -1.1700 C.3   1 <1>   0.3000 
  8 C       -1.2060     3.8970    -0.7590 C.2   1 <1>   0.6510 
  9 C       -3.2190     2.7650    -0.2110 C.2   1 <1>   0.7160 
 10 C       -4.3690    -0.3190    -0.1890 C.3   1 <1>   0.0210 
 11 O       -3.6210    -2.4980    -0.9970 O.3   1 <1>  -0.5600 
 12 S       -0.2190     5.3930    -0.8200 S.3   1 <1>  -0.3710 
 13 N       -2.5430     3.9680    -0.3810 N.am  1 <1>  -0.2370 
 14 O       -4.3540     2.7460     0.2470 O.2   1 <1>  -0.5700 
 15 C       -4.3440    -1.8590     0.0270 C.3   1 <1>   0.2800 
 16 C       -0.7540     6.4960     0.5810 C.3   1 <1>   0.1310 
 17 C       -3.2790     5.1740    -0.3930 C.ar  1 <1>   0.1170 
 18 C       -5.7610    -2.4270    -0.0590 C.3   1 <1>  -0.2400 
 19 C       -3.7330    -2.2430     1.3840 C.3   1 <1>  -0.2400 
 20 C        0.4150     7.3140     1.0950 C.2   1 <1>   0.6590 
 21 C       -3.4050     5.9150    -1.5640 C.ar  1 <1>  -0.1500 
 22 C       -3.8810     5.6540     0.7650 C.ar  1 <1>  -0.1500 
 23 O        0.8770     7.1260     2.1910 O.2   1 <1>  -0.5700 
 24 O        0.8780     8.2580     0.2840 O.3   1 <1>  -0.4300 
 25 C       -4.0910     7.1160    -1.5690 C.ar  1 <1>  -0.1500 
 26 C       -4.5680     6.8540     0.7600 C.ar  1 <1>  -0.1500 
 27 C        1.9690     9.0800     0.6470 C.3   1 <1>   0.0400 
 28 C       -4.6720     7.5950    -0.4060 C.ar  1 <1>  -0.1440 
 29 C       -5.4260     8.9120    -0.4130 C.3   1 <1>  -0.0970 
 30 H       -1.6800    -2.6980    -0.4340 H     1 <1>   0.0800 
 31 H       -1.9690    -2.4970    -2.1530 H     1 <1>   0.0800 
 32 H       -5.0720    -0.0680    -0.9620 H     1 <1>   0.0800 
 33 H       -4.6950     0.1600     0.7160 H     1 <1>   0.0800 
 34 H       -1.1320     5.8680     1.3650 H     1 <1>   0.0800 
 35 H       -1.5220     7.1480     0.2100 H     1 <1>   0.0800 
 36 H       -6.1860    -2.2210    -1.0250 H     1 <1>   0.0800 
 37 H       -6.3890    -1.9850     0.6930 H     1 <1>   0.0800 
 38 H       -5.7440    -3.4920     0.0920 H     1 <1>   0.0800 
 39 H       -2.7630    -1.8000     1.5150 H     1 <1>   0.0800 
 40 H       -3.6510    -3.3120     1.4660 H     1 <1>   0.0800 
 41 H       -4.3610    -1.8900     2.1810 H     1 <1>   0.0800 
 42 H       -2.9620     5.5570    -2.4770 H     1 <1>   0.1500 
 43 H       -3.8190     5.0830     1.6750 H     1 <1>   0.1500 
 44 H       -4.1750     7.6760    -2.4840 H     1 <1>   0.1500 
 45 H       -5.0290     7.2080     1.6670 H     1 <1>   0.1500 
 46 H        1.7140     9.6250     1.5390 H     1 <1>   0.0800 
 47 H        2.1670     9.7610    -0.1610 H     1 <1>   0.0800 
 48 H        2.8280     8.4560     0.8250 H     1 <1>   0.0800 
 49 H       -6.4580     8.7380    -0.6620 H     1 <1>   0.0800 
 50 H       -5.0040     9.5850    -1.1380 H     1 <1>   0.0800 
 51 H       -5.3780     9.3810     0.5530 H     1 <1>   0.0800 
@<TRIPOS>BOND
  1   1   2  1   
  2   1   3  1   
  3   2   4  1   
  4   2   5  2   
  5   3   6  2   
  6   3   7  1   
  7   4   8  2   
  8   5   6  1   
  9   5   9  1   
 10   6  10  1   
 11   7  11  1   
 12   7  30  1   
 13   7  31  1   
 14   8  12  1   
 15   8  13  1   
 16   9  13  am  
 17   9  14  2   
 18  10  15  1   
 19  10  32  1   
 20  10  33  1   
 21  11  15  1   
 22  12  16  1   
 23  13  17  1   
 24  15  18  1   
 25  15  19  1   
 26  16  20  1   
 27  16  34  1   
 28  16  35  1   
 29  17  21  ar  
 30  17  22  ar  
 31  18  36  1   
 32  18  37  1   
 33  18  38  1   
 34  19  39  1   
 35  19  40  1   
 36  19  41  1   
 37  20  23  2   
 38  20  24  1   
 39  21  25  ar  
 40  21  42  1   
 41  22  26  ar  
 42  22  43  1   
 43  24  27  1   
 44  25  28  ar  
 45  25  44  1   
 46  26  28  ar  
 47  26  45  1   
 48  27  46  1   
 49  27  47  1   
 50  27  48  1   
 51  28  29  1   
 52  29  49  1   
 53  29  50  1   
 54  29  51  1   
@<TRIPOS>SUBSTRUCTURE
  1 ****  13 GROUP 4 **** **** 0

# MOE 2024.06 (io_trps.svl 2023.06)
