@<TRIPOS>MOLECULE
NONAME
42 43 1 0 0 
SMALL
USER_CHARGES


@<TRIPOS>ATOM
  1 O       -1.2120    -0.2340     0.5690 O.3   1 <1>  -0.5600 
  2 C       -2.3220    -1.0830     0.5680 C.3   1 <1>   0.1200 
  3 C       -1.2180     0.7450    -0.4280 C.3   1 <1>   0.1200 
  4 C       -3.6160    -0.2700     0.7610 C.3   1 <1>   0.3430 
  5 C       -2.4580     1.6480    -0.2800 C.3   1 <1>   0.3430 
  6 N       -3.7310     0.8440    -0.2510 N.4   1 <1>  -0.9590 
  7 C       -4.9100     1.7220    -0.0050 C.3   1 <1>   0.3430 
  8 C       -6.2050     0.9680    -0.2990 C.3   1 <1>  -0.1600 
  9 C       -7.4160     1.8880    -0.1440 C.3   1 <1>   0.1200 
 10 O       -8.5550     1.1160    -0.4190 O.3   1 <1>  -0.3630 
 11 C       -9.8020     1.6490    -0.3590 C.ar  1 <1>   0.0820 
 12 C      -10.0670     2.9750    -0.0290 C.ar  1 <1>  -0.1500 
 13 C      -10.8560     0.8000    -0.6460 C.ar  1 <1>  -0.1500 
 14 C      -11.3710     3.4460     0.0120 C.ar  1 <1>  -0.1440 
 15 C      -12.1570     1.2640    -0.6050 C.ar  1 <1>  -0.1500 
 16 C      -12.4250     2.5840    -0.2780 C.ar  1 <1>  -0.1440 
 17 C      -11.6230     4.9030     0.3770 C.3   1 <1>  -0.0970 
 18 C      -13.8720     3.0550    -0.2450 C.3   1 <1>  -0.0970 
 19 H       -2.1990    -1.7820     1.3770 H     1 <1>   0.0800 
 20 H       -2.3390    -1.6330    -0.3580 H     1 <1>   0.0800 
 21 H       -1.1960     0.2630    -1.3900 H     1 <1>   0.0800 
 22 H       -0.3200     1.3280    -0.3180 H     1 <1>   0.0800 
 23 H       -3.6100     0.1420     1.7570 H     1 <1>   0.0800 
 24 H       -4.4630    -0.9320     0.6820 H     1 <1>   0.0800 
 25 H       -2.4830     2.3520    -1.0960 H     1 <1>   0.0800 
 26 H       -2.3590     2.2060     0.6370 H     1 <1>   0.0800 
 27 H       -3.8420     0.4090    -1.1770 H     1 <1>   0.4500 
 28 H       -4.8570     2.5850    -0.6500 H     1 <1>   0.0800 
 29 H       -4.9080     2.0650     1.0180 H     1 <1>   0.0800 
 30 H       -6.3240     0.1470     0.3850 H     1 <1>   0.0800 
 31 H       -6.1900     0.5980    -1.3090 H     1 <1>   0.0800 
 32 H       -7.3850     2.7030    -0.8480 H     1 <1>   0.0800 
 33 H       -7.5000     2.2610     0.8630 H     1 <1>   0.0800 
 34 H       -9.2700     3.6540     0.1970 H     1 <1>   0.1500 
 35 H      -10.6540    -0.2240    -0.9010 H     1 <1>   0.1500 
 36 H      -12.9610     0.5870    -0.8320 H     1 <1>   0.1500 
 37 H      -10.7010     5.4210     0.5690 H     1 <1>   0.0800 
 38 H      -12.2320     4.9620     1.2600 H     1 <1>   0.0800 
 39 H      -12.1260     5.4030    -0.4310 H     1 <1>   0.0800 
 40 H      -14.1220     3.4090     0.7390 H     1 <1>   0.0800 
 41 H      -14.5440     2.2550    -0.4950 H     1 <1>   0.0800 
 42 H      -14.0170     3.8510    -0.9530 H     1 <1>   0.0800 
@<TRIPOS>BOND
  1   1   2  1   
  2   1   3  1   
  3   2   4  1   
  4   2  19  1   
  5   2  20  1   
  6   3   5  1   
  7   3  21  1   
  8   3  22  1   
  9   4   6  1   
 10   4  23  1   
 11   4  24  1   
 12   5   6  1   
 13   5  25  1   
 14   5  26  1   
 15   6   7  1   
 16   6  27  1   
 17   7   8  1   
 18   7  28  1   
 19   7  29  1   
 20   8   9  1   
 21   8  30  1   
 22   8  31  1   
 23   9  10  1   
 24   9  32  1   
 25   9  33  1   
 26  10  11  1   
 27  11  12  ar  
 28  11  13  ar  
 29  12  14  ar  
 30  12  34  1   
 31  13  15  ar  
 32  13  35  1   
 33  14  16  ar  
 34  14  17  1   
 35  15  16  ar  
 36  15  36  1   
 37  16  18  1   
 38  17  37  1   
 39  17  38  1   
 40  17  39  1   
 41  18  40  1   
 42  18  41  1   
 43  18  42  1   
@<TRIPOS>SUBSTRUCTURE
  1 ****   9 GROUP 4 **** **** 0

# MOE 2024.06 (io_trps.svl 2023.06)
