@<TRIPOS>MOLECULE
NONAME
59 62 1 0 0 
SMALL
USER_CHARGES


@<TRIPOS>ATOM
  1 F        3.5540     0.9710    -4.0520 F     1 <1>  -0.1900 
  2 C        3.0650     0.2620    -3.0710 C.ar  1 <1>   0.1900 
  3 C        3.8650    -0.6970    -2.4820 C.ar  1 <1>  -0.1500 
  4 C        1.7690     0.5000    -2.6560 C.ar  1 <1>  -0.1500 
  5 C        3.3560    -1.4460    -1.4310 C.ar  1 <1>  -0.1440 
  6 C        1.2620    -0.2530    -1.6100 C.ar  1 <1>  -0.1500 
  7 C        2.0520    -1.2190    -1.0040 C.ar  1 <1>  -0.1500 
  8 C        4.2280    -2.4940    -0.7550 C.3   1 <1>   0.2540 
  9 N        5.3850    -1.8420    -0.1070 N.3   1 <1>  -0.8100 
 10 C        4.9700    -0.9230     0.9840 C.3   1 <1>   0.1100 
 11 C        6.3650    -2.8260     0.4030 C.3   1 <1>   0.1100 
 12 C        6.1880    -0.2390     1.6510 C.3   1 <1>   0.3430 
 13 C        7.6060    -2.1220     1.0110 C.3   1 <1>   0.3430 
 14 N        7.4630    -0.6190     0.9360 N.4   1 <1>  -0.9590 
 15 C        8.6760     0.1850     1.2800 C.3   1 <1>   0.4230 
 16 C        8.4050     1.6770     1.0290 C.3   1 <1>  -0.1600 
 17 C        9.8740    -0.2780     0.4380 C.3   1 <1>  -0.1600 
 18 C        9.6560     2.5370     1.2190 C.3   1 <1>   0.3430 
 19 C       11.1010     0.6100     0.6400 C.3   1 <1>   0.3430 
 20 N       10.7500     2.0290     0.3540 N.4   1 <1>  -0.9590 
 21 C       11.9580     2.9070     0.4350 C.3   1 <1>   0.4860 
 22 C       12.9250     2.4740    -0.6480 C.ar  1 <1>  -0.1430 
 23 C       14.0810     1.7800    -0.3150 C.ar  1 <1>  -0.1500 
 24 C       12.6570     2.7580    -1.9800 C.ar  1 <1>  -0.1500 
 25 C       14.9490     1.3590    -1.3070 C.ar  1 <1>  -0.1500 
 26 C       13.5280     2.3350    -2.9690 C.ar  1 <1>  -0.1500 
 27 C       14.6710     1.6340    -2.6340 C.ar  1 <1>  -0.1500 
 28 H        4.8660    -0.8510    -2.8400 H     1 <1>   0.1500 
 29 H        1.1760     1.2550    -3.1410 H     1 <1>   0.1500 
 30 H        0.2530    -0.0890    -1.2710 H     1 <1>   0.1500 
 31 H        1.6390    -1.7950    -0.1940 H     1 <1>   0.1500 
 32 H        4.5740    -3.1840    -1.5050 H     1 <1>   0.0800 
 33 H        3.6560    -3.0470    -0.0280 H     1 <1>   0.0800 
 34 H        4.4070    -1.4600     1.7290 H     1 <1>   0.0800 
 35 H        4.3260    -0.1560     0.5870 H     1 <1>   0.0800 
 36 H        6.6870    -3.4640    -0.4040 H     1 <1>   0.0800 
 37 H        5.9060    -3.4540     1.1490 H     1 <1>   0.0800 
 38 H        6.2390    -0.5310     2.6870 H     1 <1>   0.0800 
 39 H        6.0310     0.8250     1.6140 H     1 <1>   0.0800 
 40 H        8.4730    -2.4460     0.4610 H     1 <1>   0.0800 
 41 H        7.7280    -2.4370     2.0350 H     1 <1>   0.0800 
 42 H        7.2020    -0.4760    -0.0550 H     1 <1>   0.4500 
 43 H        8.9090     0.0430     2.3250 H     1 <1>   0.0800 
 44 H        7.6680     2.0410     1.7210 H     1 <1>   0.0800 
 45 H        8.0310     1.8270     0.0310 H     1 <1>   0.0800 
 46 H        9.6200    -0.2830    -0.6070 H     1 <1>   0.0800 
 47 H       10.1610    -1.2750     0.7190 H     1 <1>   0.0800 
 48 H        9.9650     2.5100     2.2520 H     1 <1>   0.0800 
 49 H        9.4290     3.5610     0.9640 H     1 <1>   0.0800 
 50 H       11.8890     0.2830    -0.0240 H     1 <1>   0.0800 
 51 H       11.4610     0.5180     1.6530 H     1 <1>   0.0800 
 52 H       10.4660     2.0830    -0.6350 H     1 <1>   0.4500 
 53 H       12.4250     2.8240     1.4030 H     1 <1>   0.0800 
 54 H       11.6860     3.9380     0.2730 H     1 <1>   0.0800 
 55 H       14.3270     1.5610     0.7100 H     1 <1>   0.1500 
 56 H       11.7820     3.3130    -2.2710 H     1 <1>   0.1500 
 57 H       15.8460     0.8210    -1.0510 H     1 <1>   0.1500 
 58 H       13.3220     2.5550    -4.0040 H     1 <1>   0.1500 
 59 H       15.3490     1.3070    -3.4050 H     1 <1>   0.1500 
@<TRIPOS>BOND
  1   1   2  1   
  2   2   3  ar  
  3   2   4  ar  
  4   3   5  ar  
  5   3  28  1   
  6   4   6  ar  
  7   4  29  1   
  8   5   7  ar  
  9   5   8  1   
 10   6   7  ar  
 11   6  30  1   
 12   7  31  1   
 13   8   9  1   
 14   8  32  1   
 15   8  33  1   
 16   9  10  1   
 17   9  11  1   
 18  10  12  1   
 19  10  34  1   
 20  10  35  1   
 21  11  13  1   
 22  11  36  1   
 23  11  37  1   
 24  12  14  1   
 25  12  38  1   
 26  12  39  1   
 27  13  14  1   
 28  13  40  1   
 29  13  41  1   
 30  14  15  1   
 31  14  42  1   
 32  15  16  1   
 33  15  17  1   
 34  15  43  1   
 35  16  18  1   
 36  16  44  1   
 37  16  45  1   
 38  17  19  1   
 39  17  46  1   
 40  17  47  1   
 41  18  20  1   
 42  18  48  1   
 43  18  49  1   
 44  19  20  1   
 45  19  50  1   
 46  19  51  1   
 47  20  21  1   
 48  20  52  1   
 49  21  22  1   
 50  21  53  1   
 51  21  54  1   
 52  22  23  ar  
 53  22  24  ar  
 54  23  25  ar  
 55  23  55  1   
 56  24  26  ar  
 57  24  56  1   
 58  25  27  ar  
 59  25  57  1   
 60  26  27  ar  
 61  26  58  1   
 62  27  59  1   
@<TRIPOS>SUBSTRUCTURE
  1 ****  14 GROUP 4 **** **** 0

# MOE 2024.06 (io_trps.svl 2023.06)
