@<TRIPOS>MOLECULE
NONAME
29 30 1 0 0 
SMALL
USER_CHARGES


@<TRIPOS>ATOM
  1 F       -1.4450     1.2970    -1.3890 F     1 <1>  -0.1900 
  2 C       -0.8060     2.1830    -0.6720 C.ar  1 <1>   0.1900 
  3 C       -1.2940     2.4930     0.5910 C.ar  1 <1>  -0.1440 
  4 C        0.3220     2.7780    -1.2140 C.ar  1 <1>  -0.1500 
  5 C       -0.6110     3.4430     1.3400 C.ar  1 <1>  -0.1500 
  6 C       -2.5340     1.8030     1.1250 C.3   1 <1>   0.4870 
  7 C        0.9970     3.7280    -0.4640 C.ar  1 <1>  -0.1500 
  8 C        0.5150     4.0400     0.7960 C.ar  1 <1>   0.1900 
  9 N       -3.7180     2.2480     0.3440 N.4   1 <1>  -0.9590 
 10 F        1.1440     4.9360     1.5040 F     1 <1>  -0.1900 
 11 C       -3.9740     3.7280     0.3990 C.3   1 <1>   0.3430 
 12 C       -4.9650     1.4710     0.6480 C.3   1 <1>   0.3430 
 13 C       -5.1960     4.1210    -0.4630 C.3   1 <1>   0.1200 
 14 C       -6.1760     2.0010    -0.1550 C.3   1 <1>   0.1200 
 15 O       -5.7860     2.9980    -1.0610 O.3   1 <1>  -0.5600 
 16 H        0.6630     2.5040    -2.1980 H     1 <1>   0.1500 
 17 H       -0.9240     3.7290     2.3290 H     1 <1>   0.1500 
 18 H       -2.6660     2.0380     2.1680 H     1 <1>   0.0800 
 19 H       -2.4110     0.7360     1.0280 H     1 <1>   0.0800 
 20 H        1.8780     4.2170    -0.8420 H     1 <1>   0.1500 
 21 H       -3.5160     2.0550    -0.6510 H     1 <1>   0.4500 
 22 H       -3.1100     4.2670     0.0430 H     1 <1>   0.0800 
 23 H       -4.1510     4.0350     1.4160 H     1 <1>   0.0800 
 24 H       -5.1940     1.5310     1.6990 H     1 <1>   0.0800 
 25 H       -4.8170     0.4310     0.4070 H     1 <1>   0.0800 
 26 H       -4.8930     4.7880    -1.2520 H     1 <1>   0.0800 
 27 H       -5.9380     4.6240     0.1330 H     1 <1>   0.0800 
 28 H       -6.9240     2.4080     0.5030 H     1 <1>   0.0800 
 29 H       -6.6260     1.2020    -0.7190 H     1 <1>   0.0800 
@<TRIPOS>BOND
  1   1   2  1   
  2   2   3  ar  
  3   2   4  ar  
  4   3   5  ar  
  5   3   6  1   
  6   4   7  ar  
  7   4  16  1   
  8   5   8  ar  
  9   5  17  1   
 10   6   9  1   
 11   6  18  1   
 12   6  19  1   
 13   7   8  ar  
 14   7  20  1   
 15   8  10  1   
 16   9  11  1   
 17   9  12  1   
 18   9  21  1   
 19  11  13  1   
 20  11  22  1   
 21  11  23  1   
 22  12  14  1   
 23  12  24  1   
 24  12  25  1   
 25  13  15  1   
 26  13  26  1   
 27  13  27  1   
 28  14  15  1   
 29  14  28  1   
 30  14  29  1   
@<TRIPOS>SUBSTRUCTURE
  1 ****   3 GROUP 4 **** **** 0

# MOE 2024.06 (io_trps.svl 2023.06)
