@<TRIPOS>MOLECULE
NONAME
37 37 1 0 0 
SMALL
USER_CHARGES


@<TRIPOS>ATOM
  1 S       -0.2200    -0.4770     0.1490 S.o2  1 <1>   1.3330 
  2 O        0.8410    -0.2750     1.1070 O.2   1 <1>  -0.6500 
  3 O       -0.2200    -1.6470    -0.6920 O.2   1 <1>  -0.6500 
  4 N       -0.1870     0.8870    -0.9130 N.am  1 <1>  -0.6930 
  5 C       -1.8130    -0.3350     0.9320 C.3   1 <1>  -0.1350 
  6 C       -0.5220     2.1710    -0.4930 C.ar  1 <1>   0.1990 
  7 C        0.7450     0.7730    -2.0800 C.3   1 <1>   0.2570 
  8 C       -1.4560     2.9020    -1.2170 C.ar  1 <1>  -0.1500 
  9 C        0.0500     2.7550     0.6340 C.ar  1 <1>  -0.1500 
 10 C        2.1800     1.2380    -1.8010 C.2   1 <1>   0.5690 
 11 C       -1.8180     4.1780    -0.8250 C.ar  1 <1>  -0.1500 
 12 C       -0.3110     4.0300     1.0310 C.ar  1 <1>  -0.1500 
 13 O        2.7590     1.8530    -2.6650 O.2   1 <1>  -0.5700 
 14 N        2.7770     0.9670    -0.6070 N.am  1 <1>  -0.7300 
 15 C       -1.2470     4.7440     0.3020 C.ar  1 <1>  -0.1500 
 16 C        4.1360     1.4120    -0.2140 C.3   1 <1>   0.1400 
 17 C        4.1030     2.8770     0.2200 C.3   1 <1>   0.1200 
 18 O        5.3490     3.2170     0.7420 O.3   1 <1>  -0.5600 
 19 C        5.4600     4.5570     1.0970 C.3   1 <1>   0.0400 
 20 H       -1.9650    -1.1540     1.6060 H     1 <1>   0.0800 
 21 H       -2.5890    -0.3480     0.1930 H     1 <1>   0.0800 
 22 H       -1.8770     0.5810     1.4850 H     1 <1>   0.0800 
 23 H        0.3590     1.3700    -2.8860 H     1 <1>   0.0800 
 24 H        0.7820    -0.2430    -2.4280 H     1 <1>   0.0800 
 25 H       -1.9020     2.4650    -2.0910 H     1 <1>   0.1500 
 26 H        0.7860     2.2190     1.2030 H     1 <1>   0.1500 
 27 H       -2.5440     4.7340    -1.3950 H     1 <1>   0.1500 
 28 H        0.1380     4.4710     1.9050 H     1 <1>   0.1500 
 29 H        2.2420     0.4780     0.1280 H     1 <1>   0.3700 
 30 H       -1.5270     5.7370     0.6090 H     1 <1>   0.1500 
 31 H        4.8040     1.3040    -1.0510 H     1 <1>   0.0800 
 32 H        4.4860     0.7990     0.5990 H     1 <1>   0.0800 
 33 H        3.3620     3.0240     0.9870 H     1 <1>   0.0800 
 34 H        3.8950     3.5050    -0.6290 H     1 <1>   0.0800 
 35 H        6.4480     4.7190     1.4890 H     1 <1>   0.0800 
 36 H        4.7270     4.7860     1.8520 H     1 <1>   0.0800 
 37 H        5.3110     5.1690     0.2240 H     1 <1>   0.0800 
@<TRIPOS>BOND
  1   1   2  2   
  2   1   3  2   
  3   1   4  am  
  4   1   5  1   
  5   4   6  1   
  6   4   7  1   
  7   5  20  1   
  8   5  21  1   
  9   5  22  1   
 10   6   8  ar  
 11   6   9  ar  
 12   7  10  1   
 13   7  23  1   
 14   7  24  1   
 15   8  11  ar  
 16   8  25  1   
 17   9  12  ar  
 18   9  26  1   
 19  10  13  2   
 20  10  14  am  
 21  11  15  ar  
 22  11  27  1   
 23  12  15  ar  
 24  12  28  1   
 25  14  16  1   
 26  14  29  1   
 27  15  30  1   
 28  16  17  1   
 29  16  31  1   
 30  16  32  1   
 31  17  18  1   
 32  17  33  1   
 33  17  34  1   
 34  18  19  1   
 35  19  35  1   
 36  19  36  1   
 37  19  37  1   
@<TRIPOS>SUBSTRUCTURE
  1 ****   9 GROUP 4 **** **** 0

# MOE 2024.06 (io_trps.svl 2023.06)
