@<TRIPOS>MOLECULE
NONAME
47 49 1 0 0 
SMALL
USER_CHARGES


@<TRIPOS>ATOM
  1 O        1.4960    -1.6220     2.7600 O.2   1 <1>  -0.5700 
  2 C        1.4180    -1.7290     1.5500 C.2   1 <1>   0.5440 
  3 N        1.2480    -0.5870     0.7910 N.am  1 <1>  -0.6600 
  4 C        1.4790    -3.0460     0.9560 C.ar  1 <1>   0.0860 
  5 C        1.3580    -0.5910    -0.7020 C.3   1 <1>   0.1400 
  6 C        1.1310     0.7460     1.4610 C.3   1 <1>   0.1400 
  7 C        0.3650    -3.5960     0.3010 C.ar  1 <1>   0.1170 
  8 C        2.6560    -3.7910     1.0200 C.ar  1 <1>  -0.1500 
  9 C        2.1200     0.6480    -1.1790 C.3   1 <1>  -0.1600 
 10 C        0.5740     1.8060     0.5030 C.3   1 <1>  -0.1600 
 11 N       -0.8380    -2.8780     0.2690 N.am  1 <1>  -0.5470 
 12 C        0.4760    -4.8540    -0.2850 C.ar  1 <1>  -0.1500 
 13 C        2.7490    -5.0390     0.4370 C.ar  1 <1>  -0.1500 
 14 C        1.4270     1.9590    -0.7680 C.3   1 <1>  -0.1600 
 15 C       -1.7610    -2.7120    -0.7360 C.2   1 <1>   0.5440 
 16 C        1.6540    -5.5700    -0.2230 C.ar  1 <1>  -0.1500 
 17 O       -1.7110    -3.4160    -1.7240 O.2   1 <1>  -0.5700 
 18 C       -2.7710    -1.6740    -0.6150 C.ar  1 <1>   0.0860 
 19 C       -2.5810    -0.5510     0.1920 C.ar  1 <1>  -0.1500 
 20 C       -3.9740    -1.7560    -1.3170 C.ar  1 <1>  -0.1500 
 21 C       -3.5380     0.4410     0.3020 C.ar  1 <1>   0.0820 
 22 C       -4.9420    -0.7730    -1.2160 C.ar  1 <1>  -0.1500 
 23 O       -3.2370     1.4860     1.1110 O.3   1 <1>  -0.3630 
 24 C       -4.7300     0.3280    -0.4070 C.ar  1 <1>  -0.1500 
 25 C       -4.1420     2.5520     1.3010 C.3   1 <1>   0.0400 
 26 H        0.3700    -0.5950    -1.1300 H     1 <1>   0.0800 
 27 H        1.8740    -1.4730    -1.0400 H     1 <1>   0.0800 
 28 H        2.1060     1.0450     1.8060 H     1 <1>   0.0800 
 29 H        0.4860     0.6610     2.3190 H     1 <1>   0.0800 
 30 H        3.5030    -3.3750     1.5390 H     1 <1>   0.1500 
 31 H        2.2260     0.6170    -2.2490 H     1 <1>   0.0800 
 32 H        3.1090     0.6160    -0.7560 H     1 <1>   0.0800 
 33 H        0.5130     2.7520     1.0120 H     1 <1>   0.0800 
 34 H       -0.4290     1.5280     0.2320 H     1 <1>   0.0800 
 35 H       -0.9470    -2.2220     1.0450 H     1 <1>   0.3700 
 36 H       -0.3740    -5.2790    -0.7900 H     1 <1>   0.1500 
 37 H        3.6670    -5.5990     0.4930 H     1 <1>   0.1500 
 38 H        0.7910     2.2990    -1.5670 H     1 <1>   0.0800 
 39 H        2.1800     2.7110    -0.6090 H     1 <1>   0.0800 
 40 H        1.7200    -6.5420    -0.6830 H     1 <1>   0.1500 
 41 H       -1.6710    -0.4250     0.7480 H     1 <1>   0.1500 
 42 H       -4.1470    -2.6070    -1.9550 H     1 <1>   0.1500 
 43 H       -5.8610    -0.8660    -1.7690 H     1 <1>   0.1500 
 44 H       -5.4950     1.0790    -0.3430 H     1 <1>   0.1500 
 45 H       -3.6920     3.2550     1.9790 H     1 <1>   0.0800 
 46 H       -5.0520     2.1670     1.7250 H     1 <1>   0.0800 
 47 H       -4.3270     3.0270     0.3540 H     1 <1>   0.0800 
@<TRIPOS>BOND
  1   1   2  2   
  2   2   3  am  
  3   2   4  1   
  4   3   5  1   
  5   3   6  1   
  6   4   7  ar  
  7   4   8  ar  
  8   5   9  1   
  9   5  26  1   
 10   5  27  1   
 11   6  10  1   
 12   6  28  1   
 13   6  29  1   
 14   7  11  1   
 15   7  12  ar  
 16   8  13  ar  
 17   8  30  1   
 18   9  14  1   
 19   9  31  1   
 20   9  32  1   
 21  10  14  1   
 22  10  33  1   
 23  10  34  1   
 24  11  15  am  
 25  11  35  1   
 26  12  16  ar  
 27  12  36  1   
 28  13  16  ar  
 29  13  37  1   
 30  14  38  1   
 31  14  39  1   
 32  15  17  2   
 33  15  18  1   
 34  16  40  1   
 35  18  19  ar  
 36  18  20  ar  
 37  19  21  ar  
 38  19  41  1   
 39  20  22  ar  
 40  20  42  1   
 41  21  23  1   
 42  21  24  ar  
 43  22  24  ar  
 44  22  43  1   
 45  23  25  1   
 46  24  44  1   
 47  25  45  1   
 48  25  46  1   
 49  25  47  1   
@<TRIPOS>SUBSTRUCTURE
  1 ****  11 GROUP 4 **** **** 0

# MOE 2024.06 (io_trps.svl 2023.06)
