@<TRIPOS>MOLECULE
NONAME
41 42 1 0 0 
SMALL
USER_CHARGES


@<TRIPOS>ATOM
  1 S       -0.1400     0.0920     0.3600 S.o2  1 <1>   1.4470 
  2 O       -0.1360    -1.3440     0.2030 O.2   1 <1>  -0.6500 
  3 O       -0.6230     0.6910     1.5830 O.2   1 <1>  -0.6500 
  4 N       -1.0590     0.6330    -0.9390 N.am  1 <1>  -0.9140 
  5 C        1.5010     0.7550    -0.0190 C.ar  1 <1>  -0.0090 
  6 C       -2.5000     0.7710    -0.7900 C.3   1 <1>   0.2760 
  7 C        1.6830     2.1160    -0.2340 C.ar  1 <1>  -0.1500 
  8 C        2.6160    -0.0720    -0.0940 C.ar  1 <1>  -0.1500 
  9 C       -2.8800     2.0780    -0.0810 C.3   1 <1>  -0.1600 
 10 C       -3.1760    -0.4500    -0.1480 C.3   1 <1>  -0.1600 
 11 C        2.9340     2.6360    -0.5140 C.ar  1 <1>  -0.1500 
 12 C        3.8700     0.4420    -0.3730 C.ar  1 <1>  -0.1500 
 13 C       -4.4070     2.2530    -0.0520 C.3   1 <1>  -0.1600 
 14 C       -4.7020    -0.2710    -0.1230 C.3   1 <1>  -0.1600 
 15 C        4.0340     1.7990    -0.5850 C.ar  1 <1>  -0.1430 
 16 C       -5.0930     1.0360     0.5850 C.3   1 <1>  -0.1600 
 17 C        5.4110     2.3700    -0.8730 C.3   1 <1>  -0.0170 
 18 C        6.0960     2.7810     0.4310 C.3   1 <1>  -0.2660 
 19 C        7.4600     3.3420     0.1440 C.2   1 <1>   0.9060 
 20 O        7.5640     4.5540    -0.0580 O.co2 1 <1>  -0.9000 
 21 O        8.4140     2.5620     0.0950 O.co2 1 <1>  -0.9000 
 22 H       -0.9190    -0.1070    -1.6220 H     1 <1>   0.4200 
 23 H       -2.8960     0.8520    -1.7890 H     1 <1>   0.0800 
 24 H        0.8350     2.7770    -0.1780 H     1 <1>   0.1500 
 25 H        2.5060    -1.1300     0.0720 H     1 <1>   0.1500 
 26 H       -2.4340     2.9090    -0.5980 H     1 <1>   0.0800 
 27 H       -2.5250     2.0760     0.9320 H     1 <1>   0.0800 
 28 H       -2.8410    -0.5730     0.8670 H     1 <1>   0.0800 
 29 H       -2.9310    -1.3400    -0.7010 H     1 <1>   0.0800 
 30 H        3.0570     3.6940    -0.6710 H     1 <1>   0.1500 
 31 H        4.7240    -0.2120    -0.4190 H     1 <1>   0.1500 
 32 H       -4.7720     2.3850    -1.0560 H     1 <1>   0.0800 
 33 H       -4.6550     3.1390     0.5070 H     1 <1>   0.0800 
 34 H       -5.1530    -1.1040     0.3880 H     1 <1>   0.0800 
 35 H       -5.0800    -0.2580    -1.1310 H     1 <1>   0.0800 
 36 H       -6.1620     1.1620     0.5430 H     1 <1>   0.0800 
 37 H       -4.8110     0.9740     1.6220 H     1 <1>   0.0800 
 38 H        5.3310     3.2290    -1.5180 H     1 <1>   0.0800 
 39 H        6.0200     1.6400    -1.3780 H     1 <1>   0.0800 
 40 H        6.2090     1.9330     1.0780 H     1 <1>   0.0800 
 41 H        5.5210     3.5320     0.9360 H     1 <1>   0.0800 
@<TRIPOS>BOND
  1   1   2  2   
  2   1   3  2   
  3   1   4  am  
  4   1   5  1   
  5   4   6  1   
  6   4  22  1   
  7   5   7  ar  
  8   5   8  ar  
  9   6   9  1   
 10   6  10  1   
 11   6  23  1   
 12   7  11  ar  
 13   7  24  1   
 14   8  12  ar  
 15   8  25  1   
 16   9  13  1   
 17   9  26  1   
 18   9  27  1   
 19  10  14  1   
 20  10  28  1   
 21  10  29  1   
 22  11  15  ar  
 23  11  30  1   
 24  12  15  ar  
 25  12  31  1   
 26  13  16  1   
 27  13  32  1   
 28  13  33  1   
 29  14  16  1   
 30  14  34  1   
 31  14  35  1   
 32  15  17  1   
 33  16  36  1   
 34  16  37  1   
 35  17  18  1   
 36  17  38  1   
 37  17  39  1   
 38  18  19  1   
 39  18  40  1   
 40  18  41  1   
 41  19  20  ar  
 42  19  21  ar  
@<TRIPOS>SUBSTRUCTURE
  1 ****   5 GROUP 4 **** **** 0

# MOE 2024.06 (io_trps.svl 2023.06)
