@<TRIPOS>MOLECULE
NONAME
53 55 1 0 0 
SMALL
USER_CHARGES


@<TRIPOS>ATOM
  1 O       -1.0840     0.0650    -0.8510 O.2   1 <1>  -0.5700 
  2 C       -1.8740     0.8630    -0.3890 C.2   1 <1>   0.6340 
  3 O       -2.7990     0.3990     0.4690 O.3   1 <1>  -0.4300 
  4 C       -1.8370     2.2790    -0.7090 C.ar  1 <1>   0.0860 
  5 C       -2.8520    -0.9680     0.8350 C.3   1 <1>   0.0400 
  6 C       -2.9340     3.1540    -0.5490 C.ar  1 <1>   0.1170 
  7 C       -0.6460     2.8150    -1.2130 C.ar  1 <1>  -0.1500 
  8 N       -4.1640     2.6860    -0.0600 N.am  1 <1>  -0.5470 
  9 C       -2.7820     4.5020    -0.8740 C.ar  1 <1>  -0.1500 
 10 C       -0.5180     4.1490    -1.5360 C.ar  1 <1>  -0.1500 
 11 C       -5.4520     3.1200    -0.2260 C.2   1 <1>   0.5690 
 12 C       -1.5920     4.9990    -1.3630 C.ar  1 <1>  -0.1500 
 13 O       -5.7440     4.0810    -0.8930 O.2   1 <1>  -0.5700 
 14 C       -6.5470     2.3150     0.4810 C.3   1 <1>  -0.0190 
 15 C       -6.6750     0.8980    -0.1150 C.3   1 <1>  -0.1600 
 16 C       -7.9240     3.0140     0.4540 C.3   1 <1>  -0.1600 
 17 C       -7.7600     0.0840     0.5960 C.3   1 <1>   0.1400 
 18 C       -9.0070     2.1840     1.1480 C.3   1 <1>   0.1400 
 19 N       -9.0510     0.8220     0.5470 N.am  1 <1>  -0.6600 
 20 C      -10.1330     0.3350    -0.1630 C.2   1 <1>   0.5440 
 21 O       -9.9730    -0.6240    -0.8950 O.2   1 <1>  -0.5700 
 22 C      -11.4490     0.9370    -0.0710 C.ar  1 <1>   0.0860 
 23 C      -12.0930     1.1050     1.1560 C.ar  1 <1>  -0.1500 
 24 C      -12.1210     1.3650    -1.2150 C.ar  1 <1>  -0.1500 
 25 C      -13.3420     1.6920     1.2360 C.ar  1 <1>  -0.1500 
 26 C      -13.3710     1.9520    -1.1450 C.ar  1 <1>  -0.1500 
 27 C      -13.9910     2.1240     0.0900 C.ar  1 <1>   0.0830 
 28 O      -15.2070     2.6910     0.2510 O.3   1 <1>  -0.3620 
 29 C      -15.9700     3.1350    -0.8480 C.3   1 <1>   0.0400 
 30 H       -3.6590    -1.1080     1.5320 H     1 <1>   0.0800 
 31 H       -1.9170    -1.2430     1.2910 H     1 <1>   0.0800 
 32 H       -3.0180    -1.5590    -0.0500 H     1 <1>   0.0800 
 33 H        0.2020     2.1650    -1.3540 H     1 <1>   0.1500 
 34 H       -4.0880     1.7920     0.4340 H     1 <1>   0.3700 
 35 H       -3.6040     5.1820    -0.7420 H     1 <1>   0.1500 
 36 H        0.4130     4.5290    -1.9220 H     1 <1>   0.1500 
 37 H       -1.5020     6.0430    -1.6100 H     1 <1>   0.1500 
 38 H       -6.2520     2.2220     1.5110 H     1 <1>   0.0800 
 39 H       -5.7420     0.3710    -0.0360 H     1 <1>   0.0800 
 40 H       -6.9260     0.9650    -1.1600 H     1 <1>   0.0800 
 41 H       -8.2230     3.1860    -0.5660 H     1 <1>   0.0800 
 42 H       -7.8500     3.9740     0.9350 H     1 <1>   0.0800 
 43 H       -7.4890    -0.0740     1.6260 H     1 <1>   0.0800 
 44 H       -7.8520    -0.8810     0.1280 H     1 <1>   0.0800 
 45 H       -9.9520     2.6870     1.0400 H     1 <1>   0.0800 
 46 H       -8.7900     2.0980     2.1980 H     1 <1>   0.0800 
 47 H      -11.6030     0.7660     2.0510 H     1 <1>   0.1500 
 48 H      -11.6450     1.2260    -2.1710 H     1 <1>   0.1500 
 49 H      -13.8270     1.8190     2.1870 H     1 <1>   0.1500 
 50 H      -13.8460     2.2670    -2.0540 H     1 <1>   0.1500 
 51 H      -16.8950     3.5340    -0.4730 H     1 <1>   0.0800 
 52 H      -16.1680     2.2990    -1.4950 H     1 <1>   0.0800 
 53 H      -15.4240     3.9030    -1.3650 H     1 <1>   0.0800 
@<TRIPOS>BOND
  1   1   2  2   
  2   2   3  1   
  3   2   4  1   
  4   3   5  1   
  5   4   6  ar  
  6   4   7  ar  
  7   5  30  1   
  8   5  31  1   
  9   5  32  1   
 10   6   8  1   
 11   6   9  ar  
 12   7  10  ar  
 13   7  33  1   
 14   8  11  am  
 15   8  34  1   
 16   9  12  ar  
 17   9  35  1   
 18  10  12  ar  
 19  10  36  1   
 20  11  13  2   
 21  11  14  1   
 22  12  37  1   
 23  14  15  1   
 24  14  16  1   
 25  14  38  1   
 26  15  17  1   
 27  15  39  1   
 28  15  40  1   
 29  16  18  1   
 30  16  41  1   
 31  16  42  1   
 32  17  19  1   
 33  17  43  1   
 34  17  44  1   
 35  18  19  1   
 36  18  45  1   
 37  18  46  1   
 38  19  20  am  
 39  20  21  2   
 40  20  22  1   
 41  22  23  ar  
 42  22  24  ar  
 43  23  25  ar  
 44  23  47  1   
 45  24  26  ar  
 46  24  48  1   
 47  25  27  ar  
 48  25  49  1   
 49  26  27  ar  
 50  26  50  1   
 51  27  28  1   
 52  28  29  1   
 53  29  51  1   
 54  29  52  1   
 55  29  53  1   
@<TRIPOS>SUBSTRUCTURE
  1 ****  14 GROUP 4 **** **** 0

# MOE 2024.06 (io_trps.svl 2023.06)
