@<TRIPOS>MOLECULE
NONAME
31 31 1 0 0 
SMALL
USER_CHARGES


@<TRIPOS>ATOM
  1 CL       0.0150     0.7360    -2.4500 Cl    1 <1>  -0.1770 
  2 C        0.0640     2.2000    -1.5020 C.ar  1 <1>   0.1770 
  3 C       -1.1210     2.8000    -1.1250 C.ar  1 <1>  -0.1500 
  4 C        1.2840     2.7350    -1.1440 C.ar  1 <1>  -0.1500 
  5 C       -1.1130     3.9630    -0.3610 C.ar  1 <1>  -0.0090 
  6 C        1.3120     3.8990    -0.3980 C.ar  1 <1>  -0.1500 
  7 S       -2.6520     4.7770     0.1460 S.o2  1 <1>   1.4470 
  8 C        0.1200     4.5140    -0.0130 C.ar  1 <1>   0.0830 
  9 O       -2.7090     5.0080     1.5690 O.2   1 <1>  -0.6500 
 10 O       -2.9990     5.8260    -0.7850 O.2   1 <1>  -0.6500 
 11 N       -3.8060     3.5720    -0.0140 N.am  1 <1>  -0.9140 
 12 O        0.1010     5.6640     0.7040 O.3   1 <1>  -0.3620 
 13 C       -5.1580     4.0960    -0.2650 C.3   1 <1>   0.3370 
 14 C        1.2780     6.3080     1.1410 C.3   1 <1>   0.0400 
 15 C       -6.2380     3.2920     0.4950 C.2   1 <1>   0.5690 
 16 C       -5.4140     4.0360    -1.7750 C.3   1 <1>  -0.2400 
 17 O       -7.2060     3.8480     0.9460 O.2   1 <1>  -0.5700 
 18 N       -6.0950     1.9580     0.6660 N.am  1 <1>  -0.8000 
 19 H       -2.0470     2.3510    -1.4370 H     1 <1>   0.1500 
 20 H        2.1930     2.2480    -1.4490 H     1 <1>   0.1500 
 21 H        2.2680     4.3100    -0.1300 H     1 <1>   0.1500 
 22 H       -3.8430     3.2310     0.9480 H     1 <1>   0.4200 
 23 H       -5.2370     5.1170     0.0740 H     1 <1>   0.0800 
 24 H        0.9910     7.1840     1.6950 H     1 <1>   0.0800 
 25 H        1.8610     6.5940     0.2840 H     1 <1>   0.0800 
 26 H        1.8280     5.6390     1.7800 H     1 <1>   0.0800 
 27 H       -5.3470     3.0230    -2.1280 H     1 <1>   0.0800 
 28 H       -4.7090     4.6470    -2.3080 H     1 <1>   0.0800 
 29 H       -6.4010     4.4070    -1.9850 H     1 <1>   0.0800 
 30 H       -6.8200     1.4310     1.1550 H     1 <1>   0.3700 
 31 H       -5.3340     1.4230     0.2450 H     1 <1>   0.3700 
@<TRIPOS>BOND
  1   1   2  1   
  2   2   3  ar  
  3   2   4  ar  
  4   3   5  ar  
  5   3  19  1   
  6   4   6  ar  
  7   4  20  1   
  8   5   7  1   
  9   5   8  ar  
 10   6   8  ar  
 11   6  21  1   
 12   7   9  2   
 13   7  10  2   
 14   7  11  am  
 15   8  12  1   
 16  11  13  1   
 17  11  22  1   
 18  12  14  1   
 19  13  15  1   
 20  13  16  1   
 21  13  23  1   
 22  14  24  1   
 23  14  25  1   
 24  14  26  1   
 25  15  17  2   
 26  15  18  am  
 27  16  27  1   
 28  16  28  1   
 29  16  29  1   
 30  18  30  1   
 31  18  31  1   
@<TRIPOS>SUBSTRUCTURE
  1 ****   7 GROUP 4 **** **** 0

# MOE 2024.06 (io_trps.svl 2023.06)
