@<TRIPOS>MOLECULE
NONAME
31 32 1 0 0 
SMALL
USER_CHARGES


@<TRIPOS>ATOM
  1 CL       0.0360     0.1450    -0.0330 Cl    1 <1>  -0.1770 
  2 C        1.5490    -0.7270    -0.1550 C.ar  1 <1>   0.1770 
  3 C        2.7690    -0.0760    -0.0090 C.ar  1 <1>  -0.1440 
  4 C        1.4680    -2.0840    -0.4070 C.ar  1 <1>  -0.1500 
  5 C        3.9440    -0.8240    -0.1400 C.ar  1 <1>   0.1170 
  6 C        2.8350     1.4230     0.2890 C.3   1 <1>  -0.0970 
  7 C        2.6300    -2.8210    -0.5260 C.ar  1 <1>  -0.1500 
  8 N        5.1940    -0.1940    -0.0440 N.am  1 <1>  -0.5470 
  9 C        3.8530    -2.1910    -0.3950 C.ar  1 <1>  -0.1500 
 10 C        6.4060    -0.6480     0.3920 C.2   1 <1>   0.6900 
 11 O        6.5290    -1.7580     0.8750 O.2   1 <1>  -0.5700 
 12 N        7.4880     0.1850     0.2970 N.am  1 <1>  -0.6600 
 13 C        8.8400    -0.2400     0.7200 C.3   1 <1>   0.1400 
 14 C        7.5440     1.4540    -0.4610 C.3   1 <1>   0.1400 
 15 C        9.7920     0.6740    -0.0440 C.3   1 <1>  -0.1600 
 16 C        8.9810     1.9390    -0.3090 C.3   1 <1>  -0.1600 
 17 H        0.5060    -2.5520    -0.5090 H     1 <1>   0.1500 
 18 H        1.9070     1.7960     0.6800 H     1 <1>   0.0800 
 19 H        3.0660     1.9650    -0.6110 H     1 <1>   0.0800 
 20 H        3.5890     1.6270     1.0280 H     1 <1>   0.0800 
 21 H        2.5860    -3.8790    -0.7200 H     1 <1>   0.1500 
 22 H        5.1920     0.8020    -0.2220 H     1 <1>   0.3700 
 23 H        4.7520    -2.7720    -0.4970 H     1 <1>   0.1500 
 24 H        9.0130    -1.2770     0.4860 H     1 <1>   0.0800 
 25 H        8.9370    -0.0900     1.7820 H     1 <1>   0.0800 
 26 H        6.8480     2.1730    -0.0650 H     1 <1>   0.0800 
 27 H        7.3240     1.2560    -1.4970 H     1 <1>   0.0800 
 28 H       10.0530     0.2030    -0.9750 H     1 <1>   0.0800 
 29 H       10.6910     0.8690     0.5140 H     1 <1>   0.0800 
 30 H        9.0410     2.5940     0.5430 H     1 <1>   0.0800 
 31 H        9.3210     2.4680    -1.1810 H     1 <1>   0.0800 
@<TRIPOS>BOND
  1   1   2  1   
  2   2   3  ar  
  3   2   4  ar  
  4   3   5  ar  
  5   3   6  1   
  6   4   7  ar  
  7   4  17  1   
  8   5   8  1   
  9   5   9  ar  
 10   6  18  1   
 11   6  19  1   
 12   6  20  1   
 13   7   9  ar  
 14   7  21  1   
 15   8  10  am  
 16   8  22  1   
 17   9  23  1   
 18  10  11  2   
 19  10  12  am  
 20  12  13  1   
 21  12  14  1   
 22  13  15  1   
 23  13  24  1   
 24  13  25  1   
 25  14  16  1   
 26  14  26  1   
 27  14  27  1   
 28  15  16  1   
 29  15  28  1   
 30  15  29  1   
 31  16  30  1   
 32  16  31  1   
@<TRIPOS>SUBSTRUCTURE
  1 ****   8 GROUP 4 **** **** 0

# MOE 2024.06 (io_trps.svl 2023.06)
