@<TRIPOS>MOLECULE
NONAME
35 35 1 0 0 
SMALL
USER_CHARGES


@<TRIPOS>ATOM
  1 S        0.0180     0.0920     0.1700 S.o2  1 <1>   1.4470 
  2 O        0.3050     0.7470     1.4270 O.2   1 <1>  -0.6500 
  3 O        0.1480     0.8340    -1.0640 O.2   1 <1>  -0.6500 
  4 N        1.1540    -1.1270    -0.0200 N.am  1 <1>  -0.9140 
  5 C       -1.5860    -0.7680     0.2580 C.ar  1 <1>  -0.0090 
  6 C        2.4900    -0.7160     0.3790 C.3   1 <1>   0.1960 
  7 C       -2.7960    -0.1220    -0.0090 C.ar  1 <1>  -0.1430 
  8 C       -1.6410    -2.1100     0.6250 C.ar  1 <1>  -0.1500 
  9 C        3.5180    -1.7830    -0.0290 C.3   1 <1>  -0.0800 
 10 C       -3.9960    -0.8140     0.0700 C.ar  1 <1>  -0.1500 
 11 C       -2.8410     1.3540    -0.3890 C.3   1 <1>  -0.0970 
 12 C       -2.8380    -2.7960     0.7050 C.ar  1 <1>  -0.1500 
 13 C        4.9140    -1.3810     0.4640 C.3   1 <1>  -0.2400 
 14 C        3.5580    -2.0050    -1.5510 C.3   1 <1>  -0.2400 
 15 C       -4.0260    -2.1500     0.4250 C.ar  1 <1>  -0.1430 
 16 C       -5.3480    -2.8920     0.5050 C.3   1 <1>  -0.0970 
 17 H        1.1890    -1.2480    -1.0300 H     1 <1>   0.4200 
 18 H        2.5140    -0.5800     1.4490 H     1 <1>   0.0800 
 19 H        2.7390     0.2250    -0.0860 H     1 <1>   0.0800 
 20 H       -0.7320    -2.6370     0.8590 H     1 <1>   0.1500 
 21 H        3.2500    -2.7090     0.4520 H     1 <1>   0.0800 
 22 H       -4.9220    -0.3090    -0.1460 H     1 <1>   0.1500 
 23 H       -2.2800     1.9420     0.3160 H     1 <1>   0.0800 
 24 H       -3.8510     1.7220    -0.3940 H     1 <1>   0.0800 
 25 H       -2.4260     1.4960    -1.3710 H     1 <1>   0.0800 
 26 H       -2.8390    -3.8350     0.9880 H     1 <1>   0.1500 
 27 H        5.2290    -0.4590     0.0080 H     1 <1>   0.0800 
 28 H        5.6310    -2.1450     0.2220 H     1 <1>   0.0800 
 29 H        4.9100    -1.2510     1.5330 H     1 <1>   0.0800 
 30 H        3.7650    -1.0830    -2.0650 H     1 <1>   0.0800 
 31 H        2.6220    -2.3980    -1.9060 H     1 <1>   0.0800 
 32 H        4.3260    -2.7160    -1.8020 H     1 <1>   0.0800 
 33 H       -6.1170    -2.2450     0.8880 H     1 <1>   0.0800 
 34 H       -5.2670    -3.7430     1.1560 H     1 <1>   0.0800 
 35 H       -5.6350    -3.2310    -0.4750 H     1 <1>   0.0800 
@<TRIPOS>BOND
  1   1   2  2   
  2   1   3  2   
  3   1   4  am  
  4   1   5  1   
  5   4   6  1   
  6   4  17  1   
  7   5   7  ar  
  8   5   8  ar  
  9   6   9  1   
 10   6  18  1   
 11   6  19  1   
 12   7  10  ar  
 13   7  11  1   
 14   8  12  ar  
 15   8  20  1   
 16   9  13  1   
 17   9  14  1   
 18   9  21  1   
 19  10  15  ar  
 20  10  22  1   
 21  11  23  1   
 22  11  24  1   
 23  11  25  1   
 24  12  15  ar  
 25  12  26  1   
 26  13  27  1   
 27  13  28  1   
 28  13  29  1   
 29  14  30  1   
 30  14  31  1   
 31  14  32  1   
 32  15  16  1   
 33  16  33  1   
 34  16  34  1   
 35  16  35  1   
@<TRIPOS>SUBSTRUCTURE
  1 ****   5 GROUP 4 **** **** 0

# MOE 2024.06 (io_trps.svl 2023.06)
