@<TRIPOS>MOLECULE
NONAME
39 41 1 0 0 
SMALL
USER_CHARGES


@<TRIPOS>ATOM
  1 F        0.3240    -0.6580     0.4730 F     1 <1>  -0.1900 
  2 C        1.5010    -1.1990     0.2840 C.ar  1 <1>   0.1900 
  3 C        2.1030    -1.0700    -0.9520 C.ar  1 <1>  -0.1500 
  4 C        2.0970    -1.8790     1.3300 C.ar  1 <1>  -0.1500 
  5 C        3.3480    -1.6460    -1.1430 C.ar  1 <1>  -0.1500 
  6 C        3.3410    -2.4490     1.1240 C.ar  1 <1>  -0.1500 
  7 C        3.9770    -2.3370    -0.1120 C.ar  1 <1>   0.1000 
  8 N        5.2260    -2.9040    -0.3370 N.pl3 1 <1>  -0.8380 
  9 C        5.2700    -4.3930    -0.4120 C.3   1 <1>   0.2090 
 10 C        6.3730    -2.2850     0.3880 C.3   1 <1>   0.2090 
 11 C        6.6190    -4.8680    -0.9930 C.3   1 <1>   0.3430 
 12 C        7.7140    -2.7760    -0.1970 C.3   1 <1>   0.3430 
 13 N        7.8070    -4.2860    -0.2630 N.4   1 <1>  -0.9590 
 14 C        9.0950    -4.7370    -0.8650 C.3   1 <1>   0.4860 
 15 C       10.2430    -4.2310    -0.0200 C.ar  1 <1>  -0.1430 
 16 C       10.5410    -4.8450     1.1890 C.ar  1 <1>   0.1600 
 17 C       11.0100    -3.1550    -0.4270 C.ar  1 <1>  -0.1500 
 18 N       11.4970    -4.4600     2.0120 N.ar  1 <1>  -0.6200 
 19 C       12.0220    -2.7530     0.4180 C.ar  1 <1>  -0.1500 
 20 C       12.2200    -3.4280     1.6100 C.ar  1 <1>   0.1600 
 21 H        1.6070    -0.5340    -1.7410 H     1 <1>   0.1500 
 22 H        1.5930    -1.9550     2.2760 H     1 <1>   0.1500 
 23 H        3.8410    -1.5620    -2.0940 H     1 <1>   0.1500 
 24 H        3.8200    -2.9810     1.9240 H     1 <1>   0.1500 
 25 H        4.4670    -4.7380    -1.0420 H     1 <1>   0.0800 
 26 H        5.1230    -4.8110     0.5690 H     1 <1>   0.0800 
 27 H        6.3180    -2.5290     1.4350 H     1 <1>   0.0800 
 28 H        6.3140    -1.2140     0.2950 H     1 <1>   0.0800 
 29 H        6.6540    -4.5720    -2.0290 H     1 <1>   0.0800 
 30 H        6.6540    -5.9450    -0.9570 H     1 <1>   0.0800 
 31 H        8.5190    -2.3830     0.4040 H     1 <1>   0.0800 
 32 H        7.8130    -2.3650    -1.1880 H     1 <1>   0.0800 
 33 H        7.7800    -4.6220     0.7080 H     1 <1>   0.4500 
 34 H        9.1870    -4.3570    -1.8690 H     1 <1>   0.0800 
 35 H        9.1290    -5.8140    -0.9060 H     1 <1>   0.0800 
 36 H        9.9670    -5.6980     1.5090 H     1 <1>   0.1500 
 37 H       10.8450    -2.6420    -1.3610 H     1 <1>   0.1500 
 38 H       12.6590    -1.9240     0.1610 H     1 <1>   0.1500 
 39 H       13.0140    -3.1040     2.2650 H     1 <1>   0.1500 
@<TRIPOS>BOND
  1   1   2  1   
  2   2   3  ar  
  3   2   4  ar  
  4   3   5  ar  
  5   3  21  1   
  6   4   6  ar  
  7   4  22  1   
  8   5   7  ar  
  9   5  23  1   
 10   6   7  ar  
 11   6  24  1   
 12   7   8  1   
 13   8   9  1   
 14   8  10  1   
 15   9  11  1   
 16   9  25  1   
 17   9  26  1   
 18  10  12  1   
 19  10  27  1   
 20  10  28  1   
 21  11  13  1   
 22  11  29  1   
 23  11  30  1   
 24  12  13  1   
 25  12  31  1   
 26  12  32  1   
 27  13  14  1   
 28  13  33  1   
 29  14  15  1   
 30  14  34  1   
 31  14  35  1   
 32  15  16  ar  
 33  15  17  ar  
 34  16  18  ar  
 35  16  36  1   
 36  17  19  ar  
 37  17  37  1   
 38  18  20  ar  
 39  19  20  ar  
 40  19  38  1   
 41  20  39  1   
@<TRIPOS>SUBSTRUCTURE
  1 ****  10 GROUP 4 **** **** 0

# MOE 2024.06 (io_trps.svl 2023.06)
