@<TRIPOS>MOLECULE
NONAME
54 56 1 0 0 
SMALL
USER_CHARGES


@<TRIPOS>ATOM
  1 O       -1.8640    -0.1050    -0.6620 O.3   1 <1>  -0.3630 
  2 C       -2.3020     0.9510     0.0810 C.ar  1 <1>   0.0830 
  3 C       -0.6290    -0.1140    -1.3390 C.3   1 <1>   0.1200 
  4 C       -1.6960     2.2120     0.2140 C.ar  1 <1>   0.0820 
  5 C       -3.4830     0.7060     0.7580 C.ar  1 <1>  -0.1500 
  6 C       -0.4530    -1.4870    -1.9800 C.3   1 <1>  -0.2400 
  7 O       -0.5450     2.5520    -0.4030 O.3   1 <1>  -0.5320 
  8 C       -2.2880     3.1780     1.0130 C.ar  1 <1>  -0.1500 
  9 C       -4.0840     1.6780     1.5440 C.ar  1 <1>  -0.1430 
 10 C       -3.4760     2.9170     1.6730 C.ar  1 <1>  -0.1500 
 11 C       -5.4000     1.3840     2.2370 C.3   1 <1>   0.4860 
 12 N       -6.4410     1.1740     1.1960 N.4   1 <1>  -0.9590 
 13 C       -6.6280     2.3990     0.3310 C.3   1 <1>   0.3430 
 14 C       -7.7520     0.7200     1.7850 C.3   1 <1>   0.3430 
 15 C       -7.6940     2.2010    -0.7670 C.3   1 <1>   0.2090 
 16 C       -8.8220     0.4570     0.7070 C.3   1 <1>   0.2090 
 17 N       -8.9550     1.6160    -0.2200 N.pl3 1 <1>  -0.8380 
 18 C      -10.0680     2.4420    -0.0520 C.ar  1 <1>   0.1000 
 19 C      -11.2750     2.1840    -0.7120 C.ar  1 <1>  -0.1430 
 20 C       -9.9840     3.5310     0.8080 C.ar  1 <1>  -0.1500 
 21 C      -12.3770     3.0040    -0.4820 C.ar  1 <1>  -0.1430 
 22 C      -11.3810     1.0040    -1.6800 C.3   1 <1>  -0.0970 
 23 C      -11.0730     4.3500     1.0230 C.ar  1 <1>  -0.1500 
 24 C      -12.2660     4.0830     0.3810 C.ar  1 <1>  -0.1500 
 25 C      -13.7240     2.7600    -1.1500 C.3   1 <1>  -0.0970 
 26 H        0.1530     0.0770    -0.6250 H     1 <1>   0.0800 
 27 H       -0.6460     0.6560    -2.0900 H     1 <1>   0.0800 
 28 H       -3.9180    -0.2730     0.6530 H     1 <1>   0.1500 
 29 H       -0.4480    -2.2510    -1.2230 H     1 <1>   0.0800 
 30 H        0.4820    -1.5220    -2.5080 H     1 <1>   0.0800 
 31 H       -1.2490    -1.6750    -2.6780 H     1 <1>   0.0800 
 32 H       -0.2340     3.4480    -0.1820 H     1 <1>   0.4500 
 33 H       -1.8250     4.1430     1.1240 H     1 <1>   0.1500 
 34 H       -3.9110     3.6890     2.2860 H     1 <1>   0.1500 
 35 H       -5.6720     2.2060     2.8780 H     1 <1>   0.0800 
 36 H       -5.2930     0.4970     2.8410 H     1 <1>   0.0800 
 37 H       -6.0970     0.4340     0.5720 H     1 <1>   0.4500 
 38 H       -5.6950     2.6640    -0.1390 H     1 <1>   0.0800 
 39 H       -6.9320     3.2300     0.9450 H     1 <1>   0.0800 
 40 H       -8.1320     1.4790     2.4500 H     1 <1>   0.0800 
 41 H       -7.6080    -0.1800     2.3590 H     1 <1>   0.0800 
 42 H       -7.3100     1.5480    -1.5310 H     1 <1>   0.0800 
 43 H       -7.9110     3.1480    -1.2330 H     1 <1>   0.0800 
 44 H       -9.7710     0.2710     1.1830 H     1 <1>   0.0800 
 45 H       -8.5650    -0.4200     0.1390 H     1 <1>   0.0800 
 46 H       -9.0680     3.7430     1.3180 H     1 <1>   0.1500 
 47 H      -10.4230     0.7450    -2.0910 H     1 <1>   0.0800 
 48 H      -12.0200     1.2400    -2.5100 H     1 <1>   0.0800 
 49 H      -11.7790     0.1480    -1.1660 H     1 <1>   0.0800 
 50 H      -11.0010     5.1920     1.6880 H     1 <1>   0.1500 
 51 H      -13.1110     4.7260     0.5580 H     1 <1>   0.1500 
 52 H      -14.0170     1.7320    -1.0350 H     1 <1>   0.0800 
 53 H      -13.6610     2.9950    -2.1970 H     1 <1>   0.0800 
 54 H      -14.4900     3.3730    -0.7110 H     1 <1>   0.0800 
@<TRIPOS>BOND
  1   1   2  1   
  2   1   3  1   
  3   2   4  ar  
  4   2   5  ar  
  5   3   6  1   
  6   3  26  1   
  7   3  27  1   
  8   4   7  1   
  9   4   8  ar  
 10   5   9  ar  
 11   5  28  1   
 12   6  29  1   
 13   6  30  1   
 14   6  31  1   
 15   7  32  1   
 16   8  10  ar  
 17   8  33  1   
 18   9  10  ar  
 19   9  11  1   
 20  10  34  1   
 21  11  12  1   
 22  11  35  1   
 23  11  36  1   
 24  12  13  1   
 25  12  14  1   
 26  12  37  1   
 27  13  15  1   
 28  13  38  1   
 29  13  39  1   
 30  14  16  1   
 31  14  40  1   
 32  14  41  1   
 33  15  17  1   
 34  15  42  1   
 35  15  43  1   
 36  16  17  1   
 37  16  44  1   
 38  16  45  1   
 39  17  18  1   
 40  18  19  ar  
 41  18  20  ar  
 42  19  21  ar  
 43  19  22  1   
 44  20  23  ar  
 45  20  46  1   
 46  21  24  ar  
 47  21  25  1   
 48  22  47  1   
 49  22  48  1   
 50  22  49  1   
 51  23  24  ar  
 52  23  50  1   
 53  24  51  1   
 54  25  52  1   
 55  25  53  1   
 56  25  54  1   
@<TRIPOS>SUBSTRUCTURE
  1 ****  13 GROUP 4 **** **** 0

# MOE 2024.06 (io_trps.svl 2023.06)
