@<TRIPOS>MOLECULE
NONAME
36 39 1 0 0 
SMALL
USER_CHARGES


@<TRIPOS>ATOM
  1 O        0.4390     1.5100    -1.5920 O.2   1 <1>  -0.5700 
  2 C        0.4370     2.1910    -0.5990 C.2   1 <1>   0.5690 
  3 N        1.4910     2.4920     0.2520 N.am  1 <1>  -0.2370 
  4 C       -0.7890     2.8720    -0.0600 C.3   1 <1>  -0.0190 
  5 C        2.7440     1.8380     0.2790 C.ar  1 <1>   0.1170 
  6 C        1.1060     3.5480     1.0670 C.2   1 <1>   0.5690 
  7 C       -2.1790     3.2290    -0.6470 C.3   1 <1>   0.0580 
  8 C       -0.1400     4.1470     0.4740 C.3   1 <1>  -0.0190 
  9 C        2.8480     0.4730     0.0280 C.ar  1 <1>  -0.1500 
 10 C        3.9160     2.5350     0.5570 C.ar  1 <1>  -0.1500 
 11 O        1.6470     3.9760     2.0530 O.2   1 <1>  -0.5700 
 12 C       -2.9780     3.4150     0.6470 C.2   1 <1>  -0.2880 
 13 C       -2.1790     4.6340    -1.3150 C.3   1 <1>  -0.1600 
 14 C       -1.2470     5.0920     1.0200 C.3   1 <1>   0.0580 
 15 C        4.0730    -0.1650     0.0540 C.ar  1 <1>  -0.1500 
 16 C        5.1390     1.8920     0.5810 C.ar  1 <1>  -0.1500 
 17 C       -2.4700     4.3080     1.5100 C.2   1 <1>  -0.2880 
 18 C       -1.8110     5.7490    -0.2730 C.3   1 <1>  -0.1600 
 19 C        5.2550     0.5240     0.3310 C.ar  1 <1>  -0.1790 
 20 C        6.5460    -0.1510     0.3580 C.2   1 <1>   0.9790 
 21 O        7.5930     0.4870     0.5710 O.co2 1 <1>  -0.9000 
 22 O        6.6250    -1.3790     0.1680 O.co2 1 <1>  -0.9000 
 23 H       -1.0100     2.2270     0.7780 H     1 <1>   0.0800 
 24 H       -2.5760     2.4470    -1.2720 H     1 <1>   0.0800 
 25 H        0.2920     4.6820    -0.3560 H     1 <1>   0.0800 
 26 H        1.9690    -0.1040    -0.1940 H     1 <1>   0.1500 
 27 H        3.8820     3.5890     0.7600 H     1 <1>   0.1500 
 28 H       -3.8560     2.8050     0.7790 H     1 <1>   0.1500 
 29 H       -3.1540     4.8370    -1.7220 H     1 <1>   0.0800 
 30 H       -1.4770     4.6390    -2.1320 H     1 <1>   0.0800 
 31 H       -0.8820     5.8180     1.7270 H     1 <1>   0.0800 
 32 H        4.1360    -1.2230    -0.1450 H     1 <1>   0.1500 
 33 H        6.0360     2.4480     0.8000 H     1 <1>   0.1500 
 34 H       -2.8520     4.5590     2.4860 H     1 <1>   0.1500 
 35 H       -2.6940     6.3140    -0.0230 H     1 <1>   0.0800 
 36 H       -1.1020     6.4390    -0.6970 H     1 <1>   0.0800 
@<TRIPOS>BOND
  1   1   2  2   
  2   2   3  am  
  3   2   4  1   
  4   3   5  1   
  5   3   6  am  
  6   4   7  1   
  7   4   8  1   
  8   4  23  1   
  9   5   9  ar  
 10   5  10  ar  
 11   6   8  1   
 12   6  11  2   
 13   7  12  1   
 14   7  13  1   
 15   7  24  1   
 16   8  14  1   
 17   8  25  1   
 18   9  15  ar  
 19   9  26  1   
 20  10  16  ar  
 21  10  27  1   
 22  12  17  2   
 23  12  28  1   
 24  13  18  1   
 25  13  29  1   
 26  13  30  1   
 27  14  17  1   
 28  14  18  1   
 29  14  31  1   
 30  15  19  ar  
 31  15  32  1   
 32  16  19  ar  
 33  16  33  1   
 34  17  34  1   
 35  18  35  1   
 36  18  36  1   
 37  19  20  1   
 38  20  21  ar  
 39  20  22  ar  
@<TRIPOS>SUBSTRUCTURE
  1 ****   3 GROUP 4 **** **** 0

# MOE 2024.06 (io_trps.svl 2023.06)
