@<TRIPOS>MOLECULE
NONAME
46 46 1 0 0 
SMALL
USER_CHARGES


@<TRIPOS>ATOM
  1 O       -0.8230     1.0730     2.3700 O.2   1 <1>  -0.5700 
  2 C       -1.5170     1.3380     1.4150 C.2   1 <1>   0.4950 
  3 C       -1.1260     2.1920     0.3390 C.2   1 <1>   0.0290 
  4 C       -2.8830     0.6750     1.3750 C.3   1 <1>  -0.0990 
  5 C       -1.9660     2.4780    -0.7130 C.2   1 <1>  -0.0380 
  6 C        0.2030     2.7410     0.3910 C.2   1 <1>   0.3750 
  7 C       -3.9280     1.5270     0.6360 C.3   1 <1>   0.0000 
  8 N       -1.5850     3.2690    -1.7620 N.pl3 1 <1>  -0.8690 
  9 C       -3.3830     1.9060    -0.7560 C.3   1 <1>  -0.0220 
 10 N        0.4110     3.9990     0.5070 N.2   1 <1>  -0.5130 
 11 C        1.3490     1.7330     0.2360 C.3   1 <1>  -0.0990 
 12 C       -4.2440     2.7990     1.4470 C.3   1 <1>  -0.2400 
 13 C       -5.2280     0.7210     0.4820 C.3   1 <1>  -0.2400 
 14 C       -2.3070     3.5750    -3.0240 C.3   1 <1>   0.1290 
 15 O        1.6590     4.4280     0.4990 O.3   1 <1>  -0.2170 
 16 C        1.7850     1.6070    -1.2320 C.3   1 <1>  -0.1600 
 17 C        1.8260     5.8040     0.7320 C.3   1 <1>   0.2580 
 18 C        2.9130     0.5830    -1.3940 C.3   1 <1>  -0.2400 
 19 C        3.3110     6.1220     0.6980 C.2   1 <1>  -0.2880 
 20 C        3.8980     7.0070    -0.1150 C.2   1 <1>  -0.3000 
 21 H       -2.7690    -0.2750     0.8850 H     1 <1>   0.0800 
 22 H       -3.2100     0.4870     2.3820 H     1 <1>   0.0800 
 23 H       -0.7000     3.7950    -1.6550 H     1 <1>   0.4000 
 24 H       -4.0520     2.6250    -1.1920 H     1 <1>   0.0800 
 25 H       -3.3710     1.0410    -1.3950 H     1 <1>   0.0800 
 26 H        2.1840     2.0360     0.8410 H     1 <1>   0.0800 
 27 H        1.0410     0.7680     0.5940 H     1 <1>   0.0800 
 28 H       -3.3720     3.4190     1.5640 H     1 <1>   0.0800 
 29 H       -4.6060     2.5440     2.4270 H     1 <1>   0.0800 
 30 H       -4.9990     3.3840     0.9520 H     1 <1>   0.0800 
 31 H       -5.9720     1.3000    -0.0370 H     1 <1>   0.0800 
 32 H       -5.6220     0.4520     1.4460 H     1 <1>   0.0800 
 33 H       -5.0540    -0.1820    -0.0760 H     1 <1>   0.0800 
 34 H       -2.9870     2.7800    -3.2740 H     1 <1>   0.0800 
 35 H       -1.5990     3.6830    -3.8270 H     1 <1>   0.0800 
 36 H       -2.8570     4.4930    -2.9140 H     1 <1>   0.0800 
 37 H        2.1220     2.5670    -1.5850 H     1 <1>   0.0800 
 38 H        0.9420     1.3100    -1.8330 H     1 <1>   0.0800 
 39 H        1.2910     6.3400    -0.0310 H     1 <1>   0.0800 
 40 H        1.4070     6.0310     1.6970 H     1 <1>   0.0800 
 41 H        3.7720     0.8790    -0.8170 H     1 <1>   0.0800 
 42 H        2.5910    -0.3890    -1.0640 H     1 <1>   0.0800 
 43 H        3.2030     0.5160    -2.4280 H     1 <1>   0.0800 
 44 H        3.8600     5.5390     1.4170 H     1 <1>   0.1500 
 45 H        3.3750     7.6000    -0.8460 H     1 <1>   0.1500 
 46 H        4.9550     7.2080    -0.1170 H     1 <1>   0.1500 
@<TRIPOS>BOND
  1   1   2  2   
  2   2   3  1   
  3   2   4  1   
  4   3   5  2   
  5   3   6  1   
  6   4   7  1   
  7   4  21  1   
  8   4  22  1   
  9   5   8  1   
 10   5   9  1   
 11   6  10  2   
 12   6  11  1   
 13   7   9  1   
 14   7  12  1   
 15   7  13  1   
 16   8  14  1   
 17   8  23  1   
 18   9  24  1   
 19   9  25  1   
 20  10  15  1   
 21  11  16  1   
 22  11  26  1   
 23  11  27  1   
 24  12  28  1   
 25  12  29  1   
 26  12  30  1   
 27  13  31  1   
 28  13  32  1   
 29  13  33  1   
 30  14  34  1   
 31  14  35  1   
 32  14  36  1   
 33  15  17  1   
 34  16  18  1   
 35  16  37  1   
 36  16  38  1   
 37  17  19  1   
 38  17  39  1   
 39  17  40  1   
 40  18  41  1   
 41  18  42  1   
 42  18  43  1   
 43  19  20  2   
 44  19  44  1   
 45  20  45  1   
 46  20  46  1   
@<TRIPOS>SUBSTRUCTURE
  1 ****   3 GROUP 4 **** **** 0

# MOE 2024.06 (io_trps.svl 2023.06)
