@<TRIPOS>MOLECULE
NONAME
48 50 1 0 0 
SMALL
USER_CHARGES


@<TRIPOS>ATOM
  1 CL       0.9180    -0.4710    -1.7710 Cl    1 <1>  -0.1770 
  2 C        2.4970    -0.2500    -1.0550 C.ar  1 <1>   0.1770 
  3 C        2.6010    -0.0430     0.3080 C.ar  1 <1>  -0.1500 
  4 C        3.6180    -0.2840    -1.8640 C.ar  1 <1>  -0.1500 
  5 C        3.8540     0.1310     0.8680 C.ar  1 <1>  -0.1500 
  6 C        4.8670    -0.1080    -1.2940 C.ar  1 <1>  -0.1500 
  7 C        4.9960     0.1010     0.0770 C.ar  1 <1>   0.1000 
  8 N        6.2400     0.2770     0.6690 N.pl3 1 <1>  -0.8380 
  9 C        7.1100    -0.9340     0.7300 C.3   1 <1>   0.2090 
 10 C        6.9950     1.5040     0.2620 C.3   1 <1>   0.2090 
 11 C        8.3260    -0.7040     1.6470 C.3   1 <1>   0.1400 
 12 C        8.2010     1.7390     1.1860 C.3   1 <1>   0.1400 
 13 N        9.0770     0.5260     1.2400 N.am  1 <1>  -0.6600 
 14 C       10.2130     0.4640     0.4810 C.2   1 <1>   0.6900 
 15 O       10.3910     1.2590    -0.4220 O.2   1 <1>  -0.5700 
 16 N       11.1330    -0.4970     0.7810 N.am  1 <1>  -0.5470 
 17 C       12.2940    -0.9150     0.1130 C.ar  1 <1>   0.1170 
 18 C       13.2760    -1.5790     0.8370 C.ar  1 <1>  -0.1500 
 19 C       12.4930    -0.7160    -1.2500 C.ar  1 <1>  -0.1500 
 20 C       14.4310    -2.0330     0.2270 C.ar  1 <1>   0.0830 
 21 C       13.6530    -1.1490    -1.8690 C.ar  1 <1>  -0.1500 
 22 O       15.3220    -2.7000     1.0050 O.3   1 <1>  -0.3630 
 23 C       14.6340    -1.7930    -1.1360 C.ar  1 <1>   0.0830 
 24 C       15.5980    -4.0380     0.6510 C.3   1 <1>   0.0400 
 25 O       15.7690    -2.1580    -1.7860 O.3   1 <1>  -0.3630 
 26 C       16.9220    -1.4210    -1.4470 C.3   1 <1>   0.0400 
 27 H        1.7150    -0.0200     0.9160 H     1 <1>   0.1500 
 28 H        3.5100    -0.4460    -2.9210 H     1 <1>   0.1500 
 29 H        3.9640     0.2940     1.9250 H     1 <1>   0.1500 
 30 H        5.7480    -0.1330    -1.9080 H     1 <1>   0.1500 
 31 H        7.4550    -1.1800    -0.2600 H     1 <1>   0.0800 
 32 H        6.5350    -1.7650     1.1000 H     1 <1>   0.0800 
 33 H        6.3400     2.3560     0.3050 H     1 <1>   0.0800 
 34 H        7.3440     1.3990    -0.7500 H     1 <1>   0.0800 
 35 H        8.9600    -1.5700     1.6060 H     1 <1>   0.0800 
 36 H        7.9820    -0.5880     2.6600 H     1 <1>   0.0800 
 37 H        7.8470     1.9640     2.1760 H     1 <1>   0.0800 
 38 H        8.7620     2.5880     0.8350 H     1 <1>   0.0800 
 39 H       11.0100    -0.8640     1.7180 H     1 <1>   0.3700 
 40 H       13.1480    -1.7520     1.8890 H     1 <1>   0.1500 
 41 H       11.7420    -0.2170    -1.8350 H     1 <1>   0.1500 
 42 H       13.8030    -0.9830    -2.9200 H     1 <1>   0.1500 
 43 H       16.1560    -4.4880     1.4510 H     1 <1>   0.0800 
 44 H       16.1780    -4.0570    -0.2530 H     1 <1>   0.0800 
 45 H       14.6680    -4.5610     0.5100 H     1 <1>   0.0800 
 46 H       17.7340    -1.7650    -2.0610 H     1 <1>   0.0800 
 47 H       17.1520    -1.5780    -0.4090 H     1 <1>   0.0800 
 48 H       16.7330    -0.3780    -1.6340 H     1 <1>   0.0800 
@<TRIPOS>BOND
  1   1   2  1   
  2   2   3  ar  
  3   2   4  ar  
  4   3   5  ar  
  5   3  27  1   
  6   4   6  ar  
  7   4  28  1   
  8   5   7  ar  
  9   5  29  1   
 10   6   7  ar  
 11   6  30  1   
 12   7   8  1   
 13   8   9  1   
 14   8  10  1   
 15   9  11  1   
 16   9  31  1   
 17   9  32  1   
 18  10  12  1   
 19  10  33  1   
 20  10  34  1   
 21  11  13  1   
 22  11  35  1   
 23  11  36  1   
 24  12  13  1   
 25  12  37  1   
 26  12  38  1   
 27  13  14  am  
 28  14  15  2   
 29  14  16  am  
 30  16  17  1   
 31  16  39  1   
 32  17  18  ar  
 33  17  19  ar  
 34  18  20  ar  
 35  18  40  1   
 36  19  21  ar  
 37  19  41  1   
 38  20  22  1   
 39  20  23  ar  
 40  21  23  ar  
 41  21  42  1   
 42  22  24  1   
 43  23  25  1   
 44  24  43  1   
 45  24  44  1   
 46  24  45  1   
 47  25  26  1   
 48  26  46  1   
 49  26  47  1   
 50  26  48  1   
@<TRIPOS>SUBSTRUCTURE
  1 ****  14 GROUP 4 **** **** 0

# MOE 2024.06 (io_trps.svl 2023.06)
