@<TRIPOS>MOLECULE
NONAME
41 42 1 0 0 
SMALL
USER_CHARGES


@<TRIPOS>ATOM
  1 O        0.2570     1.1510    -1.8730 O.2   1 <1>  -0.5700 
  2 C        0.0990     1.8250    -0.8740 C.2   1 <1>   0.5440 
  3 N        1.1340     1.9650     0.0060 N.am  1 <1>  -0.7300 
  4 C       -1.1630     2.4850    -0.5960 C.ar  1 <1>   0.0860 
  5 C        2.4680     1.3530    -0.1220 C.3   1 <1>   0.2200 
  6 C       -2.3810     1.7990    -0.5010 C.ar  1 <1>  -0.1440 
  7 C       -1.1800     3.8650    -0.3950 C.ar  1 <1>  -0.1500 
  8 C        2.6490     0.3730     1.0460 C.3   1 <1>  -0.1600 
  9 C        3.4970     2.4920    -0.0960 C.3   1 <1>  -0.1600 
 10 C       -3.5510     2.4840    -0.2160 C.ar  1 <1>  -0.1500 
 11 C       -2.4430     0.2900    -0.7080 C.3   1 <1>  -0.0970 
 12 C       -2.3500     4.5430    -0.1090 C.ar  1 <1>  -0.1500 
 13 C        3.6360    -0.7750     0.7750 C.3   1 <1>  -0.1600 
 14 C        4.9250     2.0880    -0.4950 C.3   1 <1>  -0.1600 
 15 C       -3.5450     3.8540    -0.0190 C.ar  1 <1>  -0.1430 
 16 C        4.9000    -0.4210    -0.0230 C.3   1 <1>  -0.1600 
 17 C        5.5260     0.9370     0.3250 C.3   1 <1>  -0.1600 
 18 C       -4.8380     4.5870     0.2940 C.3   1 <1>  -0.0970 
 19 H        0.9740     2.4790     0.8710 H     1 <1>   0.3700 
 20 H        2.5260     0.8240    -1.0600 H     1 <1>   0.0800 
 21 H       -0.2580     4.4140    -0.4720 H     1 <1>   0.1500 
 22 H        1.6990    -0.0770     1.2780 H     1 <1>   0.0800 
 23 H        2.9690     0.9140     1.9180 H     1 <1>   0.0800 
 24 H        3.5200     2.9330     0.8850 H     1 <1>   0.0800 
 25 H        3.1760     3.2510    -0.7880 H     1 <1>   0.0800 
 26 H       -4.4810     1.9480    -0.1470 H     1 <1>   0.1500 
 27 H       -1.7140    -0.2010    -0.0880 H     1 <1>   0.0800 
 28 H       -2.2320     0.0550    -1.7360 H     1 <1>   0.0800 
 29 H       -3.4140    -0.0980    -0.4610 H     1 <1>   0.0800 
 30 H       -2.3270     5.6090     0.0400 H     1 <1>   0.1500 
 31 H        3.1180    -1.5540     0.2410 H     1 <1>   0.0800 
 32 H        3.9300    -1.1890     1.7240 H     1 <1>   0.0800 
 33 H        5.5570     2.9510    -0.3810 H     1 <1>   0.0800 
 34 H        4.9380     1.8270    -1.5400 H     1 <1>   0.0800 
 35 H        4.6790    -0.4540    -1.0760 H     1 <1>   0.0800 
 36 H        5.6280    -1.1930     0.1610 H     1 <1>   0.0800 
 37 H        5.4510     1.1350     1.3810 H     1 <1>   0.0800 
 38 H        6.5750     0.8850     0.0870 H     1 <1>   0.0800 
 39 H       -5.6550     4.1500    -0.2510 H     1 <1>   0.0800 
 40 H       -4.7630     5.6230     0.0170 H     1 <1>   0.0800 
 41 H       -5.0470     4.5230     1.3460 H     1 <1>   0.0800 
@<TRIPOS>BOND
  1   1   2  2   
  2   2   3  am  
  3   2   4  1   
  4   3   5  1   
  5   3  19  1   
  6   4   6  ar  
  7   4   7  ar  
  8   5   8  1   
  9   5   9  1   
 10   5  20  1   
 11   6  10  ar  
 12   6  11  1   
 13   7  12  ar  
 14   7  21  1   
 15   8  13  1   
 16   8  22  1   
 17   8  23  1   
 18   9  14  1   
 19   9  24  1   
 20   9  25  1   
 21  10  15  ar  
 22  10  26  1   
 23  11  27  1   
 24  11  28  1   
 25  11  29  1   
 26  12  15  ar  
 27  12  30  1   
 28  13  16  1   
 29  13  31  1   
 30  13  32  1   
 31  14  17  1   
 32  14  33  1   
 33  14  34  1   
 34  15  18  1   
 35  16  17  1   
 36  16  35  1   
 37  16  36  1   
 38  17  37  1   
 39  17  38  1   
 40  18  39  1   
 41  18  40  1   
 42  18  41  1   
@<TRIPOS>SUBSTRUCTURE
  1 ****   3 GROUP 4 **** **** 0

# MOE 2024.06 (io_trps.svl 2023.06)
