@<TRIPOS>MOLECULE
NONAME
27 28 1 0 0 
SMALL
USER_CHARGES


@<TRIPOS>ATOM
  1 S       -0.1850    -0.1480     0.2350 S.3   1 <1>  -0.2860 
  2 C        1.2330     0.8370     0.7250 C.2   1 <1>   0.2420 
  3 C       -1.6030     0.7730     0.9780 C.3   1 <1>   0.2140 
  4 N        1.1710     1.9070     1.4150 N.2   1 <1>  -0.3380 
  5 N        2.4750     0.5310     0.4080 N.pl3 1 <1>   0.3140 
  6 C       -2.8950     0.0760     0.5730 C.ar  1 <1>  -0.1440 
  7 N        2.4420     2.2910     1.5350 N.2   1 <1>   0.0000 
  8 N        3.2360     1.4710     0.9330 N.2   1 <1>  -0.4180 
  9 C        2.9890    -0.6070    -0.3680 C.3   1 <1>   0.0160 
 10 C       -3.5790     0.4000    -0.5960 C.ar  1 <1>  -0.1440 
 11 C       -3.3980    -0.9130     1.4070 C.ar  1 <1>  -0.1500 
 12 C       -4.7550    -0.2670    -0.9050 C.ar  1 <1>  -0.1500 
 13 C       -3.0680     1.4680    -1.5530 C.3   1 <1>  -0.0970 
 14 C       -4.5710    -1.5730     1.0910 C.ar  1 <1>  -0.1500 
 15 C       -5.2520    -1.2480    -0.0670 C.ar  1 <1>  -0.1500 
 16 H       -1.5550     1.7860     0.6240 H     1 <1>   0.0800 
 17 H       -1.4640     0.7620     2.0440 H     1 <1>   0.0800 
 18 H        2.7120    -1.5220     0.1210 H     1 <1>   0.0800 
 19 H        4.0600    -0.5400    -0.4310 H     1 <1>   0.0800 
 20 H        2.5670    -0.5810    -1.3560 H     1 <1>   0.0800 
 21 H       -2.8750    -1.1760     2.3100 H     1 <1>   0.1500 
 22 H       -5.2950    -0.0270    -1.8040 H     1 <1>   0.1500 
 23 H       -3.1140     2.4340    -1.0850 H     1 <1>   0.0800 
 24 H       -3.6620     1.4980    -2.4490 H     1 <1>   0.0800 
 25 H       -2.0520     1.2590    -1.8350 H     1 <1>   0.0800 
 26 H       -4.9530    -2.3380     1.7450 H     1 <1>   0.1500 
 27 H       -6.1650    -1.7590    -0.3160 H     1 <1>   0.1500 
@<TRIPOS>BOND
  1   1   2  1   
  2   1   3  1   
  3   2   4  2   
  4   2   5  1   
  5   3   6  1   
  6   3  16  1   
  7   3  17  1   
  8   4   7  1   
  9   5   8  1   
 10   5   9  1   
 11   6  10  ar  
 12   6  11  ar  
 13   7   8  2   
 14   9  18  1   
 15   9  19  1   
 16   9  20  1   
 17  10  12  ar  
 18  10  13  1   
 19  11  14  ar  
 20  11  21  1   
 21  12  15  ar  
 22  12  22  1   
 23  13  23  1   
 24  13  24  1   
 25  13  25  1   
 26  14  15  ar  
 27  14  26  1   
 28  15  27  1   
@<TRIPOS>SUBSTRUCTURE
  1 ****   3 GROUP 4 **** **** 0

# MOE 2024.06 (io_trps.svl 2023.06)
