@<TRIPOS>MOLECULE
NONAME
34 34 1 0 0 
SMALL
USER_CHARGES


@<TRIPOS>ATOM
  1 F        1.5740    -0.8490     1.4090 F     1 <1>  -0.1900 
  2 C        1.5900    -1.7400     0.4550 C.ar  1 <1>   0.1900 
  3 C        2.4180    -1.5540    -0.6500 C.ar  1 <1>   0.0860 
  4 C        0.7590    -2.8350     0.6010 C.ar  1 <1>  -0.1500 
  5 C        3.2900    -0.4080    -0.7970 C.2   1 <1>   0.5440 
  6 C        2.3470    -2.5290    -1.6460 C.ar  1 <1>  -0.1500 
  7 C        0.7280    -3.7930    -0.3970 C.ar  1 <1>  -0.1500 
  8 O        3.1670     0.2820    -1.7920 O.2   1 <1>  -0.5700 
  9 N        4.2680    -0.0900     0.1280 N.am  1 <1>  -0.6600 
 10 C        1.5210    -3.6340    -1.5220 C.ar  1 <1>  -0.1500 
 11 C        5.2520    -1.0760     0.6590 C.3   1 <1>   0.2200 
 12 C        4.5720     1.3210     0.5070 C.3   1 <1>   0.2200 
 13 C        5.6750    -2.0930    -0.4030 C.3   1 <1>  -0.2400 
 14 C        4.7100    -1.7580     1.9130 C.3   1 <1>  -0.2400 
 15 C        3.2970     2.1430     0.7030 C.3   1 <1>  -0.2400 
 16 C        5.5040     1.9590    -0.5240 C.3   1 <1>  -0.2400 
 17 H        0.1460    -2.9320     1.4790 H     1 <1>   0.1500 
 18 H        2.9520    -2.4070    -2.5290 H     1 <1>   0.1500 
 19 H        0.0880    -4.6540    -0.3030 H     1 <1>   0.1500 
 20 H        1.4920    -4.3730    -2.3060 H     1 <1>   0.1500 
 21 H        6.1430    -0.5390     0.9400 H     1 <1>   0.0800 
 22 H        5.0810     1.3110     1.4560 H     1 <1>   0.0800 
 23 H        6.5200    -2.6540    -0.0450 H     1 <1>   0.0800 
 24 H        4.8880    -2.7890    -0.6180 H     1 <1>   0.0800 
 25 H        5.9660    -1.5840    -1.3050 H     1 <1>   0.0800 
 26 H        3.9120    -2.4330     1.6710 H     1 <1>   0.0800 
 27 H        5.4930    -2.3260     2.3820 H     1 <1>   0.0800 
 28 H        4.3570    -1.0230     2.6130 H     1 <1>   0.0800 
 29 H        2.7740     2.2770    -0.2270 H     1 <1>   0.0800 
 30 H        3.5470     3.1150     1.0850 H     1 <1>   0.0800 
 31 H        2.6500     1.6580     1.4100 H     1 <1>   0.0800 
 32 H        5.0150     2.0380    -1.4780 H     1 <1>   0.0800 
 33 H        6.3980     1.3740    -0.6350 H     1 <1>   0.0800 
 34 H        5.7810     2.9470    -0.2040 H     1 <1>   0.0800 
@<TRIPOS>BOND
  1   1   2  1   
  2   2   3  ar  
  3   2   4  ar  
  4   3   5  1   
  5   3   6  ar  
  6   4   7  ar  
  7   4  17  1   
  8   5   8  2   
  9   5   9  am  
 10   6  10  ar  
 11   6  18  1   
 12   7  10  ar  
 13   7  19  1   
 14   9  11  1   
 15   9  12  1   
 16  10  20  1   
 17  11  13  1   
 18  11  14  1   
 19  11  21  1   
 20  12  15  1   
 21  12  16  1   
 22  12  22  1   
 23  13  23  1   
 24  13  24  1   
 25  13  25  1   
 26  14  26  1   
 27  14  27  1   
 28  14  28  1   
 29  15  29  1   
 30  15  30  1   
 31  15  31  1   
 32  16  32  1   
 33  16  33  1   
 34  16  34  1   
@<TRIPOS>SUBSTRUCTURE
  1 ****   5 GROUP 4 **** **** 0

# MOE 2024.06 (io_trps.svl 2023.06)
