@<TRIPOS>MOLECULE
NONAME
39 40 1 0 0 
SMALL
USER_CHARGES


@<TRIPOS>ATOM
  1 O       -1.8960     3.3440     0.2830 O.3   1 <1>  -0.3630 
  2 C       -3.1220     2.8540    -0.0280 C.ar  1 <1>   0.0830 
  3 C       -0.7200     2.7670    -0.2450 C.3   1 <1>   0.1200 
  4 C       -4.2080     3.4560     0.5880 C.ar  1 <1>  -0.1500 
  5 C       -3.3340     1.8000    -0.9130 C.ar  1 <1>  -0.1500 
  6 C        0.4850     3.5360     0.3090 C.3   1 <1>   0.2000 
  7 C       -5.4990     3.0230     0.3320 C.ar  1 <1>  -0.1440 
  8 C       -4.6220     1.3640    -1.1690 C.ar  1 <1>  -0.1500 
  9 O        0.2970     4.9010     0.0820 O.3   1 <1>  -0.6800 
 10 C        1.8170     3.0990    -0.3380 C.3   1 <1>   0.3430 
 11 C       -5.7000     1.9730    -0.5490 C.ar  1 <1>  -0.1500 
 12 C       -6.6860     3.6840     1.0090 C.3   1 <1>  -0.0970 
 13 N        2.8420     4.1770    -0.1930 N.4   1 <1>  -0.9590 
 14 C        3.9380     4.1490    -1.1870 C.3   1 <1>   0.3430 
 15 C        3.4690     4.2700     1.1440 C.3   1 <1>   0.3430 
 16 C        5.0160     5.0380    -0.5820 C.3   1 <1>  -0.1600 
 17 C        4.7020     5.1340     0.9150 C.3   1 <1>  -0.1600 
 18 H       -0.7590     2.8400    -1.3180 H     1 <1>   0.0800 
 19 H       -0.6860     1.7340     0.0540 H     1 <1>   0.0800 
 20 H       -4.0350     4.2680     1.2700 H     1 <1>   0.1500 
 21 H       -2.5230     1.3070    -1.4120 H     1 <1>   0.1500 
 22 H        0.5350     3.3850     1.3740 H     1 <1>   0.0800 
 23 H       -4.7900     0.5500    -1.8520 H     1 <1>   0.1500 
 24 H       -0.6460     5.1180     0.2750 H     1 <1>   0.4000 
 25 H        1.6370     2.9240    -1.3850 H     1 <1>   0.0800 
 26 H        2.1640     2.1780     0.0990 H     1 <1>   0.0800 
 27 H       -6.6970     1.6250    -0.7540 H     1 <1>   0.1500 
 28 H       -6.4130     4.6460     1.4040 H     1 <1>   0.0800 
 29 H       -7.0350     3.0650     1.8150 H     1 <1>   0.0800 
 30 H       -7.4850     3.8210     0.3030 H     1 <1>   0.0800 
 31 H        2.2980     5.0530    -0.3200 H     1 <1>   0.4500 
 32 H        3.6130     4.5130    -2.1490 H     1 <1>   0.0800 
 33 H        4.3140     3.1440    -1.2880 H     1 <1>   0.0800 
 34 H        3.7710     3.2910     1.4770 H     1 <1>   0.0800 
 35 H        2.8010     4.7110     1.8670 H     1 <1>   0.0800 
 36 H        4.9800     6.0140    -1.0350 H     1 <1>   0.0800 
 37 H        5.9910     4.6170    -0.7590 H     1 <1>   0.0800 
 38 H        5.5220     4.7870     1.5210 H     1 <1>   0.0800 
 39 H        4.4850     6.1520     1.1880 H     1 <1>   0.0800 
@<TRIPOS>BOND
  1   1   2  1   
  2   1   3  1   
  3   2   4  ar  
  4   2   5  ar  
  5   3   6  1   
  6   3  18  1   
  7   3  19  1   
  8   4   7  ar  
  9   4  20  1   
 10   5   8  ar  
 11   5  21  1   
 12   6   9  1   
 13   6  10  1   
 14   6  22  1   
 15   7  11  ar  
 16   7  12  1   
 17   8  11  ar  
 18   8  23  1   
 19   9  24  1   
 20  10  13  1   
 21  10  25  1   
 22  10  26  1   
 23  11  27  1   
 24  12  28  1   
 25  12  29  1   
 26  12  30  1   
 27  13  14  1   
 28  13  15  1   
 29  13  31  1   
 30  14  16  1   
 31  14  32  1   
 32  14  33  1   
 33  15  17  1   
 34  15  34  1   
 35  15  35  1   
 36  16  17  1   
 37  16  36  1   
 38  16  37  1   
 39  17  38  1   
 40  17  39  1   
@<TRIPOS>SUBSTRUCTURE
  1 ****   3 GROUP 4 **** **** 0

# MOE 2024.06 (io_trps.svl 2023.06)
