@<TRIPOS>MOLECULE
NONAME
43 44 1 0 0 
SMALL
USER_CHARGES


@<TRIPOS>ATOM
  1 CL       2.4290     0.5880    -3.4030 Cl    1 <1>  -0.1770 
  2 C        3.2400    -0.1910    -2.0700 C.ar  1 <1>   0.1770 
  3 C        4.1130    -1.2320    -2.3210 C.ar  1 <1>  -0.1500 
  4 C        3.0000     0.2450    -0.7810 C.ar  1 <1>  -0.1500 
  5 C        4.7620    -1.8430    -1.2620 C.ar  1 <1>  -0.1500 
  6 C        3.6500    -0.3710     0.2740 C.ar  1 <1>  -0.1500 
  7 C        4.5390    -1.4120     0.0410 C.ar  1 <1>  -0.1430 
  8 C        5.2680    -2.0600     1.2090 C.3   1 <1>   0.2840 
  9 N        6.7240    -2.0950     0.9450 N.am  1 <1>  -0.7300 
 10 C        7.6490    -1.1120     1.0300 C.2   1 <1>   0.5690 
 11 O        8.7960    -1.3730     0.7780 O.2   1 <1>  -0.5700 
 12 C        7.2870     0.2980     1.4380 C.3   1 <1>  -0.0990 
 13 C        6.7850     1.1150     0.2410 C.3   1 <1>   0.2810 
 14 N        7.8830     1.8060    -0.4910 N.am  1 <1>  -0.6600 
 15 C        5.9370     2.3100     0.6720 C.2   1 <1>   0.5690 
 16 C        7.6040     3.1390    -0.5530 C.2   1 <1>   0.6900 
 17 C        8.8540     1.0970    -1.3520 C.3   1 <1>   0.1400 
 18 O        4.9550     2.2440     1.3750 O.2   1 <1>  -0.5700 
 19 N        6.4730     3.4450     0.1500 N.am  1 <1>  -0.4200 
 20 O        8.2590     3.9530    -1.1710 O.2   1 <1>  -0.5700 
 21 C       10.2470     1.2190    -0.7420 C.3   1 <1>  -0.2400 
 22 C        5.9080     4.8000     0.2880 C.3   1 <1>   0.1400 
 23 C        4.9010     5.0530    -0.8320 C.3   1 <1>  -0.2400 
 24 H        4.2800    -1.5560    -3.3330 H     1 <1>   0.1500 
 25 H        2.3180     1.0580    -0.6080 H     1 <1>   0.1500 
 26 H        5.4450    -2.6520    -1.4570 H     1 <1>   0.1500 
 27 H        3.4610    -0.0210     1.2760 H     1 <1>   0.1500 
 28 H        4.9080    -3.0660     1.3420 H     1 <1>   0.0800 
 29 H        5.0780    -1.5180     2.1200 H     1 <1>   0.0800 
 30 H        7.0910    -3.0000     0.6450 H     1 <1>   0.3700 
 31 H        8.1400     0.7810     1.8790 H     1 <1>   0.0800 
 32 H        6.5230     0.2470     2.1880 H     1 <1>   0.0800 
 33 H        6.2180     0.5130    -0.4440 H     1 <1>   0.0800 
 34 H        8.8500     1.5430    -2.3330 H     1 <1>   0.0800 
 35 H        8.5780     0.0610    -1.4460 H     1 <1>   0.0800 
 36 H       10.5390     2.2520    -0.6880 H     1 <1>   0.0800 
 37 H       10.9560     0.6950    -1.3560 H     1 <1>   0.0800 
 38 H       10.2670     0.7890     0.2420 H     1 <1>   0.0800 
 39 H        6.7040     5.5250     0.2410 H     1 <1>   0.0800 
 40 H        5.4230     4.8870     1.2460 H     1 <1>   0.0800 
 41 H        5.3850     4.9820    -1.7910 H     1 <1>   0.0800 
 42 H        4.4890     6.0410    -0.7320 H     1 <1>   0.0800 
 43 H        4.0970     4.3410    -0.7810 H     1 <1>   0.0800 
@<TRIPOS>BOND
  1   1   2  1   
  2   2   3  ar  
  3   2   4  ar  
  4   3   5  ar  
  5   3  24  1   
  6   4   6  ar  
  7   4  25  1   
  8   5   7  ar  
  9   5  26  1   
 10   6   7  ar  
 11   6  27  1   
 12   7   8  1   
 13   8   9  1   
 14   8  28  1   
 15   8  29  1   
 16   9  10  am  
 17   9  30  1   
 18  10  11  2   
 19  10  12  1   
 20  12  13  1   
 21  12  31  1   
 22  12  32  1   
 23  13  14  1   
 24  13  15  1   
 25  13  33  1   
 26  14  16  am  
 27  14  17  1   
 28  15  18  2   
 29  15  19  am  
 30  16  19  am  
 31  16  20  2   
 32  17  21  1   
 33  17  34  1   
 34  17  35  1   
 35  19  22  1   
 36  21  36  1   
 37  21  37  1   
 38  21  38  1   
 39  22  23  1   
 40  22  39  1   
 41  22  40  1   
 42  23  41  1   
 43  23  42  1   
 44  23  43  1   
@<TRIPOS>SUBSTRUCTURE
  1 ****  13 GROUP 4 **** **** 0

# MOE 2024.06 (io_trps.svl 2023.06)
