@<TRIPOS>MOLECULE
NONAME
44 46 1 0 0 
SMALL
USER_CHARGES


@<TRIPOS>ATOM
  1 N        0.1620     0.1260     0.1460 N.ar  1 <1>  -0.6200 
  2 C        0.1830    -1.1700    -0.1280 C.ar  1 <1>   0.7710 
  3 C        1.2830     0.7220     0.5060 C.ar  1 <1>   0.4100 
  4 N        1.3140    -1.8870    -0.0210 N.ar  1 <1>  -0.1790 
  5 N       -0.9620    -1.7960    -0.5180 N.pl3 1 <1>  -0.8380 
  6 N        1.2440     2.0600     0.7440 N.pl3 1 <1>  -0.8380 
  7 C        2.4800    -0.0080     0.6420 C.ar  1 <1>  -0.1500 
  8 C        2.4850    -1.3330     0.3690 C.ar  1 <1>   0.2180 
  9 C       -2.2850    -1.0870    -0.5170 C.3   1 <1>   0.2090 
 10 C       -1.1140    -3.2160    -0.9670 C.3   1 <1>   0.2090 
 11 C       -0.0150     2.7650     1.1370 C.3   1 <1>   0.2090 
 12 C        2.3720     3.0000     0.4690 C.3   1 <1>   0.2090 
 13 C        3.7160    -2.2150     0.4860 C.3   1 <1>  -0.0970 
 14 C       -3.2260    -1.7870     0.4690 C.3   1 <1>  -0.1600 
 15 C       -2.0150    -3.9600     0.0220 C.3   1 <1>  -0.1600 
 16 C       -0.4440     3.7140     0.0150 C.3   1 <1>  -0.1600 
 17 C        1.9720     3.9660    -0.6520 C.3   1 <1>  -0.1600 
 18 C       -3.3860    -3.2800     0.1470 C.3   1 <1>  -0.1600 
 19 C        0.6690     4.7120    -0.3330 C.3   1 <1>  -0.1600 
 20 H        1.2220    -2.8720    -0.2240 H     1 <1>   0.4570 
 21 H        3.3630     0.5010     0.9760 H     1 <1>   0.1500 
 22 H       -2.7070    -1.1200    -1.5080 H     1 <1>   0.0800 
 23 H       -2.1950    -0.0500    -0.2400 H     1 <1>   0.0800 
 24 H       -0.1690    -3.7200    -1.0490 H     1 <1>   0.0800 
 25 H       -1.5720    -3.2270    -1.9440 H     1 <1>   0.0800 
 26 H        0.1660     3.3270     2.0370 H     1 <1>   0.0800 
 27 H       -0.8040     2.0630     1.3440 H     1 <1>   0.0800 
 28 H        3.2560     2.4710     0.1660 H     1 <1>   0.0800 
 29 H        2.5980     3.5530     1.3660 H     1 <1>   0.0800 
 30 H        3.5530    -2.9960     1.2070 H     1 <1>   0.0800 
 31 H        4.5640    -1.6350     0.8060 H     1 <1>   0.0800 
 32 H        3.9540    -2.6580    -0.4660 H     1 <1>   0.0800 
 33 H       -4.1890    -1.3080     0.4390 H     1 <1>   0.0800 
 34 H       -2.8360    -1.6670     1.4650 H     1 <1>   0.0800 
 35 H       -1.5390    -3.9930     0.9860 H     1 <1>   0.0800 
 36 H       -2.1520    -4.9740    -0.3120 H     1 <1>   0.0800 
 37 H       -1.3270     4.2470     0.3180 H     1 <1>   0.0800 
 38 H       -0.6950     3.1280    -0.8520 H     1 <1>   0.0800 
 39 H        1.8510     3.4050    -1.5620 H     1 <1>   0.0800 
 40 H        2.7640     4.6770    -0.8080 H     1 <1>   0.0800 
 41 H       -3.9240    -3.3870    -0.7800 H     1 <1>   0.0800 
 42 H       -3.9640    -3.7590     0.9200 H     1 <1>   0.0800 
 43 H        0.8300     5.3720     0.5020 H     1 <1>   0.0800 
 44 H        0.3730     5.3080    -1.1790 H     1 <1>   0.0800 
@<TRIPOS>BOND
  1   1   2  ar  
  2   1   3  ar  
  3   2   4  ar  
  4   2   5  1   
  5   3   6  1   
  6   3   7  ar  
  7   4   8  ar  
  8   4  20  1   
  9   5   9  1   
 10   5  10  1   
 11   6  11  1   
 12   6  12  1   
 13   7   8  ar  
 14   7  21  1   
 15   8  13  1   
 16   9  14  1   
 17   9  22  1   
 18   9  23  1   
 19  10  15  1   
 20  10  24  1   
 21  10  25  1   
 22  11  16  1   
 23  11  26  1   
 24  11  27  1   
 25  12  17  1   
 26  12  28  1   
 27  12  29  1   
 28  13  30  1   
 29  13  31  1   
 30  13  32  1   
 31  14  18  1   
 32  14  33  1   
 33  14  34  1   
 34  15  18  1   
 35  15  35  1   
 36  15  36  1   
 37  16  19  1   
 38  16  37  1   
 39  16  38  1   
 40  17  19  1   
 41  17  39  1   
 42  17  40  1   
 43  18  41  1   
 44  18  42  1   
 45  19  43  1   
 46  19  44  1   
@<TRIPOS>SUBSTRUCTURE
  1 ****   1 GROUP 4 **** **** 0

# MOE 2024.06 (io_trps.svl 2023.06)
