@<TRIPOS>MOLECULE
NONAME
48 49 1 0 0 
SMALL
USER_CHARGES


@<TRIPOS>ATOM
  1 O        0.5150    -1.0510    -0.5860 O.3   1 <1>  -0.3630 
  2 C       -0.7770    -1.1030    -0.1640 C.ar  1 <1>   0.0830 
  3 C        1.5390    -0.5330     0.2320 C.3   1 <1>   0.1200 
  4 C       -1.7210    -1.6330    -1.0400 C.ar  1 <1>  -0.1440 
  5 C       -1.1830    -0.6540     1.0900 C.ar  1 <1>  -0.1500 
  6 C        2.8500    -0.6260    -0.5440 C.3   1 <1>   0.1200 
  7 C       -3.0500    -1.7060    -0.6530 C.ar  1 <1>  -0.1500 
  8 C       -1.3080    -2.1300    -2.4180 C.3   1 <1>  -0.0960 
  9 C       -2.5120    -0.7340     1.4630 C.ar  1 <1>  -0.1500 
 10 O        3.8810    -0.1130     0.2480 O.3   1 <1>  -0.5600 
 11 C       -3.4530    -1.2610     0.5950 C.ar  1 <1>  -0.1430 
 12 C        5.1320    -0.1460    -0.3540 C.3   1 <1>   0.1200 
 13 C       -4.9130    -1.3480     1.0020 C.3   1 <1>  -0.0970 
 14 C        6.1370     0.4300     0.6520 C.3   1 <1>   0.3430 
 15 N        7.5510     0.4000     0.1520 N.4   1 <1>  -0.9590 
 16 C        8.4900     0.7030     1.2720 C.3   1 <1>   0.3430 
 17 C        7.7660     1.3290    -1.0000 C.3   1 <1>   0.3430 
 18 C        9.9340     0.5330     0.7960 C.3   1 <1>  -0.1600 
 19 C        9.1940     1.1740    -1.5270 C.3   1 <1>  -0.1600 
 20 C       10.2360     1.4100    -0.4270 C.3   1 <1>  -0.1600 
 21 H        1.5880    -1.1250     1.1280 H     1 <1>   0.0800 
 22 H        1.3060     0.4930     0.4570 H     1 <1>   0.0800 
 23 H       -0.4840    -0.2400     1.7900 H     1 <1>   0.1500 
 24 H        2.7810    -0.0430    -1.4470 H     1 <1>   0.0800 
 25 H        3.0650    -1.6550    -0.7740 H     1 <1>   0.0800 
 26 H       -3.7810    -2.1130    -1.3290 H     1 <1>   0.1500 
 27 H       -0.5860    -2.9200    -2.3160 H     1 <1>   0.0800 
 28 H       -0.8660    -1.3250    -2.9760 H     1 <1>   0.0800 
 29 H       -2.1530    -2.5060    -2.9660 H     1 <1>   0.0800 
 30 H       -2.8130    -0.3820     2.4350 H     1 <1>   0.1500 
 31 H        5.0890     0.4490    -1.2490 H     1 <1>   0.0800 
 32 H        5.3690    -1.1700    -0.5870 H     1 <1>   0.0800 
 33 H       -5.3670    -2.2260     0.5800 H     1 <1>   0.0800 
 34 H       -5.4400    -0.4790     0.6510 H     1 <1>   0.0800 
 35 H       -5.0040    -1.4010     2.0720 H     1 <1>   0.0800 
 36 H        6.0670    -0.1520     1.5560 H     1 <1>   0.0800 
 37 H        5.8550     1.4450     0.8820 H     1 <1>   0.0800 
 38 H        7.7710    -0.5520    -0.1680 H     1 <1>   0.4500 
 39 H        8.3070     0.0380     2.1010 H     1 <1>   0.0800 
 40 H        8.3410     1.7170     1.6100 H     1 <1>   0.0800 
 41 H        7.6100     2.3470    -0.6810 H     1 <1>   0.0800 
 42 H        7.0700     1.1110    -1.7930 H     1 <1>   0.0800 
 43 H       10.1150    -0.5010     0.5610 H     1 <1>   0.0800 
 44 H       10.6020     0.8010     1.5970 H     1 <1>   0.0800 
 45 H        9.3530     1.8810    -2.3240 H     1 <1>   0.0800 
 46 H        9.3170     0.1890    -1.9450 H     1 <1>   0.0800 
 47 H       11.2220     1.1900    -0.8010 H     1 <1>   0.0800 
 48 H       10.2220     2.4480    -0.1360 H     1 <1>   0.0800 
@<TRIPOS>BOND
  1   1   2  1   
  2   1   3  1   
  3   2   4  ar  
  4   2   5  ar  
  5   3   6  1   
  6   3  21  1   
  7   3  22  1   
  8   4   7  ar  
  9   4   8  1   
 10   5   9  ar  
 11   5  23  1   
 12   6  10  1   
 13   6  24  1   
 14   6  25  1   
 15   7  11  ar  
 16   7  26  1   
 17   8  27  1   
 18   8  28  1   
 19   8  29  1   
 20   9  11  ar  
 21   9  30  1   
 22  10  12  1   
 23  11  13  1   
 24  12  14  1   
 25  12  31  1   
 26  12  32  1   
 27  13  33  1   
 28  13  34  1   
 29  13  35  1   
 30  14  15  1   
 31  14  36  1   
 32  14  37  1   
 33  15  16  1   
 34  15  17  1   
 35  15  38  1   
 36  16  18  1   
 37  16  39  1   
 38  16  40  1   
 39  17  19  1   
 40  17  41  1   
 41  17  42  1   
 42  18  20  1   
 43  18  43  1   
 44  18  44  1   
 45  19  20  1   
 46  19  45  1   
 47  19  46  1   
 48  20  47  1   
 49  20  48  1   
@<TRIPOS>SUBSTRUCTURE
  1 ****   6 GROUP 4 **** **** 0

# MOE 2024.06 (io_trps.svl 2023.06)
