@<TRIPOS>MOLECULE
NONAME
33 34 1 0 0 
SMALL
USER_CHARGES


@<TRIPOS>ATOM
  1 S        0.5600     0.5930     0.6670 S.3   1 <1>  -0.2860 
  2 C       -0.5040     0.2370    -0.7380 C.2   1 <1>   0.2420 
  3 C        1.3800    -1.0400     0.9940 C.3   1 <1>   0.1310 
  4 N       -0.3360    -0.7630    -1.5110 N.2   1 <1>  -0.3380 
  5 N       -1.5450     0.9800    -1.0920 N.pl3 1 <1>   0.5930 
  6 C        0.3410    -2.0860     1.4010 C.2   1 <1>   0.6590 
  7 N       -1.3110    -0.6500    -2.4090 N.2   1 <1>   0.0000 
  8 N       -2.0380     0.3870    -2.1760 N.2   1 <1>  -0.4180 
  9 C       -2.0840     2.1480    -0.4860 C.ar  1 <1>  -0.0230 
 10 O       -0.5080    -1.8200     2.2100 O.2   1 <1>  -0.5700 
 11 O        0.3970    -3.3150     0.8910 O.3   1 <1>  -0.4300 
 12 C       -2.7930     2.0880     0.7160 C.ar  1 <1>  -0.1440 
 13 C       -1.8960     3.3800    -1.1050 C.ar  1 <1>  -0.1500 
 14 C        1.1560    -3.7240    -0.2270 C.3   1 <1>   0.0400 
 15 C       -3.2810     3.2580     1.2750 C.ar  1 <1>  -0.1500 
 16 C       -3.0490     0.7680     1.4360 C.3   1 <1>  -0.0970 
 17 C       -2.3910     4.5440    -0.5450 C.ar  1 <1>  -0.1430 
 18 C       -3.0820     4.4770     0.6520 C.ar  1 <1>  -0.1500 
 19 C       -2.1770     5.8830    -1.2270 C.3   1 <1>  -0.0970 
 20 H        2.0760    -0.8850     1.7960 H     1 <1>   0.0800 
 21 H        1.9050    -1.3020     0.0970 H     1 <1>   0.0800 
 22 H       -1.3580     3.4260    -2.0370 H     1 <1>   0.1500 
 23 H        0.9310    -4.7580    -0.4210 H     1 <1>   0.0800 
 24 H        2.2030    -3.6160    -0.0060 H     1 <1>   0.0800 
 25 H        0.8780    -3.1300    -1.0810 H     1 <1>   0.0800 
 26 H       -3.8240     3.2290     2.2040 H     1 <1>   0.1500 
 27 H       -2.1610     0.4430     1.9470 H     1 <1>   0.0800 
 28 H       -3.3510     0.0040     0.7420 H     1 <1>   0.0800 
 29 H       -3.8320     0.8760     2.1650 H     1 <1>   0.0800 
 30 H       -3.4690     5.3740     1.1040 H     1 <1>   0.1500 
 31 H       -1.3290     6.3810    -0.7940 H     1 <1>   0.0800 
 32 H       -3.0450     6.5050    -1.1060 H     1 <1>   0.0800 
 33 H       -2.0010     5.7500    -2.2800 H     1 <1>   0.0800 
@<TRIPOS>BOND
  1   1   2  1   
  2   1   3  1   
  3   2   4  2   
  4   2   5  1   
  5   3   6  1   
  6   3  20  1   
  7   3  21  1   
  8   4   7  1   
  9   5   8  1   
 10   5   9  1   
 11   6  10  2   
 12   6  11  1   
 13   7   8  2   
 14   9  12  ar  
 15   9  13  ar  
 16  11  14  1   
 17  12  15  ar  
 18  12  16  1   
 19  13  17  ar  
 20  13  22  1   
 21  14  23  1   
 22  14  24  1   
 23  14  25  1   
 24  15  18  ar  
 25  15  26  1   
 26  16  27  1   
 27  16  28  1   
 28  16  29  1   
 29  17  18  ar  
 30  17  19  1   
 31  18  30  1   
 32  19  31  1   
 33  19  32  1   
 34  19  33  1   
@<TRIPOS>SUBSTRUCTURE
  1 ****   5 GROUP 4 **** **** 0

# MOE 2024.06 (io_trps.svl 2023.06)
