@<TRIPOS>MOLECULE
NONAME
36 38 1 0 0 
SMALL
USER_CHARGES


@<TRIPOS>ATOM
  1 O       -0.6210    -0.1090     0.9190 O.2   1 <1>  -0.5700 
  2 C       -1.7440    -0.3810     0.5350 C.2   1 <1>   0.4950 
  3 C       -2.2920    -1.6770     0.5130 C.2   1 <1>   0.0290 
  4 C       -2.5720     0.7990     0.0510 C.3   1 <1>  -0.0990 
  5 C       -3.6560    -1.8180     0.2440 C.2   1 <1>   0.2000 
  6 C       -1.4290    -2.7590     0.7680 C.2   1 <1>   0.7060 
  7 C       -4.0420     0.6490     0.4370 C.3   1 <1>   0.2090 
  8 N       -4.4730    -0.7340     0.1660 N.pl3 1 <1>  -0.5690 
  9 N       -4.4190    -2.9300     0.0150 N.pl3 1 <1>  -0.5690 
 10 O       -1.6090    -3.5920     1.6490 O.2   1 <1>  -0.5700 
 11 O       -0.3520    -2.9040    -0.0210 O.3   1 <1>  -0.4300 
 12 C       -5.7680    -1.1520    -0.0840 C.ar  1 <1>   0.1000 
 13 C       -5.7370    -2.5290    -0.1770 C.ar  1 <1>   0.1000 
 14 C       -3.9960    -4.3520    -0.0210 C.3   1 <1>   0.1290 
 15 C        0.5980    -3.9170     0.2180 C.3   1 <1>   0.1200 
 16 C       -6.9590    -0.4510    -0.2300 C.ar  1 <1>  -0.1500 
 17 C       -6.9070    -3.2420    -0.4190 C.ar  1 <1>  -0.1500 
 18 C        1.6910    -3.7950    -0.8390 C.3   1 <1>  -0.2400 
 19 C       -8.1210    -1.1590    -0.4740 C.ar  1 <1>  -0.1500 
 20 C       -8.0950    -2.5500    -0.5670 C.ar  1 <1>  -0.1500 
 21 H       -2.4870     0.8600    -1.0180 H     1 <1>   0.0800 
 22 H       -2.1860     1.7110     0.4680 H     1 <1>   0.0800 
 23 H       -4.6460     1.3380    -0.1280 H     1 <1>   0.0800 
 24 H       -4.1740     0.8480     1.4870 H     1 <1>   0.0800 
 25 H       -3.0500    -4.4430    -0.5220 H     1 <1>   0.0800 
 26 H       -4.7190    -4.9420    -0.5530 H     1 <1>   0.0800 
 27 H       -3.9070    -4.7240     0.9850 H     1 <1>   0.0800 
 28 H        0.1050    -4.8730     0.1570 H     1 <1>   0.0800 
 29 H        1.0010    -3.7780     1.2070 H     1 <1>   0.0800 
 30 H       -6.9680     0.6190    -0.1540 H     1 <1>   0.1500 
 31 H       -6.8830    -4.3120    -0.4860 H     1 <1>   0.1500 
 32 H        1.2740    -3.9240    -1.8210 H     1 <1>   0.0800 
 33 H        2.4370    -4.5530    -0.6790 H     1 <1>   0.0800 
 34 H        2.1630    -2.8310    -0.7710 H     1 <1>   0.0800 
 35 H       -9.0550    -0.6380    -0.5910 H     1 <1>   0.1500 
 36 H       -9.0090    -3.0860    -0.7550 H     1 <1>   0.1500 
@<TRIPOS>BOND
  1   1   2  2   
  2   2   3  1   
  3   2   4  1   
  4   3   5  2   
  5   3   6  1   
  6   4   7  1   
  7   4  21  1   
  8   4  22  1   
  9   5   8  1   
 10   5   9  1   
 11   6  10  2   
 12   6  11  1   
 13   7   8  1   
 14   7  23  1   
 15   7  24  1   
 16   8  12  1   
 17   9  13  1   
 18   9  14  1   
 19  11  15  1   
 20  12  13  ar  
 21  12  16  ar  
 22  13  17  ar  
 23  14  25  1   
 24  14  26  1   
 25  14  27  1   
 26  15  18  1   
 27  15  28  1   
 28  15  29  1   
 29  16  19  ar  
 30  16  30  1   
 31  17  20  ar  
 32  17  31  1   
 33  18  32  1   
 34  18  33  1   
 35  18  34  1   
 36  19  20  ar  
 37  19  35  1   
 38  20  36  1   
@<TRIPOS>SUBSTRUCTURE
  1 ****   5 GROUP 4 **** **** 0

# MOE 2024.06 (io_trps.svl 2023.06)
