@<TRIPOS>MOLECULE
NONAME
30 31 1 0 0 
SMALL
USER_CHARGES


@<TRIPOS>ATOM
  1 S       -0.1070    -0.4700    -0.2030 S.o2  1 <1>   1.4470 
  2 O        0.1700    -1.3390    -1.3250 O.2   1 <1>  -0.6500 
  3 O       -0.6540    -1.0160     1.0190 O.2   1 <1>  -0.6500 
  4 N       -1.2060     0.6400    -0.8170 N.am  1 <1>  -0.7890 
  5 C        1.3380     0.5590     0.1710 C.ar  1 <1>  -0.0090 
  6 C       -2.5710     0.1810    -0.7740 C.3   1 <1>   0.1310 
  7 C        2.5500     0.3730    -0.4830 C.ar  1 <1>  -0.1500 
  8 C        1.2640     1.5690     1.1200 C.ar  1 <1>  -0.1500 
  9 C       -3.6440     1.1900    -0.9970 C.3   1 <1>  -0.2000 
 10 C       -3.4220     0.6120     0.3700 C.3   1 <1>  -0.2000 
 11 C        3.6570     1.1620    -0.2100 C.ar  1 <1>  -0.1430 
 12 C        2.3590     2.3640     1.4040 C.ar  1 <1>  -0.1500 
 13 C        3.5610     2.1690     0.7430 C.ar  1 <1>  -0.1430 
 14 C        4.9540     0.9030    -0.9630 C.3   1 <1>  -0.0970 
 15 C        4.7450     3.0630     1.0810 C.3   1 <1>  -0.0970 
 16 H       -0.9510     0.7020    -1.7990 H     1 <1>   0.4200 
 17 H       -2.7070    -0.8150    -1.1710 H     1 <1>   0.1000 
 18 H        2.6240    -0.4090    -1.2200 H     1 <1>   0.1500 
 19 H        0.3370     1.7330     1.6430 H     1 <1>   0.1500 
 20 H       -4.5330     0.9000    -1.5290 H     1 <1>   0.1000 
 21 H       -3.3680     2.2160    -1.1710 H     1 <1>   0.1000 
 22 H       -2.9690     1.2170     1.1360 H     1 <1>   0.1000 
 23 H       -4.1420    -0.0840     0.7620 H     1 <1>   0.1000 
 24 H        2.2670     3.1380     2.1460 H     1 <1>   0.1500 
 25 H        4.8440     0.0880    -1.6560 H     1 <1>   0.0800 
 26 H        5.7380     0.6520    -0.2720 H     1 <1>   0.0800 
 27 H        5.2410     1.7790    -1.5160 H     1 <1>   0.0800 
 28 H        5.5610     2.4700     1.4510 H     1 <1>   0.0800 
 29 H        4.4830     3.7830     1.8360 H     1 <1>   0.0800 
 30 H        5.0670     3.5960     0.2050 H     1 <1>   0.0800 
@<TRIPOS>BOND
  1   1   2  2   
  2   1   3  2   
  3   1   4  am  
  4   1   5  1   
  5   4   6  1   
  6   4  16  1   
  7   5   7  ar  
  8   5   8  ar  
  9   6   9  1   
 10   6  10  1   
 11   6  17  1   
 12   7  11  ar  
 13   7  18  1   
 14   8  12  ar  
 15   8  19  1   
 16   9  10  1   
 17   9  20  1   
 18   9  21  1   
 19  10  22  1   
 20  10  23  1   
 21  11  13  ar  
 22  11  14  1   
 23  12  13  ar  
 24  12  24  1   
 25  13  15  1   
 26  14  25  1   
 27  14  26  1   
 28  14  27  1   
 29  15  28  1   
 30  15  29  1   
 31  15  30  1   
@<TRIPOS>SUBSTRUCTURE
  1 ****   5 GROUP 4 **** **** 0

# MOE 2024.06 (io_trps.svl 2023.06)
