@<TRIPOS>MOLECULE
NONAME
40 41 1 0 0 
SMALL
USER_CHARGES


@<TRIPOS>ATOM
  1 BR       0.4150    -0.0780     0.9210 Br    1 <1>  -0.1110 
  2 C        1.7160     1.3300     0.7960 C.ar  1 <1>   0.1110 
  3 C        2.5780     1.3510    -0.2830 C.ar  1 <1>  -0.1500 
  4 C        1.7650     2.2870     1.7890 C.ar  1 <1>  -0.1500 
  5 C        3.5120     2.3680    -0.3670 C.ar  1 <1>  -0.1500 
  6 C        2.7050     3.2970     1.6890 C.ar  1 <1>  -0.1500 
  7 C        3.5940     3.3680     0.6110 C.ar  1 <1>   0.0860 
  8 C        4.5640     4.4470     0.5270 C.2   1 <1>   0.5440 
  9 O        4.9790     4.9960     1.5280 O.2   1 <1>  -0.5700 
 10 N        5.0430     4.8850    -0.6780 N.am  1 <1>  -0.7300 
 11 C        5.8810     6.1020    -0.8860 C.3   1 <1>   0.1400 
 12 C        7.3530     5.8730    -0.4870 C.3   1 <1>   0.2000 
 13 O        7.4510     5.6870     0.8920 O.3   1 <1>  -0.6800 
 14 C        8.2610     7.0610    -0.8760 C.3   1 <1>   0.3430 
 15 N        9.4870     7.0990    -0.0200 N.4   1 <1>  -0.9590 
 16 C       10.1110     8.4560     0.1270 C.3   1 <1>   0.3430 
 17 C       10.4990     6.0350    -0.3180 C.3   1 <1>   0.3430 
 18 C       11.4840     8.3940     0.8340 C.3   1 <1>   0.1200 
 19 C       11.6490     6.0440     0.7180 C.3   1 <1>   0.1200 
 20 O       11.6300     7.1900     1.5300 O.3   1 <1>  -0.5600 
 21 H        2.5150     0.5840    -1.0350 H     1 <1>   0.1500 
 22 H        1.0830     2.2410     2.6200 H     1 <1>   0.1500 
 23 H        4.1920     2.3770    -1.2000 H     1 <1>   0.1500 
 24 H        2.7560     4.0500     2.4580 H     1 <1>   0.1500 
 25 H        4.5960     4.5110    -1.5190 H     1 <1>   0.3700 
 26 H        5.4720     6.9190    -0.3140 H     1 <1>   0.0800 
 27 H        5.8300     6.3710    -1.9270 H     1 <1>   0.0800 
 28 H        7.7100     4.9760    -0.9640 H     1 <1>   0.0800 
 29 H        6.5780     5.3370     1.2380 H     1 <1>   0.4000 
 30 H        7.6990     7.9680    -0.7230 H     1 <1>   0.0800 
 31 H        8.5230     7.0060    -1.9190 H     1 <1>   0.0800 
 32 H        9.1320     6.8340     0.9240 H     1 <1>   0.4500 
 33 H        9.4550     9.0900     0.7010 H     1 <1>   0.0800 
 34 H       10.2410     8.9140    -0.8390 H     1 <1>   0.0800 
 35 H       10.9140     6.1920    -1.2990 H     1 <1>   0.0800 
 36 H       10.0310     5.0640    -0.3090 H     1 <1>   0.0800 
 37 H       11.5760     9.2010     1.5400 H     1 <1>   0.0800 
 38 H       12.2870     8.4770     0.1200 H     1 <1>   0.0800 
 39 H       12.6030     5.9890     0.2240 H     1 <1>   0.0800 
 40 H       11.5610     5.1910     1.3690 H     1 <1>   0.0800 
@<TRIPOS>BOND
  1   1   2  1   
  2   2   3  ar  
  3   2   4  ar  
  4   3   5  ar  
  5   3  21  1   
  6   4   6  ar  
  7   4  22  1   
  8   5   7  ar  
  9   5  23  1   
 10   6   7  ar  
 11   6  24  1   
 12   7   8  1   
 13   8   9  2   
 14   8  10  am  
 15  10  11  1   
 16  10  25  1   
 17  11  12  1   
 18  11  26  1   
 19  11  27  1   
 20  12  13  1   
 21  12  14  1   
 22  12  28  1   
 23  13  29  1   
 24  14  15  1   
 25  14  30  1   
 26  14  31  1   
 27  15  16  1   
 28  15  17  1   
 29  15  32  1   
 30  16  18  1   
 31  16  33  1   
 32  16  34  1   
 33  17  19  1   
 34  17  35  1   
 35  17  36  1   
 36  18  20  1   
 37  18  37  1   
 38  18  38  1   
 39  19  20  1   
 40  19  39  1   
 41  19  40  1   
@<TRIPOS>SUBSTRUCTURE
  1 ****  13 GROUP 4 **** **** 0

# MOE 2024.06 (io_trps.svl 2023.06)
