@<TRIPOS>MOLECULE
NONAME
47 48 1 0 0 
SMALL
USER_CHARGES


@<TRIPOS>ATOM
  1 S        0.3220    -0.6920    -0.2800 S.3   1 <1>  -0.3710 
  2 C       -1.3720    -0.3620    -0.6750 C.2   1 <1>   0.6410 
  3 C        0.7760    -2.0710    -1.4540 C.3   1 <1>   0.1310 
  4 N       -1.9480    -1.0430    -1.5910 N.2   1 <1>  -0.6610 
  5 N       -1.9350     0.6290     0.0630 N.pl3 1 <1>  -0.5500 
  6 C        2.2180    -2.5250    -1.2750 C.2   1 <1>   0.5690 
  7 C       -3.2530    -0.7210    -1.8290 C.2   1 <1>   0.7670 
  8 C       -3.2400     0.9900    -0.1310 C.2   1 <1>  -0.0380 
  9 O        2.6410    -3.3910    -2.0030 O.2   1 <1>  -0.5700 
 10 N        2.9890    -1.9550    -0.3130 N.am  1 <1>  -0.7300 
 11 O       -3.8530    -1.3390    -2.6940 O.2   1 <1>  -0.5700 
 12 C       -3.9050     0.3070    -1.0940 C.2   1 <1>  -0.1360 
 13 C       -3.7860     2.1170     0.7420 C.3   1 <1>  -0.0220 
 14 C        4.3910    -2.2850    -0.0150 C.3   1 <1>   0.2200 
 15 C       -5.3180     2.2400     0.7780 C.3   1 <1>  -0.1600 
 16 C        4.4600    -2.7670     1.4410 C.3   1 <1>  -0.1600 
 17 C        5.2340    -1.0430    -0.3280 C.3   1 <1>  -0.1600 
 18 C       -5.9920     1.0500     1.4740 C.3   1 <1>  -0.2400 
 19 C        5.8030    -3.4360     1.7740 C.3   1 <1>  -0.1600 
 20 C        6.7280    -1.1640     0.0160 C.3   1 <1>  -0.1600 
 21 C        6.9070    -2.4740     2.2410 C.3   1 <1>  -0.1600 
 22 C        6.9860    -1.1150     1.5280 C.3   1 <1>  -0.1600 
 23 H        0.6250    -1.7060    -2.4520 H     1 <1>   0.0800 
 24 H        0.1060    -2.8890    -1.2630 H     1 <1>   0.0800 
 25 H       -1.3390     1.0800     0.7600 H     1 <1>   0.4000 
 26 H        2.5750    -1.2230     0.2680 H     1 <1>   0.3700 
 27 H       -4.9270     0.4900    -1.3560 H     1 <1>   0.1500 
 28 H       -3.3750     3.0450     0.3840 H     1 <1>   0.0800 
 29 H       -3.4360     1.9800     1.7510 H     1 <1>   0.0800 
 30 H        4.7050    -3.0890    -0.6610 H     1 <1>   0.0800 
 31 H       -5.7040     2.3510    -0.2210 H     1 <1>   0.0800 
 32 H       -5.5750     3.1360     1.3170 H     1 <1>   0.0800 
 33 H        3.6930    -3.5090     1.5730 H     1 <1>   0.0800 
 34 H        4.2620    -1.9590     2.1230 H     1 <1>   0.0800 
 35 H        4.8240    -0.1910     0.1840 H     1 <1>   0.0800 
 36 H        5.1520    -0.8570    -1.3850 H     1 <1>   0.0800 
 37 H       -5.7880     0.1280     0.9610 H     1 <1>   0.0800 
 38 H       -7.0580     1.1950     1.4950 H     1 <1>   0.0800 
 39 H       -5.6440     0.9620     2.4880 H     1 <1>   0.0800 
 40 H        6.1490    -3.9870     0.9160 H     1 <1>   0.0800 
 41 H        5.6440    -4.1570     2.5580 H     1 <1>   0.0800 
 42 H        7.2310    -0.3230    -0.4310 H     1 <1>   0.0800 
 43 H        7.1510    -2.0540    -0.4170 H     1 <1>   0.0800 
 44 H        7.8510    -2.9780     2.1280 H     1 <1>   0.0800 
 45 H        6.7790    -2.2870     3.2940 H     1 <1>   0.0800 
 46 H        6.2960    -0.4290     1.9890 H     1 <1>   0.0800 
 47 H        7.9720    -0.7160     1.6960 H     1 <1>   0.0800 
@<TRIPOS>BOND
  1   1   2  1   
  2   1   3  1   
  3   2   4  2   
  4   2   5  1   
  5   3   6  1   
  6   3  23  1   
  7   3  24  1   
  8   4   7  1   
  9   5   8  1   
 10   5  25  1   
 11   6   9  2   
 12   6  10  am  
 13   7  11  2   
 14   7  12  1   
 15   8  12  2   
 16   8  13  1   
 17  10  14  1   
 18  10  26  1   
 19  12  27  1   
 20  13  15  1   
 21  13  28  1   
 22  13  29  1   
 23  14  16  1   
 24  14  17  1   
 25  14  30  1   
 26  15  18  1   
 27  15  31  1   
 28  15  32  1   
 29  16  19  1   
 30  16  33  1   
 31  16  34  1   
 32  17  20  1   
 33  17  35  1   
 34  17  36  1   
 35  18  37  1   
 36  18  38  1   
 37  18  39  1   
 38  19  21  1   
 39  19  40  1   
 40  19  41  1   
 41  20  22  1   
 42  20  42  1   
 43  20  43  1   
 44  21  22  1   
 45  21  44  1   
 46  21  45  1   
 47  22  46  1   
 48  22  47  1   
@<TRIPOS>SUBSTRUCTURE
  1 ****   1 GROUP 4 **** **** 0

# MOE 2024.06 (io_trps.svl 2023.06)
