@<TRIPOS>MOLECULE
NONAME
50 52 1 0 0 
SMALL
USER_CHARGES


@<TRIPOS>ATOM
  1 O        0.5280    -0.6400    -1.3950 O.2   1 <1>  -0.5700 
  2 C        0.7900    -1.1650    -0.3290 C.2   1 <1>   0.6900 
  3 N        2.0920    -1.2820     0.0780 N.am  1 <1>  -0.6600 
  4 N       -0.1940    -1.6230     0.5000 N.am  1 <1>  -0.5470 
  5 C        3.1840    -0.5900    -0.6790 C.3   1 <1>   0.1400 
  6 C        2.5490    -2.2500     1.1280 C.3   1 <1>   0.1400 
  7 C       -1.5750    -1.7730     0.3160 C.ar  1 <1>   0.1170 
  8 C        4.4090    -0.2920     0.2050 C.3   1 <1>   0.2090 
  9 C        4.0170    -2.6730     0.9450 C.3   1 <1>   0.2090 
 10 C       -2.1610    -1.9110    -0.9380 C.ar  1 <1>  -0.1500 
 11 C       -2.4000    -1.8090     1.4310 C.ar  1 <1>  -0.1500 
 12 N        4.9390    -1.4970     0.9310 N.pl3 1 <1>  -0.8380 
 13 C       -3.5290    -2.0770    -1.0850 C.ar  1 <1>  -0.1430 
 14 C       -3.7660    -1.9750     1.2980 C.ar  1 <1>  -0.1500 
 15 C        6.2790    -1.8160     0.6670 C.ar  1 <1>   0.1000 
 16 C       -4.3410    -2.1100     0.0440 C.ar  1 <1>  -0.1430 
 17 C       -4.1070    -2.2170    -2.4860 C.3   1 <1>  -0.0970 
 18 C        6.7610    -2.2120    -0.5950 C.ar  1 <1>   0.0830 
 19 C        7.1720    -1.7340     1.7250 C.ar  1 <1>  -0.1500 
 20 C       -5.8480    -2.2890    -0.0660 C.3   1 <1>  -0.0970 
 21 O        5.8720    -2.2900    -1.6340 O.3   1 <1>  -0.3630 
 22 C        8.1110    -2.5120    -0.7520 C.ar  1 <1>  -0.1500 
 23 C        8.5120    -2.0330     1.5610 C.ar  1 <1>  -0.1500 
 24 C        6.2740    -2.7090    -2.9190 C.3   1 <1>   0.0400 
 25 C        8.9820    -2.4230     0.3210 C.ar  1 <1>  -0.1500 
 26 H        0.1360    -1.7700     1.4450 H     1 <1>   0.3700 
 27 H        2.8130     0.3340    -1.0850 H     1 <1>   0.0800 
 28 H        3.4860    -1.2110    -1.5030 H     1 <1>   0.0800 
 29 H        1.9330    -3.1310     1.0980 H     1 <1>   0.0800 
 30 H        2.4460    -1.7920     2.0960 H     1 <1>   0.0800 
 31 H        4.1350     0.4510     0.9330 H     1 <1>   0.0800 
 32 H        5.1860     0.1310    -0.4090 H     1 <1>   0.0800 
 33 H        4.1150    -3.2230     0.0240 H     1 <1>   0.0800 
 34 H        4.3030    -3.3260     1.7500 H     1 <1>   0.0800 
 35 H       -1.5330    -1.8900    -1.8090 H     1 <1>   0.1500 
 36 H       -1.9760    -1.7040     2.4120 H     1 <1>   0.1500 
 37 H       -4.3820    -1.9980     2.1790 H     1 <1>   0.1500 
 38 H       -3.3340    -2.1530    -3.2300 H     1 <1>   0.0800 
 39 H       -4.8160    -1.4300    -2.6710 H     1 <1>   0.0800 
 40 H       -4.5980    -3.1670    -2.5890 H     1 <1>   0.0800 
 41 H        6.8000    -1.4280     2.6860 H     1 <1>   0.1500 
 42 H       -6.0730    -3.2190    -0.5560 H     1 <1>   0.0800 
 43 H       -6.2740    -1.4810    -0.6320 H     1 <1>   0.0800 
 44 H       -6.3080    -2.3000     0.9060 H     1 <1>   0.0800 
 45 H        8.5120    -2.8170    -1.6990 H     1 <1>   0.1500 
 46 H        9.1850    -1.9620     2.3980 H     1 <1>   0.1500 
 47 H        5.4090    -2.7020    -3.5570 H     1 <1>   0.0800 
 48 H        6.6710    -3.7060    -2.8530 H     1 <1>   0.0800 
 49 H        7.0100    -2.0220    -3.2960 H     1 <1>   0.0800 
 50 H       10.0240    -2.6570     0.1910 H     1 <1>   0.1500 
@<TRIPOS>BOND
  1   1   2  2   
  2   2   3  am  
  3   2   4  am  
  4   3   5  1   
  5   3   6  1   
  6   4   7  1   
  7   4  26  1   
  8   5   8  1   
  9   5  27  1   
 10   5  28  1   
 11   6   9  1   
 12   6  29  1   
 13   6  30  1   
 14   7  10  ar  
 15   7  11  ar  
 16   8  12  1   
 17   8  31  1   
 18   8  32  1   
 19   9  12  1   
 20   9  33  1   
 21   9  34  1   
 22  10  13  ar  
 23  10  35  1   
 24  11  14  ar  
 25  11  36  1   
 26  12  15  1   
 27  13  16  ar  
 28  13  17  1   
 29  14  16  ar  
 30  14  37  1   
 31  15  18  ar  
 32  15  19  ar  
 33  16  20  1   
 34  17  38  1   
 35  17  39  1   
 36  17  40  1   
 37  18  21  1   
 38  18  22  ar  
 39  19  23  ar  
 40  19  41  1   
 41  20  42  1   
 42  20  43  1   
 43  20  44  1   
 44  21  24  1   
 45  22  25  ar  
 46  22  45  1   
 47  23  25  ar  
 48  23  46  1   
 49  24  47  1   
 50  24  48  1   
 51  24  49  1   
 52  25  50  1   
@<TRIPOS>SUBSTRUCTURE
  1 ****   3 GROUP 4 **** **** 0

# MOE 2024.06 (io_trps.svl 2023.06)
