@<TRIPOS>MOLECULE
NONAME
30 31 1 0 0 
SMALL
USER_CHARGES


@<TRIPOS>ATOM
  1 S        0.3840     0.2250     0.0820 S.o2  1 <1>   1.4470 
  2 O        1.0090     0.4830     1.3600 O.2   1 <1>  -0.6500 
  3 O        0.7530     1.0270    -1.0640 O.2   1 <1>  -0.6500 
  4 N        0.8020    -1.3270    -0.4060 N.am  1 <1>  -0.7890 
  5 C       -1.4280     0.1700     0.2820 C.ar  1 <1>  -0.0090 
  6 C        2.1380    -1.7150    -0.0320 C.3   1 <1>   0.1310 
  7 C       -2.2220     1.3190     0.2310 C.ar  1 <1>  -0.1430 
  8 C       -2.0660    -1.0440     0.5240 C.ar  1 <1>  -0.1500 
  9 C        2.4960    -3.1570    -0.1480 C.3   1 <1>  -0.2000 
 10 C        2.3120    -2.5290     1.2030 C.3   1 <1>  -0.2000 
 11 C       -3.5980     1.2300     0.3890 C.ar  1 <1>  -0.1500 
 12 C       -1.6130     2.6980     0.0060 C.3   1 <1>  -0.0970 
 13 C       -3.4370    -1.1280     0.6840 C.ar  1 <1>  -0.1500 
 14 C       -4.2130     0.0120     0.6140 C.ar  1 <1>  -0.1430 
 15 C       -5.7200    -0.0650     0.7830 C.3   1 <1>  -0.0970 
 16 H        0.7920    -1.2510    -1.4210 H     1 <1>   0.4200 
 17 H        2.8880    -0.9750    -0.2710 H     1 <1>   0.1000 
 18 H       -1.4870    -1.9490     0.5940 H     1 <1>   0.1500 
 19 H        3.4930    -3.4260    -0.4480 H     1 <1>   0.1000 
 20 H        1.7530    -3.8530    -0.4950 H     1 <1>   0.1000 
 21 H        1.4370    -2.7600     1.7830 H     1 <1>   0.1000 
 22 H        3.1790    -2.3490     1.8140 H     1 <1>   0.1000 
 23 H       -4.2020     2.1190     0.3380 H     1 <1>   0.1500 
 24 H       -0.7930     2.8640     0.6820 H     1 <1>   0.0800 
 25 H       -2.3390     3.4730     0.1740 H     1 <1>   0.0800 
 26 H       -1.2570     2.7850    -1.0050 H     1 <1>   0.0800 
 27 H       -3.8950    -2.0860     0.8630 H     1 <1>   0.1500 
 28 H       -6.0790     0.7930     1.3220 H     1 <1>   0.0800 
 29 H       -5.9950    -0.9490     1.3310 H     1 <1>   0.0800 
 30 H       -6.1930    -0.0940    -0.1820 H     1 <1>   0.0800 
@<TRIPOS>BOND
  1   1   2  2   
  2   1   3  2   
  3   1   4  am  
  4   1   5  1   
  5   4   6  1   
  6   4  16  1   
  7   5   7  ar  
  8   5   8  ar  
  9   6   9  1   
 10   6  10  1   
 11   6  17  1   
 12   7  11  ar  
 13   7  12  1   
 14   8  13  ar  
 15   8  18  1   
 16   9  10  1   
 17   9  19  1   
 18   9  20  1   
 19  10  21  1   
 20  10  22  1   
 21  11  14  ar  
 22  11  23  1   
 23  12  24  1   
 24  12  25  1   
 25  12  26  1   
 26  13  14  ar  
 27  13  27  1   
 28  14  15  1   
 29  15  28  1   
 30  15  29  1   
 31  15  30  1   
@<TRIPOS>SUBSTRUCTURE
  1 ****   5 GROUP 4 **** **** 0

# MOE 2024.06 (io_trps.svl 2023.06)
