@<TRIPOS>MOLECULE
NONAME
29 29 1 0 0 
SMALL
USER_CHARGES


@<TRIPOS>ATOM
  1 O       -1.6410    -0.7980    -0.8320 O.2   1 <1>  -0.5700 
  2 C       -1.3880    -1.8250    -0.2160 C.2   1 <1>   0.7200 
  3 O       -0.1320    -1.9970     0.2260 O.3   1 <1>  -0.4300 
  4 C       -2.3640    -2.8500     0.0260 C.2   1 <1>   0.3890 
  5 C        0.8620    -1.0160     0.0340 C.3   1 <1>   0.1200 
  6 N       -2.1970    -4.0420     0.4950 N.2   1 <1>  -0.5030 
  7 C       -3.8140    -2.5700    -0.3240 C.3   1 <1>   0.0420 
  8 C        2.1530    -1.5240     0.6660 C.3   1 <1>  -0.2400 
  9 N       -3.3790    -4.6700     0.5300 N.pl3 1 <1>  -0.5280 
 10 C       -4.3510    -1.3990     0.4630 C.2   1 <1>   0.6590 
 11 C       -4.5130    -3.8690     0.0640 C.3   1 <1>   0.1100 
 12 O       -3.8550    -1.0290     1.4960 O.2   1 <1>  -0.5700 
 13 O       -5.4150    -0.8060    -0.0660 O.3   1 <1>  -0.4300 
 14 C       -6.0020     0.3470     0.4970 C.3   1 <1>   0.1200 
 15 C       -5.2510     1.5760    -0.0100 C.3   1 <1>  -0.2400 
 16 H        0.5350    -0.1030     0.5030 H     1 <1>   0.0800 
 17 H        0.9860    -0.8560    -1.0240 H     1 <1>   0.0800 
 18 H       -3.9130    -2.3820    -1.3760 H     1 <1>   0.0800 
 19 H        2.0090    -1.6890     1.7180 H     1 <1>   0.0800 
 20 H        2.9320    -0.7950     0.5360 H     1 <1>   0.0800 
 21 H        2.4590    -2.4410     0.1960 H     1 <1>   0.0800 
 22 H       -3.5120    -5.6210     0.9070 H     1 <1>   0.3110 
 23 H       -4.9800    -4.3410    -0.7840 H     1 <1>   0.0800 
 24 H       -5.2200    -3.7320     0.8640 H     1 <1>   0.0800 
 25 H       -5.9650     0.2780     1.5720 H     1 <1>   0.0800 
 26 H       -7.0310     0.3780     0.1810 H     1 <1>   0.0800 
 27 H       -4.2250     1.5480     0.3140 H     1 <1>   0.0800 
 28 H       -5.7050     2.4670     0.3850 H     1 <1>   0.0800 
 29 H       -5.2880     1.6200    -1.0840 H     1 <1>   0.0800 
@<TRIPOS>BOND
  1   1   2  2   
  2   2   3  1   
  3   2   4  1   
  4   3   5  1   
  5   4   6  2   
  6   4   7  1   
  7   5   8  1   
  8   5  16  1   
  9   5  17  1   
 10   6   9  1   
 11   7  10  1   
 12   7  11  1   
 13   7  18  1   
 14   8  19  1   
 15   8  20  1   
 16   8  21  1   
 17   9  11  1   
 18   9  22  1   
 19  10  12  2   
 20  10  13  1   
 21  11  23  1   
 22  11  24  1   
 23  13  14  1   
 24  14  15  1   
 25  14  25  1   
 26  14  26  1   
 27  15  27  1   
 28  15  28  1   
 29  15  29  1   
@<TRIPOS>SUBSTRUCTURE
  1 ****   4 GROUP 4 **** **** 0

# MOE 2024.06 (io_trps.svl 2023.06)
