@<TRIPOS>MOLECULE
NONAME
44 45 1 0 0 
SMALL
USER_CHARGES


@<TRIPOS>ATOM
  1 O        0.7300    -0.5820     0.5060 O.3   1 <1>  -0.3630 
  2 C        0.5630    -1.8990     0.2190 C.ar  1 <1>   0.0830 
  3 C        1.9460    -0.0470     0.9860 C.3   1 <1>   0.1200 
  4 C        1.5120    -2.8850     0.4730 C.ar  1 <1>  -0.1500 
  5 C       -0.6390    -2.2560    -0.3650 C.ar  1 <1>  -0.1500 
  6 C        2.9310     0.1090    -0.1790 C.3   1 <1>  -0.1600 
  7 C        1.2630    -4.2100     0.1460 C.ar  1 <1>  -0.1440 
  8 C       -0.8930    -3.5740    -0.6940 C.ar  1 <1>  -0.1500 
  9 C        4.2570     0.7160     0.2970 C.3   1 <1>  -0.1600 
 10 C        0.0510    -4.5580    -0.4440 C.ar  1 <1>  -0.1430 
 11 C        2.3270    -5.2580     0.4410 C.3   1 <1>  -0.0970 
 12 C        5.2480     0.8840    -0.8600 C.3   1 <1>   0.0210 
 13 C       -0.2670    -5.9980    -0.8220 C.3   1 <1>  -0.0970 
 14 C        6.5440     1.4960    -0.3570 C.2   1 <1>  -0.1810 
 15 C        6.8420     2.8550    -0.2660 C.2   1 <1>   0.1080 
 16 C        7.6530     0.8700     0.0970 C.2   1 <1>  -0.3320 
 17 N        8.0310     3.0680     0.2010 N.2   1 <1>  -0.7070 
 18 C        5.9250     3.9920    -0.6570 C.3   1 <1>  -0.0590 
 19 N        8.5320     1.8410     0.4240 N.pl3 1 <1>   0.3000 
 20 C        7.9560    -0.6100     0.2540 C.3   1 <1>  -0.0600 
 21 H        2.3270    -0.6760     1.7690 H     1 <1>   0.0800 
 22 H        1.7200     0.9180     1.4050 H     1 <1>   0.0800 
 23 H        2.4490    -2.6340     0.9280 H     1 <1>   0.1500 
 24 H       -1.3720    -1.4950    -0.5600 H     1 <1>   0.1500 
 25 H        2.4880     0.7510    -0.9210 H     1 <1>   0.0800 
 26 H        3.1190    -0.8500    -0.6270 H     1 <1>   0.0800 
 27 H       -1.8350    -3.8270    -1.1480 H     1 <1>   0.1500 
 28 H        4.7010     0.0800     1.0440 H     1 <1>   0.0800 
 29 H        4.0760     1.6770     0.7480 H     1 <1>   0.0800 
 30 H        3.1870    -4.8160     0.9110 H     1 <1>   0.0800 
 31 H        2.6460    -5.7260    -0.4730 H     1 <1>   0.0800 
 32 H        1.9320    -6.0080     1.1010 H     1 <1>   0.0800 
 33 H        4.8250     1.5150    -1.6220 H     1 <1>   0.0800 
 34 H        5.4540    -0.0720    -1.3060 H     1 <1>   0.0800 
 35 H       -0.2550    -6.6190     0.0540 H     1 <1>   0.0800 
 36 H        0.4600    -6.3640    -1.5240 H     1 <1>   0.0800 
 37 H       -1.2390    -6.0720    -1.2750 H     1 <1>   0.0800 
 38 H        4.9470     3.8380    -0.2440 H     1 <1>   0.0800 
 39 H        5.8580     4.0480    -1.7280 H     1 <1>   0.0800 
 40 H        6.3180     4.9200    -0.2840 H     1 <1>   0.0800 
 41 H        9.4760     1.7000     0.8000 H     1 <1>   0.2700 
 42 H        7.1040    -1.2030    -0.0250 H     1 <1>   0.0800 
 43 H        8.2030    -0.8300     1.2770 H     1 <1>   0.0800 
 44 H        8.7850    -0.8860    -0.3740 H     1 <1>   0.0800 
@<TRIPOS>BOND
  1   1   2  1   
  2   1   3  1   
  3   2   4  ar  
  4   2   5  ar  
  5   3   6  1   
  6   3  21  1   
  7   3  22  1   
  8   4   7  ar  
  9   4  23  1   
 10   5   8  ar  
 11   5  24  1   
 12   6   9  1   
 13   6  25  1   
 14   6  26  1   
 15   7  10  ar  
 16   7  11  1   
 17   8  10  ar  
 18   8  27  1   
 19   9  12  1   
 20   9  28  1   
 21   9  29  1   
 22  10  13  1   
 23  11  30  1   
 24  11  31  1   
 25  11  32  1   
 26  12  14  1   
 27  12  33  1   
 28  12  34  1   
 29  13  35  1   
 30  13  36  1   
 31  13  37  1   
 32  14  15  1   
 33  14  16  2   
 34  15  17  2   
 35  15  18  1   
 36  16  19  1   
 37  16  20  1   
 38  17  19  1   
 39  18  38  1   
 40  18  39  1   
 41  18  40  1   
 42  19  41  1   
 43  20  42  1   
 44  20  43  1   
 45  20  44  1   
@<TRIPOS>SUBSTRUCTURE
  1 ****   6 GROUP 4 **** **** 0

# MOE 2024.06 (io_trps.svl 2023.06)
