@<TRIPOS>MOLECULE
NONAME
41 41 1 0 0 
SMALL
USER_CHARGES


@<TRIPOS>ATOM
  1 S       -0.2610    -0.5700     1.2250 S.o2  1 <1>   1.4470 
  2 O        0.3610     0.7260     1.0340 O.2   1 <1>  -0.6500 
  3 O       -0.6850    -0.9100     2.5680 O.2   1 <1>  -0.6500 
  4 N       -1.6760    -0.6220     0.2860 N.am  1 <1>  -0.8490 
  5 C        0.7750    -1.8820     0.5270 C.ar  1 <1>  -0.0090 
  6 C       -2.4600    -1.8310     0.5430 C.3   1 <1>   0.1960 
  7 C       -2.4670     0.6040     0.4050 C.3   1 <1>   0.1960 
  8 C        1.2880    -1.7830    -0.7620 C.ar  1 <1>   0.0820 
  9 C        1.0650    -3.0310     1.2520 C.ar  1 <1>  -0.1500 
 10 C       -3.3270    -2.1660    -0.6750 C.3   1 <1>  -0.1600 
 11 C       -2.2070     1.4790    -0.8230 C.3   1 <1>  -0.1600 
 12 O        1.0240    -0.7060    -1.5250 O.3   1 <1>  -0.3620 
 13 C        2.0620    -2.8000    -1.2990 C.ar  1 <1>  -0.1500 
 14 C        1.8390    -4.0770     0.7420 C.ar  1 <1>  -0.1790 
 15 C       -4.0810    -3.4850    -0.4750 C.3   1 <1>  -0.2400 
 16 C       -3.0260     2.7730    -0.7770 C.3   1 <1>  -0.2400 
 17 C        2.0610     0.2360    -1.6740 C.3   1 <1>   0.0400 
 18 C        2.3330    -3.9290    -0.5540 C.ar  1 <1>  -0.1500 
 19 C        2.1110    -5.2760     1.5240 C.2   1 <1>   0.9790 
 20 O        2.8630    -6.1640     1.0840 O.co2 1 <1>  -0.9000 
 21 O        1.5890    -5.4330     2.6420 O.co2 1 <1>  -0.9000 
 22 H       -3.0620    -1.7060     1.4280 H     1 <1>   0.0800 
 23 H       -1.7970    -2.6640     0.7140 H     1 <1>   0.0800 
 24 H       -2.2090     1.1370     1.3060 H     1 <1>   0.0800 
 25 H       -3.5180     0.3780     0.4520 H     1 <1>   0.0800 
 26 H        0.6800    -3.1360     2.2540 H     1 <1>   0.1500 
 27 H       -2.6900    -2.2530    -1.5390 H     1 <1>   0.0800 
 28 H       -4.0380    -1.3810    -0.8540 H     1 <1>   0.0800 
 29 H       -2.4640     0.9260    -1.7100 H     1 <1>   0.0800 
 30 H       -1.1610     1.7260    -0.8720 H     1 <1>   0.0800 
 31 H        2.4420    -2.7110    -2.2990 H     1 <1>   0.1500 
 32 H       -3.3870    -4.2940    -0.3230 H     1 <1>   0.0800 
 33 H       -4.6740    -3.7050    -1.3450 H     1 <1>   0.0800 
 34 H       -4.7330    -3.4220     0.3790 H     1 <1>   0.0800 
 35 H       -4.0790     2.5540    -0.7490 H     1 <1>   0.0800 
 36 H       -2.8230     3.3660    -1.6510 H     1 <1>   0.0800 
 37 H       -2.7660     3.3500     0.0940 H     1 <1>   0.0800 
 38 H        1.6830     1.0620    -2.2480 H     1 <1>   0.0800 
 39 H        2.8860    -0.2270    -2.1840 H     1 <1>   0.0800 
 40 H        2.3640     0.5760    -0.6990 H     1 <1>   0.0800 
 41 H        2.9340    -4.7220    -0.9680 H     1 <1>   0.1500 
@<TRIPOS>BOND
  1   1   2  2   
  2   1   3  2   
  3   1   4  am  
  4   1   5  1   
  5   4   6  1   
  6   4   7  1   
  7   5   8  ar  
  8   5   9  ar  
  9   6  10  1   
 10   6  22  1   
 11   6  23  1   
 12   7  11  1   
 13   7  24  1   
 14   7  25  1   
 15   8  12  1   
 16   8  13  ar  
 17   9  14  ar  
 18   9  26  1   
 19  10  15  1   
 20  10  27  1   
 21  10  28  1   
 22  11  16  1   
 23  11  29  1   
 24  11  30  1   
 25  12  17  1   
 26  13  18  ar  
 27  13  31  1   
 28  14  18  ar  
 29  14  19  1   
 30  15  32  1   
 31  15  33  1   
 32  15  34  1   
 33  16  35  1   
 34  16  36  1   
 35  16  37  1   
 36  17  38  1   
 37  17  39  1   
 38  17  40  1   
 39  18  41  1   
 40  19  20  ar  
 41  19  21  ar  
@<TRIPOS>SUBSTRUCTURE
  1 ****   5 GROUP 4 **** **** 0

# MOE 2024.06 (io_trps.svl 2023.06)
