@<TRIPOS>MOLECULE
NONAME
47 50 1 0 0 
SMALL
USER_CHARGES


@<TRIPOS>ATOM
  1 O       -0.1550    -0.6200    -1.8090 O.3   1 <1>  -0.5600 
  2 C       -1.4550    -1.2280    -1.6300 C.3   1 <1>   0.3440 
  3 C        1.0510    -1.4040    -1.6830 C.3   1 <1>   0.1200 
  4 C       -2.3990    -0.2600    -0.9050 C.ar  1 <1>  -0.1440 
  5 C       -1.2570    -2.5500    -0.8560 C.3   1 <1>   0.0580 
  6 C        1.0960    -2.3300    -0.3900 C.3   1 <1>   0.0000 
  7 C       -3.5990    -0.7450    -0.3880 C.ar  1 <1>  -0.1500 
  8 C       -2.0880     1.0950    -0.7530 C.ar  1 <1>  -0.1500 
  9 C       -1.2850    -4.0670    -0.8260 C.2   1 <1>  -0.2760 
 10 C       -0.2770    -2.1590     0.2900 C.3   1 <1>  -0.0800 
 11 C        1.2600    -3.8830    -0.7520 C.3   1 <1>   0.0580 
 12 C        2.2360    -1.8200     0.5320 C.3   1 <1>   0.1200 
 13 C       -4.4380     0.1310     0.2700 C.ar  1 <1>   0.0830 
 14 C       -2.9460     1.9640    -0.0890 C.ar  1 <1>  -0.1500 
 15 C       -0.0830    -4.6740    -0.8140 C.2   1 <1>  -0.2880 
 16 C       -2.6470    -4.7320    -0.8520 C.3   1 <1>  -0.1020 
 17 C       -0.5120    -2.8510     1.6560 C.3   1 <1>  -0.2400 
 18 C        2.1920    -4.6690     0.1900 C.3   1 <1>  -0.2400 
 19 O        2.1210    -0.4610     0.7890 O.3   1 <1>  -0.6800 
 20 O       -5.6200    -0.1250     0.8390 O.3   1 <1>  -0.3620 
 21 C       -4.1210     1.4490     0.4160 C.ar  1 <1>   0.0830 
 22 C       -6.0830     1.1070     1.3870 C.3   1 <1>   0.4000 
 23 O       -5.0890     2.0840     1.0860 O.3   1 <1>  -0.3620 
 24 H       -1.8640    -1.4110    -2.6120 H     1 <1>   0.0800 
 25 H        1.8760    -0.7130    -1.6930 H     1 <1>   0.0800 
 26 H        1.1310    -2.0000    -2.5750 H     1 <1>   0.0800 
 27 H       -0.7960    -2.7960    -1.7910 H     1 <1>   0.0800 
 28 H       -3.8860    -1.7760    -0.4830 H     1 <1>   0.1500 
 29 H       -1.1680     1.4870    -1.1530 H     1 <1>   0.1500 
 30 H       -0.4050    -1.1180     0.5330 H     1 <1>   0.0800 
 31 H        1.7110    -3.9530    -1.7270 H     1 <1>   0.0800 
 32 H        3.1950    -1.9720     0.0680 H     1 <1>   0.0800 
 33 H        2.2270    -2.3280     1.4800 H     1 <1>   0.0800 
 34 H       -2.7110     3.0050     0.0320 H     1 <1>   0.1500 
 35 H        0.0330    -5.7440    -0.8400 H     1 <1>   0.1500 
 36 H       -3.1830    -4.4490    -1.7390 H     1 <1>   0.0800 
 37 H       -3.2170    -4.4350     0.0110 H     1 <1>   0.0800 
 38 H       -2.5400    -5.8020    -0.8400 H     1 <1>   0.0800 
 39 H       -0.3370    -3.9090     1.6360 H     1 <1>   0.0800 
 40 H       -1.5320    -2.6930     1.9600 H     1 <1>   0.0800 
 41 H        0.1240    -2.4210     2.4080 H     1 <1>   0.0800 
 42 H        1.8320    -4.6380     1.2020 H     1 <1>   0.0800 
 43 H        3.1950    -4.2820     0.1590 H     1 <1>   0.0800 
 44 H        2.2410    -5.6990    -0.1150 H     1 <1>   0.0800 
 45 H        1.1890    -0.2290     0.9750 H     1 <1>   0.4000 
 46 H       -6.1840     1.0120     2.4540 H     1 <1>   0.0800 
 47 H       -7.0120     1.3830     0.9210 H     1 <1>   0.0800 
@<TRIPOS>BOND
  1   1   2  1   
  2   1   3  1   
  3   2   4  1   
  4   2   5  1   
  5   2  24  1   
  6   3   6  1   
  7   3  25  1   
  8   3  26  1   
  9   4   7  ar  
 10   4   8  ar  
 11   5   9  1   
 12   5  10  1   
 13   5  27  1   
 14   6  10  1   
 15   6  11  1   
 16   6  12  1   
 17   7  13  ar  
 18   7  28  1   
 19   8  14  ar  
 20   8  29  1   
 21   9  15  2   
 22   9  16  1   
 23  10  17  1   
 24  10  30  1   
 25  11  15  1   
 26  11  18  1   
 27  11  31  1   
 28  12  19  1   
 29  12  32  1   
 30  12  33  1   
 31  13  20  1   
 32  13  21  ar  
 33  14  21  ar  
 34  14  34  1   
 35  15  35  1   
 36  16  36  1   
 37  16  37  1   
 38  16  38  1   
 39  17  39  1   
 40  17  40  1   
 41  17  41  1   
 42  18  42  1   
 43  18  43  1   
 44  18  44  1   
 45  19  45  1   
 46  20  22  1   
 47  21  23  1   
 48  22  23  1   
 49  22  46  1   
 50  22  47  1   
@<TRIPOS>SUBSTRUCTURE
  1 ****   5 GROUP 4 **** **** 0

# MOE 2024.06 (io_trps.svl 2023.06)
