@<TRIPOS>MOLECULE
NONAME
43 44 1 0 0 
SMALL
USER_CHARGES


@<TRIPOS>ATOM
  1 CL      -2.5320     4.2760    -2.0480 Cl    1 <1>  -0.1770 
  2 C       -1.4830     3.7700    -0.7400 C.ar  1 <1>   0.1770 
  3 C       -1.8650     2.7140     0.0870 C.ar  1 <1>   0.1170 
  4 C       -0.2930     4.4500    -0.5610 C.ar  1 <1>  -0.1500 
  5 N       -3.0800     2.0360    -0.1360 N.am  1 <1>  -0.5470 
  6 C       -0.9950     2.3590     1.1150 C.ar  1 <1>  -0.1500 
  7 C        0.5550     4.0800     0.4690 C.ar  1 <1>  -0.1500 
  8 C       -3.9210     1.4000     0.7380 C.2   1 <1>   0.5690 
  9 C        0.1990     3.0340     1.3050 C.ar  1 <1>  -0.1500 
 10 O       -3.6890     1.3120     1.9210 O.2   1 <1>  -0.5700 
 11 C       -5.2150     0.7610     0.2110 C.3   1 <1>   0.2570 
 12 N       -6.2810     1.7300    -0.1660 N.am  1 <1>  -0.8490 
 13 S       -6.1430     2.3850    -1.7270 S.o2  1 <1>   1.3330 
 14 C       -7.5960     1.3930     0.3980 C.3   1 <1>   0.2760 
 15 O       -7.3380     2.1410    -2.4970 O.2   1 <1>  -0.6500 
 16 O       -4.8650     1.9610    -2.2570 O.2   1 <1>  -0.6500 
 17 C       -6.0190     4.1300    -1.3960 C.3   1 <1>  -0.1350 
 18 C       -8.2370     0.1520    -0.2500 C.3   1 <1>  -0.1600 
 19 C       -8.5580     2.5900     0.4110 C.3   1 <1>  -0.1600 
 20 C       -9.5560    -0.2070     0.4500 C.3   1 <1>  -0.1600 
 21 C       -9.8740     2.2230     1.1150 C.3   1 <1>  -0.1600 
 22 C      -10.5190     0.9890     0.4680 C.3   1 <1>  -0.1600 
 23 H       -0.0340     5.2590    -1.2200 H     1 <1>   0.1500 
 24 H       -3.4380     2.0950    -1.1030 H     1 <1>   0.3700 
 25 H       -1.2480     1.5480     1.7740 H     1 <1>   0.1500 
 26 H        1.4850     4.6010     0.6210 H     1 <1>   0.1500 
 27 H        0.8550     2.7430     2.1080 H     1 <1>   0.1500 
 28 H       -5.5730     0.1190     0.9970 H     1 <1>   0.0800 
 29 H       -4.9830     0.1220    -0.6240 H     1 <1>   0.0800 
 30 H       -7.4340     1.1480     1.4360 H     1 <1>   0.0800 
 31 H       -6.9280     4.4960    -0.9640 H     1 <1>   0.0800 
 32 H       -5.8350     4.6630    -2.3090 H     1 <1>   0.0800 
 33 H       -5.2120     4.3220    -0.7180 H     1 <1>   0.0800 
 34 H       -7.5710    -0.6890    -0.1860 H     1 <1>   0.0800 
 35 H       -8.4490     0.3350    -1.2860 H     1 <1>   0.0800 
 36 H       -8.7950     2.8960    -0.5910 H     1 <1>   0.0800 
 37 H       -8.1000     3.4130     0.9300 H     1 <1>   0.0800 
 38 H       -9.3550    -0.5170     1.4620 H     1 <1>   0.0800 
 39 H      -10.0210    -1.0330    -0.0610 H     1 <1>   0.0800 
 40 H      -10.5550     3.0550     1.0600 H     1 <1>   0.0800 
 41 H       -9.6820     2.0230     2.1550 H     1 <1>   0.0800 
 42 H      -11.4120     0.7250     1.0080 H     1 <1>   0.0800 
 43 H      -10.8060     1.2280    -0.5430 H     1 <1>   0.0800 
@<TRIPOS>BOND
  1   1   2  1   
  2   2   3  ar  
  3   2   4  ar  
  4   3   5  1   
  5   3   6  ar  
  6   4   7  ar  
  7   4  23  1   
  8   5   8  am  
  9   5  24  1   
 10   6   9  ar  
 11   6  25  1   
 12   7   9  ar  
 13   7  26  1   
 14   8  10  2   
 15   8  11  1   
 16   9  27  1   
 17  11  12  1   
 18  11  28  1   
 19  11  29  1   
 20  12  13  am  
 21  12  14  1   
 22  13  15  2   
 23  13  16  2   
 24  13  17  1   
 25  14  18  1   
 26  14  19  1   
 27  14  30  1   
 28  17  31  1   
 29  17  32  1   
 30  17  33  1   
 31  18  20  1   
 32  18  34  1   
 33  18  35  1   
 34  19  21  1   
 35  19  36  1   
 36  19  37  1   
 37  20  22  1   
 38  20  38  1   
 39  20  39  1   
 40  21  22  1   
 41  21  40  1   
 42  21  41  1   
 43  22  42  1   
 44  22  43  1   
@<TRIPOS>SUBSTRUCTURE
  1 ****  12 GROUP 4 **** **** 0

# MOE 2024.06 (io_trps.svl 2023.06)
