@<TRIPOS>MOLECULE
NONAME
36 38 1 0 0 
SMALL
USER_CHARGES


@<TRIPOS>ATOM
  1 S        1.1410     0.4850    -0.7180 S.3   1 <1>  -0.2820 
  2 C        2.2720    -0.8410    -0.4920 C.2   1 <1>   0.6410 
  3 C        0.1120    -0.5310    -1.7370 C.2   1 <1>   0.5300 
  4 N        1.7420    -1.8900    -1.2000 N.pl3 1 <1>  -0.4080 
  5 N        3.3590    -0.8710     0.1610 N.2   1 <1>  -0.6960 
  6 N        0.5480    -1.7120    -1.8870 N.2   1 <1>  -0.4920 
  7 C       -1.1330     0.1140    -2.2930 C.3   1 <1>  -0.1790 
  8 C        4.0070     0.2200     0.9810 C.3   1 <1>   0.4450 
  9 C        4.5750    -0.3970     2.2730 C.2   1 <1>   0.5690 
 10 C        5.3340     0.5410     0.3000 C.2   1 <1>  -0.1240 
 11 C        3.2840     1.5200     1.4740 C.3   1 <1>   1.0200 
 12 O        3.9400    -0.8480     3.1940 O.2   1 <1>  -0.5700 
 13 N        5.9350    -0.3760     2.2490 N.am  1 <1>  -0.5390 
 14 C        5.5470     1.1190    -0.9630 C.2   1 <1>   0.6160 
 15 C        6.3650     0.1760     1.0810 C.2   1 <1>   0.2180 
 16 F        3.0270     2.3970     0.5120 F     1 <1>  -0.3400 
 17 F        2.1260     1.2920     2.0850 F     1 <1>  -0.3400 
 18 F        4.0190     2.2060     2.3490 F     1 <1>  -0.3400 
 19 O        4.6210     1.4090    -1.7010 O.2   1 <1>  -0.5700 
 20 N        6.8590     1.3470    -1.3520 N.am  1 <1>  -0.4200 
 21 N        7.6710     0.3600     0.6910 N.am  1 <1>  -0.4690 
 22 C        7.9210     0.9610    -0.5410 C.2   1 <1>   0.6900 
 23 C        7.1290     1.9770    -2.6790 C.3   1 <1>   0.0600 
 24 C        8.7960    -0.0610     1.5740 C.3   1 <1>   0.0600 
 25 O        9.0680     1.1480    -0.9050 O.2   1 <1>  -0.5700 
 26 H        2.2460    -2.7810    -1.2120 H     1 <1>   0.4000 
 27 H       -1.7590     0.4460    -1.4860 H     1 <1>   0.0800 
 28 H       -1.6730    -0.5960    -2.8910 H     1 <1>   0.0800 
 29 H       -0.8620     0.9560    -2.9030 H     1 <1>   0.0800 
 30 H        6.4980    -0.7560     3.0090 H     1 <1>   0.3700 
 31 H        6.3510     2.6790    -2.9240 H     1 <1>   0.0800 
 32 H        7.1650     1.2150    -3.4360 H     1 <1>   0.0800 
 33 H        8.0670     2.5050    -2.6650 H     1 <1>   0.0800 
 34 H        8.5750    -1.0130     2.0250 H     1 <1>   0.0800 
 35 H        8.9430     0.6750     2.3440 H     1 <1>   0.0800 
 36 H        9.7070    -0.1610     1.0110 H     1 <1>   0.0800 
@<TRIPOS>BOND
  1   1   2  1   
  2   1   3  1   
  3   2   4  1   
  4   2   5  2   
  5   3   6  2   
  6   3   7  1   
  7   4   6  1   
  8   4  26  1   
  9   5   8  1   
 10   7  27  1   
 11   7  28  1   
 12   7  29  1   
 13   8   9  1   
 14   8  10  1   
 15   8  11  1   
 16   9  12  2   
 17   9  13  am  
 18  10  14  1   
 19  10  15  2   
 20  11  16  1   
 21  11  17  1   
 22  11  18  1   
 23  13  15  1   
 24  13  30  1   
 25  14  19  2   
 26  14  20  am  
 27  15  21  1   
 28  20  22  am  
 29  20  23  1   
 30  21  22  am  
 31  21  24  1   
 32  22  25  2   
 33  23  31  1   
 34  23  32  1   
 35  23  33  1   
 36  24  34  1   
 37  24  35  1   
 38  24  36  1   
@<TRIPOS>SUBSTRUCTURE
  1 ****   8 GROUP 4 **** **** 0

# MOE 2024.06 (io_trps.svl 2023.06)
