@<TRIPOS>MOLECULE
NONAME
41 43 1 0 0 
SMALL
USER_CHARGES


@<TRIPOS>ATOM
  1 S        0.4360    -0.0700    -0.5370 S.3   1 <1>  -0.2860 
  2 C       -1.1920    -0.8110    -0.6760 C.2   1 <1>   0.2420 
  3 C        1.3840    -0.9070    -1.9030 C.3   1 <1>   0.1310 
  4 N       -1.4680    -1.7270    -1.5330 N.2   1 <1>  -0.3380 
  5 N       -2.2210    -0.4690     0.0950 N.pl3 1 <1>   0.0480 
  6 C        2.8290    -0.4380    -1.9560 C.2   1 <1>   0.5690 
  7 N       -2.7490    -2.0240    -1.3410 N.2   1 <1>  -0.3380 
  8 C       -3.2100    -1.2730    -0.3690 C.2   1 <1>   0.1330 
  9 C       -2.2340     0.5350     1.1840 C.3   1 <1>   0.0160 
 10 O        3.4480    -0.6000    -2.9800 O.2   1 <1>  -0.5700 
 11 N        3.3930     0.1380    -0.8630 N.am  1 <1>  -0.7300 
 12 C       -4.5790    -1.3170     0.1180 C.ar  1 <1>   0.3630 
 13 C        4.7680     0.6510    -0.7670 C.3   1 <1>   0.2200 
 14 N       -5.0160    -0.3580     0.9470 N.ar  1 <1>  -0.6200 
 15 C       -5.4220    -2.3560    -0.2890 C.ar  1 <1>  -0.1500 
 16 C        5.4300     0.0460     0.4640 C.3   1 <1>  -0.1600 
 17 C        4.7120     2.1380    -0.4390 C.3   1 <1>  -0.1600 
 18 C       -6.2690    -0.4370     1.3570 C.ar  1 <1>   0.1600 
 19 C       -6.7250    -2.4300     0.1460 C.ar  1 <1>  -0.1500 
 20 C        4.9420     0.8810     1.6550 C.3   1 <1>  -0.1600 
 21 C        4.4740     2.2220     1.0730 C.3   1 <1>  -0.1600 
 22 C       -7.1540    -1.4360     0.9950 C.ar  1 <1>  -0.1500 
 23 H        0.8820    -0.6770    -2.8240 H     1 <1>   0.0800 
 24 H        1.3420    -1.9650    -1.7200 H     1 <1>   0.0800 
 25 H       -1.2460     0.9120     1.3650 H     1 <1>   0.0800 
 26 H       -2.6070     0.0790     2.0830 H     1 <1>   0.0800 
 27 H       -2.8790     1.3490     0.9060 H     1 <1>   0.0800 
 28 H        2.8190     0.2990    -0.0340 H     1 <1>   0.3700 
 29 H        5.3170     0.4480    -1.6720 H     1 <1>   0.0800 
 30 H       -5.0450    -3.1120    -0.9540 H     1 <1>   0.1500 
 31 H        6.4950     0.1640     0.3680 H     1 <1>   0.0800 
 32 H        5.2090    -1.0020     0.5710 H     1 <1>   0.0800 
 33 H        3.9590     2.6520    -1.0100 H     1 <1>   0.0800 
 34 H        5.6700     2.5710    -0.6670 H     1 <1>   0.0800 
 35 H       -6.6150     0.3370     2.0210 H     1 <1>   0.1500 
 36 H       -7.3780    -3.2280    -0.1640 H     1 <1>   0.1500 
 37 H        5.7320     1.0190     2.3740 H     1 <1>   0.0800 
 38 H        4.1170     0.3870     2.1370 H     1 <1>   0.0800 
 39 H        3.4240     2.3560     1.2710 H     1 <1>   0.0800 
 40 H        5.0160     3.0480     1.5010 H     1 <1>   0.0800 
 41 H       -8.1610    -1.4320     1.3720 H     1 <1>   0.1500 
@<TRIPOS>BOND
  1   1   2  1   
  2   1   3  1   
  3   2   4  2   
  4   2   5  1   
  5   3   6  1   
  6   3  23  1   
  7   3  24  1   
  8   4   7  1   
  9   5   8  1   
 10   5   9  1   
 11   6  10  2   
 12   6  11  am  
 13   7   8  2   
 14   8  12  1   
 15   9  25  1   
 16   9  26  1   
 17   9  27  1   
 18  11  13  1   
 19  11  28  1   
 20  12  14  ar  
 21  12  15  ar  
 22  13  16  1   
 23  13  17  1   
 24  13  29  1   
 25  14  18  ar  
 26  15  19  ar  
 27  15  30  1   
 28  16  20  1   
 29  16  31  1   
 30  16  32  1   
 31  17  21  1   
 32  17  33  1   
 33  17  34  1   
 34  18  22  ar  
 35  18  35  1   
 36  19  22  ar  
 37  19  36  1   
 38  20  21  1   
 39  20  37  1   
 40  20  38  1   
 41  21  39  1   
 42  21  40  1   
 43  22  41  1   
@<TRIPOS>SUBSTRUCTURE
  1 ****   2 GROUP 4 **** **** 0

# MOE 2024.06 (io_trps.svl 2023.06)
