@<TRIPOS>MOLECULE
NONAME
30 31 1 0 0 
SMALL
USER_CHARGES


@<TRIPOS>ATOM
  1 BR       1.2100    -0.1160     0.3750 Br    1 <1>  -0.1110 
  2 C       -0.5040     0.6810    -0.0040 C.ar  1 <1>   0.1110 
  3 C       -0.6870     2.0510     0.1230 C.ar  1 <1>  -0.1440 
  4 C       -1.5190    -0.1700    -0.4030 C.ar  1 <1>  -0.1500 
  5 C       -1.9410     2.5650    -0.1720 C.ar  1 <1>  -0.1500 
  6 C        0.4260     2.9850     0.5690 C.3   1 <1>   0.2140 
  7 C       -2.7640     0.3630    -0.6890 C.ar  1 <1>  -0.1500 
  8 C       -2.9710     1.7280    -0.5740 C.ar  1 <1>  -0.1500 
  9 S        1.1870     3.7000    -0.9180 S.3   1 <1>  -0.4600 
 10 C        2.5220     4.7440    -0.2360 C.3   1 <1>   0.1310 
 11 C        3.5790     3.8990     0.4560 C.2   1 <1>   0.5690 
 12 O        4.0370     4.2930     1.5020 O.2   1 <1>  -0.5700 
 13 N        3.9660     2.7310    -0.1240 N.am  1 <1>  -0.5790 
 14 C        4.9870     1.8090     0.3900 C.3   1 <1>   0.0490 
 15 C        5.9660     1.2370    -0.5800 C.3   1 <1>  -0.2000 
 16 C        4.8920     0.3700     0.0050 C.3   1 <1>  -0.2000 
 17 H       -1.3370    -1.2260    -0.4890 H     1 <1>   0.1500 
 18 H       -2.1210     3.6240    -0.0960 H     1 <1>   0.1500 
 19 H        1.1930     2.4800     1.1270 H     1 <1>   0.0800 
 20 H        0.0370     3.8010     1.1530 H     1 <1>   0.0800 
 21 H       -3.5680    -0.2810    -1.0010 H     1 <1>   0.1500 
 22 H       -3.9390     2.1420    -0.8000 H     1 <1>   0.1500 
 23 H        2.0740     5.4320     0.4570 H     1 <1>   0.0800 
 24 H        2.9560     5.2840    -1.0570 H     1 <1>   0.0800 
 25 H        3.4720     2.4190    -0.9640 H     1 <1>   0.3700 
 26 H        5.3320     2.0630     1.3810 H     1 <1>   0.1000 
 27 H        6.9790     1.0790    -0.2550 H     1 <1>   0.1000 
 28 H        5.9020     1.5280    -1.6130 H     1 <1>   0.1000 
 29 H        4.0870     0.0470    -0.6320 H     1 <1>   0.1000 
 30 H        5.1740    -0.3750     0.7270 H     1 <1>   0.1000 
@<TRIPOS>BOND
  1   1   2  1   
  2   2   3  ar  
  3   2   4  ar  
  4   3   5  ar  
  5   3   6  1   
  6   4   7  ar  
  7   4  17  1   
  8   5   8  ar  
  9   5  18  1   
 10   6   9  1   
 11   6  19  1   
 12   6  20  1   
 13   7   8  ar  
 14   7  21  1   
 15   8  22  1   
 16   9  10  1   
 17  10  11  1   
 18  10  23  1   
 19  10  24  1   
 20  11  12  2   
 21  11  13  am  
 22  13  14  1   
 23  13  25  1   
 24  14  15  1   
 25  14  16  1   
 26  14  26  1   
 27  15  16  1   
 28  15  27  1   
 29  15  28  1   
 30  16  29  1   
 31  16  30  1   
@<TRIPOS>SUBSTRUCTURE
  1 ****   6 GROUP 4 **** **** 0

# MOE 2024.06 (io_trps.svl 2023.06)
