@<TRIPOS>MOLECULE
NONAME
39 39 1 0 0 
SMALL
USER_CHARGES


@<TRIPOS>ATOM
  1 BR       0.3140    -1.2000     1.7400 Br    1 <1>  -0.1110 
  2 C        2.1110    -1.3870     1.0470 C.ar  1 <1>   0.1110 
  3 C        2.9790    -2.2680     1.6780 C.ar  1 <1>  -0.1440 
  4 C        2.4800    -0.6360    -0.0620 C.ar  1 <1>  -0.1440 
  5 C        4.2620    -2.3900     1.1690 C.ar  1 <1>  -0.1500 
  6 C        2.5550    -3.0810     2.8910 C.3   1 <1>  -0.0960 
  7 C        3.7690    -0.7790    -0.5500 C.ar  1 <1>  -0.1500 
  8 C        1.5070     0.3210    -0.7350 C.3   1 <1>  -0.0960 
  9 C        4.6630    -1.6550     0.0640 C.ar  1 <1>   0.0830 
 10 O        5.9390    -1.8460    -0.3570 O.3   1 <1>  -0.3630 
 11 C        6.4640    -1.1270    -1.4680 C.3   1 <1>   0.1810 
 12 C        7.9160    -1.4990    -1.7430 C.2   1 <1>   0.5690 
 13 O        8.4800    -0.9680    -2.6700 O.2   1 <1>  -0.5700 
 14 N        8.5380    -2.4130    -0.9510 N.am  1 <1>  -0.7300 
 15 C        9.9410    -2.8520    -1.0740 C.3   1 <1>   0.1400 
 16 C       10.5950    -2.8240     0.3050 C.3   1 <1>  -0.1600 
 17 C       12.0630    -3.2320     0.2150 C.3   1 <1>   0.1200 
 18 O       12.5800    -3.2340     1.5030 O.3   1 <1>  -0.5600 
 19 C       13.9280    -3.5680     1.5710 C.3   1 <1>   0.0400 
 20 H        4.9680    -3.0600     1.6260 H     1 <1>   0.1500 
 21 H        1.7230    -3.7140     2.6380 H     1 <1>   0.0800 
 22 H        2.2630    -2.4240     3.6910 H     1 <1>   0.0800 
 23 H        3.3600    -3.7030     3.2390 H     1 <1>   0.0800 
 24 H        4.0610    -0.2020    -1.4070 H     1 <1>   0.1500 
 25 H        1.1860     1.0710    -0.0340 H     1 <1>   0.0800 
 26 H        0.6450    -0.2170    -1.0870 H     1 <1>   0.0800 
 27 H        1.9640     0.8140    -1.5730 H     1 <1>   0.0800 
 28 H        6.4060    -0.0770    -1.2500 H     1 <1>   0.0800 
 29 H        5.8710    -1.3590    -2.3330 H     1 <1>   0.0800 
 30 H        7.9930    -2.8230    -0.1870 H     1 <1>   0.3700 
 31 H       10.4690    -2.1970    -1.7480 H     1 <1>   0.0800 
 32 H        9.9640    -3.8500    -1.4780 H     1 <1>   0.0800 
 33 H       10.0830    -3.5050     0.9600 H     1 <1>   0.0800 
 34 H       10.5370    -1.8270     0.7060 H     1 <1>   0.0800 
 35 H       12.6190    -2.5280    -0.3820 H     1 <1>   0.0800 
 36 H       12.1600    -4.2230    -0.1960 H     1 <1>   0.0800 
 37 H       14.2260    -3.5420     2.6050 H     1 <1>   0.0800 
 38 H       14.5010    -2.8500     1.0110 H     1 <1>   0.0800 
 39 H       14.0690    -4.5600     1.1780 H     1 <1>   0.0800 
@<TRIPOS>BOND
  1   1   2  1   
  2   2   3  ar  
  3   2   4  ar  
  4   3   5  ar  
  5   3   6  1   
  6   4   7  ar  
  7   4   8  1   
  8   5   9  ar  
  9   5  20  1   
 10   6  21  1   
 11   6  22  1   
 12   6  23  1   
 13   7   9  ar  
 14   7  24  1   
 15   8  25  1   
 16   8  26  1   
 17   8  27  1   
 18   9  10  1   
 19  10  11  1   
 20  11  12  1   
 21  11  28  1   
 22  11  29  1   
 23  12  13  2   
 24  12  14  am  
 25  14  15  1   
 26  14  30  1   
 27  15  16  1   
 28  15  31  1   
 29  15  32  1   
 30  16  17  1   
 31  16  33  1   
 32  16  34  1   
 33  17  18  1   
 34  17  35  1   
 35  17  36  1   
 36  18  19  1   
 37  19  37  1   
 38  19  38  1   
 39  19  39  1   
@<TRIPOS>SUBSTRUCTURE
  1 ****  10 GROUP 4 **** **** 0

# MOE 2024.06 (io_trps.svl 2023.06)
