@<TRIPOS>MOLECULE
NONAME
42 44 1 0 0 
SMALL
USER_CHARGES


@<TRIPOS>ATOM
  1 O        0.8110    -4.3150     0.0360 O.3   1 <1>  -0.3630 
  2 C        2.0380    -4.8300     0.3050 C.ar  1 <1>   0.0830 
  3 C       -0.3820    -4.9920     0.3680 C.3   1 <1>   0.1200 
  4 C        3.1580    -4.0740    -0.1290 C.ar  1 <1>   0.0000 
  5 C        2.2140    -6.0250     0.9670 C.ar  1 <1>  -0.1500 
  6 C       -1.5660    -4.1190    -0.0640 C.3   1 <1>   0.2000 
  7 C        4.4540    -4.5700     0.1390 C.ar  1 <1>   0.0000 
  8 C        3.0490    -2.8460    -0.8190 C.ar  1 <1>  -0.1500 
  9 C        3.4990    -6.5080     1.2240 C.ar  1 <1>  -0.1500 
 10 O       -1.4050    -2.8390     0.4730 O.3   1 <1>  -0.6800 
 11 C       -2.9250    -4.6880     0.3960 C.3   1 <1>   0.3430 
 12 C        4.5920    -5.7950     0.8190 C.ar  1 <1>  -0.1500 
 13 C        5.5740    -3.8250    -0.2830 C.ar  1 <1>  -0.1500 
 14 C        4.1530    -2.1430    -1.2180 C.ar  1 <1>  -0.1500 
 15 N       -3.9520    -3.6040     0.4450 N.4   1 <1>  -0.9590 
 16 C        5.4320    -2.6380    -0.9460 C.ar  1 <1>  -0.1500 
 17 C       -5.0910    -3.8500     1.3560 C.3   1 <1>   0.3430 
 18 C       -4.5190    -3.2170    -0.8650 C.3   1 <1>   0.3430 
 19 C       -6.1510    -2.8500     0.9120 C.3   1 <1>  -0.1600 
 20 C       -5.7670    -2.4220    -0.5090 C.3   1 <1>  -0.1600 
 21 H       -0.3970    -5.1530     1.4320 H     1 <1>   0.0800 
 22 H       -0.3910    -5.9350    -0.1500 H     1 <1>   0.0800 
 23 H        1.3920    -6.6230     1.3080 H     1 <1>   0.1500 
 24 H       -1.5580    -4.0270    -1.1370 H     1 <1>   0.0800 
 25 H        2.0710    -2.4590    -1.0340 H     1 <1>   0.1500 
 26 H        3.6160    -7.4440     1.7430 H     1 <1>   0.1500 
 27 H       -0.4540    -2.5880     0.3960 H     1 <1>   0.4000 
 28 H       -2.7960    -5.0960     1.3850 H     1 <1>   0.0800 
 29 H       -3.2390    -5.4870    -0.2550 H     1 <1>   0.0800 
 30 H        5.5830    -6.1630     1.0150 H     1 <1>   0.1500 
 31 H        6.5550    -4.2110    -0.0730 H     1 <1>   0.1500 
 32 H        4.0540    -1.2090    -1.7420 H     1 <1>   0.1500 
 33 H       -3.4220    -2.7780     0.7880 H     1 <1>   0.4500 
 34 H        6.2910    -2.0750    -1.2660 H     1 <1>   0.1500 
 35 H       -4.8140    -3.7060     2.3890 H     1 <1>   0.0800 
 36 H       -5.4610    -4.8530     1.2170 H     1 <1>   0.0800 
 37 H       -4.7980    -4.0990    -1.4190 H     1 <1>   0.0800 
 38 H       -3.8220    -2.6300    -1.4430 H     1 <1>   0.0800 
 39 H       -6.1510    -2.0000     1.5730 H     1 <1>   0.0800 
 40 H       -7.1270    -3.3040     0.9410 H     1 <1>   0.0800 
 41 H       -6.5550    -2.6190    -1.2150 H     1 <1>   0.0800 
 42 H       -5.5430    -1.3690    -0.5340 H     1 <1>   0.0800 
@<TRIPOS>BOND
  1   1   2  1   
  2   1   3  1   
  3   2   4  ar  
  4   2   5  ar  
  5   3   6  1   
  6   3  21  1   
  7   3  22  1   
  8   4   7  ar  
  9   4   8  ar  
 10   5   9  ar  
 11   5  23  1   
 12   6  10  1   
 13   6  11  1   
 14   6  24  1   
 15   7  12  ar  
 16   7  13  ar  
 17   8  14  ar  
 18   8  25  1   
 19   9  12  ar  
 20   9  26  1   
 21  10  27  1   
 22  11  15  1   
 23  11  28  1   
 24  11  29  1   
 25  12  30  1   
 26  13  16  ar  
 27  13  31  1   
 28  14  16  ar  
 29  14  32  1   
 30  15  17  1   
 31  15  18  1   
 32  15  33  1   
 33  16  34  1   
 34  17  19  1   
 35  17  35  1   
 36  17  36  1   
 37  18  20  1   
 38  18  37  1   
 39  18  38  1   
 40  19  20  1   
 41  19  39  1   
 42  19  40  1   
 43  20  41  1   
 44  20  42  1   
@<TRIPOS>SUBSTRUCTURE
  1 ****   1 GROUP 4 **** **** 0

# MOE 2024.06 (io_trps.svl 2023.06)
