@<TRIPOS>MOLECULE
NONAME
50 52 1 0 0 
SMALL
USER_CHARGES


@<TRIPOS>ATOM
  1 S       -0.0420     0.0940     0.1590 S.o2  1 <1>   1.3330 
  2 O        0.4580    -0.5380     1.3600 O.2   1 <1>  -0.6500 
  3 O        0.1180    -0.5660    -1.1180 O.2   1 <1>  -0.6500 
  4 N       -1.6950     0.4060     0.3700 N.am  1 <1>  -0.8490 
  5 C        0.6570     1.7500     0.0720 C.3   1 <1>  -0.0550 
  6 C       -2.3610    -0.6540     1.1350 C.3   1 <1>   0.1960 
  7 C       -2.3810     0.6540    -0.9040 C.3   1 <1>   0.1960 
  8 C        2.1840     1.7880    -0.1160 C.3   1 <1>  -0.2400 
  9 C       -3.8040    -0.2530     1.4580 C.3   1 <1>  -0.1600 
 10 C       -3.8120     1.1260    -0.6480 C.3   1 <1>  -0.1600 
 11 C       -4.5860     0.0800     0.1770 C.3   1 <1>  -0.0190 
 12 C       -6.0840     0.3450     0.4150 C.2   1 <1>   0.5690 
 13 O       -6.7790    -0.6410     0.5070 O.2   1 <1>  -0.5700 
 14 N       -6.6550     1.6030     0.4440 N.am  1 <1>  -0.4770 
 15 C       -6.0220     2.8080     0.8070 C.ar  1 <1>   0.1170 
 16 C       -8.0430     1.7160    -0.1050 C.3   1 <1>   0.1400 
 17 C       -6.1420     3.9160    -0.0260 C.ar  1 <1>  -0.1440 
 18 C       -5.2890     2.9300     1.9800 C.ar  1 <1>  -0.1500 
 19 C       -8.3300     3.0800    -0.7640 C.3   1 <1>  -0.1600 
 20 C       -5.4780     5.0930     0.2730 C.ar  1 <1>  -0.1500 
 21 C       -7.0550     3.7940    -1.2310 C.3   1 <1>  -0.0170 
 22 C       -4.6270     4.1070     2.2800 C.ar  1 <1>  -0.1500 
 23 C       -4.7090     5.1920     1.4210 C.ar  1 <1>  -0.1440 
 24 C       -3.9820     6.4850     1.7420 C.3   1 <1>  -0.0970 
 25 H        0.4110     2.2720     0.9760 H     1 <1>   0.0800 
 26 H        0.2010     2.2800    -0.7410 H     1 <1>   0.0800 
 27 H       -1.8420    -0.8170     2.0650 H     1 <1>   0.0800 
 28 H       -2.3420    -1.5750     0.5760 H     1 <1>   0.0800 
 29 H       -2.3910    -0.2470    -1.4980 H     1 <1>   0.0800 
 30 H       -1.8570     1.4130    -1.4600 H     1 <1>   0.0800 
 31 H        2.6700     1.2880     0.7040 H     1 <1>   0.0800 
 32 H        2.5300     2.8050    -0.1570 H     1 <1>   0.0800 
 33 H        2.4570     1.2890    -1.0310 H     1 <1>   0.0800 
 34 H       -3.7750     0.5920     2.1170 H     1 <1>   0.0800 
 35 H       -4.2880    -1.0620     1.9760 H     1 <1>   0.0800 
 36 H       -4.3110     1.2910    -1.5860 H     1 <1>   0.0800 
 37 H       -3.7530     2.0650    -0.1320 H     1 <1>   0.0800 
 38 H       -4.5710    -0.8190    -0.4160 H     1 <1>   0.0800 
 39 H       -8.7480     1.5350     0.6880 H     1 <1>   0.0800 
 40 H       -8.1810     0.9470    -0.8450 H     1 <1>   0.0800 
 41 H       -5.2460     2.1050     2.6630 H     1 <1>   0.1500 
 42 H       -8.8260     3.7050    -0.0420 H     1 <1>   0.0800 
 43 H       -9.0070     2.9460    -1.5890 H     1 <1>   0.0800 
 44 H       -5.5660     5.9410    -0.3840 H     1 <1>   0.1500 
 45 H       -6.5650     3.2220    -2.0000 H     1 <1>   0.0800 
 46 H       -7.3000     4.7650    -1.6240 H     1 <1>   0.0800 
 47 H       -4.0540     4.1770     3.1870 H     1 <1>   0.1500 
 48 H       -4.6660     7.1850     2.1880 H     1 <1>   0.0800 
 49 H       -3.5780     6.9170     0.8440 H     1 <1>   0.0800 
 50 H       -3.1720     6.3070     2.4260 H     1 <1>   0.0800 
@<TRIPOS>BOND
  1   1   2  2   
  2   1   3  2   
  3   1   4  am  
  4   1   5  1   
  5   4   6  1   
  6   4   7  1   
  7   5   8  1   
  8   5  25  1   
  9   5  26  1   
 10   6   9  1   
 11   6  27  1   
 12   6  28  1   
 13   7  10  1   
 14   7  29  1   
 15   7  30  1   
 16   8  31  1   
 17   8  32  1   
 18   8  33  1   
 19   9  11  1   
 20   9  34  1   
 21   9  35  1   
 22  10  11  1   
 23  10  36  1   
 24  10  37  1   
 25  11  12  1   
 26  11  38  1   
 27  12  13  2   
 28  12  14  am  
 29  14  15  1   
 30  14  16  1   
 31  15  17  ar  
 32  15  18  ar  
 33  16  19  1   
 34  16  39  1   
 35  16  40  1   
 36  17  20  ar  
 37  17  21  1   
 38  18  22  ar  
 39  18  41  1   
 40  19  21  1   
 41  19  42  1   
 42  19  43  1   
 43  20  23  ar  
 44  20  44  1   
 45  21  45  1   
 46  21  46  1   
 47  22  23  ar  
 48  22  47  1   
 49  23  24  1   
 50  24  48  1   
 51  24  49  1   
 52  24  50  1   
@<TRIPOS>SUBSTRUCTURE
  1 ****  10 GROUP 4 **** **** 0

# MOE 2024.06 (io_trps.svl 2023.06)
