@<TRIPOS>MOLECULE
NONAME
49 50 1 0 0 
SMALL
USER_CHARGES


@<TRIPOS>ATOM
  1 O        0.2000    -0.3330     1.3630 O.2   1 <1>  -0.5700 
  2 C        0.6130    -0.9110     0.3780 C.2   1 <1>   0.6900 
  3 N        1.8640    -0.7120    -0.1220 N.am  1 <1>  -0.5470 
  4 N       -0.1910    -1.7960    -0.2640 N.am  1 <1>  -0.7300 
  5 C        2.8620     0.2080     0.2440 C.ar  1 <1>   0.1170 
  6 C       -1.5420    -2.1300     0.2050 C.3   1 <1>   0.2200 
  7 C        4.2140    -0.1160     0.0770 C.ar  1 <1>  -0.1430 
  8 C        2.5230     1.4610     0.7470 C.ar  1 <1>  -0.1500 
  9 C       -1.8980    -3.5570    -0.2030 C.3   1 <1>  -0.1600 
 10 C       -2.5430    -1.1350    -0.3770 C.3   1 <1>  -0.1600 
 11 C        5.1800     0.8260     0.4140 C.ar  1 <1>  -0.1500 
 12 C        4.5970    -1.4990    -0.4690 C.3   1 <1>  -0.0170 
 13 C        3.4930     2.3840     1.0830 C.ar  1 <1>  -0.1500 
 14 C       -3.3240    -3.8860     0.2330 C.3   1 <1>   0.3430 
 15 C       -3.9570    -1.4930     0.0660 C.3   1 <1>   0.3430 
 16 C        4.8250     2.0660     0.9140 C.ar  1 <1>  -0.1500 
 17 C        6.0930    -1.8370    -0.4610 C.3   1 <1>  -0.2400 
 18 N       -4.2820    -2.8970    -0.3490 N.4   1 <1>  -0.9590 
 19 C       -5.6900    -3.3000    -0.0860 C.3   1 <1>   0.4230 
 20 C       -6.6140    -2.5340    -1.0280 C.3   1 <1>  -0.2400 
 21 C       -6.0900    -3.0810     1.3740 C.3   1 <1>  -0.2400 
 22 H        2.1750    -1.4260    -0.7680 H     1 <1>   0.3700 
 23 H        0.0680    -2.0990    -1.2010 H     1 <1>   0.3700 
 24 H       -1.5620    -2.0600     1.2830 H     1 <1>   0.0800 
 25 H        1.4890     1.7230     0.8780 H     1 <1>   0.1500 
 26 H       -1.2210    -4.2410     0.2790 H     1 <1>   0.0800 
 27 H       -1.8070    -3.6830    -1.2670 H     1 <1>   0.0800 
 28 H       -2.4890    -1.1220    -1.4510 H     1 <1>   0.0800 
 29 H       -2.3090    -0.1490    -0.0150 H     1 <1>   0.0800 
 30 H        6.2280     0.6190     0.2990 H     1 <1>   0.1500 
 31 H        4.2400    -1.5780    -1.4810 H     1 <1>   0.0800 
 32 H        4.0930    -2.2460     0.1200 H     1 <1>   0.0800 
 33 H        3.2100     3.3460     1.4730 H     1 <1>   0.1500 
 34 H       -3.3830    -3.8600     1.3090 H     1 <1>   0.0800 
 35 H       -3.5780    -4.8830    -0.0940 H     1 <1>   0.0800 
 36 H       -4.6550    -0.8010    -0.3780 H     1 <1>   0.0800 
 37 H       -4.0280    -1.4020     1.1380 H     1 <1>   0.0800 
 38 H        5.5860     2.7810     1.1730 H     1 <1>   0.1500 
 39 H        6.6350    -1.1670    -1.1050 H     1 <1>   0.0800 
 40 H        6.2430    -2.8400    -0.8160 H     1 <1>   0.0800 
 41 H        6.4860    -1.7690     0.5380 H     1 <1>   0.0800 
 42 H       -4.1670    -2.9340    -1.3690 H     1 <1>   0.4500 
 43 H       -5.7930    -4.3520    -0.3100 H     1 <1>   0.0800 
 44 H       -6.6240    -1.4810    -0.8090 H     1 <1>   0.0800 
 45 H       -7.6200    -2.8980    -0.9130 H     1 <1>   0.0800 
 46 H       -6.3270    -2.6870    -2.0530 H     1 <1>   0.0800 
 47 H       -6.1050    -2.0380     1.6330 H     1 <1>   0.0800 
 48 H       -5.4360    -3.6090     2.0440 H     1 <1>   0.0800 
 49 H       -7.0830    -3.4630     1.5280 H     1 <1>   0.0800 
@<TRIPOS>BOND
  1   1   2  2   
  2   2   3  am  
  3   2   4  am  
  4   3   5  1   
  5   3  22  1   
  6   4   6  1   
  7   4  23  1   
  8   5   7  ar  
  9   5   8  ar  
 10   6   9  1   
 11   6  10  1   
 12   6  24  1   
 13   7  11  ar  
 14   7  12  1   
 15   8  13  ar  
 16   8  25  1   
 17   9  14  1   
 18   9  26  1   
 19   9  27  1   
 20  10  15  1   
 21  10  28  1   
 22  10  29  1   
 23  11  16  ar  
 24  11  30  1   
 25  12  17  1   
 26  12  31  1   
 27  12  32  1   
 28  13  16  ar  
 29  13  33  1   
 30  14  18  1   
 31  14  34  1   
 32  14  35  1   
 33  15  18  1   
 34  15  36  1   
 35  15  37  1   
 36  16  38  1   
 37  17  39  1   
 38  17  40  1   
 39  17  41  1   
 40  18  19  1   
 41  18  42  1   
 42  19  20  1   
 43  19  21  1   
 44  19  43  1   
 45  20  44  1   
 46  20  45  1   
 47  20  46  1   
 48  21  47  1   
 49  21  48  1   
 50  21  49  1   
@<TRIPOS>SUBSTRUCTURE
  1 ****   2 GROUP 4 **** **** 0

# MOE 2024.06 (io_trps.svl 2023.06)
