@<TRIPOS>MOLECULE
NONAME
40 42 1 0 0 
SMALL
USER_CHARGES


@<TRIPOS>ATOM
  1 S       -0.2240    -1.0770    -0.2970 S.3   1 <1>  -0.0800 
  2 C        1.1570    -0.0050    -0.0550 C.ar  1 <1>   0.2970 
  3 C       -1.3460     0.2720    -0.1710 C.2   1 <1>  -0.1400 
  4 N        2.3930    -0.4410    -0.0460 N.ar  1 <1>  -0.5670 
  5 C        0.7410     1.3020     0.1090 C.ar  1 <1>   0.0000 
  6 C       -0.7030     1.4270     0.0540 C.2   1 <1>  -0.1810 
  7 C       -2.8300     0.0290    -0.3160 C.3   1 <1>   0.5230 
  8 C        3.2660     0.5270     0.1380 C.ar  1 <1>   0.7220 
  9 C        1.7990     2.1890     0.2780 C.ar  1 <1>   0.4120 
 10 C       -1.4990     2.7120     0.2260 C.3   1 <1>   0.0210 
 11 N       -3.4790     1.3560    -0.5810 N.4   1 <1>  -0.9590 
 12 S        4.9730    -0.0030     0.1710 S.3   1 <1>  -0.3320 
 13 N        3.0580     1.8290     0.3010 N.ar  1 <1>  -0.6200 
 14 S        1.4710     3.9410     0.4670 S.3   1 <1>  -0.3320 
 15 C       -3.0060     2.4200     0.3770 C.3   1 <1>   0.3430 
 16 C       -4.9690     1.2410    -0.5900 C.3   1 <1>   0.2630 
 17 C        5.9870     1.5220     0.4310 C.3   1 <1>   0.0700 
 18 C        3.1200     4.7520     0.6900 C.3   1 <1>   0.0700 
 19 C        6.2050     2.1950    -0.9240 C.3   1 <1>  -0.2400 
 20 C        3.5230     4.6290     2.1590 C.3   1 <1>  -0.2400 
 21 H       -3.2140    -0.4120     0.5900 H     1 <1>   0.0800 
 22 H       -3.0120    -0.6460    -1.1380 H     1 <1>   0.0800 
 23 H       -1.3340     3.3570    -0.6190 H     1 <1>   0.0800 
 24 H       -1.1710     3.2320     1.1090 H     1 <1>   0.0800 
 25 H       -3.1570     1.6380    -1.5190 H     1 <1>   0.4500 
 26 H       -3.5570     3.3330     0.2200 H     1 <1>   0.0800 
 27 H       -3.1920     2.0900     1.3870 H     1 <1>   0.0800 
 28 H       -5.3290     0.9390     0.3800 H     1 <1>   0.0800 
 29 H       -5.2860     0.5110    -1.3180 H     1 <1>   0.0800 
 30 H       -5.4160     2.1890    -0.8430 H     1 <1>   0.0800 
 31 H        6.9200     1.2030     0.8600 H     1 <1>   0.0800 
 32 H        5.4680     2.1580     1.1260 H     1 <1>   0.0800 
 33 H        3.0030     5.7830     0.4050 H     1 <1>   0.0800 
 34 H        3.8230     4.2720     0.0330 H     1 <1>   0.0800 
 35 H        6.7050     1.5200    -1.5950 H     1 <1>   0.0800 
 36 H        6.8120     3.0740    -0.8010 H     1 <1>   0.0800 
 37 H        5.2640     2.4850    -1.3550 H     1 <1>   0.0800 
 38 H        2.7900     5.1040     2.7860 H     1 <1>   0.0800 
 39 H        4.4730     5.1050     2.3180 H     1 <1>   0.0800 
 40 H        3.6070     3.5940     2.4400 H     1 <1>   0.0800 
@<TRIPOS>BOND
  1   1   2  1   
  2   1   3  1   
  3   2   4  ar  
  4   2   5  ar  
  5   3   6  2   
  6   3   7  1   
  7   4   8  ar  
  8   5   6  1   
  9   5   9  ar  
 10   6  10  1   
 11   7  11  1   
 12   7  21  1   
 13   7  22  1   
 14   8  12  1   
 15   8  13  ar  
 16   9  13  ar  
 17   9  14  1   
 18  10  15  1   
 19  10  23  1   
 20  10  24  1   
 21  11  15  1   
 22  11  16  1   
 23  11  25  1   
 24  12  17  1   
 25  14  18  1   
 26  15  26  1   
 27  15  27  1   
 28  16  28  1   
 29  16  29  1   
 30  16  30  1   
 31  17  19  1   
 32  17  31  1   
 33  17  32  1   
 34  18  20  1   
 35  18  33  1   
 36  18  34  1   
 37  19  35  1   
 38  19  36  1   
 39  19  37  1   
 40  20  38  1   
 41  20  39  1   
 42  20  40  1   
@<TRIPOS>SUBSTRUCTURE
  1 ****   5 GROUP 4 **** **** 0

# MOE 2024.06 (io_trps.svl 2023.06)
