@<TRIPOS>MOLECULE
NONAME
41 43 1 0 0 
SMALL
USER_CHARGES


@<TRIPOS>ATOM
  1 O       -1.8070    -0.1140    -1.9830 O.2   1 <1>  -0.5700 
  2 C       -2.4800    -0.8120    -1.2510 C.2   1 <1>   0.7060 
  3 O       -3.6970    -0.3840    -0.8950 O.3   1 <1>  -0.2330 
  4 C       -2.0580    -2.0770    -0.7380 C.2   1 <1>  -0.1240 
  5 C       -4.5370    -1.0870    -0.0850 C.ar  1 <1>   0.0820 
  6 C       -2.8400    -2.8110     0.0600 C.2   1 <1>  -0.1670 
  7 C       -0.7320    -2.7410    -1.0140 C.3   1 <1>  -0.0220 
  8 C       -4.1390    -2.3360     0.4210 C.ar  1 <1>   0.0280 
  9 C       -5.7860    -0.5530     0.2210 C.ar  1 <1>  -0.1440 
 10 C       -2.1850    -4.1070     0.4720 C.3   1 <1>  -0.0220 
 11 C       -0.7660    -4.0000    -0.1240 C.3   1 <1>  -0.1600 
 12 C       -5.0240    -3.0360     1.2370 C.ar  1 <1>  -0.1500 
 13 C       -6.6590    -1.2800     1.0240 C.ar  1 <1>   0.0830 
 14 C       -6.1840     0.8150    -0.3360 C.3   1 <1>  -0.0960 
 15 C       -6.2660    -2.5180     1.5360 C.ar  1 <1>  -0.1500 
 16 O       -7.8810    -0.7560     1.2780 O.3   1 <1>  -0.3620 
 17 C       -8.9550    -1.5460     1.7690 C.3   1 <1>   0.1810 
 18 C      -10.2890    -0.8070     1.6660 C.2   1 <1>   0.5690 
 19 O      -10.9310    -0.6970     2.6860 O.2   1 <1>  -0.5700 
 20 N      -10.7540    -0.3170     0.4630 N.am  1 <1>  -0.6600 
 21 C      -12.0210     0.4620     0.3790 C.3   1 <1>   0.0600 
 22 C      -10.0250    -0.4350    -0.8310 C.3   1 <1>   0.0600 
 23 H        0.0850    -2.0930    -0.7470 H     1 <1>   0.0800 
 24 H       -0.6620    -3.0010    -2.0560 H     1 <1>   0.0800 
 25 H       -2.7170    -4.9410     0.0500 H     1 <1>   0.0800 
 26 H       -2.1470    -4.1990     1.5430 H     1 <1>   0.0800 
 27 H       -0.0510    -3.8920     0.6730 H     1 <1>   0.0800 
 28 H       -0.5200    -4.8790    -0.6930 H     1 <1>   0.0800 
 29 H       -4.7340    -3.9900     1.6370 H     1 <1>   0.1500 
 30 H       -5.3380     1.4790    -0.3530 H     1 <1>   0.0800 
 31 H       -6.9440     1.2810     0.2640 H     1 <1>   0.0800 
 32 H       -6.5550     0.7030    -1.3390 H     1 <1>   0.0800 
 33 H       -6.9170    -3.0840     2.1740 H     1 <1>   0.1500 
 34 H       -8.7540    -1.7790     2.7980 H     1 <1>   0.0800 
 35 H       -9.0090    -2.4500     1.1930 H     1 <1>   0.0800 
 36 H      -12.4700     0.5750     1.3510 H     1 <1>   0.0800 
 37 H      -12.7190    -0.0470    -0.2620 H     1 <1>   0.0800 
 38 H      -11.8200     1.4410    -0.0190 H     1 <1>   0.0800 
 39 H       -9.3430    -1.2660    -0.8190 H     1 <1>   0.0800 
 40 H       -9.4690     0.4690    -1.0130 H     1 <1>   0.0800 
 41 H      -10.7250    -0.5850    -1.6340 H     1 <1>   0.0800 
@<TRIPOS>BOND
  1   1   2  2   
  2   2   3  1   
  3   2   4  1   
  4   3   5  1   
  5   4   6  2   
  6   4   7  1   
  7   5   8  ar  
  8   5   9  ar  
  9   6   8  1   
 10   6  10  1   
 11   7  11  1   
 12   7  23  1   
 13   7  24  1   
 14   8  12  ar  
 15   9  13  ar  
 16   9  14  1   
 17  10  11  1   
 18  10  25  1   
 19  10  26  1   
 20  11  27  1   
 21  11  28  1   
 22  12  15  ar  
 23  12  29  1   
 24  13  15  ar  
 25  13  16  1   
 26  14  30  1   
 27  14  31  1   
 28  14  32  1   
 29  15  33  1   
 30  16  17  1   
 31  17  18  1   
 32  17  34  1   
 33  17  35  1   
 34  18  19  2   
 35  18  20  am  
 36  20  21  1   
 37  20  22  1   
 38  21  36  1   
 39  21  37  1   
 40  21  38  1   
 41  22  39  1   
 42  22  40  1   
 43  22  41  1   
@<TRIPOS>SUBSTRUCTURE
  1 ****   9 GROUP 4 **** **** 0

# MOE 2024.06 (io_trps.svl 2023.06)
