@<TRIPOS>MOLECULE
NONAME
45 47 1 0 0 
SMALL
USER_CHARGES


@<TRIPOS>ATOM
  1 O       -0.3890     0.4760     1.0520 O.2   1 <1>  -0.5700 
  2 C       -0.2070     1.4060     0.2990 C.2   1 <1>   0.5690 
  3 N        1.0280     1.7350    -0.1740 N.am  1 <1>  -0.5790 
  4 C       -1.4480     2.2110    -0.1270 C.3   1 <1>   0.4040 
  5 C        2.2710     1.0250     0.1660 C.3   1 <1>   0.0490 
  6 N       -2.7440     1.4580     0.0720 N.4   1 <1>  -0.9590 
  7 C        3.5250     1.8240     0.2790 C.3   1 <1>  -0.2000 
  8 C        3.3200     0.9070    -0.8890 C.3   1 <1>  -0.2000 
  9 C       -2.8610     0.3010    -0.8640 C.3   1 <1>   0.3430 
 10 C       -3.9390     2.3450     0.0470 C.3   1 <1>   0.3430 
 11 C       -4.0920    -0.5300    -0.5020 C.3   1 <1>  -0.1600 
 12 C       -5.1830     1.5420     0.4200 C.3   1 <1>  -0.1600 
 13 C       -5.3740     0.3180    -0.4950 C.3   1 <1>  -0.0800 
 14 C       -6.5890    -0.5300    -0.0750 C.3   1 <1>  -0.0170 
 15 C       -7.8730     0.2850    -0.0980 C.ar  1 <1>  -0.1440 
 16 C       -8.4720     0.6070    -1.3070 C.ar  1 <1>  -0.1500 
 17 C       -8.4540     0.7190     1.0840 C.ar  1 <1>  -0.1500 
 18 C       -9.6310     1.3630    -1.3340 C.ar  1 <1>  -0.1500 
 19 C       -9.6130     1.4750     1.0580 C.ar  1 <1>  -0.1500 
 20 C      -10.2010     1.7990    -0.1520 C.ar  1 <1>  -0.1500 
 21 H        1.1820     2.5330    -0.7940 H     1 <1>   0.3700 
 22 H       -1.3460     2.4920    -1.1610 H     1 <1>   0.0800 
 23 H       -1.4660     3.1100     0.4650 H     1 <1>   0.0800 
 24 H        2.1260     0.1970     0.8440 H     1 <1>   0.1000 
 25 H       -2.6660     1.0360     1.0140 H     1 <1>   0.4500 
 26 H        4.2530     1.5420     1.0200 H     1 <1>   0.1000 
 27 H        3.4940     2.8870     0.1180 H     1 <1>   0.1000 
 28 H        3.1480     1.3340    -1.8610 H     1 <1>   0.1000 
 29 H        3.9120     0.0080    -0.9320 H     1 <1>   0.1000 
 30 H       -1.9810    -0.3210    -0.7950 H     1 <1>   0.0800 
 31 H       -2.9510     0.6560    -1.8780 H     1 <1>   0.0800 
 32 H       -4.0660     2.7610    -0.9400 H     1 <1>   0.0800 
 33 H       -3.8160     3.1570     0.7460 H     1 <1>   0.0800 
 34 H       -3.9380    -0.9840     0.4620 H     1 <1>   0.0800 
 35 H       -4.1920    -1.3270    -1.2190 H     1 <1>   0.0800 
 36 H       -6.0370     2.1920     0.3390 H     1 <1>   0.0800 
 37 H       -5.1130     1.2320     1.4480 H     1 <1>   0.0800 
 38 H       -5.5510     0.6720    -1.4980 H     1 <1>   0.0800 
 39 H       -6.4360    -0.9330     0.9110 H     1 <1>   0.0800 
 40 H       -6.7000    -1.3640    -0.7470 H     1 <1>   0.0800 
 41 H       -8.0430     0.2710    -2.2340 H     1 <1>   0.1500 
 42 H       -8.0110     0.4730     2.0320 H     1 <1>   0.1500 
 43 H      -10.0920     1.6110    -2.2750 H     1 <1>   0.1500 
 44 H      -10.0600     1.8100     1.9780 H     1 <1>   0.1500 
 45 H      -11.1030     2.3870    -0.1720 H     1 <1>   0.1500 
@<TRIPOS>BOND
  1   1   2  2   
  2   2   3  am  
  3   2   4  1   
  4   3   5  1   
  5   3  21  1   
  6   4   6  1   
  7   4  22  1   
  8   4  23  1   
  9   5   7  1   
 10   5   8  1   
 11   5  24  1   
 12   6   9  1   
 13   6  10  1   
 14   6  25  1   
 15   7   8  1   
 16   7  26  1   
 17   7  27  1   
 18   8  28  1   
 19   8  29  1   
 20   9  11  1   
 21   9  30  1   
 22   9  31  1   
 23  10  12  1   
 24  10  32  1   
 25  10  33  1   
 26  11  13  1   
 27  11  34  1   
 28  11  35  1   
 29  12  13  1   
 30  12  36  1   
 31  12  37  1   
 32  13  14  1   
 33  13  38  1   
 34  14  15  1   
 35  14  39  1   
 36  14  40  1   
 37  15  16  ar  
 38  15  17  ar  
 39  16  18  ar  
 40  16  41  1   
 41  17  19  ar  
 42  17  42  1   
 43  18  20  ar  
 44  18  43  1   
 45  19  20  ar  
 46  19  44  1   
 47  20  45  1   
@<TRIPOS>SUBSTRUCTURE
  1 ****   6 GROUP 4 **** **** 0

# MOE 2024.06 (io_trps.svl 2023.06)
