@<TRIPOS>MOLECULE
NONAME
45 46 1 0 0 
SMALL
USER_CHARGES


@<TRIPOS>ATOM
  1 CL       0.2800     1.6930    -2.6540 Cl    1 <1>  -0.1770 
  2 C       -0.5920     2.1870    -1.2180 C.ar  1 <1>   0.1770 
  3 C        0.0020     3.0640    -0.3130 C.ar  1 <1>   0.0830 
  4 C       -1.8630     1.6860    -1.0160 C.ar  1 <1>  -0.1500 
  5 O        1.2560     3.5100    -0.5900 O.3   1 <1>  -0.3630 
  6 C       -0.7090     3.4410     0.8270 C.ar  1 <1>  -0.1500 
  7 C       -2.5480     2.0740     0.1190 C.ar  1 <1>   0.1770 
  8 C        1.9810     4.3290     0.3020 C.3   1 <1>   0.1200 
  9 C       -1.9860     2.9420     1.0390 C.ar  1 <1>  -0.1500 
 10 CL      -4.1560     1.4560     0.4000 Cl    1 <1>  -0.1770 
 11 C        3.3650     4.5890    -0.3070 C.3   1 <1>   0.2000 
 12 O        3.9400     3.3690    -0.6710 O.3   1 <1>  -0.6800 
 13 C        4.3180     5.3210     0.6630 C.3   1 <1>   0.3430 
 14 N        5.7400     5.0750     0.2780 N.4   1 <1>  -0.9590 
 15 C        6.6910     5.1430     1.4170 C.3   1 <1>   0.3430 
 16 C        6.1840     5.8810    -0.9060 C.3   1 <1>   0.3430 
 17 C        8.0160     4.4610     1.0260 C.3   1 <1>  -0.0800 
 18 C        7.7160     5.8530    -1.1090 C.3   1 <1>  -0.0800 
 19 C        8.3490     4.5990    -0.4770 C.3   1 <1>  -0.1600 
 20 C        8.0060     2.9780     1.4260 C.3   1 <1>  -0.2400 
 21 C        8.3810     7.1410    -0.5910 C.3   1 <1>  -0.2400 
 22 H       -2.3090     1.0110    -1.7230 H     1 <1>   0.1500 
 23 H       -0.2970     4.1140     1.5540 H     1 <1>   0.1500 
 24 H        2.0680     3.8140     1.2430 H     1 <1>   0.0800 
 25 H        1.4410     5.2510     0.4330 H     1 <1>   0.0800 
 26 H       -2.5490     3.2230     1.9120 H     1 <1>   0.1500 
 27 H        3.2460     5.1740    -1.2040 H     1 <1>   0.0800 
 28 H        3.2550     2.8230    -1.1270 H     1 <1>   0.4000 
 29 H        4.1490     4.9310     1.6520 H     1 <1>   0.0800 
 30 H        4.1030     6.3770     0.6800 H     1 <1>   0.0800 
 31 H        5.7310     4.0870    -0.0430 H     1 <1>   0.4500 
 32 H        6.2790     4.6520     2.2840 H     1 <1>   0.0800 
 33 H        6.8750     6.1740     1.6680 H     1 <1>   0.0800 
 34 H        5.8680     6.9050    -0.7950 H     1 <1>   0.0800 
 35 H        5.7100     5.4830    -1.7900 H     1 <1>   0.0800 
 36 H        8.7960     4.9420     1.5940 H     1 <1>   0.0800 
 37 H        7.8970     5.8200    -2.1700 H     1 <1>   0.0800 
 38 H        7.9760     3.7400    -1.0100 H     1 <1>   0.0800 
 39 H        9.4180     4.6100    -0.6140 H     1 <1>   0.0800 
 40 H        7.2270     2.4400     0.9140 H     1 <1>   0.0800 
 41 H        7.8540     2.8720     2.4870 H     1 <1>   0.0800 
 42 H        8.9500     2.5210     1.1810 H     1 <1>   0.0800 
 43 H        8.2390     7.2780     0.4650 H     1 <1>   0.0800 
 44 H        7.9790     8.0000    -1.1000 H     1 <1>   0.0800 
 45 H        9.4400     7.1120    -0.7850 H     1 <1>   0.0800 
@<TRIPOS>BOND
  1   1   2  1   
  2   2   3  ar  
  3   2   4  ar  
  4   3   5  1   
  5   3   6  ar  
  6   4   7  ar  
  7   4  22  1   
  8   5   8  1   
  9   6   9  ar  
 10   6  23  1   
 11   7   9  ar  
 12   7  10  1   
 13   8  11  1   
 14   8  24  1   
 15   8  25  1   
 16   9  26  1   
 17  11  12  1   
 18  11  13  1   
 19  11  27  1   
 20  12  28  1   
 21  13  14  1   
 22  13  29  1   
 23  13  30  1   
 24  14  15  1   
 25  14  16  1   
 26  14  31  1   
 27  15  17  1   
 28  15  32  1   
 29  15  33  1   
 30  16  18  1   
 31  16  34  1   
 32  16  35  1   
 33  17  19  1   
 34  17  20  1   
 35  17  36  1   
 36  18  19  1   
 37  18  21  1   
 38  18  37  1   
 39  19  38  1   
 40  19  39  1   
 41  20  40  1   
 42  20  41  1   
 43  20  42  1   
 44  21  43  1   
 45  21  44  1   
 46  21  45  1   
@<TRIPOS>SUBSTRUCTURE
  1 ****  11 GROUP 4 **** **** 0

# MOE 2024.06 (io_trps.svl 2023.06)
