@<TRIPOS>MOLECULE
NONAME
39 41 1 0 0 
SMALL
USER_CHARGES


@<TRIPOS>ATOM
  1 CL       0.0500     0.7080    -0.8510 Cl    1 <1>  -0.1770 
  2 C       -1.5870     1.2400    -0.5620 C.ar  1 <1>   0.1770 
  3 C       -1.8060     2.4640     0.0420 C.ar  1 <1>  -0.1500 
  4 C       -2.6400     0.4280    -0.9410 C.ar  1 <1>  -0.1500 
  5 C       -3.1070     2.8800     0.2700 C.ar  1 <1>  -0.1500 
  6 C       -3.9410     0.8460    -0.7130 C.ar  1 <1>  -0.1500 
  7 C       -4.1780     2.0790    -0.1040 C.ar  1 <1>   0.0830 
  8 O       -5.4160     2.5660     0.1580 O.3   1 <1>  -0.3630 
  9 C       -6.5760     1.8310    -0.1440 C.3   1 <1>   0.1200 
 10 C       -7.7740     2.6850     0.2850 C.3   1 <1>   0.3430 
 11 N       -9.0910     2.0210     0.0200 N.4   1 <1>  -0.9590 
 12 C      -10.2100     2.9950     0.1810 C.3   1 <1>   0.4860 
 13 C       -9.3470     0.8310     0.8900 C.3   1 <1>   0.3430 
 14 C      -11.5320     2.3280    -0.1610 C.ar  1 <1>  -0.1430 
 15 C      -10.5520     0.0450     0.3660 C.3   1 <1>  -0.0170 
 16 C      -11.6980     0.9500    -0.0630 C.ar  1 <1>  -0.1430 
 17 C      -12.5960     3.1190    -0.5700 C.ar  1 <1>  -0.1500 
 18 C      -12.9230     0.3820    -0.3740 C.ar  1 <1>  -0.1500 
 19 C      -13.8160     2.5450    -0.8790 C.ar  1 <1>  -0.1500 
 20 C      -13.9790     1.1760    -0.7800 C.ar  1 <1>  -0.1500 
 21 H       -0.9700     3.0770     0.3280 H     1 <1>   0.1500 
 22 H       -2.4350    -0.5190    -1.4090 H     1 <1>   0.1500 
 23 H       -3.2930     3.8300     0.7380 H     1 <1>   0.1500 
 24 H       -4.7420     0.2000    -1.0170 H     1 <1>   0.1500 
 25 H       -6.5330     0.9070     0.4050 H     1 <1>   0.0800 
 26 H       -6.5920     1.6520    -1.2050 H     1 <1>   0.0800 
 27 H       -7.7270     3.6150    -0.2580 H     1 <1>   0.0800 
 28 H       -7.6850     2.9040     1.3370 H     1 <1>   0.0800 
 29 H       -9.1440     1.7130    -0.9610 H     1 <1>   0.4500 
 30 H      -10.0610     3.8390    -0.4710 H     1 <1>   0.0800 
 31 H      -10.2470     3.3520     1.1980 H     1 <1>   0.0800 
 32 H       -9.5500     1.1600     1.8970 H     1 <1>   0.0800 
 33 H       -8.4870     0.1830     0.9130 H     1 <1>   0.0800 
 34 H      -10.8910    -0.6270     1.1350 H     1 <1>   0.0800 
 35 H      -10.2470    -0.5530    -0.4740 H     1 <1>   0.0800 
 36 H      -12.4950     4.1880    -0.6530 H     1 <1>   0.1500 
 37 H      -13.0680    -0.6830    -0.3040 H     1 <1>   0.1500 
 38 H      -14.6410     3.1610    -1.1960 H     1 <1>   0.1500 
 39 H      -14.9300     0.7290    -1.0200 H     1 <1>   0.1500 
@<TRIPOS>BOND
  1   1   2  1   
  2   2   3  ar  
  3   2   4  ar  
  4   3   5  ar  
  5   3  21  1   
  6   4   6  ar  
  7   4  22  1   
  8   5   7  ar  
  9   5  23  1   
 10   6   7  ar  
 11   6  24  1   
 12   7   8  1   
 13   8   9  1   
 14   9  10  1   
 15   9  25  1   
 16   9  26  1   
 17  10  11  1   
 18  10  27  1   
 19  10  28  1   
 20  11  12  1   
 21  11  13  1   
 22  11  29  1   
 23  12  14  1   
 24  12  30  1   
 25  12  31  1   
 26  13  15  1   
 27  13  32  1   
 28  13  33  1   
 29  14  16  ar  
 30  14  17  ar  
 31  15  16  1   
 32  15  34  1   
 33  15  35  1   
 34  16  18  ar  
 35  17  19  ar  
 36  17  36  1   
 37  18  20  ar  
 38  18  37  1   
 39  19  20  ar  
 40  19  38  1   
 41  20  39  1   
@<TRIPOS>SUBSTRUCTURE
  1 ****   9 GROUP 4 **** **** 0

# MOE 2024.06 (io_trps.svl 2023.06)
