@<TRIPOS>MOLECULE
NONAME
43 44 1 0 0 
SMALL
USER_CHARGES


@<TRIPOS>ATOM
  1 O       -0.3210    -1.0690     1.5350 O.2   1 <1>  -0.5700 
  2 C       -0.3200    -1.7730     0.5450 C.2   1 <1>   0.5440 
  3 N        0.8310    -1.8860    -0.1840 N.am  1 <1>  -0.7300 
  4 C       -1.5220    -2.4750     0.1300 C.ar  1 <1>   0.0860 
  5 C        2.1170    -1.2370     0.1260 C.3   1 <1>   0.2200 
  6 C       -2.7840    -1.9320     0.3590 C.ar  1 <1>  -0.1500 
  7 C       -1.4650    -3.7140    -0.5120 C.ar  1 <1>  -0.1500 
  8 C        2.4160    -0.2250    -0.9880 C.3   1 <1>  -0.1600 
  9 C        3.1640    -2.3440     0.2920 C.3   1 <1>  -0.1600 
 10 C       -3.9420    -2.5770    -0.0390 C.ar  1 <1>   0.0820 
 11 C       -2.6130    -4.3710    -0.9160 C.ar  1 <1>  -0.1500 
 12 C        3.5560     0.7360    -0.6170 C.3   1 <1>  -0.1600 
 13 C        4.6010    -1.8520     0.5360 C.3   1 <1>  -0.1600 
 14 O       -5.1130    -1.9510     0.2340 O.3   1 <1>  -0.3630 
 15 C       -3.8540    -3.8060    -0.6850 C.ar  1 <1>  -0.1500 
 16 C        4.9670     0.2320    -0.9570 C.3   1 <1>  -0.1600 
 17 C        5.2420    -1.2630    -0.7280 C.3   1 <1>  -0.1600 
 18 C       -6.3540    -2.5480    -0.0640 C.3   1 <1>   0.2580 
 19 C       -7.4520    -1.6110     0.4000 C.2   1 <1>  -0.2880 
 20 C       -8.4310    -1.1200    -0.3670 C.2   1 <1>  -0.3000 
 21 H        0.8060    -2.3750    -1.0770 H     1 <1>   0.3700 
 22 H        2.0280    -0.7060     1.0600 H     1 <1>   0.0800 
 23 H       -2.8640    -0.9830     0.8610 H     1 <1>   0.1500 
 24 H       -0.5100    -4.1750    -0.6890 H     1 <1>   0.1500 
 25 H        1.5310     0.3710    -1.1290 H     1 <1>   0.0800 
 26 H        2.6310    -0.7250    -1.9160 H     1 <1>   0.0800 
 27 H        3.1550    -2.9830    -0.5730 H     1 <1>   0.0800 
 28 H        2.8710    -2.9390     1.1390 H     1 <1>   0.0800 
 29 H       -2.5420    -5.3250    -1.4110 H     1 <1>   0.1500 
 30 H        3.5010     0.9630     0.4350 H     1 <1>   0.0800 
 31 H        3.4060     1.6660    -1.1380 H     1 <1>   0.0800 
 32 H        5.1870    -2.7030     0.8370 H     1 <1>   0.0800 
 33 H        4.6310    -1.1440     1.3460 H     1 <1>   0.0800 
 34 H       -4.7300    -4.3360    -1.0100 H     1 <1>   0.1500 
 35 H        5.6700     0.8040    -0.3750 H     1 <1>   0.0800 
 36 H        5.1710     0.4490    -1.9920 H     1 <1>   0.0800 
 37 H        4.9180    -1.8220    -1.5890 H     1 <1>   0.0800 
 38 H        6.3090    -1.3920    -0.6640 H     1 <1>   0.0800 
 39 H       -6.4140    -3.4850     0.4600 H     1 <1>   0.0800 
 40 H       -6.4100    -2.7080    -1.1260 H     1 <1>   0.0800 
 41 H       -7.3560    -1.3690     1.4450 H     1 <1>   0.1500 
 42 H       -9.1950    -0.4530    -0.0070 H     1 <1>   0.1500 
 43 H       -8.5520    -1.3380    -1.4150 H     1 <1>   0.1500 
@<TRIPOS>BOND
  1   1   2  2   
  2   2   3  am  
  3   2   4  1   
  4   3   5  1   
  5   3  21  1   
  6   4   6  ar  
  7   4   7  ar  
  8   5   8  1   
  9   5   9  1   
 10   5  22  1   
 11   6  10  ar  
 12   6  23  1   
 13   7  11  ar  
 14   7  24  1   
 15   8  12  1   
 16   8  25  1   
 17   8  26  1   
 18   9  13  1   
 19   9  27  1   
 20   9  28  1   
 21  10  14  1   
 22  10  15  ar  
 23  11  15  ar  
 24  11  29  1   
 25  12  16  1   
 26  12  30  1   
 27  12  31  1   
 28  13  17  1   
 29  13  32  1   
 30  13  33  1   
 31  14  18  1   
 32  15  34  1   
 33  16  17  1   
 34  16  35  1   
 35  16  36  1   
 36  17  37  1   
 37  17  38  1   
 38  18  19  1   
 39  18  39  1   
 40  18  40  1   
 41  19  20  2   
 42  19  41  1   
 43  20  42  1   
 44  20  43  1   
@<TRIPOS>SUBSTRUCTURE
  1 ****   2 GROUP 4 **** **** 0

# MOE 2024.06 (io_trps.svl 2023.06)
