@<TRIPOS>MOLECULE
NONAME
35 35 1 0 0 
SMALL
USER_CHARGES


@<TRIPOS>ATOM
  1 S        0.5260     0.2840    -1.0020 S.o2  1 <1>   1.3330 
  2 O        1.6100     0.3120    -1.9530 O.2   1 <1>  -0.6500 
  3 O        0.5020    -0.6780     0.0730 O.2   1 <1>  -0.6500 
  4 N        0.4710     1.8600    -0.2960 N.am  1 <1>  -0.6930 
  5 C       -1.0050     0.2140    -1.9070 C.3   1 <1>  -0.1350 
  6 C       -0.6480     2.2840     0.4140 C.ar  1 <1>   0.1990 
  7 C        1.7960     2.4120     0.1230 C.3   1 <1>   0.2570 
  8 C       -1.4970     3.2820    -0.0820 C.ar  1 <1>  -0.1440 
  9 C       -0.9320     1.6980     1.6410 C.ar  1 <1>  -0.1500 
 10 C        2.5180     1.5930     1.1950 C.2   1 <1>   0.6590 
 11 C       -2.6160     3.6630     0.6540 C.ar  1 <1>  -0.1440 
 12 C       -1.2180     3.9630    -1.4250 C.3   1 <1>  -0.0970 
 13 C       -2.0390     2.0800     2.3690 C.ar  1 <1>  -0.1500 
 14 O        2.3770     1.8210     2.3720 O.2   1 <1>  -0.5700 
 15 O        3.3160     0.6260     0.7590 O.3   1 <1>  -0.4300 
 16 C       -2.8790     3.0590     1.8740 C.ar  1 <1>  -0.1500 
 17 C       -3.5770     4.7380     0.1620 C.3   1 <1>  -0.0970 
 18 C        3.9520    -0.2720     1.6420 C.3   1 <1>   0.0400 
 19 H       -1.0820    -0.7210    -2.4260 H     1 <1>   0.0800 
 20 H       -1.0480     1.0110    -2.6220 H     1 <1>   0.0800 
 21 H       -1.8370     0.3040    -1.2360 H     1 <1>   0.0800 
 22 H        1.6520     3.4050     0.5070 H     1 <1>   0.0800 
 23 H        2.4350     2.4820    -0.7390 H     1 <1>   0.0800 
 24 H       -0.2790     0.9360     2.0300 H     1 <1>   0.1500 
 25 H       -2.0120     3.7450    -2.1160 H     1 <1>   0.0800 
 26 H       -0.2950     3.6420    -1.8720 H     1 <1>   0.0800 
 27 H       -1.1570     5.0270    -1.2900 H     1 <1>   0.0800 
 28 H       -2.2460     1.6170     3.3190 H     1 <1>   0.1500 
 29 H       -3.7390     3.3480     2.4520 H     1 <1>   0.1500 
 30 H       -3.0680     5.6810     0.0870 H     1 <1>   0.0800 
 31 H       -4.4040     4.8570     0.8390 H     1 <1>   0.0800 
 32 H       -3.9720     4.4720    -0.8020 H     1 <1>   0.0800 
 33 H        4.5390    -0.9600     1.0610 H     1 <1>   0.0800 
 34 H        3.1960    -0.8050     2.1930 H     1 <1>   0.0800 
 35 H        4.5820     0.2840     2.3140 H     1 <1>   0.0800 
@<TRIPOS>BOND
  1   1   2  2   
  2   1   3  2   
  3   1   4  am  
  4   1   5  1   
  5   4   6  1   
  6   4   7  1   
  7   5  19  1   
  8   5  20  1   
  9   5  21  1   
 10   6   8  ar  
 11   6   9  ar  
 12   7  10  1   
 13   7  22  1   
 14   7  23  1   
 15   8  11  ar  
 16   8  12  1   
 17   9  13  ar  
 18   9  24  1   
 19  10  14  2   
 20  10  15  1   
 21  11  16  ar  
 22  11  17  1   
 23  12  25  1   
 24  12  26  1   
 25  12  27  1   
 26  13  16  ar  
 27  13  28  1   
 28  15  18  1   
 29  16  29  1   
 30  17  30  1   
 31  17  31  1   
 32  17  32  1   
 33  18  33  1   
 34  18  34  1   
 35  18  35  1   
@<TRIPOS>SUBSTRUCTURE
  1 ****   4 GROUP 4 **** **** 0

# MOE 2024.06 (io_trps.svl 2023.06)
