@<TRIPOS>MOLECULE
NONAME
37 38 1 0 0 
SMALL
USER_CHARGES


@<TRIPOS>ATOM
  1 O        0.9210     1.1580    -0.0770 O.2   1 <1>  -0.5700 
  2 C        1.9710     1.6400    -0.4660 C.2   1 <1>   0.6900 
  3 N        1.9760     2.8520    -1.1230 N.am  1 <1>  -0.4200 
  4 N        3.1470     0.9310    -0.3450 N.am  1 <1>  -0.4200 
  5 C        3.1300     3.3820    -1.6450 C.2   1 <1>   0.5690 
  6 C        0.7580     3.7010    -1.0550 C.3   1 <1>   0.0600 
  7 C        4.3320     1.4110    -0.8460 C.2   1 <1>   0.5690 
  8 C        3.1700    -0.2570     0.5490 C.3   1 <1>   0.0600 
  9 O        3.1090     4.2020    -2.5360 O.2   1 <1>  -0.5700 
 10 C        4.4770     2.8940    -1.1400 C.3   1 <1>   0.0420 
 11 O        5.2580     0.6760    -1.1080 O.2   1 <1>  -0.5700 
 12 C        5.0310     3.7210     0.0690 C.3   1 <1>  -0.1060 
 13 C        4.0200     3.5740     1.2260 C.2   1 <1>   0.9060 
 14 C        5.2010     5.2250    -0.3000 C.3   1 <1>  -0.1600 
 15 C        6.4310     3.2070     0.5180 C.3   1 <1>  -0.1600 
 16 O        3.0680     4.3580     1.3020 O.co2 1 <1>  -0.9000 
 17 O        4.1270     2.6210     2.0050 O.co2 1 <1>  -0.9000 
 18 C        6.2950     5.4900    -1.3460 C.3   1 <1>  -0.1600 
 19 C        7.5430     3.4430    -0.5160 C.3   1 <1>  -0.1600 
 20 C        7.6460     4.9270    -0.8890 C.3   1 <1>  -0.1600 
 21 H       -0.0970     3.1420    -1.3900 H     1 <1>   0.0800 
 22 H        0.8670     4.5810    -1.6630 H     1 <1>   0.0800 
 23 H        0.6070     4.0050    -0.0320 H     1 <1>   0.0800 
 24 H        2.3930    -0.9440     0.2650 H     1 <1>   0.0800 
 25 H        3.0050     0.0700     1.5620 H     1 <1>   0.0800 
 26 H        4.1210    -0.7580     0.5000 H     1 <1>   0.0800 
 27 H        5.1570     2.9750    -1.9630 H     1 <1>   0.0800 
 28 H        5.4480     5.7640     0.5990 H     1 <1>   0.0800 
 29 H        4.2680     5.6340    -0.6470 H     1 <1>   0.0800 
 30 H        6.3850     2.1590     0.7610 H     1 <1>   0.0800 
 31 H        6.6980     3.7140     1.4300 H     1 <1>   0.0800 
 32 H        6.3850     6.5510    -1.4980 H     1 <1>   0.0800 
 33 H        6.0160     5.0540    -2.2880 H     1 <1>   0.0800 
 34 H        7.3550     2.8560    -1.3980 H     1 <1>   0.0800 
 35 H        8.4810     3.1130    -0.1050 H     1 <1>   0.0800 
 36 H        7.9810     5.4800    -0.0280 H     1 <1>   0.0800 
 37 H        8.3750     5.0550    -1.6690 H     1 <1>   0.0800 
@<TRIPOS>BOND
  1   1   2  2   
  2   2   3  am  
  3   2   4  am  
  4   3   5  am  
  5   3   6  1   
  6   4   7  am  
  7   4   8  1   
  8   5   9  2   
  9   5  10  1   
 10   6  21  1   
 11   6  22  1   
 12   6  23  1   
 13   7  10  1   
 14   7  11  2   
 15   8  24  1   
 16   8  25  1   
 17   8  26  1   
 18  10  12  1   
 19  10  27  1   
 20  12  13  1   
 21  12  14  1   
 22  12  15  1   
 23  13  16  ar  
 24  13  17  ar  
 25  14  18  1   
 26  14  28  1   
 27  14  29  1   
 28  15  19  1   
 29  15  30  1   
 30  15  31  1   
 31  18  20  1   
 32  18  32  1   
 33  18  33  1   
 34  19  20  1   
 35  19  34  1   
 36  19  35  1   
 37  20  36  1   
 38  20  37  1   
@<TRIPOS>SUBSTRUCTURE
  1 ****  10 GROUP 4 **** **** 0

# MOE 2024.06 (io_trps.svl 2023.06)
