@<TRIPOS>MOLECULE
NONAME
59 61 1 0 0 
SMALL
USER_CHARGES


@<TRIPOS>ATOM
  1 O        0.5810     1.0360    -1.6020 O.2   1 <1>  -0.5700 
  2 C        1.1130     1.9060    -0.9540 C.2   1 <1>   0.6900 
  3 N        0.6960     3.1880    -1.0620 N.am  1 <1>  -0.5390 
  4 N        2.1170     1.6320    -0.1080 N.am  1 <1>  -0.7300 
  5 C        1.2170     4.2550    -0.3570 C.2   1 <1>  -0.0290 
  6 C        2.8910     2.6630     0.6100 C.3   1 <1>   0.5020 
  7 C        2.2840     4.0670     0.4710 C.2   1 <1>  -0.1240 
  8 C        0.4940     5.5850    -0.6100 C.3   1 <1>   0.2480 
  9 C        4.3260     2.6030     0.0790 C.ar  1 <1>  -0.1430 
 10 C        2.9620     5.0590     1.2490 C.2   1 <1>   0.7060 
 11 N       -0.9740     5.3930    -0.7330 N.3   1 <1>  -0.8100 
 12 C        5.3770     2.0600     0.8190 C.ar  1 <1>  -0.1440 
 13 C        4.5850     3.1090    -1.1890 C.ar  1 <1>  -0.1500 
 14 O        2.8550     6.2530     1.0430 O.2   1 <1>  -0.5700 
 15 O        3.7430     4.6540     2.2580 O.3   1 <1>  -0.4300 
 16 C       -1.5750     4.9580     0.5550 C.3   1 <1>   0.1100 
 17 C       -1.6290     6.6360    -1.2070 C.3   1 <1>   0.1100 
 18 C        6.6560     2.0540     0.2830 C.ar  1 <1>  -0.1500 
 19 C        5.1790     1.4680     2.2090 C.3   1 <1>  -0.0970 
 20 C        5.8620     3.0990    -1.7210 C.ar  1 <1>  -0.1430 
 21 C        4.6060     5.5240     2.9610 C.3   1 <1>   0.1200 
 22 C       -3.1080     4.7580     0.4570 C.3   1 <1>   0.3430 
 23 C       -3.1730     6.5080    -1.2840 C.3   1 <1>   0.3430 
 24 C        6.8990     2.5710    -0.9760 C.ar  1 <1>  -0.1500 
 25 C        6.1090     3.6670    -3.1070 C.3   1 <1>  -0.0970 
 26 C        5.9050     5.6640     2.1690 C.3   1 <1>  -0.2400 
 27 N       -3.6280     5.1300    -0.9020 N.4   1 <1>  -0.9590 
 28 C       -5.0990     4.9280    -1.0470 C.3   1 <1>   0.2630 
 29 H       -0.0970     3.3370    -1.6860 H     1 <1>   0.3700 
 30 H        2.5810     0.7340    -0.2280 H     1 <1>   0.3700 
 31 H        2.8680     2.4000     1.6520 H     1 <1>   0.0800 
 32 H        0.8760     5.9950    -1.5300 H     1 <1>   0.0800 
 33 H        0.6890     6.2960     0.1730 H     1 <1>   0.0800 
 34 H        3.7810     3.5160    -1.7780 H     1 <1>   0.1500 
 35 H       -1.3650     5.6860     1.3200 H     1 <1>   0.0800 
 36 H       -1.1310     4.0290     0.8700 H     1 <1>   0.0800 
 37 H       -1.2540     6.8840    -2.1860 H     1 <1>   0.0800 
 38 H       -1.3810     7.4550    -0.5520 H     1 <1>   0.0800 
 39 H        7.4780     1.6440     0.8410 H     1 <1>   0.1500 
 40 H        4.8880     2.2360     2.9020 H     1 <1>   0.0800 
 41 H        6.0880     1.0210     2.5700 H     1 <1>   0.0800 
 42 H        4.4230     0.7040     2.1850 H     1 <1>   0.0800 
 43 H        4.8010     5.0820     3.9230 H     1 <1>   0.0800 
 44 H        4.1230     6.4760     3.1050 H     1 <1>   0.0800 
 45 H       -3.5900     5.3550     1.2130 H     1 <1>   0.0800 
 46 H       -3.3360     3.7250     0.6630 H     1 <1>   0.0800 
 47 H       -3.4910     6.7350    -2.2890 H     1 <1>   0.0800 
 48 H       -3.6190     7.2360    -0.6280 H     1 <1>   0.0800 
 49 H        7.9000     2.5560    -1.3710 H     1 <1>   0.1500 
 50 H        5.3800     3.2810    -3.7970 H     1 <1>   0.0800 
 51 H        7.0880     3.3990    -3.4610 H     1 <1>   0.0800 
 52 H        6.0310     4.7390    -3.0800 H     1 <1>   0.0800 
 53 H        6.3570     4.6990     2.0200 H     1 <1>   0.0800 
 54 H        6.5940     6.2870     2.7090 H     1 <1>   0.0800 
 55 H        5.7140     6.1190     1.2140 H     1 <1>   0.0800 
 56 H       -3.1110     4.5060    -1.5440 H     1 <1>   0.4500 
 57 H       -5.6340     5.5780    -0.3750 H     1 <1>   0.0800 
 58 H       -5.3600     3.9070    -0.8210 H     1 <1>   0.0800 
 59 H       -5.4070     5.1440    -2.0570 H     1 <1>   0.0800 
@<TRIPOS>BOND
  1   1   2  2   
  2   2   3  am  
  3   2   4  am  
  4   3   5  1   
  5   3  29  1   
  6   4   6  1   
  7   4  30  1   
  8   5   7  2   
  9   5   8  1   
 10   6   7  1   
 11   6   9  1   
 12   6  31  1   
 13   7  10  1   
 14   8  11  1   
 15   8  32  1   
 16   8  33  1   
 17   9  12  ar  
 18   9  13  ar  
 19  10  14  2   
 20  10  15  1   
 21  11  16  1   
 22  11  17  1   
 23  12  18  ar  
 24  12  19  1   
 25  13  20  ar  
 26  13  34  1   
 27  15  21  1   
 28  16  22  1   
 29  16  35  1   
 30  16  36  1   
 31  17  23  1   
 32  17  37  1   
 33  17  38  1   
 34  18  24  ar  
 35  18  39  1   
 36  19  40  1   
 37  19  41  1   
 38  19  42  1   
 39  20  24  ar  
 40  20  25  1   
 41  21  26  1   
 42  21  43  1   
 43  21  44  1   
 44  22  27  1   
 45  22  45  1   
 46  22  46  1   
 47  23  27  1   
 48  23  47  1   
 49  23  48  1   
 50  24  49  1   
 51  25  50  1   
 52  25  51  1   
 53  25  52  1   
 54  26  53  1   
 55  26  54  1   
 56  26  55  1   
 57  27  28  1   
 58  27  56  1   
 59  28  57  1   
 60  28  58  1   
 61  28  59  1   
@<TRIPOS>SUBSTRUCTURE
  1 ****   7 GROUP 4 **** **** 0

# MOE 2024.06 (io_trps.svl 2023.06)
