@<TRIPOS>MOLECULE
NONAME
51 54 1 0 0 
SMALL
USER_CHARGES


@<TRIPOS>ATOM
  1 O       -0.4480    -0.5040     0.6630 O.3   1 <1>  -0.3630 
  2 C        0.8950    -0.7200     0.5650 C.ar  1 <1>   0.0830 
  3 C       -1.1330     0.2410    -0.3220 C.3   1 <1>   0.2640 
  4 C        1.8300     0.1640     0.0050 C.ar  1 <1>   0.0830 
  5 C        1.3340    -1.9260     1.0810 C.ar  1 <1>  -0.1500 
  6 C       -2.6090    -0.1280    -0.2840 C.ar  1 <1>  -0.1440 
  7 O        1.4200     1.3800    -0.4660 O.3   1 <1>  -0.3630 
  8 C        3.1680    -0.2140    -0.0450 C.ar  1 <1>  -0.1500 
  9 C        2.6700    -2.2730     1.0340 C.ar  1 <1>  -0.1500 
 10 C       -3.2180    -0.7150    -1.3830 C.ar  1 <1>  -0.1500 
 11 C       -3.3600     0.1260     0.8540 C.ar  1 <1>  -0.1500 
 12 C        2.3440     2.4180    -0.7130 C.3   1 <1>   0.0400 
 13 C        3.6230    -1.4280     0.4690 C.ar  1 <1>   0.0280 
 14 C       -4.5630    -1.0390    -1.3460 C.ar  1 <1>  -0.1500 
 15 C       -4.7050    -0.1980     0.8920 C.ar  1 <1>  -0.1500 
 16 C        5.0050    -1.8450     0.4380 C.2   1 <1>  -0.1780 
 17 C       -5.3080    -0.7800    -0.2090 C.ar  1 <1>  -0.1500 
 18 C        6.1570    -1.1660     0.2130 C.2   1 <1>  -0.0380 
 19 N        6.2770     0.2010    -0.0540 N.pl3 1 <1>  -0.8380 
 20 C        7.5210    -1.8860     0.2510 C.3   1 <1>   0.3380 
 21 C        7.0680     0.9000     1.0050 C.3   1 <1>   0.2090 
 22 C        6.9290     0.4430    -1.3780 C.3   1 <1>   0.2090 
 23 O        7.6830    -2.4470     1.5040 O.3   1 <1>  -0.6800 
 24 C        8.6330    -0.8370     0.0040 C.3   1 <1>  -0.0800 
 25 C        8.4970     0.3050     1.0440 C.3   1 <1>  -0.1600 
 26 C        8.3390    -0.1980    -1.3740 C.3   1 <1>  -0.1600 
 27 H       -1.0080     1.2860    -0.1020 H     1 <1>   0.0800 
 28 H       -0.7040     0.0150    -1.2820 H     1 <1>   0.0800 
 29 H        0.6160    -2.5950     1.5200 H     1 <1>   0.1500 
 30 H        3.8920     0.4300    -0.4940 H     1 <1>   0.1500 
 31 H        2.9790    -3.2170     1.4450 H     1 <1>   0.1500 
 32 H       -2.6480    -0.9230    -2.2710 H     1 <1>   0.1500 
 33 H       -2.8930     0.5730     1.7140 H     1 <1>   0.1500 
 34 H        1.7920     3.3160    -0.9200 H     1 <1>   0.0800 
 35 H        2.9470     2.1550    -1.5640 H     1 <1>   0.0800 
 36 H        2.9560     2.5570     0.1620 H     1 <1>   0.0800 
 37 H       -5.0300    -1.4940    -2.2020 H     1 <1>   0.1500 
 38 H       -5.2800     0.0020     1.7790 H     1 <1>   0.1500 
 39 H        5.1130    -2.8950     0.6410 H     1 <1>   0.1500 
 40 H       -6.3540    -1.0320    -0.1800 H     1 <1>   0.1500 
 41 H        7.5630    -2.6760    -0.4790 H     1 <1>   0.0800 
 42 H        7.1030     1.9560     0.7970 H     1 <1>   0.0800 
 43 H        6.5800     0.7600     1.9550 H     1 <1>   0.0800 
 44 H        6.3240     0.0030    -2.1530 H     1 <1>   0.0800 
 45 H        6.9960     1.5020    -1.5630 H     1 <1>   0.0800 
 46 H        7.2350    -1.8540     2.1360 H     1 <1>   0.4000 
 47 H        9.6070    -1.2920     0.0230 H     1 <1>   0.0800 
 48 H        9.2110     1.0810     0.8370 H     1 <1>   0.0800 
 49 H        8.7060    -0.0610     2.0330 H     1 <1>   0.0800 
 50 H        8.3900    -0.9450    -2.1460 H     1 <1>   0.0800 
 51 H        9.0740     0.5520    -1.6040 H     1 <1>   0.0800 
@<TRIPOS>BOND
  1   1   2  1   
  2   1   3  1   
  3   2   4  ar  
  4   2   5  ar  
  5   3   6  1   
  6   3  27  1   
  7   3  28  1   
  8   4   7  1   
  9   4   8  ar  
 10   5   9  ar  
 11   5  29  1   
 12   6  10  ar  
 13   6  11  ar  
 14   7  12  1   
 15   8  13  ar  
 16   8  30  1   
 17   9  13  ar  
 18   9  31  1   
 19  10  14  ar  
 20  10  32  1   
 21  11  15  ar  
 22  11  33  1   
 23  12  34  1   
 24  12  35  1   
 25  12  36  1   
 26  13  16  1   
 27  14  17  ar  
 28  14  37  1   
 29  15  17  ar  
 30  15  38  1   
 31  16  18  2   
 32  16  39  1   
 33  17  40  1   
 34  18  19  1   
 35  18  20  1   
 36  19  21  1   
 37  19  22  1   
 38  20  23  1   
 39  20  24  1   
 40  20  41  1   
 41  21  25  1   
 42  21  42  1   
 43  21  43  1   
 44  22  26  1   
 45  22  44  1   
 46  22  45  1   
 47  23  46  1   
 48  24  25  1   
 49  24  26  1   
 50  24  47  1   
 51  25  48  1   
 52  25  49  1   
 53  26  50  1   
 54  26  51  1   
@<TRIPOS>SUBSTRUCTURE
  1 ****   8 GROUP 4 **** **** 0

# MOE 2024.06 (io_trps.svl 2023.06)
