@<TRIPOS>MOLECULE
NONAME
47 48 1 0 0 
SMALL
USER_CHARGES


@<TRIPOS>ATOM
  1 CL       1.2380    -1.0170    -2.6960 Cl    1 <1>  -0.1770 
  2 C        0.3450    -1.3190    -1.2270 C.ar  1 <1>   0.1770 
  3 C        1.0330    -1.5200    -0.0420 C.ar  1 <1>  -0.1440 
  4 C       -1.0390    -1.3380    -1.2760 C.ar  1 <1>  -0.1500 
  5 C        0.2780    -1.7300     1.0970 C.ar  1 <1>   0.1900 
  6 C        2.5450    -1.5200     0.0140 C.3   1 <1>   0.4860 
  7 C       -1.7670    -1.5570    -0.1160 C.ar  1 <1>  -0.1500 
  8 F        0.8980    -1.9040     2.2340 F     1 <1>  -0.1900 
  9 C       -1.1050    -1.7540     1.0850 C.ar  1 <1>  -0.1500 
 10 N        3.0240    -0.2570     0.6410 N.4   1 <1>  -0.9590 
 11 C        2.6870     0.9400    -0.1850 C.3   1 <1>   0.3430 
 12 C        4.4770    -0.3330     0.9530 C.3   1 <1>   0.3430 
 13 C        3.0730     2.2100     0.5700 C.3   1 <1>  -0.1600 
 14 C        4.8910     0.9060     1.7400 C.3   1 <1>  -0.1600 
 15 C        4.5540     2.2110     0.9890 C.3   1 <1>  -0.0190 
 16 C        4.8640     3.4490     1.8350 C.2   1 <1>   0.5690 
 17 O        4.6510     3.4060     3.0190 O.2   1 <1>  -0.5700 
 18 N        5.3450     4.5910     1.2930 N.am  1 <1>  -0.7300 
 19 C        5.5510     4.9860    -0.1220 C.3   1 <1>   0.1400 
 20 C        4.8310     6.3110    -0.4180 C.3   1 <1>  -0.0800 
 21 C        3.3080     6.1980    -0.2400 C.3   1 <1>  -0.2400 
 22 C        5.1450     6.7720    -1.8460 C.3   1 <1>  -0.2400 
 23 H       -1.5450    -1.1830    -2.2150 H     1 <1>   0.1500 
 24 H        2.9580    -1.6240    -0.9760 H     1 <1>   0.0800 
 25 H        2.8680    -2.3640     0.6020 H     1 <1>   0.0800 
 26 H       -2.8450    -1.5740    -0.1490 H     1 <1>   0.1500 
 27 H       -1.6540    -1.9250     1.9970 H     1 <1>   0.1500 
 28 H        2.5210    -0.1660     1.5370 H     1 <1>   0.4500 
 29 H        1.6300     0.9610    -0.3960 H     1 <1>   0.0800 
 30 H        3.2170     0.8990    -1.1230 H     1 <1>   0.0800 
 31 H        5.0480    -0.3890     0.0390 H     1 <1>   0.0800 
 32 H        4.6860    -1.2140     1.5400 H     1 <1>   0.0800 
 33 H        2.4490     2.3080     1.4430 H     1 <1>   0.0800 
 34 H        2.8780     3.0620    -0.0570 H     1 <1>   0.0800 
 35 H        5.9490     0.8700     1.9300 H     1 <1>   0.0800 
 36 H        4.3980     0.8890     2.6980 H     1 <1>   0.0800 
 37 H        5.1670     2.2400     0.1070 H     1 <1>   0.0800 
 38 H        5.5140     5.3390     1.9710 H     1 <1>   0.3700 
 39 H        5.1840     4.2270    -0.7880 H     1 <1>   0.0800 
 40 H        6.6080     5.1050    -0.2950 H     1 <1>   0.0800 
 41 H        5.2050     7.0600     0.2600 H     1 <1>   0.0800 
 42 H        2.8990     5.4650    -0.9120 H     1 <1>   0.0800 
 43 H        2.8410     7.1450    -0.4440 H     1 <1>   0.0800 
 44 H        3.0610     5.9190     0.7690 H     1 <1>   0.0800 
 45 H        4.7880     6.0590    -2.5680 H     1 <1>   0.0800 
 46 H        6.2060     6.8930    -1.9780 H     1 <1>   0.0800 
 47 H        4.6750     7.7200    -2.0430 H     1 <1>   0.0800 
@<TRIPOS>BOND
  1   1   2  1   
  2   2   3  ar  
  3   2   4  ar  
  4   3   5  ar  
  5   3   6  1   
  6   4   7  ar  
  7   4  23  1   
  8   5   8  1   
  9   5   9  ar  
 10   6  10  1   
 11   6  24  1   
 12   6  25  1   
 13   7   9  ar  
 14   7  26  1   
 15   9  27  1   
 16  10  11  1   
 17  10  12  1   
 18  10  28  1   
 19  11  13  1   
 20  11  29  1   
 21  11  30  1   
 22  12  14  1   
 23  12  31  1   
 24  12  32  1   
 25  13  15  1   
 26  13  33  1   
 27  13  34  1   
 28  14  15  1   
 29  14  35  1   
 30  14  36  1   
 31  15  16  1   
 32  15  37  1   
 33  16  17  2   
 34  16  18  am  
 35  18  19  1   
 36  18  38  1   
 37  19  20  1   
 38  19  39  1   
 39  19  40  1   
 40  20  21  1   
 41  20  22  1   
 42  20  41  1   
 43  21  42  1   
 44  21  43  1   
 45  21  44  1   
 46  22  45  1   
 47  22  46  1   
 48  22  47  1   
@<TRIPOS>SUBSTRUCTURE
  1 ****  11 GROUP 4 **** **** 0

# MOE 2024.06 (io_trps.svl 2023.06)
