@<TRIPOS>MOLECULE
NONAME
50 52 1 0 0 
SMALL
USER_CHARGES


@<TRIPOS>ATOM
  1 O       -0.5190    -0.7720    -0.8120 O.3   1 <1>  -0.3630 
  2 C       -1.7530    -1.3120    -0.6740 C.ar  1 <1>   0.0830 
  3 C        0.4370    -0.8340     0.2210 C.3   1 <1>   0.1200 
  4 C       -2.2240    -1.8880     0.5020 C.ar  1 <1>  -0.1500 
  5 C       -2.5740    -1.2770    -1.7880 C.ar  1 <1>  -0.1500 
  6 C        1.7180    -0.1770    -0.2830 C.3   1 <1>  -0.2400 
  7 C       -3.5030    -2.4140     0.5530 C.ar  1 <1>  -0.1500 
  8 C       -3.8520    -1.8040    -1.7390 C.ar  1 <1>  -0.1500 
  9 C       -4.3270    -2.3690    -0.5640 C.ar  1 <1>  -0.1430 
 10 C       -5.7370    -2.9250    -0.5040 C.3   1 <1>   0.4860 
 11 N       -6.5970    -1.9650     0.2390 N.4   1 <1>  -0.9590 
 12 C       -7.9770    -2.5200     0.4860 C.3   1 <1>   0.3430 
 13 C       -6.6680    -0.6220    -0.4510 C.3   1 <1>   0.3430 
 14 C       -8.8750    -1.5470     1.2790 C.3   1 <1>   0.2090 
 15 C       -7.5450     0.3950     0.3080 C.3   1 <1>   0.2090 
 16 N       -8.8710    -0.1820     0.6800 N.pl3 1 <1>  -0.8380 
 17 C       -9.9850     0.1970    -0.0670 C.ar  1 <1>   0.1000 
 18 C      -10.9700     1.0170     0.4840 C.ar  1 <1>  -0.1430 
 19 C      -10.1310    -0.2430    -1.3790 C.ar  1 <1>  -0.1500 
 20 C      -12.0710     1.3770    -0.2750 C.ar  1 <1>  -0.1500 
 21 C      -10.8490     1.5260     1.9140 C.3   1 <1>  -0.0970 
 22 C      -11.2320     0.1190    -2.1310 C.ar  1 <1>  -0.1500 
 23 C      -12.2050     0.9310    -1.5780 C.ar  1 <1>  -0.1500 
 24 H        0.6110    -1.8680     0.4640 H     1 <1>   0.0800 
 25 H        0.0510    -0.3060     1.0760 H     1 <1>   0.0800 
 26 H       -1.6060    -1.9350     1.3800 H     1 <1>   0.1500 
 27 H       -2.1960    -0.8370    -2.6950 H     1 <1>   0.1500 
 28 H        2.0870    -0.7010    -1.1460 H     1 <1>   0.0800 
 29 H        2.4700    -0.2080     0.4850 H     1 <1>   0.0800 
 30 H        1.5310     0.8500    -0.5390 H     1 <1>   0.0800 
 31 H       -3.8400    -2.8610     1.4740 H     1 <1>   0.1500 
 32 H       -4.4600    -1.7660    -2.6270 H     1 <1>   0.1500 
 33 H       -5.7210    -3.8790    -0.0020 H     1 <1>   0.0800 
 34 H       -6.1160    -3.0710    -1.5030 H     1 <1>   0.0800 
 35 H       -6.1470    -1.7990     1.1470 H     1 <1>   0.4500 
 36 H       -7.9110    -3.4490     1.0270 H     1 <1>   0.0800 
 37 H       -8.4590    -2.7200    -0.4560 H     1 <1>   0.0800 
 38 H       -7.0800    -0.7460    -1.4380 H     1 <1>   0.0800 
 39 H       -5.6780    -0.2100    -0.5590 H     1 <1>   0.0800 
 40 H       -8.5360    -1.4830     2.2990 H     1 <1>   0.0800 
 41 H       -9.8840    -1.9250     1.2970 H     1 <1>   0.0800 
 42 H       -7.6960     1.2670    -0.3070 H     1 <1>   0.0800 
 43 H       -7.0400     0.7160     1.2020 H     1 <1>   0.0800 
 44 H       -9.3850    -0.8730    -1.8170 H     1 <1>   0.1500 
 45 H      -12.8360     2.0090     0.1430 H     1 <1>   0.1500 
 46 H      -10.8410     0.6970     2.5960 H     1 <1>   0.0800 
 47 H      -11.6690     2.1730     2.1680 H     1 <1>   0.0800 
 48 H       -9.9320     2.0770     2.0270 H     1 <1>   0.0800 
 49 H      -11.3390    -0.2260    -3.1450 H     1 <1>   0.1500 
 50 H      -13.0660     1.2170    -2.1580 H     1 <1>   0.1500 
@<TRIPOS>BOND
  1   1   2  1   
  2   1   3  1   
  3   2   4  ar  
  4   2   5  ar  
  5   3   6  1   
  6   3  24  1   
  7   3  25  1   
  8   4   7  ar  
  9   4  26  1   
 10   5   8  ar  
 11   5  27  1   
 12   6  28  1   
 13   6  29  1   
 14   6  30  1   
 15   7   9  ar  
 16   7  31  1   
 17   8   9  ar  
 18   8  32  1   
 19   9  10  1   
 20  10  11  1   
 21  10  33  1   
 22  10  34  1   
 23  11  12  1   
 24  11  13  1   
 25  11  35  1   
 26  12  14  1   
 27  12  36  1   
 28  12  37  1   
 29  13  15  1   
 30  13  38  1   
 31  13  39  1   
 32  14  16  1   
 33  14  40  1   
 34  14  41  1   
 35  15  16  1   
 36  15  42  1   
 37  15  43  1   
 38  16  17  1   
 39  17  18  ar  
 40  17  19  ar  
 41  18  20  ar  
 42  18  21  1   
 43  19  22  ar  
 44  19  44  1   
 45  20  23  ar  
 46  20  45  1   
 47  21  46  1   
 48  21  47  1   
 49  21  48  1   
 50  22  23  ar  
 51  22  49  1   
 52  23  50  1   
@<TRIPOS>SUBSTRUCTURE
  1 ****  13 GROUP 4 **** **** 0

# MOE 2024.06 (io_trps.svl 2023.06)
