@<TRIPOS>MOLECULE
NONAME
42 42 1 0 0 
SMALL
USER_CHARGES


@<TRIPOS>ATOM
  1 O        6.1270    -2.4240     0.3190 O.3   1 <1>  -0.3630 
  2 C        7.2220    -1.6530     0.0820 C.ar  1 <1>   0.0820 
  3 C        6.1400    -3.8080     0.0800 C.3   1 <1>   0.1200 
  4 C        7.1370    -0.2990     0.3920 C.ar  1 <1>  -0.1440 
  5 C        8.4050    -2.1620    -0.4500 C.ar  1 <1>  -0.1500 
  6 C        4.7680    -4.3500     0.4940 C.3   1 <1>   0.3430 
  7 C        8.2290     0.5240     0.1700 C.ar  1 <1>  -0.1500 
  8 C        5.8590     0.2920     0.9730 C.3   1 <1>  -0.0960 
  9 C        9.4870    -1.3290    -0.6660 C.ar  1 <1>  -0.1500 
 10 N        4.6220    -5.8350     0.3110 N.4   1 <1>  -0.9590 
 11 C        9.4050     0.0180    -0.3590 C.ar  1 <1>  -0.1440 
 12 C        3.2260    -6.2800     0.4950 C.3   1 <1>   0.4810 
 13 C        5.5490    -6.6210     1.1550 C.3   1 <1>   0.4810 
 14 C       10.5920     0.9350    -0.5940 C.3   1 <1>  -0.0970 
 15 C        2.4670    -5.8720    -0.7450 C.2   1 <1>  -0.2880 
 16 C        6.7590    -7.0080     0.3240 C.2   1 <1>  -0.2880 
 17 C        2.0930    -6.7020    -1.7250 C.2   1 <1>  -0.3000 
 18 C        6.9840    -6.8630    -0.9900 C.2   1 <1>  -0.3000 
 19 H        6.9280    -4.2360     0.6740 H     1 <1>   0.0800 
 20 H        6.3160    -3.9630    -0.9690 H     1 <1>   0.0800 
 21 H        8.5140    -3.1980    -0.7050 H     1 <1>   0.1500 
 22 H        4.0260    -3.8430    -0.1010 H     1 <1>   0.0800 
 23 H        4.5980    -4.0970     1.5270 H     1 <1>   0.0800 
 24 H        8.1680     1.5710     0.4100 H     1 <1>   0.1500 
 25 H        5.6270    -0.1880     1.9060 H     1 <1>   0.0800 
 26 H        5.0440     0.1400     0.2890 H     1 <1>   0.0800 
 27 H        5.9650     1.3470     1.1490 H     1 <1>   0.0800 
 28 H       10.3970    -1.7310    -1.0750 H     1 <1>   0.1500 
 29 H        4.8570    -6.0770    -0.6590 H     1 <1>   0.4500 
 30 H        2.7870    -5.8460     1.3800 H     1 <1>   0.0800 
 31 H        3.1930    -7.3550     0.5820 H     1 <1>   0.0800 
 32 H        5.0690    -7.5200     1.5080 H     1 <1>   0.0800 
 33 H        5.8540    -6.0410     2.0120 H     1 <1>   0.0800 
 34 H       10.2560     1.9130    -0.8900 H     1 <1>   0.0800 
 35 H       11.2240     0.5450    -1.3710 H     1 <1>   0.0800 
 36 H       11.1670     1.0230     0.3100 H     1 <1>   0.0800 
 37 H        2.2350    -4.8200    -0.7750 H     1 <1>   0.1500 
 38 H        7.5050    -7.4720     0.9500 H     1 <1>   0.1500 
 39 H        1.5450    -6.3860    -2.6000 H     1 <1>   0.1500 
 40 H        2.2870    -7.7620    -1.7510 H     1 <1>   0.1500 
 41 H        7.8990    -7.1900    -1.4620 H     1 <1>   0.1500 
 42 H        6.3250    -6.4300    -1.7230 H     1 <1>   0.1500 
@<TRIPOS>BOND
  1   1   2  1   
  2   1   3  1   
  3   2   4  ar  
  4   2   5  ar  
  5   3   6  1   
  6   3  19  1   
  7   3  20  1   
  8   4   7  ar  
  9   4   8  1   
 10   5   9  ar  
 11   5  21  1   
 12   6  10  1   
 13   6  22  1   
 14   6  23  1   
 15   7  11  ar  
 16   7  24  1   
 17   8  25  1   
 18   8  26  1   
 19   8  27  1   
 20   9  11  ar  
 21   9  28  1   
 22  10  12  1   
 23  10  13  1   
 24  10  29  1   
 25  11  14  1   
 26  12  15  1   
 27  12  30  1   
 28  12  31  1   
 29  13  16  1   
 30  13  32  1   
 31  13  33  1   
 32  14  34  1   
 33  14  35  1   
 34  14  36  1   
 35  15  17  2   
 36  15  37  1   
 37  16  18  2   
 38  16  38  1   
 39  17  39  1   
 40  17  40  1   
 41  18  41  1   
 42  18  42  1   
@<TRIPOS>SUBSTRUCTURE
  1 ****   3 GROUP 4 **** **** 0

# MOE 2024.06 (io_trps.svl 2023.06)
