@<TRIPOS>MOLECULE
NONAME
44 45 1 0 0 
SMALL
USER_CHARGES


@<TRIPOS>ATOM
  1 S        0.2170    -0.6360     0.2820 S.3   1 <1>  -0.0800 
  2 C        1.2250     0.6460    -0.3150 C.2   1 <1>   0.4420 
  3 C       -1.1470     0.3760    -0.0530 C.2   1 <1>   0.1980 
  4 N        0.5410     1.6600    -0.6980 N.2   1 <1>  -0.3380 
  5 N        2.5980     0.5370    -0.3670 N.am  1 <1>  -0.4940 
  6 N       -0.8090     1.5010    -0.5460 N.2   1 <1>  -0.3380 
  7 C       -2.5310    -0.1790     0.2700 C.3   1 <1>   0.1000 
  8 C        3.4580    -0.4480     0.0360 C.2   1 <1>   0.5690 
  9 C       -3.6330     0.5490    -0.5130 C.3   1 <1>  -0.2400 
 10 C       -2.8120    -0.0870     1.7750 C.3   1 <1>  -0.2400 
 11 O        3.0990    -1.4370     0.6260 O.2   1 <1>  -0.5700 
 12 C        4.9460    -0.2880    -0.2870 C.3   1 <1>   0.2110 
 13 S        5.4040     1.5120    -0.1850 S.3   1 <1>  -0.3310 
 14 C        5.3250    -0.7740    -1.7000 C.3   1 <1>  -0.1600 
 15 C        7.1420     1.5380     0.2200 C.ar  1 <1>   0.7220 
 16 C        5.0960    -2.2790    -1.8910 C.3   1 <1>  -0.2400 
 17 N        7.7220     0.3590     0.3810 N.ar  1 <1>  -0.6200 
 18 N        7.6620     2.7480     0.3110 N.ar  1 <1>  -0.6200 
 19 C        8.9990     0.4160     0.6770 C.ar  1 <1>   0.1670 
 20 C        8.9390     2.7740     0.6080 C.ar  1 <1>   0.1670 
 21 C        9.6600     1.6170     0.8030 C.ar  1 <1>  -0.1500 
 22 C        9.7160    -0.9030     0.8750 C.3   1 <1>  -0.0970 
 23 C        9.5880     4.1370     0.7270 C.3   1 <1>  -0.0970 
 24 H        3.0500     1.3710    -0.7420 H     1 <1>   0.3700 
 25 H       -2.5470    -1.2160    -0.0200 H     1 <1>   0.0800 
 26 H       -3.6610     1.5900    -0.2420 H     1 <1>   0.0800 
 27 H       -4.5940     0.1110    -0.3090 H     1 <1>   0.0800 
 28 H       -3.4410     0.4780    -1.5690 H     1 <1>   0.0800 
 29 H       -2.7850     0.9400     2.0960 H     1 <1>   0.0800 
 30 H       -2.0700    -0.6360     2.3280 H     1 <1>   0.0800 
 31 H       -3.7790    -0.4970     2.0040 H     1 <1>   0.0800 
 32 H        5.5140    -0.8080     0.4630 H     1 <1>   0.0800 
 33 H        6.3660    -0.5640    -1.8750 H     1 <1>   0.0800 
 34 H        4.7510    -0.2320    -2.4320 H     1 <1>   0.0800 
 35 H        5.6580    -2.8400    -1.1640 H     1 <1>   0.0800 
 36 H        5.4170    -2.5780    -2.8740 H     1 <1>   0.0800 
 37 H        4.0540    -2.5280    -1.7860 H     1 <1>   0.0800 
 38 H       10.7050     1.6510     1.0460 H     1 <1>   0.1500 
 39 H        9.2530    -1.4480     1.6770 H     1 <1>   0.0800 
 40 H       10.7520    -0.7480     1.1130 H     1 <1>   0.0800 
 41 H        9.6490    -1.4880    -0.0240 H     1 <1>   0.0800 
 42 H        9.0950     4.7030     1.4970 H     1 <1>   0.0800 
 43 H        9.4890     4.6640    -0.2040 H     1 <1>   0.0800 
 44 H       10.6300     4.0510     0.9710 H     1 <1>   0.0800 
@<TRIPOS>BOND
  1   1   2  1   
  2   1   3  1   
  3   2   4  2   
  4   2   5  1   
  5   3   6  2   
  6   3   7  1   
  7   4   6  1   
  8   5   8  am  
  9   5  24  1   
 10   7   9  1   
 11   7  10  1   
 12   7  25  1   
 13   8  11  2   
 14   8  12  1   
 15   9  26  1   
 16   9  27  1   
 17   9  28  1   
 18  10  29  1   
 19  10  30  1   
 20  10  31  1   
 21  12  13  1   
 22  12  14  1   
 23  12  32  1   
 24  13  15  1   
 25  14  16  1   
 26  14  33  1   
 27  14  34  1   
 28  15  17  ar  
 29  15  18  ar  
 30  16  35  1   
 31  16  36  1   
 32  16  37  1   
 33  17  19  ar  
 34  18  20  ar  
 35  19  21  ar  
 36  19  22  1   
 37  20  21  ar  
 38  20  23  1   
 39  21  38  1   
 40  22  39  1   
 41  22  40  1   
 42  22  41  1   
 43  23  42  1   
 44  23  43  1   
 45  23  44  1   
@<TRIPOS>SUBSTRUCTURE
  1 ****   8 GROUP 4 **** **** 0

# MOE 2024.06 (io_trps.svl 2023.06)
