@<TRIPOS>MOLECULE
NONAME
45 46 1 0 0 
SMALL
USER_CHARGES


@<TRIPOS>ATOM
  1 O       -1.7030     0.5130    -1.3980 O.3   1 <1>  -0.5600 
  2 C       -2.1120    -0.8050    -1.1490 C.3   1 <1>   0.1200 
  3 C       -1.5050     1.2810    -0.2410 C.3   1 <1>   0.1200 
  4 C       -3.4470    -0.8350    -0.3680 C.3   1 <1>   0.3430 
  5 C       -2.7760     1.3100     0.6420 C.3   1 <1>   0.3430 
  6 N       -3.9040     0.5500     0.0040 N.4   1 <1>  -0.9590 
  7 C       -5.1480     0.5900     0.8180 C.3   1 <1>   0.3430 
  8 C       -6.3490     0.1280    -0.0110 C.3   1 <1>  -0.1600 
  9 C       -7.6480     0.2880     0.7910 C.3   1 <1>  -0.1600 
 10 C       -8.8700    -0.1510    -0.0180 C.3   1 <1>   0.1200 
 11 O      -10.0060     0.0430     0.7860 O.3   1 <1>  -0.3630 
 12 C      -11.1910    -0.2510     0.2050 C.ar  1 <1>   0.0820 
 13 C      -11.8780     0.7380    -0.4960 C.ar  1 <1>  -0.1430 
 14 C      -11.7140    -1.5380     0.3190 C.ar  1 <1>  -0.1430 
 15 C      -13.0760     0.4170    -1.1130 C.ar  1 <1>  -0.1500 
 16 C      -11.3480     2.1610    -0.5910 C.3   1 <1>  -0.0970 
 17 C      -12.9130    -1.8350    -0.3060 C.ar  1 <1>  -0.1500 
 18 C      -11.0020    -2.6190     1.1210 C.3   1 <1>  -0.0970 
 19 C      -13.5900    -0.8640    -1.0230 C.ar  1 <1>  -0.1500 
 20 H       -1.3360    -1.3080    -0.5980 H     1 <1>   0.0800 
 21 H       -2.2250    -1.2990    -2.0980 H     1 <1>   0.0800 
 22 H       -1.2470     2.2790    -0.5520 H     1 <1>   0.0800 
 23 H       -0.6700     0.8750     0.3050 H     1 <1>   0.0800 
 24 H       -3.3190    -1.4340     0.5180 H     1 <1>   0.0800 
 25 H       -4.1930    -1.3170    -0.9790 H     1 <1>   0.0800 
 26 H       -3.0640     2.3350     0.8040 H     1 <1>   0.0800 
 27 H       -2.5410     0.8830     1.6030 H     1 <1>   0.0800 
 28 H       -4.0670     1.0290    -0.8950 H     1 <1>   0.4500 
 29 H       -5.3280     1.6000     1.1500 H     1 <1>   0.0800 
 30 H       -5.0420    -0.0350     1.6910 H     1 <1>   0.0800 
 31 H       -6.2380    -0.9070    -0.2830 H     1 <1>   0.0800 
 32 H       -6.4180     0.7200    -0.9070 H     1 <1>   0.0800 
 33 H       -7.7800     1.3210     1.0690 H     1 <1>   0.0800 
 34 H       -7.6010    -0.3060     1.6880 H     1 <1>   0.0800 
 35 H       -8.8150    -1.1940    -0.2780 H     1 <1>   0.0800 
 36 H       -8.9820     0.4390    -0.9110 H     1 <1>   0.0800 
 37 H      -13.6190     1.1640    -1.6660 H     1 <1>   0.1500 
 38 H      -10.9320     2.4660     0.3530 H     1 <1>   0.0800 
 39 H      -12.1380     2.8450    -0.8440 H     1 <1>   0.0800 
 40 H      -10.5860     2.2200    -1.3460 H     1 <1>   0.0800 
 41 H      -13.3300    -2.8250    -0.2370 H     1 <1>   0.1500 
 42 H      -10.2090    -3.0460     0.5360 H     1 <1>   0.0800 
 43 H      -11.6870    -3.3990     1.3970 H     1 <1>   0.0800 
 44 H      -10.5900    -2.2010     2.0220 H     1 <1>   0.0800 
 45 H      -14.5200    -1.1050    -1.5060 H     1 <1>   0.1500 
@<TRIPOS>BOND
  1   1   2  1   
  2   1   3  1   
  3   2   4  1   
  4   2  20  1   
  5   2  21  1   
  6   3   5  1   
  7   3  22  1   
  8   3  23  1   
  9   4   6  1   
 10   4  24  1   
 11   4  25  1   
 12   5   6  1   
 13   5  26  1   
 14   5  27  1   
 15   6   7  1   
 16   6  28  1   
 17   7   8  1   
 18   7  29  1   
 19   7  30  1   
 20   8   9  1   
 21   8  31  1   
 22   8  32  1   
 23   9  10  1   
 24   9  33  1   
 25   9  34  1   
 26  10  11  1   
 27  10  35  1   
 28  10  36  1   
 29  11  12  1   
 30  12  13  ar  
 31  12  14  ar  
 32  13  15  ar  
 33  13  16  1   
 34  14  17  ar  
 35  14  18  1   
 36  15  19  ar  
 37  15  37  1   
 38  16  38  1   
 39  16  39  1   
 40  16  40  1   
 41  17  19  ar  
 42  17  41  1   
 43  18  42  1   
 44  18  43  1   
 45  18  44  1   
 46  19  45  1   
@<TRIPOS>SUBSTRUCTURE
  1 ****  10 GROUP 4 **** **** 0

# MOE 2024.06 (io_trps.svl 2023.06)
