@<TRIPOS>MOLECULE
NONAME
46 48 1 0 0 
SMALL
USER_CHARGES


@<TRIPOS>ATOM
  1 O        1.1950     0.1100     0.1280 O.2   1 <1>  -0.5700 
  2 C        1.2800    -1.0920     0.2560 C.2   1 <1>   0.5690 
  3 N        2.4160    -1.7700     0.5880 N.am  1 <1>  -0.4770 
  4 C        0.0990    -2.0810     0.1150 C.3   1 <1>   0.4850 
  5 C        2.1410    -3.1270     0.7350 C.ar  1 <1>   0.1170 
  6 C        3.7410    -1.1250     0.7030 C.3   1 <1>   0.2780 
  7 O       -0.3490    -2.1800    -1.2000 O.3   1 <1>  -0.6800 
  8 C        0.8090    -3.3870     0.4620 C.ar  1 <1>  -0.1440 
  9 C       -1.0590    -1.6750     1.0300 C.3   1 <1>  -0.0990 
 10 C        3.0010    -4.1570     1.0890 C.ar  1 <1>  -0.1500 
 11 C        4.4150    -1.0520    -0.6640 C.2   1 <1>  -0.2760 
 12 C        0.3260    -4.6840     0.5110 C.ar  1 <1>  -0.1500 
 13 C       -2.2970    -2.5220     0.8400 C.2   1 <1>   0.5950 
 14 C        2.5160    -5.4520     1.1510 C.ar  1 <1>  -0.1500 
 15 C        4.5820     0.1000    -1.3220 C.2   1 <1>  -0.3000 
 16 C        4.8900    -2.3820    -1.2290 C.3   1 <1>  -0.1020 
 17 C        1.1850    -5.7140     0.8600 C.ar  1 <1>  -0.1500 
 18 O       -2.3890    -3.5200     1.5090 O.2   1 <1>  -0.5700 
 19 C       -3.3120    -2.1150    -0.0980 C.2   1 <1>  -0.0860 
 20 C       -3.9420    -0.9190    -0.2900 C.2   1 <1>  -0.0400 
 21 C       -3.8940    -2.9370    -1.0710 C.2   1 <1>  -0.1810 
 22 O       -4.8140    -0.9140    -1.2800 O.3   1 <1>  -0.2800 
 23 C       -3.8140     0.3830     0.4760 C.3   1 <1>  -0.0600 
 24 C       -4.7670    -2.1580    -1.7320 C.2   1 <1>  -0.0100 
 25 C       -3.5650    -4.3990    -1.3070 C.3   1 <1>  -0.0590 
 26 H        4.3570    -1.6650     1.3990 H     1 <1>   0.0800 
 27 H        3.6040    -0.1290     1.0890 H     1 <1>   0.0800 
 28 H        0.4140    -2.3820    -1.7740 H     1 <1>   0.4000 
 29 H       -1.2880    -0.6470     0.8360 H     1 <1>   0.0800 
 30 H       -0.7400    -1.7470     2.0530 H     1 <1>   0.0800 
 31 H        4.0330    -3.9560     1.3110 H     1 <1>   0.1500 
 32 H       -0.7040    -4.9000     0.2840 H     1 <1>   0.1500 
 33 H        3.1720    -6.2600     1.4240 H     1 <1>   0.1500 
 34 H        5.0560     0.1880    -2.2840 H     1 <1>   0.1500 
 35 H        4.2520     1.0570    -0.9550 H     1 <1>   0.1500 
 36 H        5.5700    -2.8580    -0.5460 H     1 <1>   0.0800 
 37 H        5.4000    -2.2340    -2.1650 H     1 <1>   0.0800 
 38 H        4.0550    -3.0360    -1.4050 H     1 <1>   0.0800 
 39 H        0.8140    -6.7240     0.9080 H     1 <1>   0.1500 
 40 H       -3.3030     0.2380     1.4090 H     1 <1>   0.0800 
 41 H       -4.7940     0.7710     0.6870 H     1 <1>   0.0800 
 42 H       -3.2790     1.1020    -0.1180 H     1 <1>   0.0800 
 43 H       -5.4100    -2.4120    -2.5560 H     1 <1>   0.1500 
 44 H       -2.5240    -4.5030    -1.5550 H     1 <1>   0.0800 
 45 H       -4.1560    -4.7900    -2.1150 H     1 <1>   0.0800 
 46 H       -3.7710    -4.9690    -0.4180 H     1 <1>   0.0800 
@<TRIPOS>BOND
  1   1   2  2   
  2   2   3  am  
  3   2   4  1   
  4   3   5  1   
  5   3   6  1   
  6   4   7  1   
  7   4   8  1   
  8   4   9  1   
  9   5   8  ar  
 10   5  10  ar  
 11   6  11  1   
 12   6  26  1   
 13   6  27  1   
 14   7  28  1   
 15   8  12  ar  
 16   9  13  1   
 17   9  29  1   
 18   9  30  1   
 19  10  14  ar  
 20  10  31  1   
 21  11  15  2   
 22  11  16  1   
 23  12  17  ar  
 24  12  32  1   
 25  13  18  2   
 26  13  19  1   
 27  14  17  ar  
 28  14  33  1   
 29  15  34  1   
 30  15  35  1   
 31  16  36  1   
 32  16  37  1   
 33  16  38  1   
 34  17  39  1   
 35  19  20  2   
 36  19  21  1   
 37  20  22  1   
 38  20  23  1   
 39  21  24  2   
 40  21  25  1   
 41  22  24  1   
 42  23  40  1   
 43  23  41  1   
 44  23  42  1   
 45  24  43  1   
 46  25  44  1   
 47  25  45  1   
 48  25  46  1   
@<TRIPOS>SUBSTRUCTURE
  1 ****   4 GROUP 4 **** **** 0

# MOE 2024.06 (io_trps.svl 2023.06)
