@<TRIPOS>MOLECULE
NONAME
34 34 1 0 0 
SMALL
USER_CHARGES


@<TRIPOS>ATOM
  1 O       -0.1090     0.7040    -0.6470 O.2   1 <1>  -0.5700 
  2 C       -0.0380     1.7670    -0.0870 C.2   1 <1>   0.5690 
  3 N        1.1770     2.2750     0.2280 N.am  1 <1>  -0.7300 
  4 C       -1.3200     2.5090     0.2320 C.3   1 <1>  -0.0990 
  5 C        1.5320     3.5590     0.8700 C.3   1 <1>   0.1400 
  6 C       -1.6280     3.5690    -0.8310 C.3   1 <1>  -0.0160 
  7 C        2.3460     4.3970    -0.1150 C.3   1 <1>  -0.1600 
  8 C       -2.8630     4.3650    -0.4430 C.ar  1 <1>  -0.1440 
  9 C        2.7120     5.7590     0.4870 C.3   1 <1>  -0.1600 
 10 C       -4.1270     3.8850    -0.7490 C.ar  1 <1>  -0.1500 
 11 C       -2.7370     5.5750     0.2230 C.ar  1 <1>  -0.1500 
 12 C        3.5230     6.5980    -0.5040 C.3   1 <1>  -0.2400 
 13 C       -5.2540     4.6050    -0.3930 C.ar  1 <1>  -0.1500 
 14 C       -3.8630     6.2960     0.5790 C.ar  1 <1>  -0.1500 
 15 C       -5.1220     5.8120     0.2720 C.ar  1 <1>  -0.1500 
 16 H        1.9670     1.6860    -0.0450 H     1 <1>   0.3700 
 17 H       -1.2480     2.9610     1.2030 H     1 <1>   0.0800 
 18 H       -2.1260     1.7990     0.2680 H     1 <1>   0.0800 
 19 H        2.1130     3.3610     1.7560 H     1 <1>   0.0800 
 20 H        0.6470     4.0970     1.1600 H     1 <1>   0.0800 
 21 H       -1.7880     3.0880    -1.7810 H     1 <1>   0.0800 
 22 H       -0.7910     4.2340    -0.9430 H     1 <1>   0.0800 
 23 H        1.7710     4.5480    -1.0110 H     1 <1>   0.0800 
 24 H        3.2480     3.8680    -0.3710 H     1 <1>   0.0800 
 25 H        3.2900     5.6170     1.3850 H     1 <1>   0.0800 
 26 H        1.8150     6.2950     0.7490 H     1 <1>   0.0800 
 27 H       -4.2380     2.9470    -1.2660 H     1 <1>   0.1500 
 28 H       -1.7640     5.9610     0.4670 H     1 <1>   0.1500 
 29 H        4.4380     6.0940    -0.7650 H     1 <1>   0.0800 
 30 H        3.7710     7.5490    -0.0660 H     1 <1>   0.0800 
 31 H        2.9560     6.7730    -1.4020 H     1 <1>   0.0800 
 32 H       -6.2320     4.2270    -0.6340 H     1 <1>   0.1500 
 33 H       -3.7610     7.2340     1.0960 H     1 <1>   0.1500 
 34 H       -5.9980     6.3720     0.5480 H     1 <1>   0.1500 
@<TRIPOS>BOND
  1   1   2  2   
  2   2   3  am  
  3   2   4  1   
  4   3   5  1   
  5   3  16  1   
  6   4   6  1   
  7   4  17  1   
  8   4  18  1   
  9   5   7  1   
 10   5  19  1   
 11   5  20  1   
 12   6   8  1   
 13   6  21  1   
 14   6  22  1   
 15   7   9  1   
 16   7  23  1   
 17   7  24  1   
 18   8  10  ar  
 19   8  11  ar  
 20   9  12  1   
 21   9  25  1   
 22   9  26  1   
 23  10  13  ar  
 24  10  27  1   
 25  11  14  ar  
 26  11  28  1   
 27  12  29  1   
 28  12  30  1   
 29  12  31  1   
 30  13  15  ar  
 31  13  32  1   
 32  14  15  ar  
 33  14  33  1   
 34  15  34  1   
@<TRIPOS>SUBSTRUCTURE
  1 ****   6 GROUP 4 **** **** 0

# MOE 2024.06 (io_trps.svl 2023.06)
