@<TRIPOS>MOLECULE
NONAME
36 38 1 0 0 
SMALL
USER_CHARGES


@<TRIPOS>ATOM
  1 S       -0.4320     0.3630    -0.1170 S.3   1 <1>  -0.2860 
  2 C        1.1310     1.2420    -0.1830 C.2   1 <1>   0.2420 
  3 C       -1.6610     1.6890    -0.5660 C.3   1 <1>   0.1310 
  4 N        1.2260     2.4940    -0.4550 N.2   1 <1>  -0.3380 
  5 N        2.3010     0.6540     0.0440 N.pl3 1 <1>   0.0480 
  6 C       -3.0900     1.1700    -0.5450 C.2   1 <1>   0.5690 
  7 N        2.5280     2.7740    -0.4110 N.2   1 <1>  -0.3380 
  8 C        3.1670     1.6770    -0.1060 C.2   1 <1>   0.1330 
  9 C        2.5720    -0.7710     0.3270 C.3   1 <1>   0.0160 
 10 O       -3.9480     1.8440    -1.0630 O.2   1 <1>  -0.5700 
 11 N       -3.3670    -0.0200     0.0570 N.am  1 <1>  -0.5790 
 12 C        4.5980     1.5690     0.0350 C.ar  1 <1>   0.0530 
 13 C       -4.6910    -0.6470     0.1620 C.3   1 <1>   0.0490 
 14 C        5.1820     1.0430     1.1910 C.ar  1 <1>  -0.1500 
 15 C        5.4390     1.9980    -0.9940 C.ar  1 <1>  -0.1500 
 16 C       -4.9920    -1.4480     1.3840 C.3   1 <1>  -0.2000 
 17 C       -4.7700    -2.1350     0.0700 C.3   1 <1>  -0.2000 
 18 C        6.5560     0.9280     1.3110 C.ar  1 <1>  -0.1500 
 19 C        6.8140     1.8910    -0.8910 C.ar  1 <1>  -0.1500 
 20 C        7.3490     1.3520     0.2630 C.ar  1 <1>   0.1900 
 21 F        8.6450     1.2430     0.3680 F     1 <1>  -0.1900 
 22 H       -1.4060     2.0380    -1.5490 H     1 <1>   0.0800 
 23 H       -1.5440     2.4870     0.1430 H     1 <1>   0.0800 
 24 H        1.8580    -1.3850    -0.1920 H     1 <1>   0.0800 
 25 H        2.4940    -0.9450     1.3840 H     1 <1>   0.0800 
 26 H        3.5610    -1.0270    -0.0100 H     1 <1>   0.0800 
 27 H       -2.5940    -0.5570     0.4520 H     1 <1>   0.3700 
 28 H       -5.4800    -0.0580    -0.2800 H     1 <1>   0.1000 
 29 H        4.5530     0.7320     2.0060 H     1 <1>   0.1500 
 30 H        5.0000     2.4220    -1.8820 H     1 <1>   0.1500 
 31 H       -5.9920    -1.4230     1.7820 H     1 <1>   0.1000 
 32 H       -4.2430    -1.5270     2.1520 H     1 <1>   0.1000 
 33 H       -3.8650    -2.6950    -0.0840 H     1 <1>   0.1000 
 34 H       -5.6190    -2.5750    -0.4240 H     1 <1>   0.1000 
 35 H        7.0100     0.5230     2.1980 H     1 <1>   0.1500 
 36 H        7.4620     2.2190    -1.6840 H     1 <1>   0.1500 
@<TRIPOS>BOND
  1   1   2  1   
  2   1   3  1   
  3   2   4  2   
  4   2   5  1   
  5   3   6  1   
  6   3  22  1   
  7   3  23  1   
  8   4   7  1   
  9   5   8  1   
 10   5   9  1   
 11   6  10  2   
 12   6  11  am  
 13   7   8  2   
 14   8  12  1   
 15   9  24  1   
 16   9  25  1   
 17   9  26  1   
 18  11  13  1   
 19  11  27  1   
 20  12  14  ar  
 21  12  15  ar  
 22  13  16  1   
 23  13  17  1   
 24  13  28  1   
 25  14  18  ar  
 26  14  29  1   
 27  15  19  ar  
 28  15  30  1   
 29  16  17  1   
 30  16  31  1   
 31  16  32  1   
 32  17  33  1   
 33  17  34  1   
 34  18  20  ar  
 35  18  35  1   
 36  19  20  ar  
 37  19  36  1   
 38  20  21  1   
@<TRIPOS>SUBSTRUCTURE
  1 ****   2 GROUP 4 **** **** 0

# MOE 2024.06 (io_trps.svl 2023.06)
