@<TRIPOS>MOLECULE
NONAME
39 39 1 0 0 
SMALL
USER_CHARGES


@<TRIPOS>ATOM
  1 BR      -0.9200     0.1230    -0.0180 Br    1 <1>  -0.1110 
  2 C       -0.6390    -1.7620    -0.3170 C.ar  1 <1>   0.1110 
  3 C       -1.6850    -2.5340    -0.7900 C.ar  1 <1>  -0.1440 
  4 C        0.6060    -2.2840    -0.0310 C.ar  1 <1>  -0.1500 
  5 C       -1.4520    -3.8850    -0.9830 C.ar  1 <1>  -0.1500 
  6 C       -3.0400    -1.9320    -1.0810 C.3   1 <1>   0.4870 
  7 C        0.8340    -3.6460    -0.2170 C.ar  1 <1>   0.0820 
  8 C       -0.2140    -4.4490    -0.7080 C.ar  1 <1>   0.0820 
  9 N       -3.7570    -1.8340     0.2070 N.4   1 <1>  -0.9060 
 10 O        2.0400    -4.2040     0.0870 O.3   1 <1>  -0.3620 
 11 O       -0.1560    -5.7890    -0.9520 O.3   1 <1>  -0.3620 
 12 C       -5.1120    -1.2560     0.0840 C.3   1 <1>   0.3430 
 13 C        3.0950    -3.4650     0.6670 C.3   1 <1>   0.1200 
 14 C        1.0550    -6.4600    -1.2260 C.3   1 <1>   0.0400 
 15 C       -5.7450    -1.1840     1.4720 C.3   1 <1>  -0.1600 
 16 C        4.2550    -4.4190     0.9470 C.3   1 <1>   0.1200 
 17 C       -7.1550    -0.5870     1.4030 C.3   1 <1>  -0.2400 
 18 O        5.3240    -3.7000     1.4620 O.3   1 <1>  -0.6800 
 19 H        1.3660    -1.6190     0.3330 H     1 <1>   0.1500 
 20 H       -2.2250    -4.5370    -1.3550 H     1 <1>   0.1500 
 21 H       -3.5820    -2.5640    -1.7670 H     1 <1>   0.0800 
 22 H       -2.9240    -0.9560    -1.5260 H     1 <1>   0.0800 
 23 H       -3.1880    -1.2610     0.8430 H     1 <1>   0.4500 
 24 H       -3.8010    -2.7700     0.6280 H     1 <1>   0.4500 
 25 H       -5.7230    -1.8700    -0.5590 H     1 <1>   0.0800 
 26 H       -5.0570    -0.2650    -0.3390 H     1 <1>   0.0800 
 27 H        2.7440    -3.0340     1.5880 H     1 <1>   0.0800 
 28 H        3.3940    -2.7020    -0.0300 H     1 <1>   0.0800 
 29 H        0.8190    -7.4150    -1.6570 H     1 <1>   0.0800 
 30 H        1.5900    -6.6020    -0.3040 H     1 <1>   0.0800 
 31 H        1.6330    -5.8750    -1.9200 H     1 <1>   0.0800 
 32 H       -5.1440    -0.5670     2.1180 H     1 <1>   0.0800 
 33 H       -5.8110    -2.1700     1.8980 H     1 <1>   0.0800 
 34 H        4.5800    -4.9120     0.0470 H     1 <1>   0.0800 
 35 H        3.9660    -5.1500     1.6830 H     1 <1>   0.0800 
 36 H       -7.1310     0.4140     1.0060 H     1 <1>   0.0800 
 37 H       -7.5840    -0.5430     2.3900 H     1 <1>   0.0800 
 38 H       -7.7990    -1.1890     0.7850 H     1 <1>   0.0800 
 39 H        5.7560    -3.1640     0.7680 H     1 <1>   0.4000 
@<TRIPOS>BOND
  1   1   2  1   
  2   2   3  ar  
  3   2   4  ar  
  4   3   5  ar  
  5   3   6  1   
  6   4   7  ar  
  7   4  19  1   
  8   5   8  ar  
  9   5  20  1   
 10   6   9  1   
 11   6  21  1   
 12   6  22  1   
 13   7   8  ar  
 14   7  10  1   
 15   8  11  1   
 16   9  12  1   
 17   9  23  1   
 18   9  24  1   
 19  10  13  1   
 20  11  14  1   
 21  12  15  1   
 22  12  25  1   
 23  12  26  1   
 24  13  16  1   
 25  13  27  1   
 26  13  28  1   
 27  14  29  1   
 28  14  30  1   
 29  14  31  1   
 30  15  17  1   
 31  15  32  1   
 32  15  33  1   
 33  16  18  1   
 34  16  34  1   
 35  16  35  1   
 36  17  36  1   
 37  17  37  1   
 38  17  38  1   
 39  18  39  1   
@<TRIPOS>SUBSTRUCTURE
  1 ****   2 GROUP 4 **** **** 0

# MOE 2024.06 (io_trps.svl 2023.06)
