@<TRIPOS>MOLECULE
NONAME
50 50 1 0 0 
SMALL
USER_CHARGES


@<TRIPOS>ATOM
  1 O       -0.9130    -7.0820     0.1950 O.3   1 <1>  -0.3630 
  2 C       -2.1040    -6.4400     0.0510 C.ar  1 <1>   0.0820 
  3 C        0.3130    -6.4160    -0.0040 C.3   1 <1>   0.1200 
  4 C       -3.2650    -7.1720     0.2640 C.ar  1 <1>  -0.1440 
  5 C       -2.2040    -5.0970    -0.2970 C.ar  1 <1>  -0.1500 
  6 C        1.4360    -7.4200     0.2360 C.3   1 <1>   0.1200 
  7 C       -4.4980    -6.5560     0.1280 C.ar  1 <1>  -0.1500 
  8 C       -3.1930    -8.6430     0.6460 C.3   1 <1>  -0.0960 
  9 C       -3.4430    -4.4970    -0.4290 C.ar  1 <1>  -0.1500 
 10 O        2.6630    -6.7800     0.0400 O.3   1 <1>  -0.5600 
 11 C       -4.6170    -5.2140    -0.2200 C.ar  1 <1>  -0.1430 
 12 C        3.7690    -7.5970     0.2300 C.3   1 <1>   0.1200 
 13 C       -6.0220    -4.5860    -0.3560 C.3   1 <1>   0.1430 
 14 C        5.0180    -6.7390    -0.0080 C.3   1 <1>   0.3430 
 15 C       -5.9870    -3.0980    -0.7440 C.3   1 <1>  -0.2400 
 16 C       -6.7670    -4.6960     0.9840 C.3   1 <1>  -0.2400 
 17 C       -6.8140    -5.3290    -1.4430 C.3   1 <1>  -0.2400 
 18 N        6.3010    -7.4890     0.2190 N.4   1 <1>  -0.9590 
 19 C        7.4550    -6.5370     0.2070 C.3   1 <1>   0.2630 
 20 C        6.5140    -8.5690    -0.7970 C.3   1 <1>   0.2630 
 21 H        0.3750    -5.6050     0.7000 H     1 <1>   0.0800 
 22 H        0.3400    -6.0530    -1.0160 H     1 <1>   0.0800 
 23 H       -1.3310    -4.4980    -0.4700 H     1 <1>   0.1500 
 24 H        1.3520    -8.2350    -0.4630 H     1 <1>   0.0800 
 25 H        1.3900    -7.7840     1.2480 H     1 <1>   0.0800 
 26 H       -5.3840    -7.1390     0.2970 H     1 <1>   0.1500 
 27 H       -2.6510    -8.7530     1.5680 H     1 <1>   0.0800 
 28 H       -2.6830    -9.1930    -0.1230 H     1 <1>   0.0800 
 29 H       -4.1750    -9.0620     0.7740 H     1 <1>   0.0800 
 30 H       -3.4620    -3.4590    -0.6990 H     1 <1>   0.1500 
 31 H        3.7130    -8.4080    -0.4750 H     1 <1>   0.0800 
 32 H        3.7460    -7.9680     1.2410 H     1 <1>   0.0800 
 33 H        4.9730    -5.8980     0.6650 H     1 <1>   0.0800 
 34 H        4.9920    -6.3620    -1.0170 H     1 <1>   0.0800 
 35 H       -5.4980    -2.9670    -1.6930 H     1 <1>   0.0800 
 36 H       -5.4650    -2.5260     0.0020 H     1 <1>   0.0800 
 37 H       -6.9840    -2.7040    -0.8270 H     1 <1>   0.0800 
 38 H       -6.2010    -4.2100     1.7580 H     1 <1>   0.0800 
 39 H       -6.9090    -5.7230     1.2660 H     1 <1>   0.0800 
 40 H       -7.7340    -4.2310     0.9210 H     1 <1>   0.0800 
 41 H       -6.2820    -5.2870    -2.3760 H     1 <1>   0.0800 
 42 H       -7.7830    -4.8830    -1.5800 H     1 <1>   0.0800 
 43 H       -6.9560    -6.3610    -1.1820 H     1 <1>   0.0800 
 44 H        6.2590    -7.9200     1.1570 H     1 <1>   0.4500 
 45 H        7.5350    -6.0550    -0.7540 H     1 <1>   0.0800 
 46 H        8.3760    -7.0600     0.4080 H     1 <1>   0.0800 
 47 H        7.3230    -5.7780     0.9620 H     1 <1>   0.0800 
 48 H        6.5460    -8.1490    -1.7890 H     1 <1>   0.0800 
 49 H        5.7160    -9.2920    -0.7540 H     1 <1>   0.0800 
 50 H        7.4450    -9.0800    -0.6100 H     1 <1>   0.0800 
@<TRIPOS>BOND
  1   1   2  1   
  2   1   3  1   
  3   2   4  ar  
  4   2   5  ar  
  5   3   6  1   
  6   3  21  1   
  7   3  22  1   
  8   4   7  ar  
  9   4   8  1   
 10   5   9  ar  
 11   5  23  1   
 12   6  10  1   
 13   6  24  1   
 14   6  25  1   
 15   7  11  ar  
 16   7  26  1   
 17   8  27  1   
 18   8  28  1   
 19   8  29  1   
 20   9  11  ar  
 21   9  30  1   
 22  10  12  1   
 23  11  13  1   
 24  12  14  1   
 25  12  31  1   
 26  12  32  1   
 27  13  15  1   
 28  13  16  1   
 29  13  17  1   
 30  14  18  1   
 31  14  33  1   
 32  14  34  1   
 33  15  35  1   
 34  15  36  1   
 35  15  37  1   
 36  16  38  1   
 37  16  39  1   
 38  16  40  1   
 39  17  41  1   
 40  17  42  1   
 41  17  43  1   
 42  18  19  1   
 43  18  20  1   
 44  18  44  1   
 45  19  45  1   
 46  19  46  1   
 47  19  47  1   
 48  20  48  1   
 49  20  49  1   
 50  20  50  1   
@<TRIPOS>SUBSTRUCTURE
  1 ****   1 GROUP 4 **** **** 0

# MOE 2024.06 (io_trps.svl 2023.06)
