@<TRIPOS>MOLECULE
NONAME
39 40 1 0 0 
SMALL
USER_CHARGES


@<TRIPOS>ATOM
  1 CL       0.1720     0.4620    -1.6830 Cl    1 <1>  -0.1770 
  2 C        0.5770     1.8570    -0.7100 C.ar  1 <1>   0.1770 
  3 C       -0.4240     2.5740    -0.0680 C.ar  1 <1>  -0.1440 
  4 C        1.9110     2.2050    -0.6010 C.ar  1 <1>  -0.1500 
  5 C       -0.0480     3.6640     0.7090 C.ar  1 <1>  -0.1500 
  6 C       -1.8800     2.1210    -0.2350 C.3   1 <1>   0.0890 
  7 C        2.2680     3.2950     0.1710 C.ar  1 <1>  -0.1500 
  8 C        1.2870     4.0210     0.8240 C.ar  1 <1>  -0.1500 
  9 S       -3.1790     3.2300     0.3540 S.o2  1 <1>   1.3330 
 10 O       -2.9800     4.4720    -0.3590 O.2   1 <1>  -0.6500 
 11 O       -3.1800     3.2330     1.8010 O.2   1 <1>  -0.6500 
 12 N       -4.6550     2.5180    -0.1220 N.am  1 <1>  -0.8490 
 13 C       -5.8720     3.3170     0.2140 C.3   1 <1>   0.2760 
 14 C       -4.7860     1.1740     0.4750 C.3   1 <1>   0.1960 
 15 C       -7.1290     2.5980    -0.3290 C.3   1 <1>  -0.1600 
 16 C       -5.8270     4.7650    -0.3360 C.3   1 <1>  -0.1600 
 17 C       -5.9700     0.4120    -0.1160 C.3   1 <1>  -0.1600 
 18 C       -7.2680     1.1580     0.1630 C.3   1 <1>  -0.1600 
 19 C       -7.1410     5.5650    -0.2750 C.3   1 <1>  -0.2400 
 20 H        2.6580     1.6270    -1.1150 H     1 <1>   0.1500 
 21 H       -0.7740     4.2590     1.2380 H     1 <1>   0.1500 
 22 H       -1.9630     1.1790     0.2660 H     1 <1>   0.0800 
 23 H       -2.0540     1.9490    -1.2790 H     1 <1>   0.0800 
 24 H        3.3020     3.5790     0.2640 H     1 <1>   0.1500 
 25 H        1.5600     4.8700     1.4270 H     1 <1>   0.1500 
 26 H       -5.9560     3.3790     1.2880 H     1 <1>   0.0800 
 27 H       -4.8990     1.2560     1.5450 H     1 <1>   0.0800 
 28 H       -3.9130     0.5830     0.2780 H     1 <1>   0.0800 
 29 H       -7.0940     2.6090    -1.4050 H     1 <1>   0.0800 
 30 H       -8.0170     3.1200    -0.0250 H     1 <1>   0.0800 
 31 H       -5.4830     4.7460    -1.3560 H     1 <1>   0.0800 
 32 H       -5.1270     5.3290     0.2510 H     1 <1>   0.0800 
 33 H       -6.0180    -0.5710     0.3180 H     1 <1>   0.0800 
 34 H       -5.8250     0.3020    -1.1770 H     1 <1>   0.0800 
 35 H       -8.0900     0.6730    -0.3350 H     1 <1>   0.0800 
 36 H       -7.4660     1.1570     1.2220 H     1 <1>   0.0800 
 37 H       -7.8600     5.1880    -0.9810 H     1 <1>   0.0800 
 38 H       -6.9450     6.5930    -0.5250 H     1 <1>   0.0800 
 39 H       -7.5590     5.5310     0.7150 H     1 <1>   0.0800 
@<TRIPOS>BOND
  1   1   2  1   
  2   2   3  ar  
  3   2   4  ar  
  4   3   5  ar  
  5   3   6  1   
  6   4   7  ar  
  7   4  20  1   
  8   5   8  ar  
  9   5  21  1   
 10   6   9  1   
 11   6  22  1   
 12   6  23  1   
 13   7   8  ar  
 14   7  24  1   
 15   8  25  1   
 16   9  10  2   
 17   9  11  2   
 18   9  12  am  
 19  12  13  1   
 20  12  14  1   
 21  13  15  1   
 22  13  16  1   
 23  13  26  1   
 24  14  17  1   
 25  14  27  1   
 26  14  28  1   
 27  15  18  1   
 28  15  29  1   
 29  15  30  1   
 30  16  19  1   
 31  16  31  1   
 32  16  32  1   
 33  17  18  1   
 34  17  33  1   
 35  17  34  1   
 36  18  35  1   
 37  18  36  1   
 38  19  37  1   
 39  19  38  1   
 40  19  39  1   
@<TRIPOS>SUBSTRUCTURE
  1 ****   9 GROUP 4 **** **** 0

# MOE 2024.06 (io_trps.svl 2023.06)
