@<TRIPOS>MOLECULE
NONAME
56 58 1 0 0 
SMALL
USER_CHARGES


@<TRIPOS>ATOM
  1 O       -0.5270     0.0530     0.6950 O.3   1 <1>  -0.3630 
  2 C       -1.6580    -0.6860     0.8510 C.ar  1 <1>   0.0830 
  3 C       -0.7360     1.4340     0.5090 C.3   1 <1>   0.0400 
  4 C       -2.2800    -0.7690     2.1020 C.ar  1 <1>   0.0830 
  5 C       -2.2350    -1.3460    -0.2420 C.ar  1 <1>   0.0830 
  6 O       -1.7940    -0.1950     3.2330 O.3   1 <1>  -0.3630 
  7 C       -3.4760    -1.4530     2.2380 C.ar  1 <1>  -0.1500 
  8 O       -1.7200    -1.3670    -1.5000 O.3   1 <1>  -0.3630 
  9 C       -3.4320    -2.0250    -0.0820 C.ar  1 <1>  -0.1500 
 10 C       -0.4480    -0.4400     3.5890 C.3   1 <1>   0.0400 
 11 C       -4.0650    -2.0770     1.1500 C.ar  1 <1>  -0.1430 
 12 C       -0.3280    -1.5190    -1.6890 C.3   1 <1>   0.0400 
 13 C       -5.3870    -2.8000     1.3010 C.3   1 <1>   0.4860 
 14 N       -6.4520    -1.9580     0.6980 N.4   1 <1>  -0.9590 
 15 C       -6.6230    -0.6520     1.4390 C.3   1 <1>   0.3430 
 16 C       -7.7640    -2.6930     0.5960 C.3   1 <1>   0.3430 
 17 C       -7.7330     0.2290     0.8320 C.3   1 <1>   0.2090 
 18 C       -8.8770    -1.8240    -0.0230 C.3   1 <1>   0.2090 
 19 N       -9.0140    -0.5290     0.7070 N.pl3 1 <1>  -0.8380 
 20 C      -10.1090     0.2490     0.3060 C.ar  1 <1>   0.1000 
 21 C      -10.2310     0.8410    -0.9650 C.ar  1 <1>   0.0830 
 22 C      -11.1270     0.4370     1.2310 C.ar  1 <1>  -0.1500 
 23 O       -9.2200     0.6500    -1.8720 O.3   1 <1>  -0.3630 
 24 C      -11.3610     1.5960    -1.2660 C.ar  1 <1>  -0.1500 
 25 C      -12.2450     1.1890     0.9240 C.ar  1 <1>  -0.1500 
 26 C       -9.2700     1.2350    -3.1560 C.3   1 <1>   0.0400 
 27 C      -12.3620     1.7690    -0.3250 C.ar  1 <1>  -0.1500 
 28 H        0.2220     1.9080     0.3950 H     1 <1>   0.0800 
 29 H       -1.3270     1.5790    -0.3780 H     1 <1>   0.0800 
 30 H       -1.2440     1.8310     1.3700 H     1 <1>   0.0800 
 31 H       -3.9290    -1.4860     3.2150 H     1 <1>   0.1500 
 32 H       -3.8480    -2.5130    -0.9460 H     1 <1>   0.1500 
 33 H       -0.3440    -0.2680     4.6450 H     1 <1>   0.0800 
 34 H        0.1890     0.2370     3.0490 H     1 <1>   0.0800 
 35 H       -0.1990    -1.4600     3.3550 H     1 <1>   0.0800 
 36 H        0.1440    -0.5570    -1.6090 H     1 <1>   0.0800 
 37 H        0.0600    -2.1950    -0.9460 H     1 <1>   0.0800 
 38 H       -0.1640    -1.9200    -2.6730 H     1 <1>   0.0800 
 39 H       -5.5960    -2.9790     2.3440 H     1 <1>   0.0800 
 40 H       -5.3320    -3.7500     0.7950 H     1 <1>   0.0800 
 41 H       -6.1450    -1.7140    -0.2520 H     1 <1>   0.4500 
 42 H       -5.6970    -0.0990     1.4300 H     1 <1>   0.0800 
 43 H       -6.8790    -0.8490     2.4660 H     1 <1>   0.0800 
 44 H       -8.0880    -2.9930     1.5790 H     1 <1>   0.0800 
 45 H       -7.6440    -3.5810    -0.0010 H     1 <1>   0.0800 
 46 H       -7.4200     0.5860    -0.1340 H     1 <1>   0.0800 
 47 H       -7.8930     1.0870     1.4620 H     1 <1>   0.0800 
 48 H       -9.8140    -2.3530     0.0260 H     1 <1>   0.0800 
 49 H       -8.6580    -1.6410    -1.0600 H     1 <1>   0.0800 
 50 H      -11.0360    -0.0130     2.2020 H     1 <1>   0.1500 
 51 H      -11.4900     2.0620    -2.2230 H     1 <1>   0.1500 
 52 H      -13.0230     1.3220     1.6560 H     1 <1>   0.1500 
 53 H       -8.3770     0.9610    -3.6870 H     1 <1>   0.0800 
 54 H       -9.3180     2.3050    -3.0520 H     1 <1>   0.0800 
 55 H      -10.1330     0.8600    -3.6780 H     1 <1>   0.0800 
 56 H      -13.2330     2.3540    -0.5660 H     1 <1>   0.1500 
@<TRIPOS>BOND
  1   1   2  1   
  2   1   3  1   
  3   2   4  ar  
  4   2   5  ar  
  5   3  28  1   
  6   3  29  1   
  7   3  30  1   
  8   4   6  1   
  9   4   7  ar  
 10   5   8  1   
 11   5   9  ar  
 12   6  10  1   
 13   7  11  ar  
 14   7  31  1   
 15   8  12  1   
 16   9  11  ar  
 17   9  32  1   
 18  10  33  1   
 19  10  34  1   
 20  10  35  1   
 21  11  13  1   
 22  12  36  1   
 23  12  37  1   
 24  12  38  1   
 25  13  14  1   
 26  13  39  1   
 27  13  40  1   
 28  14  15  1   
 29  14  16  1   
 30  14  41  1   
 31  15  17  1   
 32  15  42  1   
 33  15  43  1   
 34  16  18  1   
 35  16  44  1   
 36  16  45  1   
 37  17  19  1   
 38  17  46  1   
 39  17  47  1   
 40  18  19  1   
 41  18  48  1   
 42  18  49  1   
 43  19  20  1   
 44  20  21  ar  
 45  20  22  ar  
 46  21  23  1   
 47  21  24  ar  
 48  22  25  ar  
 49  22  50  1   
 50  23  26  1   
 51  24  27  ar  
 52  24  51  1   
 53  25  27  ar  
 54  25  52  1   
 55  26  53  1   
 56  26  54  1   
 57  26  55  1   
 58  27  56  1   
@<TRIPOS>SUBSTRUCTURE
  1 ****  15 GROUP 4 **** **** 0

# MOE 2024.06 (io_trps.svl 2023.06)
