@<TRIPOS>MOLECULE
NONAME
44 45 1 0 0 
SMALL
USER_CHARGES


@<TRIPOS>ATOM
  1 O        0.8710     0.5120     0.0020 O.co2 1 <1>  -0.9000 
  2 C        1.7920     0.9810     0.6840 C.2   1 <1>   0.9060 
  3 O        1.6590     2.0280     1.3310 O.co2 1 <1>  -0.9000 
  4 C        3.0880     0.1900     0.8180 C.3   1 <1>   0.0140 
  5 O        4.0770     0.5360    -0.1530 O.3   1 <1>  -0.3630 
  6 C        5.2880    -0.0820    -0.1710 C.ar  1 <1>   0.0830 
  7 C        5.6740    -1.0640     0.7360 C.ar  1 <1>  -0.1500 
  8 C        6.1730     0.3070    -1.1610 C.ar  1 <1>  -0.1500 
  9 C        6.9290    -1.6390     0.6410 C.ar  1 <1>  -0.1500 
 10 C        7.4270    -0.2700    -1.2510 C.ar  1 <1>  -0.1500 
 11 C        7.8250    -1.2550    -0.3520 C.ar  1 <1>   0.1170 
 12 N        9.0910    -1.8650    -0.3900 N.am  1 <1>  -0.5470 
 13 C       10.0090    -1.9720    -1.3970 C.2   1 <1>   0.5690 
 14 O        9.8460    -1.5420    -2.5110 O.2   1 <1>  -0.5700 
 15 C       11.3090    -2.6900    -1.0840 C.3   1 <1>  -0.0990 
 16 C       12.2720    -1.8070    -0.2680 C.3   1 <1>  -0.1600 
 17 C       13.5460    -2.5440     0.1880 C.3   1 <1>  -0.0800 
 18 C       14.3540    -1.6360     1.1330 C.3   1 <1>  -0.1600 
 19 C       14.4210    -2.9860    -1.0020 C.3   1 <1>  -0.1600 
 20 C       15.6480    -2.3120     1.6040 C.3   1 <1>  -0.1600 
 21 C       15.7200    -3.6560    -0.5340 C.3   1 <1>  -0.1600 
 22 C       16.5100    -2.7440     0.4120 C.3   1 <1>  -0.1600 
 23 H        2.8560    -0.8500     0.7060 H     1 <1>   0.0800 
 24 H        3.4930     0.3800     1.7930 H     1 <1>   0.0800 
 25 H        5.0070    -1.3850     1.5130 H     1 <1>   0.1500 
 26 H        5.8680     1.0660    -1.8580 H     1 <1>   0.1500 
 27 H        7.2100    -2.3970     1.3470 H     1 <1>   0.1500 
 28 H        8.0940     0.0570    -2.0270 H     1 <1>   0.1500 
 29 H        9.3610    -2.3220     0.4780 H     1 <1>   0.3700 
 30 H       11.7650    -2.9650    -2.0170 H     1 <1>   0.0800 
 31 H       11.0880    -3.5940    -0.5470 H     1 <1>   0.0800 
 32 H       11.7540    -1.4460     0.6030 H     1 <1>   0.0800 
 33 H       12.5430    -0.9480    -0.8590 H     1 <1>   0.0800 
 34 H       13.2560    -3.4220     0.7400 H     1 <1>   0.0800 
 35 H       13.7590    -1.3830     1.9930 H     1 <1>   0.0800 
 36 H       14.6030    -0.7200     0.6240 H     1 <1>   0.0800 
 37 H       14.6650    -2.1290    -1.6060 H     1 <1>   0.0800 
 38 H       13.8860    -3.6840    -1.6200 H     1 <1>   0.0800 
 39 H       15.4050    -3.1760     2.1990 H     1 <1>   0.0800 
 40 H       16.2060    -1.6310     2.2230 H     1 <1>   0.0800 
 41 H       16.3280    -3.8990    -1.3880 H     1 <1>   0.0800 
 42 H       15.4840    -4.5750    -0.0250 H     1 <1>   0.0800 
 43 H       17.3840    -3.2610     0.7670 H     1 <1>   0.0800 
 44 H       16.8370    -1.8710    -0.1260 H     1 <1>   0.0800 
@<TRIPOS>BOND
  1   1   2  ar  
  2   2   3  ar  
  3   2   4  1   
  4   4   5  1   
  5   4  23  1   
  6   4  24  1   
  7   5   6  1   
  8   6   7  ar  
  9   6   8  ar  
 10   7   9  ar  
 11   7  25  1   
 12   8  10  ar  
 13   8  26  1   
 14   9  11  ar  
 15   9  27  1   
 16  10  11  ar  
 17  10  28  1   
 18  11  12  1   
 19  12  13  am  
 20  12  29  1   
 21  13  14  2   
 22  13  15  1   
 23  15  16  1   
 24  15  30  1   
 25  15  31  1   
 26  16  17  1   
 27  16  32  1   
 28  16  33  1   
 29  17  18  1   
 30  17  19  1   
 31  17  34  1   
 32  18  20  1   
 33  18  35  1   
 34  18  36  1   
 35  19  21  1   
 36  19  37  1   
 37  19  38  1   
 38  20  22  1   
 39  20  39  1   
 40  20  40  1   
 41  21  22  1   
 42  21  41  1   
 43  21  42  1   
 44  22  43  1   
 45  22  44  1   
@<TRIPOS>SUBSTRUCTURE
  1 ****  12 GROUP 4 **** **** 0

# MOE 2024.06 (io_trps.svl 2023.06)
