@<TRIPOS>MOLECULE
NONAME
33 35 1 0 0 
SMALL
USER_CHARGES


@<TRIPOS>ATOM
  1 F        0.1640    -0.5050     0.2860 F     1 <1>  -0.1900 
  2 C        1.3540    -1.0290     0.2080 C.ar  1 <1>   0.1900 
  3 C        1.5400    -2.1590    -0.5640 C.ar  1 <1>  -0.1500 
  4 C        2.3920    -0.4390     0.9030 C.ar  1 <1>  -0.1500 
  5 C        2.8090    -2.7060    -0.6410 C.ar  1 <1>  -0.1500 
  6 C        3.6540    -1.0010     0.8150 C.ar  1 <1>  -0.1500 
  7 C        3.8950    -2.1410     0.0370 C.ar  1 <1>   0.0860 
  8 C        5.2190    -2.7290    -0.0700 C.2   1 <1>   0.5440 
  9 O        5.3540    -3.9180    -0.2810 O.2   1 <1>  -0.5700 
 10 N        6.3370    -1.9520     0.0490 N.am  1 <1>  -0.7300 
 11 C        7.7300    -2.4350    -0.0210 C.3   1 <1>   0.2200 
 12 C        8.5350    -1.8900     1.1730 C.3   1 <1>  -0.0800 
 13 C        8.4480    -1.8050    -1.2280 C.3   1 <1>  -0.1600 
 14 C        8.9330    -0.5000     0.6940 C.3   1 <1>  -0.1600 
 15 C        9.8990    -2.6010     1.1890 C.3   1 <1>  -0.1600 
 16 C        9.5890    -0.9970    -0.5830 C.3   1 <1>  -0.0800 
 17 C       10.6230    -1.9900    -0.0240 C.3   1 <1>  -0.1600 
 18 H        0.7100    -2.5970    -1.0890 H     1 <1>   0.1500 
 19 H        2.2080     0.4360     1.4990 H     1 <1>   0.1500 
 20 H        2.9730    -3.5900    -1.2360 H     1 <1>   0.1500 
 21 H        4.4630    -0.5540     1.3650 H     1 <1>   0.1500 
 22 H        6.2440    -0.9410     0.1180 H     1 <1>   0.3700 
 23 H        7.7590    -3.5120    -0.0560 H     1 <1>   0.0800 
 24 H        8.0120    -1.9390     2.1130 H     1 <1>   0.0800 
 25 H        7.7910    -1.1570    -1.7800 H     1 <1>   0.0800 
 26 H        8.8280    -2.5630    -1.8890 H     1 <1>   0.0800 
 27 H        9.6290    -0.0140     1.3570 H     1 <1>   0.0800 
 28 H        8.0920     0.1440     0.5060 H     1 <1>   0.0800 
 29 H        9.7960    -3.6700     1.1020 H     1 <1>   0.0800 
 30 H       10.4310    -2.3710     2.0960 H     1 <1>   0.0800 
 31 H       10.0070    -0.2350    -1.2190 H     1 <1>   0.0800 
 32 H       10.8990    -2.7360    -0.7490 H     1 <1>   0.0800 
 33 H       11.5070    -1.4660     0.2970 H     1 <1>   0.0800 
@<TRIPOS>BOND
  1   1   2  1   
  2   2   3  ar  
  3   2   4  ar  
  4   3   5  ar  
  5   3  18  1   
  6   4   6  ar  
  7   4  19  1   
  8   5   7  ar  
  9   5  20  1   
 10   6   7  ar  
 11   6  21  1   
 12   7   8  1   
 13   8   9  2   
 14   8  10  am  
 15  10  11  1   
 16  10  22  1   
 17  11  12  1   
 18  11  13  1   
 19  11  23  1   
 20  12  14  1   
 21  12  15  1   
 22  12  24  1   
 23  13  16  1   
 24  13  25  1   
 25  13  26  1   
 26  14  16  1   
 27  14  27  1   
 28  14  28  1   
 29  15  17  1   
 30  15  29  1   
 31  15  30  1   
 32  16  17  1   
 33  16  31  1   
 34  17  32  1   
 35  17  33  1   
@<TRIPOS>SUBSTRUCTURE
  1 ****  10 GROUP 4 **** **** 0

# MOE 2024.06 (io_trps.svl 2023.06)
