@<TRIPOS>MOLECULE
NONAME
43 45 1 0 0 
SMALL
USER_CHARGES


@<TRIPOS>ATOM
  1 O       -0.1050    -5.3030    -3.3920 O.2   1 <1>  -0.5700 
  2 C       -0.2000    -5.3310    -2.1740 C.2   1 <1>   0.6160 
  3 N       -1.4380    -5.4700    -1.6190 N.am  1 <1>  -0.5390 
  4 C        0.9120    -5.2240    -1.2970 C.2   1 <1>  -0.1360 
  5 C       -1.6320    -5.5290    -0.2570 C.2   1 <1>  -0.0290 
  6 C        0.7440    -5.2640     0.0530 C.2   1 <1>  -0.1500 
  7 C       -0.5640    -5.4190     0.5870 C.2   1 <1>  -0.1380 
  8 C       -3.0650    -5.7230     0.2250 C.3   1 <1>  -0.0220 
  9 C       -0.7420    -5.5010     2.1030 C.3   1 <1>   0.0580 
 10 C       -3.1780    -5.9390     1.7510 C.3   1 <1>  -0.0800 
 11 C       -0.5310    -6.9550     2.5620 C.3   1 <1>   0.1400 
 12 C       -2.1610    -5.0460     2.4830 C.3   1 <1>  -0.1600 
 13 C       -2.9650    -7.4160     2.1480 C.3   1 <1>   0.1400 
 14 N       -1.5520    -7.8390     1.9250 N.am  1 <1>  -0.6600 
 15 C       -1.1830    -8.7370     0.9560 C.2   1 <1>   0.7800 
 16 O       -0.0300    -9.0940     0.8140 O.2   1 <1>  -0.5700 
 17 O       -2.1470    -9.1950     0.1520 O.3   1 <1>  -0.4300 
 18 C       -1.9910   -10.0140    -0.9860 C.3   1 <1>   0.2800 
 19 C       -3.4010   -10.1770    -1.5540 C.3   1 <1>  -0.2400 
 20 C       -1.1080    -9.3120    -2.0260 C.3   1 <1>  -0.2400 
 21 C       -1.4450   -11.3880    -0.5830 C.3   1 <1>  -0.2400 
 22 H       -2.2010    -5.5510    -2.2880 H     1 <1>   0.3700 
 23 H        1.8750    -5.1150    -1.7570 H     1 <1>   0.1500 
 24 H        1.5790    -5.1890     0.7260 H     1 <1>   0.1500 
 25 H       -3.5070    -6.5560    -0.2920 H     1 <1>   0.0800 
 26 H       -3.6200    -4.8410    -0.0400 H     1 <1>   0.0800 
 27 H       -0.0240    -4.8630     2.5880 H     1 <1>   0.0800 
 28 H       -4.1720    -5.6610     2.0540 H     1 <1>   0.0800 
 29 H       -0.6260    -7.0230     3.6310 H     1 <1>   0.0800 
 30 H        0.4620    -7.2730     2.2970 H     1 <1>   0.0800 
 31 H       -2.3010    -4.0170     2.1990 H     1 <1>   0.0800 
 32 H       -2.2980    -5.1210     3.5470 H     1 <1>   0.0800 
 33 H       -3.6450    -8.0440     1.6000 H     1 <1>   0.0800 
 34 H       -3.1910    -7.5380     3.1930 H     1 <1>   0.0800 
 35 H       -3.8090    -9.2190    -1.8190 H     1 <1>   0.0800 
 36 H       -4.0420   -10.6450    -0.8290 H     1 <1>   0.0800 
 37 H       -3.3800   -10.7920    -2.4350 H     1 <1>   0.0800 
 38 H       -1.4840    -8.3270    -2.2330 H     1 <1>   0.0800 
 39 H       -1.1010    -9.8730    -2.9420 H     1 <1>   0.0800 
 40 H       -0.0920    -9.2340    -1.6860 H     1 <1>   0.0800 
 41 H       -2.0460   -11.8140     0.2000 H     1 <1>   0.0800 
 42 H       -0.4270   -11.3190    -0.2490 H     1 <1>   0.0800 
 43 H       -1.4640   -12.0520    -1.4270 H     1 <1>   0.0800 
@<TRIPOS>BOND
  1   1   2  2   
  2   2   3  am  
  3   2   4  1   
  4   3   5  1   
  5   3  22  1   
  6   4   6  2   
  7   4  23  1   
  8   5   7  2   
  9   5   8  1   
 10   6   7  1   
 11   6  24  1   
 12   7   9  1   
 13   8  10  1   
 14   8  25  1   
 15   8  26  1   
 16   9  11  1   
 17   9  12  1   
 18   9  27  1   
 19  10  12  1   
 20  10  13  1   
 21  10  28  1   
 22  11  14  1   
 23  11  29  1   
 24  11  30  1   
 25  12  31  1   
 26  12  32  1   
 27  13  14  1   
 28  13  33  1   
 29  13  34  1   
 30  14  15  am  
 31  15  16  2   
 32  15  17  1   
 33  17  18  1   
 34  18  19  1   
 35  18  20  1   
 36  18  21  1   
 37  19  35  1   
 38  19  36  1   
 39  19  37  1   
 40  20  38  1   
 41  20  39  1   
 42  20  40  1   
 43  21  41  1   
 44  21  42  1   
 45  21  43  1   
@<TRIPOS>SUBSTRUCTURE
  1 ****   5 GROUP 4 **** **** 0

# MOE 2024.06 (io_trps.svl 2023.06)
