@<TRIPOS>MOLECULE
NONAME
32 32 1 0 0 
SMALL
USER_CHARGES


@<TRIPOS>ATOM
  1 O       -0.3300    -0.5720    -1.7200 O.2   1 <1>  -0.5700 
  2 C       -0.6760    -1.3100    -0.8310 C.2   1 <1>   0.5690 
  3 N        0.1790    -2.0830    -0.0980 N.am  1 <1>  -0.5470 
  4 C       -2.1570    -1.4050    -0.5070 C.3   1 <1>  -0.0990 
  5 C        1.5770    -2.2210    -0.1440 C.ar  1 <1>   0.1170 
  6 C       -2.5100    -0.8160     0.8680 C.3   1 <1>  -0.2400 
  7 C        2.1540    -3.3510     0.4230 C.ar  1 <1>  -0.1500 
  8 C        2.4200    -1.2740    -0.7150 C.ar  1 <1>  -0.1500 
  9 C        3.5250    -3.5320     0.4140 C.ar  1 <1>  -0.1500 
 10 C        3.7910    -1.4550    -0.7240 C.ar  1 <1>  -0.1500 
 11 C        4.3670    -2.5850    -0.1580 C.ar  1 <1>   0.1170 
 12 N        5.7650    -2.7250    -0.2050 N.am  1 <1>  -0.5470 
 13 C        6.6190    -3.4850     0.5430 C.2   1 <1>   0.5690 
 14 O        6.2710    -4.1990     1.4510 O.2   1 <1>  -0.5700 
 15 C        8.0980    -3.4150     0.2040 C.3   1 <1>  -0.0990 
 16 C        8.7290    -2.0580     0.5560 C.3   1 <1>  -0.2400 
 17 H       -0.2770    -2.6790     0.5890 H     1 <1>   0.3700 
 18 H       -2.4570    -2.4360    -0.5520 H     1 <1>   0.0800 
 19 H       -2.7040    -0.8750    -1.2670 H     1 <1>   0.0800 
 20 H       -2.0080    -1.3490     1.6550 H     1 <1>   0.0800 
 21 H       -3.5710    -0.8750     1.0340 H     1 <1>   0.0800 
 22 H       -2.2140     0.2190     0.9110 H     1 <1>   0.0800 
 23 H        1.5310    -4.1010     0.8720 H     1 <1>   0.1500 
 24 H        2.0080    -0.3840    -1.1550 H     1 <1>   0.1500 
 25 H        3.9380    -4.4210     0.8550 H     1 <1>   0.1500 
 26 H        4.4140    -0.7040    -1.1730 H     1 <1>   0.1500 
 27 H        6.2240    -2.1220    -0.8830 H     1 <1>   0.3700 
 28 H        8.2250    -3.6180    -0.8430 H     1 <1>   0.0800 
 29 H        8.6070    -4.1900     0.7490 H     1 <1>   0.0800 
 30 H        8.2690    -1.2630    -0.0040 H     1 <1>   0.0800 
 31 H        9.7820    -2.0710     0.3330 H     1 <1>   0.0800 
 32 H        8.6050    -1.8560     1.6060 H     1 <1>   0.0800 
@<TRIPOS>BOND
  1   1   2  2   
  2   2   3  am  
  3   2   4  1   
  4   3   5  1   
  5   3  17  1   
  6   4   6  1   
  7   4  18  1   
  8   4  19  1   
  9   5   7  ar  
 10   5   8  ar  
 11   6  20  1   
 12   6  21  1   
 13   6  22  1   
 14   7   9  ar  
 15   7  23  1   
 16   8  10  ar  
 17   8  24  1   
 18   9  11  ar  
 19   9  25  1   
 20  10  11  ar  
 21  10  26  1   
 22  11  12  1   
 23  12  13  am  
 24  12  27  1   
 25  13  14  2   
 26  13  15  1   
 27  15  16  1   
 28  15  28  1   
 29  15  29  1   
 30  16  30  1   
 31  16  31  1   
 32  16  32  1   
@<TRIPOS>SUBSTRUCTURE
  1 ****   8 GROUP 4 **** **** 0

# MOE 2024.06 (io_trps.svl 2023.06)
