@<TRIPOS>MOLECULE
NONAME
56 59 1 0 0 
SMALL
USER_CHARGES


@<TRIPOS>ATOM
  1 O        0.6760    -1.8770     0.5180 O.3   1 <1>  -0.3630 
  2 C        1.6950    -1.0290     0.2390 C.ar  1 <1>   0.0830 
  3 C        0.3030    -2.1650     1.8470 C.3   1 <1>   0.0400 
  4 C        2.4240    -0.3420     1.2050 C.ar  1 <1>  -0.1500 
  5 C        2.0150    -0.8520    -1.0970 C.ar  1 <1>  -0.1500 
  6 C        3.4470     0.5050     0.8240 C.ar  1 <1>  -0.1500 
  7 C        3.0400    -0.0030    -1.4680 C.ar  1 <1>  -0.1500 
  8 C        3.7830     0.7030    -0.5180 C.ar  1 <1>   0.0860 
  9 C        4.8530     1.5940    -0.9060 C.2   1 <1>   0.3030 
 10 N        5.0510     2.8060    -0.5230 N.2   1 <1>  -0.5030 
 11 C        5.8730     1.0150    -1.8690 C.3   1 <1>  -0.1790 
 12 N        4.1770     3.4400     0.3040 N.pl3 1 <1>  -0.4870 
 13 C        4.7700     4.5010     1.1530 C.3   1 <1>   0.1100 
 14 C        2.8210     3.7740    -0.2200 C.3   1 <1>   0.1100 
 15 C        4.8180     5.8270     0.3780 C.3   1 <1>   0.3430 
 16 C        2.8650     5.1110    -0.9790 C.3   1 <1>   0.3430 
 17 N        3.4640     6.2180    -0.1480 N.4   1 <1>  -0.9590 
 18 C        3.5090     7.4990    -0.9000 C.3   1 <1>   0.4860 
 19 C        2.0830     7.9390    -1.1610 C.ar  1 <1>  -0.1430 
 20 C        1.2820     8.4210    -0.0940 C.ar  1 <1>   0.0000 
 21 C        1.5780     7.8410    -2.4320 C.ar  1 <1>  -0.1500 
 22 C       -0.0700     8.7350    -0.3640 C.ar  1 <1>   0.0000 
 23 C        1.7490     8.6110     1.2300 C.ar  1 <1>  -0.1500 
 24 C        0.2500     8.1850    -2.6960 C.ar  1 <1>  -0.1500 
 25 C       -0.5540     8.6140    -1.6800 C.ar  1 <1>  -0.1500 
 26 C       -0.9010     9.1680     0.6890 C.ar  1 <1>  -0.1500 
 27 C        0.9200     9.0380     2.2310 C.ar  1 <1>  -0.1500 
 28 C       -0.4220     9.3130     1.9590 C.ar  1 <1>  -0.1500 
 29 H       -0.5100    -2.8670     1.8210 H     1 <1>   0.0800 
 30 H       -0.0160    -1.2550     2.3250 H     1 <1>   0.0800 
 31 H        1.1430    -2.5980     2.3600 H     1 <1>   0.0800 
 32 H        2.2080    -0.4580     2.2500 H     1 <1>   0.1500 
 33 H        1.4510    -1.3880    -1.8400 H     1 <1>   0.1500 
 34 H        4.0100     1.0310     1.5760 H     1 <1>   0.1500 
 35 H        3.2640     0.1160    -2.5130 H     1 <1>   0.1500 
 36 H        6.1020     0.0000    -1.5990 H     1 <1>   0.0800 
 37 H        6.7840     1.5870    -1.8390 H     1 <1>   0.0800 
 38 H        5.4890     1.0360    -2.8720 H     1 <1>   0.0800 
 39 H        4.1910     4.6080     2.0530 H     1 <1>   0.0800 
 40 H        5.7680     4.2110     1.4300 H     1 <1>   0.0800 
 41 H        2.4840     3.0020    -0.8880 H     1 <1>   0.0800 
 42 H        2.1240     3.8290     0.5970 H     1 <1>   0.0800 
 43 H        5.5040     5.7030    -0.4440 H     1 <1>   0.0800 
 44 H        5.2040     6.5990     1.0230 H     1 <1>   0.0800 
 45 H        1.8650     5.3750    -1.2810 H     1 <1>   0.0800 
 46 H        3.4550     4.9670    -1.8690 H     1 <1>   0.0800 
 47 H        2.8240     6.3630     0.6440 H     1 <1>   0.4500 
 48 H        4.0180     8.2570    -0.3280 H     1 <1>   0.0800 
 49 H        4.0330     7.3640    -1.8320 H     1 <1>   0.0800 
 50 H        2.1780     7.4970    -3.2590 H     1 <1>   0.1500 
 51 H        2.7780     8.4330     1.4730 H     1 <1>   0.1500 
 52 H       -0.1290     8.1060    -3.7010 H     1 <1>   0.1500 
 53 H       -1.5800     8.8740    -1.8750 H     1 <1>   0.1500 
 54 H       -1.9320     9.3880     0.4720 H     1 <1>   0.1500 
 55 H        1.2820     9.1780     3.2360 H     1 <1>   0.1500 
 56 H       -1.0640     9.6460     2.7580 H     1 <1>   0.1500 
@<TRIPOS>BOND
  1   1   2  1   
  2   1   3  1   
  3   2   4  ar  
  4   2   5  ar  
  5   3  29  1   
  6   3  30  1   
  7   3  31  1   
  8   4   6  ar  
  9   4  32  1   
 10   5   7  ar  
 11   5  33  1   
 12   6   8  ar  
 13   6  34  1   
 14   7   8  ar  
 15   7  35  1   
 16   8   9  1   
 17   9  10  2   
 18   9  11  1   
 19  10  12  1   
 20  11  36  1   
 21  11  37  1   
 22  11  38  1   
 23  12  13  1   
 24  12  14  1   
 25  13  15  1   
 26  13  39  1   
 27  13  40  1   
 28  14  16  1   
 29  14  41  1   
 30  14  42  1   
 31  15  17  1   
 32  15  43  1   
 33  15  44  1   
 34  16  17  1   
 35  16  45  1   
 36  16  46  1   
 37  17  18  1   
 38  17  47  1   
 39  18  19  1   
 40  18  48  1   
 41  18  49  1   
 42  19  20  ar  
 43  19  21  ar  
 44  20  22  ar  
 45  20  23  ar  
 46  21  24  ar  
 47  21  50  1   
 48  22  25  ar  
 49  22  26  ar  
 50  23  27  ar  
 51  23  51  1   
 52  24  25  ar  
 53  24  52  1   
 54  25  53  1   
 55  26  28  ar  
 56  26  54  1   
 57  27  28  ar  
 58  27  55  1   
 59  28  56  1   
@<TRIPOS>SUBSTRUCTURE
  1 ****  14 GROUP 4 **** **** 0

# MOE 2024.06 (io_trps.svl 2023.06)
