@<TRIPOS>MOLECULE
NONAME
39 40 1 0 0 
SMALL
USER_CHARGES


@<TRIPOS>ATOM
  1 O       -1.0450     0.0650    -0.5570 O.2   1 <1>  -0.5700 
  2 C       -1.9550    -0.7370    -0.4700 C.2   1 <1>   0.7060 
  3 O       -3.1670    -0.2480    -0.2160 O.3   1 <1>  -0.2330 
  4 C       -1.8020    -2.1610    -0.6180 C.2   1 <1>  -0.1240 
  5 C       -4.2770    -1.0080    -0.1030 C.ar  1 <1>   0.0820 
  6 C       -2.8800    -2.9830    -0.4890 C.2   1 <1>  -0.1670 
  7 C       -0.3810    -2.6530    -0.9180 C.3   1 <1>  -0.0220 
  8 C       -4.1770    -2.4010    -0.2470 C.ar  1 <1>   0.0280 
  9 C       -5.4940    -0.3760     0.1450 C.ar  1 <1>  -0.1440 
 10 C       -2.8000    -4.5100    -0.5750 C.3   1 <1>  -0.1020 
 11 C        0.3820    -2.9370     0.3780 C.3   1 <1>  -0.2400 
 12 C       -5.3640    -3.1350    -0.1490 C.ar  1 <1>  -0.1500 
 13 C       -6.6530    -1.1380     0.2310 C.ar  1 <1>   0.0830 
 14 C       -5.5660     1.1440     0.3080 C.3   1 <1>  -0.0970 
 15 C       -6.5760    -2.5220     0.0850 C.ar  1 <1>  -0.1500 
 16 O       -7.8260    -0.4950     0.4480 O.3   1 <1>  -0.3630 
 17 C       -9.0790    -1.1580     0.3960 C.3   1 <1>   0.1810 
 18 C      -10.2250    -0.1750     0.5790 C.2   1 <1>   0.6590 
 19 O      -10.9940    -0.2690     1.5020 O.2   1 <1>  -0.5700 
 20 O      -10.3490     0.7710    -0.3480 O.3   1 <1>  -0.4300 
 21 C      -11.3710     1.7440    -0.2840 C.3   1 <1>   0.0400 
 22 H        0.1550    -1.9120    -1.4880 H     1 <1>   0.0800 
 23 H       -0.4000    -3.5340    -1.5320 H     1 <1>   0.0800 
 24 H       -3.3210    -4.8560    -1.4500 H     1 <1>   0.0800 
 25 H       -3.2510    -4.9490     0.2970 H     1 <1>   0.0800 
 26 H       -1.7950    -4.8800    -0.6180 H     1 <1>   0.0800 
 27 H        0.4620    -2.0380     0.9650 H     1 <1>   0.0800 
 28 H        1.3740    -3.2880     0.1540 H     1 <1>   0.0800 
 29 H       -0.1270    -3.6850     0.9600 H     1 <1>   0.0800 
 30 H       -5.3520    -4.2030    -0.2590 H     1 <1>   0.1500 
 31 H       -4.6280     1.5540     0.6330 H     1 <1>   0.0800 
 32 H       -6.3050     1.4140     1.0410 H     1 <1>   0.0800 
 33 H       -5.8330     1.5940    -0.6310 H     1 <1>   0.0800 
 34 H       -7.4520    -3.1380     0.1520 H     1 <1>   0.1500 
 35 H       -9.1080    -1.8890     1.1830 H     1 <1>   0.0800 
 36 H       -9.1710    -1.6360    -0.5620 H     1 <1>   0.0800 
 37 H      -11.2700     2.4000    -1.1300 H     1 <1>   0.0800 
 38 H      -11.2650     2.2990     0.6320 H     1 <1>   0.0800 
 39 H      -12.3260     1.2480    -0.3100 H     1 <1>   0.0800 
@<TRIPOS>BOND
  1   1   2  2   
  2   2   3  1   
  3   2   4  1   
  4   3   5  1   
  5   4   6  2   
  6   4   7  1   
  7   5   8  ar  
  8   5   9  ar  
  9   6   8  1   
 10   6  10  1   
 11   7  11  1   
 12   7  22  1   
 13   7  23  1   
 14   8  12  ar  
 15   9  13  ar  
 16   9  14  1   
 17  10  24  1   
 18  10  25  1   
 19  10  26  1   
 20  11  27  1   
 21  11  28  1   
 22  11  29  1   
 23  12  15  ar  
 24  12  30  1   
 25  13  15  ar  
 26  13  16  1   
 27  14  31  1   
 28  14  32  1   
 29  14  33  1   
 30  15  34  1   
 31  16  17  1   
 32  17  18  1   
 33  17  35  1   
 34  17  36  1   
 35  18  19  2   
 36  18  20  1   
 37  20  21  1   
 38  21  37  1   
 39  21  38  1   
 40  21  39  1   
@<TRIPOS>SUBSTRUCTURE
  1 ****   9 GROUP 4 **** **** 0

# MOE 2024.06 (io_trps.svl 2023.06)
