@<TRIPOS>MOLECULE
NONAME
55 57 1 0 0 
SMALL
USER_CHARGES


@<TRIPOS>ATOM
  1 CL      -0.0490    -0.2540     0.1090 Cl    1 <1>  -0.1770 
  2 C       -0.5680    -1.9030     0.3550 C.ar  1 <1>   0.1770 
  3 C       -1.6760    -2.2050     1.1320 C.ar  1 <1>  -0.0090 
  4 C        0.1660    -2.8870    -0.2640 C.ar  1 <1>  -0.1500 
  5 S       -2.6450    -0.9150     1.9420 S.o2  1 <1>   1.4470 
  6 C       -2.0150    -3.5460     1.2450 C.ar  1 <1>  -0.1500 
  7 C       -0.1720    -4.2310    -0.1410 C.ar  1 <1>   0.1000 
  8 O       -1.7770    -0.0250     2.6800 O.2   1 <1>  -0.6500 
  9 O       -3.7650    -1.5110     2.6400 O.2   1 <1>  -0.6500 
 10 N       -3.2960    -0.0420     0.6450 N.am  1 <1>  -0.8490 
 11 C       -1.3060    -4.5850     0.6280 C.ar  1 <1>   0.0860 
 12 N        0.6340    -5.1570    -0.8040 N.pl3 1 <1>  -0.8380 
 13 C       -4.4120    -0.6770    -0.0340 C.3   1 <1>   0.1960 
 14 C       -3.7660     1.2760     1.0260 C.3   1 <1>   0.1960 
 15 C       -1.7780    -5.9510     0.8070 C.2   1 <1>   0.5440 
 16 C        2.0510    -5.3150    -0.3750 C.3   1 <1>   0.2090 
 17 C        0.5420    -5.2270    -2.2860 C.3   1 <1>   0.2090 
 18 C       -5.0120     0.4390    -0.8780 C.3   1 <1>  -0.1600 
 19 C       -4.6370     1.7270    -0.1430 C.3   1 <1>  -0.1600 
 20 O       -2.8680    -6.1740     1.3010 O.2   1 <1>  -0.5700 
 21 N       -1.0240    -7.0210     0.4320 N.am  1 <1>  -0.7300 
 22 C        2.8160    -5.6940    -1.6360 C.3   1 <1>  -0.1600 
 23 C        1.9790    -5.1340    -2.7800 C.3   1 <1>  -0.1600 
 24 C       -1.4070    -8.4480     0.4710 C.3   1 <1>   0.1400 
 25 C       -1.0740    -9.1290    -0.8670 C.3   1 <1>  -0.0800 
 26 C       -1.6000   -10.5690    -0.8680 C.3   1 <1>  -0.2400 
 27 C        0.4360    -9.1350    -1.1540 C.3   1 <1>  -0.2400 
 28 H        1.0170    -2.6090    -0.8570 H     1 <1>   0.1500 
 29 H       -2.8750    -3.8020     1.8430 H     1 <1>   0.1500 
 30 H       -5.1450    -1.0160     0.6810 H     1 <1>   0.0800 
 31 H       -4.0830    -1.5070    -0.6360 H     1 <1>   0.0800 
 32 H       -2.9380     1.9450     1.1950 H     1 <1>   0.0800 
 33 H       -4.3610     1.2070     1.9230 H     1 <1>   0.0800 
 34 H        2.1340    -6.0820     0.3770 H     1 <1>   0.0800 
 35 H        2.4230    -4.3860     0.0240 H     1 <1>   0.0800 
 36 H       -0.0640    -4.4300    -2.6830 H     1 <1>   0.0800 
 37 H        0.1090    -6.1720    -2.5650 H     1 <1>   0.0800 
 38 H       -6.0770     0.3200    -0.9760 H     1 <1>   0.0800 
 39 H       -4.5650     0.4270    -1.8570 H     1 <1>   0.0800 
 40 H       -4.0710     2.3760    -0.7890 H     1 <1>   0.0800 
 41 H       -5.5030     2.2550     0.2140 H     1 <1>   0.0800 
 42 H       -0.1650    -6.7790    -0.0810 H     1 <1>   0.3700 
 43 H        2.8650    -6.7660    -1.7080 H     1 <1>   0.0800 
 44 H        3.8170    -5.3000    -1.6290 H     1 <1>   0.0800 
 45 H        2.2250    -4.0990    -2.9430 H     1 <1>   0.0800 
 46 H        2.1210    -5.6770    -3.6980 H     1 <1>   0.0800 
 47 H       -2.4630    -8.5300     0.6680 H     1 <1>   0.0800 
 48 H       -0.8790    -8.9320     1.2740 H     1 <1>   0.0800 
 49 H       -1.5800    -8.5900    -1.6510 H     1 <1>   0.0800 
 50 H       -1.1260   -11.1480    -0.0940 H     1 <1>   0.0800 
 51 H       -1.4060   -11.0380    -1.8160 H     1 <1>   0.0800 
 52 H       -2.6630   -10.5780    -0.7000 H     1 <1>   0.0800 
 53 H        0.9660    -9.6470    -0.3710 H     1 <1>   0.0800 
 54 H        0.8140    -8.1330    -1.2250 H     1 <1>   0.0800 
 55 H        0.6350    -9.6330    -2.0860 H     1 <1>   0.0800 
@<TRIPOS>BOND
  1   1   2  1   
  2   2   3  ar  
  3   2   4  ar  
  4   3   5  1   
  5   3   6  ar  
  6   4   7  ar  
  7   4  28  1   
  8   5   8  2   
  9   5   9  2   
 10   5  10  am  
 11   6  11  ar  
 12   6  29  1   
 13   7  11  ar  
 14   7  12  1   
 15  10  13  1   
 16  10  14  1   
 17  11  15  1   
 18  12  16  1   
 19  12  17  1   
 20  13  18  1   
 21  13  30  1   
 22  13  31  1   
 23  14  19  1   
 24  14  32  1   
 25  14  33  1   
 26  15  20  2   
 27  15  21  am  
 28  16  22  1   
 29  16  34  1   
 30  16  35  1   
 31  17  23  1   
 32  17  36  1   
 33  17  37  1   
 34  18  19  1   
 35  18  38  1   
 36  18  39  1   
 37  19  40  1   
 38  19  41  1   
 39  21  24  1   
 40  21  42  1   
 41  22  23  1   
 42  22  43  1   
 43  22  44  1   
 44  23  45  1   
 45  23  46  1   
 46  24  25  1   
 47  24  47  1   
 48  24  48  1   
 49  25  26  1   
 50  25  27  1   
 51  25  49  1   
 52  26  50  1   
 53  26  51  1   
 54  26  52  1   
 55  27  53  1   
 56  27  54  1   
 57  27  55  1   
@<TRIPOS>SUBSTRUCTURE
  1 ****  11 GROUP 4 **** **** 0

# MOE 2024.06 (io_trps.svl 2023.06)
