@<TRIPOS>MOLECULE
NONAME
41 42 1 0 0 
SMALL
USER_CHARGES


@<TRIPOS>ATOM
  1 O        0.3280    -0.1130     0.1450 O.2   1 <1>  -0.5700 
  2 C        0.7140     1.0360     0.2540 C.2   1 <1>   0.6900 
  3 N        2.0460     1.3110     0.4470 N.am  1 <1>  -0.6600 
  4 N       -0.1550     2.0850     0.1560 N.am  1 <1>  -0.5470 
  5 C        3.0810     0.2780     0.1710 C.3   1 <1>   0.1400 
  6 C        2.5250     2.5590     1.1020 C.3   1 <1>   0.1400 
  7 C       -1.5540     2.1340     0.0600 C.ar  1 <1>   0.1170 
  8 C        4.1230     0.7760    -0.8390 C.3   1 <1>  -0.1600 
  9 C        3.0670     3.5190     0.0390 C.3   1 <1>  -0.1600 
 10 C       -2.3780     1.1160     0.5290 C.ar  1 <1>  -0.1500 
 11 C       -2.1470     3.2550    -0.5080 C.ar  1 <1>  -0.1500 
 12 C        5.0670     1.8470    -0.2690 C.3   1 <1>  -0.1600 
 13 C        4.5380     3.2890    -0.3560 C.3   1 <1>  -0.1600 
 14 C       -3.7550     1.2090     0.4300 C.ar  1 <1>  -0.1500 
 15 C       -3.5220     3.3550    -0.6090 C.ar  1 <1>  -0.1500 
 16 C       -4.3370     2.3370    -0.1440 C.ar  1 <1>   0.0830 
 17 O       -5.6770     2.5140    -0.2820 O.3   1 <1>  -0.3630 
 18 C       -6.5820     1.5140     0.1230 C.3   1 <1>   0.1200 
 19 C       -7.9940     2.0020    -0.1840 C.3   1 <1>  -0.2400 
 20 H        0.3270     2.9640     0.0140 H     1 <1>   0.3700 
 21 H        2.6160    -0.6060    -0.2330 H     1 <1>   0.0800 
 22 H        3.5580    -0.0030     1.0940 H     1 <1>   0.0800 
 23 H        3.2830     2.3280     1.8310 H     1 <1>   0.0800 
 24 H        1.7100     3.0240     1.6290 H     1 <1>   0.0800 
 25 H        3.6360     1.1250    -1.7330 H     1 <1>   0.0800 
 26 H        4.7210    -0.0740    -1.1170 H     1 <1>   0.0800 
 27 H        2.9810     4.5250     0.4110 H     1 <1>   0.0800 
 28 H        2.4480     3.4530    -0.8390 H     1 <1>   0.0800 
 29 H       -1.9420     0.2420     0.9780 H     1 <1>   0.1500 
 30 H       -1.5320     4.0540    -0.8780 H     1 <1>   0.1500 
 31 H        5.9950     1.8080    -0.8140 H     1 <1>   0.0800 
 32 H        5.3000     1.6070     0.7540 H     1 <1>   0.0800 
 33 H        5.1620     3.9010     0.2720 H     1 <1>   0.0800 
 34 H        4.6700     3.6450    -1.3640 H     1 <1>   0.0800 
 35 H       -4.3500     0.3980     0.8030 H     1 <1>   0.1500 
 36 H       -3.9760     4.2240    -1.0510 H     1 <1>   0.1500 
 37 H       -6.4570     1.3500     1.1800 H     1 <1>   0.0800 
 38 H       -6.3630     0.6130    -0.4240 H     1 <1>   0.0800 
 39 H       -8.1960     2.9110     0.3550 H     1 <1>   0.0800 
 40 H       -8.7100     1.2580     0.1160 H     1 <1>   0.0800 
 41 H       -8.1020     2.1780    -1.2390 H     1 <1>   0.0800 
@<TRIPOS>BOND
  1   1   2  2   
  2   2   3  am  
  3   2   4  am  
  4   3   5  1   
  5   3   6  1   
  6   4   7  1   
  7   4  20  1   
  8   5   8  1   
  9   5  21  1   
 10   5  22  1   
 11   6   9  1   
 12   6  23  1   
 13   6  24  1   
 14   7  10  ar  
 15   7  11  ar  
 16   8  12  1   
 17   8  25  1   
 18   8  26  1   
 19   9  13  1   
 20   9  27  1   
 21   9  28  1   
 22  10  14  ar  
 23  10  29  1   
 24  11  15  ar  
 25  11  30  1   
 26  12  13  1   
 27  12  31  1   
 28  12  32  1   
 29  13  33  1   
 30  13  34  1   
 31  14  16  ar  
 32  14  35  1   
 33  15  16  ar  
 34  15  36  1   
 35  16  17  1   
 36  17  18  1   
 37  18  19  1   
 38  18  37  1   
 39  18  38  1   
 40  19  39  1   
 41  19  40  1   
 42  19  41  1   
@<TRIPOS>SUBSTRUCTURE
  1 ****   4 GROUP 4 **** **** 0

# MOE 2024.06 (io_trps.svl 2023.06)
