@<TRIPOS>MOLECULE
NONAME
51 52 1 0 0 
SMALL
USER_CHARGES


@<TRIPOS>ATOM
  1 O       -0.0840    -1.7050    -0.1100 O.2   1 <1>  -0.5700 
  2 C        1.1050    -1.8470     0.0600 C.2   1 <1>   0.6900 
  3 N        1.9860    -0.9920    -0.5140 N.am  1 <1>  -0.5390 
  4 N        1.5790    -2.8600     0.7990 N.am  1 <1>  -0.7300 
  5 C        3.3560    -1.1010    -0.4170 C.2   1 <1>  -0.0290 
  6 C        3.0090    -3.2160     0.8690 C.3   1 <1>   0.5020 
  7 C        3.9220    -2.1630     0.2260 C.2   1 <1>  -0.1240 
  8 C        4.0950     0.0650    -1.0560 C.3   1 <1>  -0.1020 
  9 C        3.1920    -4.5690     0.1820 C.ar  1 <1>  -0.1440 
 10 C        5.3030    -2.4820     0.4110 C.2   1 <1>   0.4950 
 11 C        3.8640    -5.5890     0.8370 C.ar  1 <1>  -0.1500 
 12 C        2.7130    -4.7980    -1.1010 C.ar  1 <1>  -0.1500 
 13 O        5.7130    -3.0450     1.3970 O.2   1 <1>  -0.5700 
 14 C        6.3390    -2.1810    -0.6520 C.3   1 <1>  -0.1790 
 15 C        4.0700    -6.8190     0.2290 C.ar  1 <1>   0.0830 
 16 C        2.8950    -6.0280    -1.7080 C.ar  1 <1>  -0.1500 
 17 O        4.7750    -7.7540     0.9110 O.3   1 <1>  -0.3620 
 18 C        3.5620    -7.0530    -1.0580 C.ar  1 <1>   0.0830 
 19 C        6.1350    -7.4670     1.1370 C.3   1 <1>   0.1200 
 20 O        3.6660    -8.2160    -1.7600 O.3   1 <1>  -0.3630 
 21 C        6.7830    -8.7040     1.7510 C.3   1 <1>  -0.2400 
 22 C        3.8070    -9.4560    -1.1070 C.3   1 <1>   0.1200 
 23 C        3.4600   -10.5650    -2.1000 C.3   1 <1>  -0.1600 
 24 C        3.6030   -11.9500    -1.4560 C.3   1 <1>  -0.1600 
 25 C        3.2570   -13.0590    -2.4530 C.3   1 <1>  -0.2400 
 26 H        1.5370    -0.2280    -1.0180 H     1 <1>   0.3700 
 27 H        0.9180    -3.5810     1.0760 H     1 <1>   0.3700 
 28 H        3.2670    -3.3060     1.9110 H     1 <1>   0.0800 
 29 H        3.5780     0.9860    -0.8490 H     1 <1>   0.0800 
 30 H        4.1440    -0.0690    -2.1210 H     1 <1>   0.0800 
 31 H        5.0880     0.1690    -0.6640 H     1 <1>   0.0800 
 32 H        4.2460    -5.4310     1.8300 H     1 <1>   0.1500 
 33 H        2.1920    -4.0190    -1.6340 H     1 <1>   0.1500 
 34 H        5.8750    -2.0310    -1.6080 H     1 <1>   0.0800 
 35 H        7.0130    -3.0140    -0.7320 H     1 <1>   0.0800 
 36 H        6.9040    -1.3110    -0.3740 H     1 <1>   0.0800 
 37 H        2.5160    -6.2010    -2.6990 H     1 <1>   0.1500 
 38 H        6.2080    -6.6260     1.8050 H     1 <1>   0.0800 
 39 H        6.5920    -7.2230     0.1930 H     1 <1>   0.0800 
 40 H        6.3060    -8.9470     2.6840 H     1 <1>   0.0800 
 41 H        7.8240    -8.5130     1.9380 H     1 <1>   0.0800 
 42 H        6.7020    -9.5370     1.0770 H     1 <1>   0.0800 
 43 H        3.1400    -9.4760    -0.2620 H     1 <1>   0.0800 
 44 H        4.8260    -9.5510    -0.7770 H     1 <1>   0.0800 
 45 H        4.1200   -10.4940    -2.9480 H     1 <1>   0.0800 
 46 H        2.4470   -10.4280    -2.4370 H     1 <1>   0.0800 
 47 H        2.9470   -12.0220    -0.6050 H     1 <1>   0.0800 
 48 H        4.6140   -12.0860    -1.1110 H     1 <1>   0.0800 
 49 H        2.2430   -12.9550    -2.7950 H     1 <1>   0.0800 
 50 H        3.3630   -14.0220    -1.9850 H     1 <1>   0.0800 
 51 H        3.9150   -13.0190    -3.3040 H     1 <1>   0.0800 
@<TRIPOS>BOND
  1   1   2  2   
  2   2   3  am  
  3   2   4  am  
  4   3   5  1   
  5   3  26  1   
  6   4   6  1   
  7   4  27  1   
  8   5   7  2   
  9   5   8  1   
 10   6   7  1   
 11   6   9  1   
 12   6  28  1   
 13   7  10  1   
 14   8  29  1   
 15   8  30  1   
 16   8  31  1   
 17   9  11  ar  
 18   9  12  ar  
 19  10  13  2   
 20  10  14  1   
 21  11  15  ar  
 22  11  32  1   
 23  12  16  ar  
 24  12  33  1   
 25  14  34  1   
 26  14  35  1   
 27  14  36  1   
 28  15  17  1   
 29  15  18  ar  
 30  16  18  ar  
 31  16  37  1   
 32  17  19  1   
 33  18  20  1   
 34  19  21  1   
 35  19  38  1   
 36  19  39  1   
 37  20  22  1   
 38  21  40  1   
 39  21  41  1   
 40  21  42  1   
 41  22  23  1   
 42  22  43  1   
 43  22  44  1   
 44  23  24  1   
 45  23  45  1   
 46  23  46  1   
 47  24  25  1   
 48  24  47  1   
 49  24  48  1   
 50  25  49  1   
 51  25  50  1   
 52  25  51  1   
@<TRIPOS>SUBSTRUCTURE
  1 ****   9 GROUP 4 **** **** 0

# MOE 2024.06 (io_trps.svl 2023.06)
