@<TRIPOS>MOLECULE
NONAME
41 42 1 0 0 
SMALL
USER_CHARGES


@<TRIPOS>ATOM
  1 CL       0.1570     0.4240     0.1000 Cl    1 <1>  -0.1770 
  2 C       -1.4730     1.0490     0.0600 C.ar  1 <1>   0.1770 
  3 C       -1.6790     2.3910    -0.1950 C.ar  1 <1>  -0.1500 
  4 C       -2.5330     0.1900     0.2850 C.ar  1 <1>  -0.1500 
  5 C       -2.9730     2.8810    -0.2250 C.ar  1 <1>  -0.1500 
  6 C       -3.8280     0.6820     0.2550 C.ar  1 <1>  -0.1500 
  7 C       -4.0510     2.0350    -0.0020 C.ar  1 <1>   0.0830 
  8 O       -5.2830     2.6010    -0.0510 O.3   1 <1>  -0.3630 
  9 C       -6.4500     1.8400     0.1400 C.3   1 <1>   0.1200 
 10 C       -7.6400     2.7990     0.0200 C.3   1 <1>   0.3430 
 11 N       -8.9590     2.1230     0.2480 N.4   1 <1>  -0.9590 
 12 C       -9.3110     1.1420    -0.8190 C.3   1 <1>   0.3430 
 13 C      -10.0490     3.1430     0.4180 C.3   1 <1>   0.3430 
 14 C      -10.4820     0.2620    -0.3430 C.3   1 <1>  -0.0800 
 15 C      -11.4670     2.5330     0.3270 C.3   1 <1>  -0.0800 
 16 C      -11.4580     1.0150     0.5910 C.3   1 <1>  -0.1600 
 17 C       -9.9690    -1.0110     0.3470 C.3   1 <1>  -0.2400 
 18 C      -12.1330     2.8600    -1.0210 C.3   1 <1>  -0.2400 
 19 H       -0.8370     3.0380    -0.3670 H     1 <1>   0.1500 
 20 H       -2.3390    -0.8500     0.4820 H     1 <1>   0.1500 
 21 H       -3.1500     3.9240    -0.4220 H     1 <1>   0.1500 
 22 H       -4.6350    -0.0020     0.4330 H     1 <1>   0.1500 
 23 H       -6.4070     1.4030     1.1220 H     1 <1>   0.0800 
 24 H       -6.4780     1.0820    -0.6220 H     1 <1>   0.0800 
 25 H       -7.6290     3.2470    -0.9600 H     1 <1>   0.0800 
 26 H       -7.5110     3.5800     0.7510 H     1 <1>   0.0800 
 27 H       -8.9200     1.5900     1.1270 H     1 <1>   0.4500 
 28 H       -8.4700     0.5140    -1.0610 H     1 <1>   0.0800 
 29 H       -9.5990     1.6740    -1.7110 H     1 <1>   0.0800 
 30 H       -9.9560     3.9090    -0.3350 H     1 <1>   0.0800 
 31 H       -9.9370     3.6180     1.3800 H     1 <1>   0.0800 
 32 H      -11.0220    -0.0440    -1.2230 H     1 <1>   0.0800 
 33 H      -12.0690     3.0010     1.0880 H     1 <1>   0.0800 
 34 H      -11.1710     0.8600     1.6180 H     1 <1>   0.0800 
 35 H      -12.4510     0.6100     0.4820 H     1 <1>   0.0800 
 36 H       -9.3980    -0.7790     1.2290 H     1 <1>   0.0800 
 37 H       -9.3490    -1.5810    -0.3240 H     1 <1>   0.0800 
 38 H      -10.7990    -1.6340     0.6360 H     1 <1>   0.0800 
 39 H      -11.5930     2.4490    -1.8540 H     1 <1>   0.0800 
 40 H      -12.2020     3.9260    -1.1550 H     1 <1>   0.0800 
 41 H      -13.1340     2.4640    -1.0430 H     1 <1>   0.0800 
@<TRIPOS>BOND
  1   1   2  1   
  2   2   3  ar  
  3   2   4  ar  
  4   3   5  ar  
  5   3  19  1   
  6   4   6  ar  
  7   4  20  1   
  8   5   7  ar  
  9   5  21  1   
 10   6   7  ar  
 11   6  22  1   
 12   7   8  1   
 13   8   9  1   
 14   9  10  1   
 15   9  23  1   
 16   9  24  1   
 17  10  11  1   
 18  10  25  1   
 19  10  26  1   
 20  11  12  1   
 21  11  13  1   
 22  11  27  1   
 23  12  14  1   
 24  12  28  1   
 25  12  29  1   
 26  13  15  1   
 27  13  30  1   
 28  13  31  1   
 29  14  16  1   
 30  14  17  1   
 31  14  32  1   
 32  15  16  1   
 33  15  18  1   
 34  15  33  1   
 35  16  34  1   
 36  16  35  1   
 37  17  36  1   
 38  17  37  1   
 39  17  38  1   
 40  18  39  1   
 41  18  40  1   
 42  18  41  1   
@<TRIPOS>SUBSTRUCTURE
  1 ****   9 GROUP 4 **** **** 0

# MOE 2024.06 (io_trps.svl 2023.06)
