@<TRIPOS>MOLECULE
NONAME
38 39 1 0 0 
SMALL
USER_CHARGES


@<TRIPOS>ATOM
  1 S       -0.0600    -0.4170     0.0750 S.3   1 <1>  -0.0800 
  2 C        0.5190     1.2350     0.0350 C.2   1 <1>   0.1040 
  3 C       -1.7330     0.0980     0.0890 C.2   1 <1>  -0.1400 
  4 N        1.8810     1.4990     0.0050 N.am  1 <1>  -0.4940 
  5 C       -0.5270     2.1220     0.0310 C.2   1 <1>  -0.0860 
  6 C       -1.8140     1.4440     0.0610 C.2   1 <1>  -0.1810 
  7 C       -2.7410    -1.0360     0.1280 C.3   1 <1>  -0.0600 
  8 C        3.0280     0.7280     0.0200 C.2   1 <1>   0.7160 
  9 C       -0.3040     3.5500    -0.0050 C.2   1 <1>   0.8060 
 10 C       -3.1410     2.1940     0.0560 C.3   1 <1>  -0.0590 
 11 O        2.9480    -0.4730     0.1990 O.2   1 <1>  -0.5700 
 12 C        4.3060     1.4040    -0.1770 C.2   1 <1>   0.2030 
 13 O        0.8060     4.0390    -0.1510 O.2   1 <1>  -0.5700 
 14 O       -1.3350     4.3940     0.1320 O.3   1 <1>  -0.4300 
 15 N        5.5010     0.9590     0.1720 N.2   1 <1>  -0.7070 
 16 C        4.4380     2.6670    -0.7780 C.2   1 <1>  -0.1500 
 17 C       -1.1690     5.8000     0.1140 C.3   1 <1>   0.0400 
 18 N        6.3730     1.9040    -0.1910 N.pl3 1 <1>   0.3140 
 19 C        5.7530     2.9490    -0.7680 C.2   1 <1>  -0.3020 
 20 C        7.8260     1.7570     0.0330 C.3   1 <1>   0.0960 
 21 C        8.2910     2.6000     1.2280 C.3   1 <1>  -0.2400 
 22 H        2.0870     2.5010    -0.0320 H     1 <1>   0.3700 
 23 H       -2.5750    -1.6350     1.0060 H     1 <1>   0.0800 
 24 H       -2.6180    -1.6580    -0.7400 H     1 <1>   0.0800 
 25 H       -3.7500    -0.6720     0.1480 H     1 <1>   0.0800 
 26 H       -3.9770     1.5230     0.0380 H     1 <1>   0.0800 
 27 H       -3.2060     2.8240    -0.8130 H     1 <1>   0.0800 
 28 H       -3.2250     2.8020     0.9390 H     1 <1>   0.0800 
 29 H        3.6420     3.2760    -1.1690 H     1 <1>   0.1500 
 30 H       -2.1330     6.2590     0.2410 H     1 <1>   0.0800 
 31 H       -0.7430     6.0900    -0.8320 H     1 <1>   0.0800 
 32 H       -0.5140     6.0850     0.9200 H     1 <1>   0.0800 
 33 H        6.2770     3.8140    -1.1320 H     1 <1>   0.1500 
 34 H        8.3410     2.0560    -0.8610 H     1 <1>   0.0800 
 35 H        8.0320     0.7180     0.2160 H     1 <1>   0.0800 
 36 H        8.1040     3.6440     1.0490 H     1 <1>   0.0800 
 37 H        9.3460     2.4620     1.3820 H     1 <1>   0.0800 
 38 H        7.7730     2.2910     2.1190 H     1 <1>   0.0800 
@<TRIPOS>BOND
  1   1   2  1   
  2   1   3  1   
  3   2   4  1   
  4   2   5  2   
  5   3   6  2   
  6   3   7  1   
  7   4   8  am  
  8   4  22  1   
  9   5   6  1   
 10   5   9  1   
 11   6  10  1   
 12   7  23  1   
 13   7  24  1   
 14   7  25  1   
 15   8  11  2   
 16   8  12  1   
 17   9  13  2   
 18   9  14  1   
 19  10  26  1   
 20  10  27  1   
 21  10  28  1   
 22  12  15  2   
 23  12  16  1   
 24  14  17  1   
 25  15  18  1   
 26  16  19  2   
 27  16  29  1   
 28  17  30  1   
 29  17  31  1   
 30  17  32  1   
 31  18  19  1   
 32  18  20  1   
 33  19  33  1   
 34  20  21  1   
 35  20  34  1   
 36  20  35  1   
 37  21  36  1   
 38  21  37  1   
 39  21  38  1   
@<TRIPOS>SUBSTRUCTURE
  1 ****   4 GROUP 4 **** **** 0

# MOE 2024.06 (io_trps.svl 2023.06)
