@<TRIPOS>MOLECULE
NONAME
47 48 1 0 0 
SMALL
USER_CHARGES


@<TRIPOS>ATOM
  1 O        8.3380     0.1020     0.2020 O.3   1 <1>  -0.3630 
  2 C        8.3690     1.4130    -0.1620 C.ar  1 <1>   0.0830 
  3 C        7.1480    -0.6430     0.2070 C.3   1 <1>   0.1200 
  4 C        9.6040     2.0650    -0.1700 C.ar  1 <1>  -0.1440 
  5 C        7.2150     2.1090    -0.5210 C.ar  1 <1>  -0.1500 
  6 C        7.5140    -2.0640     0.6360 C.3   1 <1>   0.3430 
  7 C        9.6490     3.4020    -0.5410 C.ar  1 <1>  -0.1500 
  8 C       10.9080     1.3520     0.2160 C.3   1 <1>   0.0640 
  9 C        7.2760     3.4410    -0.8900 C.ar  1 <1>  -0.1440 
 10 N        6.3180    -2.9590     0.6690 N.4   1 <1>  -0.9060 
 11 C        8.5000     4.0840    -0.8960 C.ar  1 <1>  -0.1500 
 12 C       11.5540     2.0130     1.4390 C.3   1 <1>  -0.2400 
 13 C       11.8860     1.3240    -0.9630 C.3   1 <1>  -0.2400 
 14 C        6.0190     4.1970    -1.2790 C.3   1 <1>  -0.0970 
 15 C        6.6370    -4.3470     1.0550 C.3   1 <1>   0.4230 
 16 C        7.2600    -5.0740    -0.1330 C.3   1 <1>  -0.1600 
 17 C        5.3230    -5.0900     1.2510 C.3   1 <1>  -0.1600 
 18 C        6.0910    -5.4630    -1.0460 C.3   1 <1>  -0.1600 
 19 C        4.8420    -5.4720    -0.1550 C.3   1 <1>  -0.1600 
 20 H        6.7440    -0.6310    -0.7900 H     1 <1>   0.0800 
 21 H        6.4720    -0.1860     0.9080 H     1 <1>   0.0800 
 22 H        6.2530     1.6370    -0.5200 H     1 <1>   0.1500 
 23 H        7.9640    -2.0230     1.6150 H     1 <1>   0.0800 
 24 H        8.2420    -2.4520    -0.0570 H     1 <1>   0.0800 
 25 H       10.5850     3.9290    -0.5560 H     1 <1>   0.1500 
 26 H       10.7050     0.3310     0.4820 H     1 <1>   0.0800 
 27 H        5.8730    -3.0090    -0.2550 H     1 <1>   0.4500 
 28 H        5.6200    -2.5950     1.3260 H     1 <1>   0.4500 
 29 H        8.5660     5.1200    -1.1780 H     1 <1>   0.1500 
 30 H       11.8550     3.0210     1.2190 H     1 <1>   0.0800 
 31 H       12.4200     1.4570     1.7490 H     1 <1>   0.0800 
 32 H       10.8520     2.0360     2.2540 H     1 <1>   0.0800 
 33 H       12.1910     2.3180    -1.2360 H     1 <1>   0.0800 
 34 H       11.4170     0.8650    -1.8150 H     1 <1>   0.0800 
 35 H       12.7620     0.7550    -0.7070 H     1 <1>   0.0800 
 36 H        5.2870     3.5300    -1.6960 H     1 <1>   0.0800 
 37 H        6.2460     4.9480    -2.0140 H     1 <1>   0.0800 
 38 H        5.6000     4.6770    -0.4120 H     1 <1>   0.0800 
 39 H        7.2580    -4.3770     1.9380 H     1 <1>   0.0800 
 40 H        7.7190    -5.9780     0.2330 H     1 <1>   0.0800 
 41 H        8.0160    -4.5080    -0.6470 H     1 <1>   0.0800 
 42 H        4.5900    -4.5290     1.8040 H     1 <1>   0.0800 
 43 H        5.5280    -5.9960     1.7970 H     1 <1>   0.0800 
 44 H        6.2590    -6.4320    -1.4880 H     1 <1>   0.0800 
 45 H        5.9730    -4.7460    -1.8420 H     1 <1>   0.0800 
 46 H        4.1230    -4.7570    -0.5190 H     1 <1>   0.0800 
 47 H        4.3770    -6.4450    -0.1480 H     1 <1>   0.0800 
@<TRIPOS>BOND
  1   1   2  1   
  2   1   3  1   
  3   2   4  ar  
  4   2   5  ar  
  5   3   6  1   
  6   3  20  1   
  7   3  21  1   
  8   4   7  ar  
  9   4   8  1   
 10   5   9  ar  
 11   5  22  1   
 12   6  10  1   
 13   6  23  1   
 14   6  24  1   
 15   7  11  ar  
 16   7  25  1   
 17   8  12  1   
 18   8  13  1   
 19   8  26  1   
 20   9  11  ar  
 21   9  14  1   
 22  10  15  1   
 23  10  27  1   
 24  10  28  1   
 25  11  29  1   
 26  12  30  1   
 27  12  31  1   
 28  12  32  1   
 29  13  33  1   
 30  13  34  1   
 31  13  35  1   
 32  14  36  1   
 33  14  37  1   
 34  14  38  1   
 35  15  16  1   
 36  15  17  1   
 37  15  39  1   
 38  16  18  1   
 39  16  40  1   
 40  16  41  1   
 41  17  19  1   
 42  17  42  1   
 43  17  43  1   
 44  18  19  1   
 45  18  44  1   
 46  18  45  1   
 47  19  46  1   
 48  19  47  1   
@<TRIPOS>SUBSTRUCTURE
  1 ****   1 GROUP 4 **** **** 0

# MOE 2024.06 (io_trps.svl 2023.06)
