@<TRIPOS>MOLECULE
NONAME
35 36 1 0 0 
SMALL
USER_CHARGES


@<TRIPOS>ATOM
  1 CL      -0.5170    -1.3570     1.0250 Cl    1 <1>  -0.1770 
  2 C       -2.0850    -0.6440     0.7440 C.ar  1 <1>   0.1770 
  3 C       -3.2220    -1.3910     0.9820 C.ar  1 <1>  -0.1500 
  4 C       -2.1670     0.6610     0.2880 C.ar  1 <1>  -0.1500 
  5 C       -4.4430    -0.7920     0.7480 C.ar  1 <1>   0.1900 
  6 C       -3.4080     1.2370     0.0610 C.ar  1 <1>  -0.1500 
  7 F       -5.5240    -1.4990     0.9760 F     1 <1>  -0.1900 
  8 C       -4.5830     0.5190     0.2840 C.ar  1 <1>   0.1170 
  9 N       -5.8730     1.0480     0.0740 N.am  1 <1>  -0.5470 
 10 C       -6.3220     2.2040    -0.5080 C.2   1 <1>   0.5690 
 11 O       -5.5900     3.0330    -0.9870 O.2   1 <1>  -0.5700 
 12 C       -7.8200     2.4670    -0.5490 C.3   1 <1>   0.1310 
 13 S       -8.7970     0.8950    -0.3580 S.3   1 <1>  -0.2860 
 14 C      -10.4910     1.4910    -0.3060 C.2   1 <1>   0.2430 
 15 N      -10.8060     2.7350    -0.3700 N.2   1 <1>  -0.3380 
 16 N      -11.5420     0.6780    -0.1940 N.pl3 1 <1>   0.0480 
 17 N      -12.1400     2.7740    -0.2960 N.2   1 <1>  -0.3380 
 18 C      -12.5570     1.5560    -0.1920 C.2   1 <1>   0.0060 
 19 C      -11.5650    -0.7980    -0.1010 C.3   1 <1>   0.0960 
 20 C      -14.0200     1.1740    -0.0810 C.3   1 <1>  -0.0600 
 21 C      -11.4530    -1.2500     1.3580 C.3   1 <1>  -0.2400 
 22 H       -3.1540    -2.4020     1.3370 H     1 <1>   0.1500 
 23 H       -1.2650     1.2200     0.1120 H     1 <1>   0.1500 
 24 H       -3.4490     2.2520    -0.2890 H     1 <1>   0.1500 
 25 H       -6.6250     0.4140     0.3620 H     1 <1>   0.3700 
 26 H       -8.1000     2.9030    -1.4910 H     1 <1>   0.0800 
 27 H       -8.1060     3.1230     0.2520 H     1 <1>   0.0800 
 28 H      -10.7460    -1.1960    -0.6740 H     1 <1>   0.0800 
 29 H      -12.4820    -1.1610    -0.5300 H     1 <1>   0.0800 
 30 H      -14.3110     0.5710    -0.9220 H     1 <1>   0.0800 
 31 H      -14.6280     2.0620    -0.0710 H     1 <1>   0.0800 
 32 H      -14.1940     0.6300     0.8280 H     1 <1>   0.0800 
 33 H      -10.5270    -0.9090     1.7860 H     1 <1>   0.0800 
 34 H      -11.4740    -2.3240     1.4090 H     1 <1>   0.0800 
 35 H      -12.2740    -0.8650     1.9380 H     1 <1>   0.0800 
@<TRIPOS>BOND
  1   1   2  1   
  2   2   3  ar  
  3   2   4  ar  
  4   3   5  ar  
  5   3  22  1   
  6   4   6  ar  
  7   4  23  1   
  8   5   7  1   
  9   5   8  ar  
 10   6   8  ar  
 11   6  24  1   
 12   8   9  1   
 13   9  10  am  
 14   9  25  1   
 15  10  11  2   
 16  10  12  1   
 17  12  13  1   
 18  12  26  1   
 19  12  27  1   
 20  13  14  1   
 21  14  15  2   
 22  14  16  1   
 23  15  17  1   
 24  16  18  1   
 25  16  19  1   
 26  17  18  2   
 27  18  20  1   
 28  19  21  1   
 29  19  28  1   
 30  19  29  1   
 31  20  30  1   
 32  20  31  1   
 33  20  32  1   
 34  21  33  1   
 35  21  34  1   
 36  21  35  1   
@<TRIPOS>SUBSTRUCTURE
  1 ****  13 GROUP 4 **** **** 0

# MOE 2024.06 (io_trps.svl 2023.06)
