@<TRIPOS>MOLECULE
NONAME
51 52 1 0 0 
SMALL
USER_CHARGES


@<TRIPOS>ATOM
  1 BR       0.9750     0.3900    -0.4770 Br    1 <1>  -0.1110 
  2 C        0.2590    -1.3900    -0.3230 C.ar  1 <1>   0.1110 
  3 C       -0.9210    -1.6870    -0.9770 C.ar  1 <1>  -0.1500 
  4 C        0.9400    -2.3200     0.4350 C.ar  1 <1>  -0.1500 
  5 C       -1.4430    -2.9680    -0.8650 C.ar  1 <1>  -0.1440 
  6 C        0.4190    -3.5970     0.5440 C.ar  1 <1>  -0.1500 
  7 C       -0.7730    -3.9270    -0.1030 C.ar  1 <1>   0.0830 
  8 C       -2.7370    -3.3200    -1.5740 C.3   1 <1>   0.4870 
  9 O       -1.3350    -5.1640    -0.0230 O.3   1 <1>  -0.3630 
 10 N       -3.7350    -3.7380    -0.5580 N.4   1 <1>  -0.9590 
 11 C       -0.6120    -6.2590     0.5100 C.3   1 <1>   0.0400 
 12 C       -4.9260    -4.3770    -1.1970 C.3   1 <1>   0.3430 
 13 C       -4.1000    -2.6240     0.3620 C.3   1 <1>   0.3430 
 14 C       -5.9040    -4.9160    -0.1460 C.3   1 <1>  -0.0190 
 15 C       -5.0380    -3.1470     1.4520 C.3   1 <1>  -0.1600 
 16 C       -7.1310    -5.4550    -0.8730 C.2   1 <1>   0.5690 
 17 C       -6.2890    -3.8100     0.8570 C.3   1 <1>  -0.1600 
 18 O       -7.4170    -4.9140    -1.9150 O.2   1 <1>  -0.5700 
 19 N       -7.8680    -6.5010    -0.3730 N.am  1 <1>  -0.6600 
 20 C       -7.6070    -7.2030     0.9140 C.3   1 <1>   0.1400 
 21 C       -9.0620    -6.9930    -1.1140 C.3   1 <1>   0.1400 
 22 C       -6.7360    -8.4310     0.6600 C.3   1 <1>  -0.2400 
 23 C      -10.3080    -6.2630    -0.6190 C.3   1 <1>  -0.2400 
 24 H       -1.4040    -0.9210    -1.5590 H     1 <1>   0.1500 
 25 H        1.8580    -2.0480     0.9280 H     1 <1>   0.1500 
 26 H        0.9560    -4.3140     1.1390 H     1 <1>   0.1500 
 27 H       -2.5480    -4.1310    -2.2580 H     1 <1>   0.0800 
 28 H       -3.1030    -2.4750    -2.1330 H     1 <1>   0.0800 
 29 H       -3.2280    -4.4480    -0.0030 H     1 <1>   0.4500 
 30 H       -1.2000    -7.1500     0.3790 H     1 <1>   0.0800 
 31 H       -0.4370    -6.0910     1.5580 H     1 <1>   0.0800 
 32 H        0.3190    -6.3580    -0.0220 H     1 <1>   0.0800 
 33 H       -4.6170    -5.1870    -1.8380 H     1 <1>   0.0800 
 34 H       -5.4400    -3.6500    -1.8070 H     1 <1>   0.0800 
 35 H       -4.5940    -1.8410    -0.1910 H     1 <1>   0.0800 
 36 H       -3.2130    -2.2130     0.8180 H     1 <1>   0.0800 
 37 H       -5.4150    -5.7210     0.3670 H     1 <1>   0.0800 
 38 H       -5.3360    -2.3240     2.0780 H     1 <1>   0.0800 
 39 H       -4.5060    -3.8470     2.0740 H     1 <1>   0.0800 
 40 H       -6.8950    -4.2210     1.6470 H     1 <1>   0.0800 
 41 H       -6.8820    -3.0650     0.3520 H     1 <1>   0.0800 
 42 H       -8.5420    -7.5080     1.3550 H     1 <1>   0.0800 
 43 H       -7.1240    -6.5460     1.6140 H     1 <1>   0.0800 
 44 H       -9.1730    -8.0550    -0.9720 H     1 <1>   0.0800 
 45 H       -8.9390    -6.8170    -2.1700 H     1 <1>   0.0800 
 46 H       -7.2400    -9.1200     0.0060 H     1 <1>   0.0800 
 47 H       -6.5400    -8.9330     1.5900 H     1 <1>   0.0800 
 48 H       -5.7970    -8.1500     0.2200 H     1 <1>   0.0800 
 49 H      -10.4730    -6.4510     0.4260 H     1 <1>   0.0800 
 50 H      -11.1680    -6.6070    -1.1660 H     1 <1>   0.0800 
 51 H      -10.2050    -5.2050    -0.7830 H     1 <1>   0.0800 
@<TRIPOS>BOND
  1   1   2  1   
  2   2   3  ar  
  3   2   4  ar  
  4   3   5  ar  
  5   3  24  1   
  6   4   6  ar  
  7   4  25  1   
  8   5   7  ar  
  9   5   8  1   
 10   6   7  ar  
 11   6  26  1   
 12   7   9  1   
 13   8  10  1   
 14   8  27  1   
 15   8  28  1   
 16   9  11  1   
 17  10  12  1   
 18  10  13  1   
 19  10  29  1   
 20  11  30  1   
 21  11  31  1   
 22  11  32  1   
 23  12  14  1   
 24  12  33  1   
 25  12  34  1   
 26  13  15  1   
 27  13  35  1   
 28  13  36  1   
 29  14  16  1   
 30  14  17  1   
 31  14  37  1   
 32  15  17  1   
 33  15  38  1   
 34  15  39  1   
 35  16  18  2   
 36  16  19  am  
 37  17  40  1   
 38  17  41  1   
 39  19  20  1   
 40  19  21  1   
 41  20  22  1   
 42  20  42  1   
 43  20  43  1   
 44  21  23  1   
 45  21  44  1   
 46  21  45  1   
 47  22  46  1   
 48  22  47  1   
 49  22  48  1   
 50  23  49  1   
 51  23  50  1   
 52  23  51  1   
@<TRIPOS>SUBSTRUCTURE
  1 ****  10 GROUP 4 **** **** 0

# MOE 2024.06 (io_trps.svl 2023.06)
