@<TRIPOS>MOLECULE
NONAME
48 50 1 0 0 
SMALL
USER_CHARGES


@<TRIPOS>ATOM
  1 S       -0.0290    -0.6060     0.9950 S.o2  1 <1>   1.4470 
  2 O        0.2540    -2.0130     1.1700 O.2   1 <1>  -0.6500 
  3 O       -0.4470     0.1800     2.1370 O.2   1 <1>  -0.6500 
  4 N        1.3830     0.1250     0.4020 N.am  1 <1>  -0.8490 
  5 C       -1.2080    -0.4040    -0.3720 C.ar  1 <1>  -0.0090 
  6 C        2.5610    -0.2910     1.1670 C.3   1 <1>   0.1960 
  7 C        1.2620     1.5850     0.3420 C.3   1 <1>   0.1960 
  8 C       -0.8460    -0.7370    -1.6760 C.ar  1 <1>  -0.1500 
  9 C       -2.4950     0.0810    -0.1460 C.ar  1 <1>  -0.1500 
 10 C        3.8360     0.2610     0.5240 C.3   1 <1>  -0.1600 
 11 C        2.4890     2.1890    -0.3430 C.3   1 <1>  -0.1600 
 12 C       -1.7340    -0.5890    -2.7300 C.ar  1 <1>  -0.1500 
 13 C       -3.3980     0.2360    -1.1850 C.ar  1 <1>  -0.1500 
 14 C        3.7850     1.7910     0.3860 C.3   1 <1>  -0.0190 
 15 C       -2.9980    -0.1020    -2.4620 C.ar  1 <1>   0.1900 
 16 C        5.0280     2.3300    -0.3230 C.2   1 <1>   0.5690 
 17 F       -3.8410     0.0430    -3.4480 F     1 <1>  -0.1900 
 18 O        5.1820     2.0830    -1.4940 O.2   1 <1>  -0.5700 
 19 N        5.9150     3.0610     0.4210 N.am  1 <1>  -0.5470 
 20 C        7.1210     3.6930     0.0680 C.ar  1 <1>   0.1170 
 21 C        7.4530     4.0310    -1.2410 C.ar  1 <1>  -0.1500 
 22 C        8.0210     4.0120     1.0780 C.ar  1 <1>  -0.1500 
 23 C        8.6490     4.6620    -1.5350 C.ar  1 <1>  -0.1500 
 24 C        9.2170     4.6440     0.7910 C.ar  1 <1>  -0.1500 
 25 C        9.5420     4.9730    -0.5140 C.ar  1 <1>   0.0830 
 26 O       10.7360     5.5910    -0.7110 O.3   1 <1>  -0.3630 
 27 C       11.1660     5.9390    -2.0080 C.3   1 <1>   0.0400 
 28 H        2.6250    -1.3670     1.1820 H     1 <1>   0.0800 
 29 H        2.4740     0.0540     2.1860 H     1 <1>   0.0800 
 30 H        1.1630     1.9880     1.3380 H     1 <1>   0.0800 
 31 H        0.3830     1.8550    -0.2180 H     1 <1>   0.0800 
 32 H        0.1450    -1.1170    -1.8650 H     1 <1>   0.1500 
 33 H       -2.7940     0.3390     0.8580 H     1 <1>   0.1500 
 34 H        3.9530    -0.1880    -0.4480 H     1 <1>   0.0800 
 35 H        4.6870    -0.0240     1.1170 H     1 <1>   0.0800 
 36 H        2.3980     3.2600    -0.3620 H     1 <1>   0.0800 
 37 H        2.5200     1.8450    -1.3630 H     1 <1>   0.0800 
 38 H       -1.4550    -0.8450    -3.7360 H     1 <1>   0.1500 
 39 H       -4.3910     0.6110    -1.0120 H     1 <1>   0.1500 
 40 H        3.7470     2.2130     1.3740 H     1 <1>   0.0800 
 41 H        5.6890     3.1330     1.4090 H     1 <1>   0.3700 
 42 H        6.7760     3.8050    -2.0440 H     1 <1>   0.1500 
 43 H        7.7930     3.7640     2.0980 H     1 <1>   0.1500 
 44 H        8.8640     4.9010    -2.5580 H     1 <1>   0.1500 
 45 H        9.9100     4.8870     1.5760 H     1 <1>   0.1500 
 46 H       12.1330     6.4010    -1.9270 H     1 <1>   0.0800 
 47 H       10.4630     6.6330    -2.4340 H     1 <1>   0.0800 
 48 H       11.2360     5.0450    -2.6030 H     1 <1>   0.0800 
@<TRIPOS>BOND
  1   1   2  2   
  2   1   3  2   
  3   1   4  am  
  4   1   5  1   
  5   4   6  1   
  6   4   7  1   
  7   5   8  ar  
  8   5   9  ar  
  9   6  10  1   
 10   6  28  1   
 11   6  29  1   
 12   7  11  1   
 13   7  30  1   
 14   7  31  1   
 15   8  12  ar  
 16   8  32  1   
 17   9  13  ar  
 18   9  33  1   
 19  10  14  1   
 20  10  34  1   
 21  10  35  1   
 22  11  14  1   
 23  11  36  1   
 24  11  37  1   
 25  12  15  ar  
 26  12  38  1   
 27  13  15  ar  
 28  13  39  1   
 29  14  16  1   
 30  14  40  1   
 31  15  17  1   
 32  16  18  2   
 33  16  19  am  
 34  19  20  1   
 35  19  41  1   
 36  20  21  ar  
 37  20  22  ar  
 38  21  23  ar  
 39  21  42  1   
 40  22  24  ar  
 41  22  43  1   
 42  23  25  ar  
 43  23  44  1   
 44  24  25  ar  
 45  24  45  1   
 46  25  26  1   
 47  26  27  1   
 48  27  46  1   
 49  27  47  1   
 50  27  48  1   
@<TRIPOS>SUBSTRUCTURE
  1 ****  11 GROUP 4 **** **** 0

# MOE 2024.06 (io_trps.svl 2023.06)
