@<TRIPOS>MOLECULE
NONAME
51 53 1 0 0 
SMALL
USER_CHARGES


@<TRIPOS>ATOM
  1 O       -0.9780    -3.0480     2.4730 O.2   1 <1>  -0.5700 
  2 C       -0.3180    -2.2700     1.8290 C.2   1 <1>   0.5690 
  3 N       -0.8450    -1.1850     1.1830 N.am  1 <1>  -0.5470 
  4 C        1.1780    -2.5160     1.7120 C.3   1 <1>   0.0450 
  5 C       -2.1560    -0.6980     1.1080 C.ar  1 <1>   0.1170 
  6 C        1.8340    -1.6230     0.6560 C.ar  1 <1>  -0.1430 
  7 C       -2.5190     0.0900     0.0240 C.ar  1 <1>  -0.1500 
  8 C       -3.1110    -0.9570     2.0840 C.ar  1 <1>  -0.1500 
  9 C        1.7740    -1.9220    -0.7030 C.ar  1 <1>  -0.1430 
 10 C        2.4780    -0.4670     1.0740 C.ar  1 <1>  -0.1500 
 11 C       -3.8030     0.5910    -0.0960 C.ar  1 <1>  -0.1500 
 12 C       -4.3960    -0.4600     1.9720 C.ar  1 <1>  -0.1500 
 13 C        2.3580    -1.0570    -1.6170 C.ar  1 <1>  -0.1500 
 14 C        1.0830    -3.1750    -1.2250 C.3   1 <1>  -0.0970 
 15 C        3.0560     0.3900     0.1560 C.ar  1 <1>  -0.1500 
 16 C       -4.7540     0.3100     0.8750 C.ar  1 <1>  -0.1430 
 17 C        2.9960     0.0940    -1.1920 C.ar  1 <1>  -0.1500 
 18 C       -6.1720     0.8300     0.7400 C.3   1 <1>   0.4860 
 19 N       -6.8870     0.0110    -0.2750 N.4   1 <1>  -0.9590 
 20 C       -8.2060     0.6070    -0.6270 C.3   1 <1>   0.3430 
 21 C       -7.0070    -1.4170     0.1520 C.3   1 <1>   0.3430 
 22 C       -8.8400    -0.1840    -1.7740 C.3   1 <1>  -0.1600 
 23 C       -7.6230    -2.2430    -0.9780 C.3   1 <1>  -0.1600 
 24 C       -8.9740    -1.6740    -1.4320 C.3   1 <1>  -0.1600 
 25 H       -0.1560    -0.6920     0.6070 H     1 <1>   0.3700 
 26 H        1.3430    -3.5510     1.4810 H     1 <1>   0.0800 
 27 H        1.6200    -2.3350     2.6740 H     1 <1>   0.0800 
 28 H       -1.7870     0.3110    -0.7340 H     1 <1>   0.1500 
 29 H       -2.8480    -1.5510     2.9420 H     1 <1>   0.1500 
 30 H        2.5330    -0.2210     2.1210 H     1 <1>   0.1500 
 31 H       -4.0430     1.2000    -0.9510 H     1 <1>   0.1500 
 32 H       -5.1040    -0.6830     2.7520 H     1 <1>   0.1500 
 33 H        2.3240    -1.2750    -2.6700 H     1 <1>   0.1500 
 34 H        0.0640    -3.2160    -0.8840 H     1 <1>   0.0800 
 35 H        1.6030    -4.0520    -0.8820 H     1 <1>   0.0800 
 36 H        1.0740    -3.1920    -2.3000 H     1 <1>   0.0800 
 37 H        3.5530     1.2840     0.4900 H     1 <1>   0.1500 
 38 H        3.4460     0.7580    -1.9100 H     1 <1>   0.1500 
 39 H       -6.1410     1.8620     0.4310 H     1 <1>   0.0800 
 40 H       -6.6770     0.7730     1.6900 H     1 <1>   0.0800 
 41 H       -6.2990     0.0080    -1.1170 H     1 <1>   0.4500 
 42 H       -8.0820     1.6350    -0.9280 H     1 <1>   0.0800 
 43 H       -8.8600     0.5790     0.2300 H     1 <1>   0.0800 
 44 H       -7.6290    -1.4860     1.0300 H     1 <1>   0.0800 
 45 H       -6.0340    -1.8170     0.3930 H     1 <1>   0.0800 
 46 H       -8.2460    -0.0630    -2.6630 H     1 <1>   0.0800 
 47 H       -9.8160     0.2210    -1.9830 H     1 <1>   0.0800 
 48 H       -7.7590    -3.2550    -0.6380 H     1 <1>   0.0800 
 49 H       -6.9390    -2.2750    -1.8090 H     1 <1>   0.0800 
 50 H       -9.3290    -2.2170    -2.2920 H     1 <1>   0.0800 
 51 H       -9.6990    -1.7990    -0.6440 H     1 <1>   0.0800 
@<TRIPOS>BOND
  1   1   2  2   
  2   2   3  am  
  3   2   4  1   
  4   3   5  1   
  5   3  25  1   
  6   4   6  1   
  7   4  26  1   
  8   4  27  1   
  9   5   7  ar  
 10   5   8  ar  
 11   6   9  ar  
 12   6  10  ar  
 13   7  11  ar  
 14   7  28  1   
 15   8  12  ar  
 16   8  29  1   
 17   9  13  ar  
 18   9  14  1   
 19  10  15  ar  
 20  10  30  1   
 21  11  16  ar  
 22  11  31  1   
 23  12  16  ar  
 24  12  32  1   
 25  13  17  ar  
 26  13  33  1   
 27  14  34  1   
 28  14  35  1   
 29  14  36  1   
 30  15  17  ar  
 31  15  37  1   
 32  16  18  1   
 33  17  38  1   
 34  18  19  1   
 35  18  39  1   
 36  18  40  1   
 37  19  20  1   
 38  19  21  1   
 39  19  41  1   
 40  20  22  1   
 41  20  42  1   
 42  20  43  1   
 43  21  23  1   
 44  21  44  1   
 45  21  45  1   
 46  22  24  1   
 47  22  46  1   
 48  22  47  1   
 49  23  24  1   
 50  23  48  1   
 51  23  49  1   
 52  24  50  1   
 53  24  51  1   
@<TRIPOS>SUBSTRUCTURE
  1 ****   5 GROUP 4 **** **** 0

# MOE 2024.06 (io_trps.svl 2023.06)
