@<TRIPOS>MOLECULE
NONAME
40 42 1 0 0 
SMALL
USER_CHARGES


@<TRIPOS>ATOM
  1 O       -2.1460    -0.2570     1.6470 O.3   1 <1>  -0.3630 
  2 C       -2.4430     0.5980     0.6280 C.ar  1 <1>   0.0830 
  3 C       -0.8810    -0.3030     2.2700 C.3   1 <1>   0.0400 
  4 C       -1.6610     1.6650     0.1550 C.ar  1 <1>   0.0830 
  5 C       -3.6640     0.3480     0.0230 C.ar  1 <1>  -0.1500 
  6 O       -0.4640     1.9980     0.6810 O.3   1 <1>  -0.5330 
  7 C       -2.1190     2.4390    -0.9000 C.ar  1 <1>  -0.1500 
  8 C       -4.1280     1.1310    -1.0240 C.ar  1 <1>  -0.1440 
  9 C       -3.3440     2.1760    -1.4870 C.ar  1 <1>  -0.1500 
 10 C       -5.4830     0.8470    -1.6410 C.3   1 <1>   0.4860 
 11 N       -6.5340     1.1350    -0.6310 N.4   1 <1>  -0.9590 
 12 C       -7.8870     0.7320    -1.0990 C.3   1 <1>   0.4860 
 13 C       -6.5370     2.5590    -0.1820 C.3   1 <1>   0.3430 
 14 C       -8.9210     1.0030    -0.0180 C.ar  1 <1>  -0.1430 
 15 C       -7.3860     2.7040     1.0820 C.3   1 <1>  -0.0170 
 16 C       -8.6960     1.9320     0.9930 C.ar  1 <1>  -0.1430 
 17 C      -10.1220     0.3090    -0.0540 C.ar  1 <1>  -0.1500 
 18 C       -9.6710     2.1550     1.9520 C.ar  1 <1>  -0.1500 
 19 C      -11.0910     0.5370     0.9050 C.ar  1 <1>  -0.1500 
 20 C      -10.8660     1.4610     1.9080 C.ar  1 <1>  -0.1500 
 21 H       -0.8750    -1.1280     2.9590 H     1 <1>   0.0800 
 22 H       -0.7200     0.6170     2.8010 H     1 <1>   0.0800 
 23 H       -0.1260    -0.4490     1.5170 H     1 <1>   0.0800 
 24 H       -4.2390    -0.4810     0.3950 H     1 <1>   0.1500 
 25 H       -0.0330     2.7450     0.2280 H     1 <1>   0.4500 
 26 H       -1.5210     3.2530    -1.2710 H     1 <1>   0.1500 
 27 H       -3.6710     2.7950    -2.3070 H     1 <1>   0.1500 
 28 H       -5.5250    -0.1880    -1.9390 H     1 <1>   0.0800 
 29 H       -5.6250     1.4620    -2.5150 H     1 <1>   0.0800 
 30 H       -6.3280     0.5700     0.2020 H     1 <1>   0.4500 
 31 H       -7.8960    -0.3190    -1.3400 H     1 <1>   0.0800 
 32 H       -8.1530     1.2870    -1.9840 H     1 <1>   0.0800 
 33 H       -6.9440     3.1840    -0.9600 H     1 <1>   0.0800 
 34 H       -5.5330     2.8920     0.0310 H     1 <1>   0.0800 
 35 H       -7.5890     3.7470     1.2470 H     1 <1>   0.0800 
 36 H       -6.8250     2.3460     1.9270 H     1 <1>   0.0800 
 37 H      -10.3230    -0.4140    -0.8260 H     1 <1>   0.1500 
 38 H       -9.5100     2.8690     2.7420 H     1 <1>   0.1500 
 39 H      -12.0230    -0.0020     0.8740 H     1 <1>   0.1500 
 40 H      -11.6210     1.6390     2.6550 H     1 <1>   0.1500 
@<TRIPOS>BOND
  1   1   2  1   
  2   1   3  1   
  3   2   4  ar  
  4   2   5  ar  
  5   3  21  1   
  6   3  22  1   
  7   3  23  1   
  8   4   6  1   
  9   4   7  ar  
 10   5   8  ar  
 11   5  24  1   
 12   6  25  1   
 13   7   9  ar  
 14   7  26  1   
 15   8   9  ar  
 16   8  10  1   
 17   9  27  1   
 18  10  11  1   
 19  10  28  1   
 20  10  29  1   
 21  11  12  1   
 22  11  13  1   
 23  11  30  1   
 24  12  14  1   
 25  12  31  1   
 26  12  32  1   
 27  13  15  1   
 28  13  33  1   
 29  13  34  1   
 30  14  16  ar  
 31  14  17  ar  
 32  15  16  1   
 33  15  35  1   
 34  15  36  1   
 35  16  18  ar  
 36  17  19  ar  
 37  17  37  1   
 38  18  20  ar  
 39  18  38  1   
 40  19  20  ar  
 41  19  39  1   
 42  20  40  1   
@<TRIPOS>SUBSTRUCTURE
  1 ****  11 GROUP 4 **** **** 0

# MOE 2024.06 (io_trps.svl 2023.06)
