@<TRIPOS>MOLECULE
NONAME
39 41 1 0 0 
SMALL
USER_CHARGES


@<TRIPOS>ATOM
  1 O       -0.7950    -0.6980     2.1490 O.3   1 <1>  -0.5320 
  2 C       -0.5270    -1.5770     1.1690 C.ar  1 <1>   0.0830 
  3 C       -1.4840    -1.8730     0.1900 C.ar  1 <1>   0.0000 
  4 C        0.7180    -2.1900     1.1640 C.ar  1 <1>  -0.1500 
  5 C       -2.7860    -1.2480     0.1610 C.ar  1 <1>   0.6200 
  6 C       -1.1400    -2.8180    -0.7780 C.ar  1 <1>  -0.1500 
  7 C        1.0320    -3.1150     0.1870 C.ar  1 <1>  -0.1500 
  8 N       -2.8320     0.0540    -0.1190 N.ar  1 <1>  -0.6200 
  9 N       -3.8400    -2.0370     0.3820 N.ar  1 <1>  -0.6200 
 10 C        0.0990    -3.4310    -0.7850 C.ar  1 <1>  -0.1500 
 11 C       -4.0210     0.6020    -0.1260 C.ar  1 <1>   0.4100 
 12 C       -5.0210    -1.4650     0.3560 C.ar  1 <1>   0.1670 
 13 N       -4.0690     1.9530    -0.3640 N.pl3 1 <1>  -0.8380 
 14 C       -5.1640    -0.1290     0.1060 C.ar  1 <1>  -0.1500 
 15 C       -6.2160    -2.3560     0.6180 C.3   1 <1>  -0.0970 
 16 C       -3.5080     2.7740     0.7530 C.3   1 <1>   0.2090 
 17 C       -3.6020     2.3540    -1.7280 C.3   1 <1>   0.2090 
 18 C       -3.6460     4.2850     0.4850 C.3   1 <1>   0.3430 
 19 C       -3.7400     3.8710    -1.9610 C.3   1 <1>   0.3430 
 20 N       -3.1000     4.6730    -0.8610 N.4   1 <1>  -0.9060 
 21 H       -0.0910    -0.6380     2.8170 H     1 <1>   0.4500 
 22 H        1.4450    -1.9520     1.9190 H     1 <1>   0.1500 
 23 H       -1.8630    -3.0720    -1.5340 H     1 <1>   0.1500 
 24 H        1.9970    -3.5920     0.1810 H     1 <1>   0.1500 
 25 H        0.3380    -4.1540    -1.5450 H     1 <1>   0.1500 
 26 H       -6.1210     0.3520     0.0880 H     1 <1>   0.1500 
 27 H       -6.2490    -3.1390    -0.1180 H     1 <1>   0.0800 
 28 H       -7.1330    -1.7990     0.5760 H     1 <1>   0.0800 
 29 H       -6.1230    -2.8020     1.5920 H     1 <1>   0.0800 
 30 H       -2.4700     2.5240     0.8960 H     1 <1>   0.0800 
 31 H       -4.0260     2.5260     1.6650 H     1 <1>   0.0800 
 32 H       -4.1810     1.8250    -2.4660 H     1 <1>   0.0800 
 33 H       -2.5730     2.0610    -1.8550 H     1 <1>   0.0800 
 34 H       -3.1340     4.8290     1.2620 H     1 <1>   0.0800 
 35 H       -4.6920     4.5410     0.5370 H     1 <1>   0.0800 
 36 H       -4.7900     4.1080    -2.0160 H     1 <1>   0.0800 
 37 H       -3.2950     4.1230    -2.9100 H     1 <1>   0.0800 
 38 H       -2.0880     4.4880    -0.8690 H     1 <1>   0.4500 
 39 H       -3.2360     5.6780    -1.0260 H     1 <1>   0.4500 
@<TRIPOS>BOND
  1   1   2  1   
  2   1  21  1   
  3   2   3  ar  
  4   2   4  ar  
  5   3   5  1   
  6   3   6  ar  
  7   4   7  ar  
  8   4  22  1   
  9   5   8  ar  
 10   5   9  ar  
 11   6  10  ar  
 12   6  23  1   
 13   7  10  ar  
 14   7  24  1   
 15   8  11  ar  
 16   9  12  ar  
 17  10  25  1   
 18  11  13  1   
 19  11  14  ar  
 20  12  14  ar  
 21  12  15  1   
 22  13  16  1   
 23  13  17  1   
 24  14  26  1   
 25  15  27  1   
 26  15  28  1   
 27  15  29  1   
 28  16  18  1   
 29  16  30  1   
 30  16  31  1   
 31  17  19  1   
 32  17  32  1   
 33  17  33  1   
 34  18  20  1   
 35  18  34  1   
 36  18  35  1   
 37  19  20  1   
 38  19  36  1   
 39  19  37  1   
 40  20  38  1   
 41  20  39  1   
@<TRIPOS>SUBSTRUCTURE
  1 ****   8 GROUP 4 **** **** 0

# MOE 2024.06 (io_trps.svl 2023.06)
