@<TRIPOS>MOLECULE
NONAME
30 30 1 0 0 
SMALL
USER_CHARGES


@<TRIPOS>ATOM
  1 O       -0.9370     0.3620     0.8930 O.co2 1 <1>  -0.9000 
  2 C       -2.1780     0.2400     1.0090 C.2   1 <1>   0.9060 
  3 O       -2.8400     0.5400     2.0360 O.co2 1 <1>  -0.9000 
  4 C       -2.9920    -0.2860    -0.2130 C.3   1 <1>   0.1140 
  5 N       -4.3790     0.2020    -0.1630 N.am  1 <1>  -0.7300 
  6 C       -3.0490    -1.8240    -0.2860 C.3   1 <1>  -0.1600 
  7 C       -5.2160     0.4410    -1.2000 C.2   1 <1>   0.5690 
  8 C       -1.6770    -2.4620    -0.5400 C.3   1 <1>  -0.2400 
  9 O       -4.9430     0.1580    -2.3430 O.2   1 <1>  -0.5700 
 10 C       -6.5370     1.1300    -0.9100 C.3   1 <1>   0.0440 
 11 C       -7.5530     0.2050    -0.2500 C.ar  1 <1>  -0.1440 
 12 C       -7.6050     0.0870     1.1310 C.ar  1 <1>  -0.1500 
 13 C       -8.4380    -0.5260    -1.0270 C.ar  1 <1>  -0.1500 
 14 C       -8.5350    -0.7460     1.7270 C.ar  1 <1>  -0.1500 
 15 C       -9.3710    -1.3590    -0.4320 C.ar  1 <1>  -0.1500 
 16 C       -9.4210    -1.4680     0.9460 C.ar  1 <1>  -0.1500 
 17 H       -2.5080     0.0960    -1.1110 H     1 <1>   0.0800 
 18 H       -4.6210     0.4980     0.7760 H     1 <1>   0.3700 
 19 H       -3.7100    -2.1100    -1.0860 H     1 <1>   0.0800 
 20 H       -3.4490    -2.2010     0.6390 H     1 <1>   0.0800 
 21 H       -1.2520    -2.0770    -1.4500 H     1 <1>   0.0800 
 22 H       -1.7740    -3.5290    -0.6250 H     1 <1>   0.0800 
 23 H       -1.0050    -2.2410     0.2710 H     1 <1>   0.0800 
 24 H       -6.9360     1.5060    -1.8330 H     1 <1>   0.0800 
 25 H       -6.3470     1.9750    -0.2740 H     1 <1>   0.0800 
 26 H       -6.9170     0.6380     1.7500 H     1 <1>   0.1500 
 27 H       -8.3990    -0.4530    -2.1000 H     1 <1>   0.1500 
 28 H       -8.5660    -0.8340     2.7990 H     1 <1>   0.1500 
 29 H      -10.0540    -1.9220    -1.0430 H     1 <1>   0.1500 
 30 H      -10.1450    -2.1150     1.4100 H     1 <1>   0.1500 
@<TRIPOS>BOND
  1   1   2  ar  
  2   2   3  ar  
  3   2   4  1   
  4   4   5  1   
  5   4   6  1   
  6   4  17  1   
  7   5   7  am  
  8   5  18  1   
  9   6   8  1   
 10   6  19  1   
 11   6  20  1   
 12   7   9  2   
 13   7  10  1   
 14   8  21  1   
 15   8  22  1   
 16   8  23  1   
 17  10  11  1   
 18  10  24  1   
 19  10  25  1   
 20  11  12  ar  
 21  11  13  ar  
 22  12  14  ar  
 23  12  26  1   
 24  13  15  ar  
 25  13  27  1   
 26  14  16  ar  
 27  14  28  1   
 28  15  16  ar  
 29  15  29  1   
 30  16  30  1   
@<TRIPOS>SUBSTRUCTURE
  1 ****   5 GROUP 4 **** **** 0

# MOE 2024.06 (io_trps.svl 2023.06)
