@<TRIPOS>MOLECULE
NONAME
46 47 1 0 0 
SMALL
USER_CHARGES


@<TRIPOS>ATOM
  1 BR      -1.7990     1.7990    -3.3510 Br    1 <1>  -0.1110 
  2 C       -2.3590     1.8350    -1.5120 C.ar  1 <1>   0.1110 
  3 C       -3.4850     1.1190    -1.1510 C.ar  1 <1>  -0.1500 
  4 C       -1.6270     2.5740    -0.6050 C.ar  1 <1>  -0.1500 
  5 C       -3.9010     1.1490     0.1740 C.ar  1 <1>  -0.1440 
  6 C       -2.0390     2.5910     0.7160 C.ar  1 <1>  -0.1500 
  7 C       -3.1670     1.8810     1.1020 C.ar  1 <1>  -0.1500 
  8 C       -5.1450     0.3960     0.6050 C.3   1 <1>   0.4870 
  9 N       -6.3460     1.1250     0.0900 N.4   1 <1>  -0.9590 
 10 C       -6.4000     2.4960     0.7080 C.3   1 <1>   0.4860 
 11 C       -7.6140     0.3140     0.2710 C.3   1 <1>   0.3430 
 12 C       -7.6420     3.2170     0.2280 C.ar  1 <1>  -0.1430 
 13 C       -8.6940     0.5230    -0.8390 C.3   1 <1>   0.3430 
 14 C       -7.7070     3.7150    -1.0660 C.ar  1 <1>  -0.1500 
 15 C       -8.7290     3.3720     1.0780 C.ar  1 <1>  -0.1500 
 16 N      -10.0140    -0.1630    -0.5810 N.4   1 <1>  -0.9590 
 17 C       -8.8620     4.3310    -1.5150 C.ar  1 <1>  -0.1500 
 18 C       -9.8810     3.9930     0.6270 C.ar  1 <1>  -0.1500 
 19 C      -10.8750    -0.0820    -1.8090 C.3   1 <1>   0.2630 
 20 C      -10.7680     0.4490     0.5650 C.3   1 <1>   0.2630 
 21 C       -9.9490     4.4650    -0.6710 C.ar  1 <1>  -0.1500 
 22 H       -3.9980     0.5540    -1.9080 H     1 <1>   0.1500 
 23 H       -0.7540     3.1170    -0.9240 H     1 <1>   0.1500 
 24 H       -1.4770     3.1540     1.4430 H     1 <1>   0.1500 
 25 H       -3.4530     1.9100     2.1410 H     1 <1>   0.1500 
 26 H       -5.1760     0.3230     1.6800 H     1 <1>   0.0800 
 27 H       -5.1070    -0.6020     0.1970 H     1 <1>   0.0800 
 28 H       -6.1550     1.2840    -0.9080 H     1 <1>   0.4500 
 29 H       -5.5280     3.0680     0.4290 H     1 <1>   0.0800 
 30 H       -6.4200     2.4220     1.7840 H     1 <1>   0.0800 
 31 H       -8.0450     0.5570     1.2280 H     1 <1>   0.0800 
 32 H       -7.3580    -0.7330     0.2800 H     1 <1>   0.0800 
 33 H       -8.2930     0.1590    -1.7710 H     1 <1>   0.0800 
 34 H       -8.8880     1.5750    -0.9570 H     1 <1>   0.0800 
 35 H       -6.8660     3.6430    -1.7370 H     1 <1>   0.1500 
 36 H       -8.6920     3.0300     2.1000 H     1 <1>   0.1500 
 37 H       -9.8760    -1.1700    -0.3860 H     1 <1>   0.4500 
 38 H       -8.9140     4.7240    -2.5180 H     1 <1>   0.1500 
 39 H      -10.7220     4.1310     1.2880 H     1 <1>   0.1500 
 40 H      -11.0770     0.9480    -2.0610 H     1 <1>   0.0800 
 41 H      -11.8160    -0.5820    -1.6420 H     1 <1>   0.0800 
 42 H      -10.3860    -0.5520    -2.6470 H     1 <1>   0.0800 
 43 H      -10.9480     1.4960     0.3790 H     1 <1>   0.0800 
 44 H      -10.2150     0.3510     1.4850 H     1 <1>   0.0800 
 45 H      -11.7210    -0.0420     0.6900 H     1 <1>   0.0800 
 46 H      -10.8420     4.9590    -1.0200 H     1 <1>   0.1500 
@<TRIPOS>BOND
  1   1   2  1   
  2   2   3  ar  
  3   2   4  ar  
  4   3   5  ar  
  5   3  22  1   
  6   4   6  ar  
  7   4  23  1   
  8   5   7  ar  
  9   5   8  1   
 10   6   7  ar  
 11   6  24  1   
 12   7  25  1   
 13   8   9  1   
 14   8  26  1   
 15   8  27  1   
 16   9  10  1   
 17   9  11  1   
 18   9  28  1   
 19  10  12  1   
 20  10  29  1   
 21  10  30  1   
 22  11  13  1   
 23  11  31  1   
 24  11  32  1   
 25  12  14  ar  
 26  12  15  ar  
 27  13  16  1   
 28  13  33  1   
 29  13  34  1   
 30  14  17  ar  
 31  14  35  1   
 32  15  18  ar  
 33  15  36  1   
 34  16  19  1   
 35  16  20  1   
 36  16  37  1   
 37  17  21  ar  
 38  17  38  1   
 39  18  21  ar  
 40  18  39  1   
 41  19  40  1   
 42  19  41  1   
 43  19  42  1   
 44  20  43  1   
 45  20  44  1   
 46  20  45  1   
 47  21  46  1   
@<TRIPOS>SUBSTRUCTURE
  1 ****   9 GROUP 4 **** **** 0

# MOE 2024.06 (io_trps.svl 2023.06)
