@<TRIPOS>MOLECULE
NONAME
43 45 1 0 0 
SMALL
USER_CHARGES


@<TRIPOS>ATOM
  1 O       -2.5160     4.7430    -0.8540 O.3   1 <1>  -0.5600 
  2 C       -2.0590     3.4240    -0.7190 C.3   1 <1>   0.1200 
  3 C       -3.1550     5.2490     0.2870 C.3   1 <1>   0.1200 
  4 C       -3.2140     2.4650    -0.3460 C.3   1 <1>   0.3430 
  5 C       -4.3810     4.3870     0.6680 C.3   1 <1>   0.3430 
  6 N       -4.5230     3.1950    -0.2410 N.4   1 <1>  -0.9590 
  7 C       -5.6600     2.2940     0.0950 C.3   1 <1>   0.3430 
  8 C       -6.9890     3.0090    -0.1320 C.3   1 <1>  -0.1600 
  9 C       -8.1630     2.0570     0.0900 C.3   1 <1>   0.1200 
 10 O       -9.3380     2.7980    -0.1140 O.3   1 <1>  -0.3630 
 11 C      -10.5630     2.2270     0.0140 C.ar  1 <1>   0.0820 
 12 C      -11.6570     3.0510    -0.2120 C.ar  1 <1>  -0.1500 
 13 C      -10.7630     0.8870     0.3520 C.ar  1 <1>  -0.1500 
 14 C      -12.9320     2.5320    -0.0980 C.ar  1 <1>  -0.1440 
 15 C      -12.0480     0.3790     0.4630 C.ar  1 <1>  -0.1500 
 16 C      -13.1250     1.2150     0.2350 C.ar  1 <1>  -0.1440 
 17 C      -14.2460     3.2460    -0.2980 C.3   1 <1>  -0.0170 
 18 C      -14.5930     0.8760     0.3010 C.3   1 <1>  -0.0170 
 19 C      -15.2720     2.1000    -0.3400 C.3   1 <1>  -0.1600 
 20 H       -1.2860     3.4010     0.0300 H     1 <1>   0.0800 
 21 H       -1.6240     3.1320    -1.6590 H     1 <1>   0.0800 
 22 H       -3.4630     6.2570     0.0710 H     1 <1>   0.0800 
 23 H       -2.4440     5.2810     1.0950 H     1 <1>   0.0800 
 24 H       -2.9810     1.9890     0.5930 H     1 <1>   0.0800 
 25 H       -3.2800     1.6910    -1.0930 H     1 <1>   0.0800 
 26 H       -5.2650     5.0010     0.6120 H     1 <1>   0.0800 
 27 H       -4.2770     4.0630     1.6900 H     1 <1>   0.0800 
 28 H       -4.6740     3.5980    -1.1800 H     1 <1>   0.4500 
 29 H       -5.5860     1.9710     1.1210 H     1 <1>   0.0800 
 30 H       -5.6230     1.4200    -0.5370 H     1 <1>   0.0800 
 31 H       -7.0370     3.3750    -1.1430 H     1 <1>   0.0800 
 32 H       -7.0930     3.8300     0.5540 H     1 <1>   0.0800 
 33 H       -8.1770     1.6790     1.0990 H     1 <1>   0.0800 
 34 H       -8.1510     1.2450    -0.6170 H     1 <1>   0.0800 
 35 H      -11.5050     4.0820    -0.4720 H     1 <1>   0.1500 
 36 H       -9.9410     0.2240     0.5320 H     1 <1>   0.1500 
 37 H      -12.2090    -0.6520     0.7240 H     1 <1>   0.1500 
 38 H      -14.2510     3.8160    -1.2100 H     1 <1>   0.0800 
 39 H      -14.4320     3.8930     0.5410 H     1 <1>   0.0800 
 40 H      -14.8900     0.7720     1.3300 H     1 <1>   0.0800 
 41 H      -14.8160    -0.0270    -0.2390 H     1 <1>   0.0800 
 42 H      -15.4920     1.8730    -1.3690 H     1 <1>   0.0800 
 43 H      -16.1850     2.3620     0.1650 H     1 <1>   0.0800 
@<TRIPOS>BOND
  1   1   2  1   
  2   1   3  1   
  3   2   4  1   
  4   2  20  1   
  5   2  21  1   
  6   3   5  1   
  7   3  22  1   
  8   3  23  1   
  9   4   6  1   
 10   4  24  1   
 11   4  25  1   
 12   5   6  1   
 13   5  26  1   
 14   5  27  1   
 15   6   7  1   
 16   6  28  1   
 17   7   8  1   
 18   7  29  1   
 19   7  30  1   
 20   8   9  1   
 21   8  31  1   
 22   8  32  1   
 23   9  10  1   
 24   9  33  1   
 25   9  34  1   
 26  10  11  1   
 27  11  12  ar  
 28  11  13  ar  
 29  12  14  ar  
 30  12  35  1   
 31  13  15  ar  
 32  13  36  1   
 33  14  16  ar  
 34  14  17  1   
 35  15  16  ar  
 36  15  37  1   
 37  16  18  1   
 38  17  19  1   
 39  17  38  1   
 40  17  39  1   
 41  18  19  1   
 42  18  40  1   
 43  18  41  1   
 44  19  42  1   
 45  19  43  1   
@<TRIPOS>SUBSTRUCTURE
  1 ****  10 GROUP 4 **** **** 0

# MOE 2024.06 (io_trps.svl 2023.06)
