@<TRIPOS>MOLECULE
NONAME
40 40 1 0 0 
SMALL
USER_CHARGES


@<TRIPOS>ATOM
  1 S       -0.0080    -0.2610    -0.3580 S.o2  1 <1>   1.4470 
  2 O        0.0330    -0.7570    -1.7130 O.2   1 <1>  -0.6500 
  3 O       -0.3290    -1.1510     0.7340 O.2   1 <1>  -0.6500 
  4 N       -1.1780     0.9380    -0.4210 N.am  1 <1>  -0.9140 
  5 C        1.5030     0.6650     0.0210 C.ar  1 <1>  -0.0090 
  6 C       -2.5260     0.4510    -0.2210 C.3   1 <1>   0.2760 
  7 C        2.6260     0.5730    -0.7920 C.ar  1 <1>  -0.1500 
  8 C        1.5720     1.4860     1.1390 C.ar  1 <1>  -0.1500 
  9 C       -3.4440     1.1880    -1.2170 C.3   1 <1>  -0.1600 
 10 C       -2.9040     0.7070     1.2500 C.3   1 <1>  -0.1600 
 11 C        3.7900     1.2810    -0.5080 C.ar  1 <1>   0.0830 
 12 C        2.7190     2.1990     1.4400 C.ar  1 <1>  -0.1500 
 13 C       -4.5370     0.2780    -1.7990 C.3   1 <1>  -0.2400 
 14 C       -4.2950     0.1930     1.6450 C.3   1 <1>  -0.2400 
 15 O        4.9010     1.2040    -1.2950 O.3   1 <1>  -0.3620 
 16 C        3.8380     2.1040     0.6190 C.ar  1 <1>   0.0830 
 17 C        4.9590     0.3690    -2.4300 C.3   1 <1>   0.0400 
 18 O        4.9910     2.7860     0.8710 O.3   1 <1>  -0.3630 
 19 C        5.1340     3.6230     1.9960 C.3   1 <1>   0.0400 
 20 H       -1.1330     1.2240    -1.3950 H     1 <1>   0.4200 
 21 H       -2.5670    -0.6080    -0.4290 H     1 <1>   0.0800 
 22 H        2.5690    -0.0660    -1.6540 H     1 <1>   0.1500 
 23 H        0.7110     1.5670     1.7820 H     1 <1>   0.1500 
 24 H       -2.8720     1.5600    -2.0480 H     1 <1>   0.0800 
 25 H       -3.9010     2.0360    -0.7370 H     1 <1>   0.0800 
 26 H       -2.8490     1.7620     1.4530 H     1 <1>   0.0800 
 27 H       -2.1850     0.2160     1.8830 H     1 <1>   0.0800 
 28 H        2.7190     2.8200     2.3150 H     1 <1>   0.1500 
 29 H       -4.0930    -0.5440    -2.3340 H     1 <1>   0.0800 
 30 H       -5.1500     0.8360    -2.4840 H     1 <1>   0.0800 
 31 H       -5.1690    -0.1190    -1.0260 H     1 <1>   0.0800 
 32 H       -5.0670     0.7500     1.1450 H     1 <1>   0.0800 
 33 H       -4.4360     0.3060     2.7060 H     1 <1>   0.0800 
 34 H       -4.3950    -0.8500     1.4000 H     1 <1>   0.0800 
 35 H        5.9360     0.4720    -2.8680 H     1 <1>   0.0800 
 36 H        4.2100     0.6830    -3.1350 H     1 <1>   0.0800 
 37 H        4.8020    -0.6490    -2.1230 H     1 <1>   0.0800 
 38 H        6.1260     4.0370     1.9780 H     1 <1>   0.0800 
 39 H        5.0000     3.0350     2.8870 H     1 <1>   0.0800 
 40 H        4.4070     4.4130     1.9380 H     1 <1>   0.0800 
@<TRIPOS>BOND
  1   1   2  2   
  2   1   3  2   
  3   1   4  am  
  4   1   5  1   
  5   4   6  1   
  6   4  20  1   
  7   5   7  ar  
  8   5   8  ar  
  9   6   9  1   
 10   6  10  1   
 11   6  21  1   
 12   7  11  ar  
 13   7  22  1   
 14   8  12  ar  
 15   8  23  1   
 16   9  13  1   
 17   9  24  1   
 18   9  25  1   
 19  10  14  1   
 20  10  26  1   
 21  10  27  1   
 22  11  15  1   
 23  11  16  ar  
 24  12  16  ar  
 25  12  28  1   
 26  13  29  1   
 27  13  30  1   
 28  13  31  1   
 29  14  32  1   
 30  14  33  1   
 31  14  34  1   
 32  15  17  1   
 33  16  18  1   
 34  17  35  1   
 35  17  36  1   
 36  17  37  1   
 37  18  19  1   
 38  19  38  1   
 39  19  39  1   
 40  19  40  1   
@<TRIPOS>SUBSTRUCTURE
  1 ****   5 GROUP 4 **** **** 0

# MOE 2024.06 (io_trps.svl 2023.06)
