@<TRIPOS>MOLECULE
NONAME
45 46 1 0 0 
SMALL
USER_CHARGES


@<TRIPOS>ATOM
  1 S       -1.8300    -0.0250    -0.0260 S.o2  1 <1>   1.3330 
  2 O       -0.4190     0.2190     0.1300 O.2   1 <1>  -0.6500 
  3 O       -2.7850     0.9560     0.4350 O.2   1 <1>  -0.6500 
  4 N       -2.2080    -1.5410     0.7280 N.am  1 <1>  -0.6930 
  5 C       -2.1720    -0.3760    -1.7380 C.3   1 <1>  -0.1350 
  6 C       -1.4210    -2.6600     0.4660 C.ar  1 <1>   0.1990 
  7 C       -3.5360    -1.7640     1.3850 C.3   1 <1>   0.3370 
  8 C       -0.1120    -2.7260     0.9230 C.ar  1 <1>  -0.1500 
  9 C       -1.9270    -3.7320    -0.2630 C.ar  1 <1>  -0.1500 
 10 C       -4.7580    -1.5070     0.4740 C.2   1 <1>   0.5690 
 11 C       -3.5800    -1.0340     2.7360 C.3   1 <1>  -0.2400 
 12 C        0.6800    -3.8310     0.6630 C.ar  1 <1>  -0.1440 
 13 C       -1.1490    -4.8450    -0.5260 C.ar  1 <1>  -0.1440 
 14 O       -5.2550    -2.4540    -0.0870 O.2   1 <1>  -0.5700 
 15 N       -5.2230    -0.2290     0.3050 N.am  1 <1>  -0.5470 
 16 C        0.1550    -4.8890    -0.0600 C.ar  1 <1>  -0.1500 
 17 C        2.1110    -3.8890     1.1650 C.3   1 <1>  -0.0970 
 18 C       -1.7070    -6.0140    -1.3190 C.3   1 <1>  -0.0970 
 19 C       -6.2780     0.2730    -0.4750 C.ar  1 <1>   0.1170 
 20 C       -6.2320     1.5860    -0.9450 C.ar  1 <1>   0.1600 
 21 C       -7.3930    -0.4820    -0.8040 C.ar  1 <1>  -0.1500 
 22 N       -7.1560     2.1780    -1.6850 N.ar  1 <1>  -0.6200 
 23 C       -8.3680     0.1140    -1.5730 C.ar  1 <1>  -0.1500 
 24 C       -8.2040     1.4260    -1.9830 C.ar  1 <1>   0.1600 
 25 H       -1.9860     0.4950    -2.3360 H     1 <1>   0.0800 
 26 H       -3.1960    -0.6690    -1.8660 H     1 <1>   0.0800 
 27 H       -1.5400    -1.1700    -2.0850 H     1 <1>   0.0800 
 28 H       -3.5900    -2.8110     1.6310 H     1 <1>   0.0800 
 29 H        0.2830    -1.8990     1.4860 H     1 <1>   0.1500 
 30 H       -2.9370    -3.6920    -0.6280 H     1 <1>   0.1500 
 31 H       -3.5630     0.0330     2.6210 H     1 <1>   0.0800 
 32 H       -2.7420    -1.3340     3.3380 H     1 <1>   0.0800 
 33 H       -4.4820    -1.3000     3.2570 H     1 <1>   0.0800 
 34 H       -4.5770     0.4890     0.6660 H     1 <1>   0.3700 
 35 H        0.7660    -5.7520    -0.2630 H     1 <1>   0.1500 
 36 H        2.4630    -2.9060     1.4260 H     1 <1>   0.0800 
 37 H        2.7560    -4.2870     0.4020 H     1 <1>   0.0800 
 38 H        2.1680    -4.5190     2.0340 H     1 <1>   0.0800 
 39 H       -2.7660    -5.9050    -1.4720 H     1 <1>   0.0800 
 40 H       -1.5330    -6.9330    -0.7890 H     1 <1>   0.0800 
 41 H       -1.2240    -6.0670    -2.2780 H     1 <1>   0.0800 
 42 H       -5.3710     2.1800    -0.6910 H     1 <1>   0.1500 
 43 H       -7.4990    -1.4990    -0.4710 H     1 <1>   0.1500 
 44 H       -9.2500    -0.4320    -1.8550 H     1 <1>   0.1500 
 45 H       -8.9740     1.8810    -2.5850 H     1 <1>   0.1500 
@<TRIPOS>BOND
  1   1   2  2   
  2   1   3  2   
  3   1   4  am  
  4   1   5  1   
  5   4   6  1   
  6   4   7  1   
  7   5  25  1   
  8   5  26  1   
  9   5  27  1   
 10   6   8  ar  
 11   6   9  ar  
 12   7  10  1   
 13   7  11  1   
 14   7  28  1   
 15   8  12  ar  
 16   8  29  1   
 17   9  13  ar  
 18   9  30  1   
 19  10  14  2   
 20  10  15  am  
 21  11  31  1   
 22  11  32  1   
 23  11  33  1   
 24  12  16  ar  
 25  12  17  1   
 26  13  16  ar  
 27  13  18  1   
 28  15  19  1   
 29  15  34  1   
 30  16  35  1   
 31  17  36  1   
 32  17  37  1   
 33  17  38  1   
 34  18  39  1   
 35  18  40  1   
 36  18  41  1   
 37  19  20  ar  
 38  19  21  ar  
 39  20  22  ar  
 40  20  42  1   
 41  21  23  ar  
 42  21  43  1   
 43  22  24  ar  
 44  23  24  ar  
 45  23  44  1   
 46  24  45  1   
@<TRIPOS>SUBSTRUCTURE
  1 ****   4 GROUP 4 **** **** 0

# MOE 2024.06 (io_trps.svl 2023.06)
