@<TRIPOS>MOLECULE
NONAME
54 55 1 0 0 
SMALL
USER_CHARGES


@<TRIPOS>ATOM
  1 F       -0.3050    -0.4630    -0.8470 F     1 <1>  -0.1900 
  2 C       -0.8650    -1.6390    -0.6870 C.ar  1 <1>   0.1900 
  3 C       -0.0740    -2.7610    -0.4120 C.ar  1 <1>   0.1000 
  4 C       -2.2330    -1.7030    -0.8140 C.ar  1 <1>  -0.1500 
  5 N        1.3140    -2.7620    -0.2660 N.pl3 1 <1>  -0.8380 
  6 C       -0.7520    -3.9680    -0.2860 C.ar  1 <1>  -0.1500 
  7 C       -2.9050    -2.9160    -0.6630 C.ar  1 <1>   0.0860 
  8 C        2.1460    -3.3760    -1.3460 C.3   1 <1>   0.2090 
  9 C        2.0120    -1.6480     0.4450 C.3   1 <1>   0.2090 
 10 C       -2.1280    -4.0620    -0.4150 C.ar  1 <1>  -0.1430 
 11 C       -4.3410    -2.9260    -0.7740 C.2   1 <1>   0.4230 
 12 C        3.5030    -3.8450    -0.7940 C.3   1 <1>   0.1400 
 13 C        3.3680    -2.1170     1.0020 C.3   1 <1>   0.1400 
 14 C       -2.7630    -5.4440    -0.3040 C.3   1 <1>  -0.0960 
 15 O       -4.9190    -2.5560    -1.7640 O.2   1 <1>  -0.5700 
 16 C       -5.1800    -3.3780     0.4140 C.3   1 <1>  -0.0990 
 17 N        4.2110    -2.7380    -0.0720 N.am  1 <1>  -0.6600 
 18 C       -6.0890    -2.2560     0.9410 C.3   1 <1>  -0.1600 
 19 C        5.4650    -2.3320    -0.4550 C.2   1 <1>   0.5690 
 20 C       -6.9150    -2.7240     2.1430 C.3   1 <1>  -0.2400 
 21 O        6.0490    -2.8570    -1.3730 O.2   1 <1>  -0.5700 
 22 C        6.1820    -1.1940     0.2560 C.3   1 <1>  -0.0990 
 23 C        5.7230     0.1860    -0.2450 C.3   1 <1>  -0.1600 
 24 C        6.4340     1.3180     0.5050 C.3   1 <1>  -0.1600 
 25 C        5.9700     2.6870     0.0000 C.3   1 <1>  -0.2400 
 26 H       -2.7920    -0.8110    -1.0340 H     1 <1>   0.1500 
 27 H       -0.1660    -4.8460    -0.0810 H     1 <1>   0.1500 
 28 H        2.3140    -2.6500    -2.1230 H     1 <1>   0.0800 
 29 H        1.6260    -4.2120    -1.7780 H     1 <1>   0.0800 
 30 H        1.3930    -1.2950     1.2520 H     1 <1>   0.0800 
 31 H        2.1740    -0.8330    -0.2380 H     1 <1>   0.0800 
 32 H        4.1020    -4.2150    -1.6070 H     1 <1>   0.0800 
 33 H        3.3400    -4.6600    -0.1110 H     1 <1>   0.0800 
 34 H        3.1900    -2.8480     1.7710 H     1 <1>   0.0800 
 35 H        3.8630    -1.2800     1.4540 H     1 <1>   0.0800 
 36 H       -2.0360    -6.2120    -0.5000 H     1 <1>   0.0800 
 37 H       -3.5570    -5.5570    -1.0200 H     1 <1>   0.0800 
 38 H       -3.1540    -5.5970     0.6860 H     1 <1>   0.0800 
 39 H       -4.5350    -3.7040     1.2080 H     1 <1>   0.0800 
 40 H       -5.7830    -4.2130     0.1030 H     1 <1>   0.0800 
 41 H       -6.7530    -1.9370     0.1550 H     1 <1>   0.0800 
 42 H       -5.4870    -1.4110     1.2280 H     1 <1>   0.0800 
 43 H       -7.5420    -3.5540     1.8690 H     1 <1>   0.0800 
 44 H       -7.5450    -1.9230     2.4890 H     1 <1>   0.0800 
 45 H       -6.2720    -3.0250     2.9510 H     1 <1>   0.0800 
 46 H        7.2360    -1.2990     0.0700 H     1 <1>   0.0800 
 47 H        6.0400    -1.2850     1.3160 H     1 <1>   0.0800 
 48 H        4.6590     0.2850    -0.1200 H     1 <1>   0.0800 
 49 H        5.9370     0.2610    -1.2990 H     1 <1>   0.0800 
 50 H        7.4990     1.2320     0.3640 H     1 <1>   0.0800 
 51 H        6.2300     1.2420     1.5590 H     1 <1>   0.0800 
 52 H        6.1870     2.7940    -1.0480 H     1 <1>   0.0800 
 53 H        6.4800     3.4690     0.5350 H     1 <1>   0.0800 
 54 H        4.9110     2.8050     0.1490 H     1 <1>   0.0800 
@<TRIPOS>BOND
  1   1   2  1   
  2   2   3  ar  
  3   2   4  ar  
  4   3   5  1   
  5   3   6  ar  
  6   4   7  ar  
  7   4  26  1   
  8   5   8  1   
  9   5   9  1   
 10   6  10  ar  
 11   6  27  1   
 12   7  10  ar  
 13   7  11  1   
 14   8  12  1   
 15   8  28  1   
 16   8  29  1   
 17   9  13  1   
 18   9  30  1   
 19   9  31  1   
 20  10  14  1   
 21  11  15  2   
 22  11  16  1   
 23  12  17  1   
 24  12  32  1   
 25  12  33  1   
 26  13  17  1   
 27  13  34  1   
 28  13  35  1   
 29  14  36  1   
 30  14  37  1   
 31  14  38  1   
 32  16  18  1   
 33  16  39  1   
 34  16  40  1   
 35  17  19  am  
 36  18  20  1   
 37  18  41  1   
 38  18  42  1   
 39  19  21  2   
 40  19  22  1   
 41  20  43  1   
 42  20  44  1   
 43  20  45  1   
 44  22  23  1   
 45  22  46  1   
 46  22  47  1   
 47  23  24  1   
 48  23  48  1   
 49  23  49  1   
 50  24  25  1   
 51  24  50  1   
 52  24  51  1   
 53  25  52  1   
 54  25  53  1   
 55  25  54  1   
@<TRIPOS>SUBSTRUCTURE
  1 ****   3 GROUP 4 **** **** 0

# MOE 2024.06 (io_trps.svl 2023.06)
