@<TRIPOS>MOLECULE
NONAME
51 53 1 0 0 
SMALL
USER_CHARGES


@<TRIPOS>ATOM
  1 S        0.0660     0.4150    -1.1670 S.o2  1 <1>   1.4470 
  2 O       -0.5010     0.9440    -2.3900 O.2   1 <1>  -0.6500 
  3 O        0.0400    -1.0130    -0.9350 O.2   1 <1>  -0.6500 
  4 N       -0.7680     1.1470     0.1140 N.am  1 <1>  -0.8490 
  5 C        1.7640     1.0140    -0.9470 C.ar  1 <1>  -0.0090 
  6 C       -0.9070     2.5950    -0.0790 C.3   1 <1>   0.1960 
  7 C       -2.0760     0.5190     0.3220 C.3   1 <1>   0.1960 
  8 C        2.4540     0.7810     0.2370 C.ar  1 <1>  -0.1500 
  9 C        2.4200     1.7250    -1.9450 C.ar  1 <1>  -0.1500 
 10 C       -1.5260     3.2390     1.1650 C.3   1 <1>  -0.1600 
 11 C       -2.7500     1.0910     1.5740 C.3   1 <1>  -0.1600 
 12 C        3.7450     1.2420     0.4200 C.ar  1 <1>  -0.1500 
 13 C        3.7120     2.1880    -1.7660 C.ar  1 <1>  -0.1500 
 14 C       -2.8870     2.6160     1.4940 C.3   1 <1>  -0.1600 
 15 C        4.3950     1.9570    -0.5770 C.ar  1 <1>   0.1170 
 16 N        5.7080     2.3950    -0.3540 N.am  1 <1>  -0.5470 
 17 C        6.4100     3.4500    -0.8900 C.2   1 <1>   0.5440 
 18 O        5.8450     4.2590    -1.5990 O.2   1 <1>  -0.5700 
 19 C        7.8180     3.6100    -0.5690 C.ar  1 <1>   0.0860 
 20 C        8.6340     2.5200    -0.2630 C.ar  1 <1>  -0.1500 
 21 C        8.4100     4.8740    -0.5520 C.ar  1 <1>  -0.1500 
 22 C        9.9680     2.6770     0.0650 C.ar  1 <1>   0.0820 
 23 C        9.7440     5.0450    -0.2310 C.ar  1 <1>  -0.1500 
 24 O       10.6570     1.5460     0.3550 O.3   1 <1>  -0.3620 
 25 C       10.5280     3.9500     0.0820 C.ar  1 <1>  -0.1500 
 26 C       12.0300     1.5800     0.6680 C.3   1 <1>   0.1200 
 27 C       12.4930     0.1490     0.9210 C.3   1 <1>  -0.2400 
 28 H       -1.5260     2.7950    -0.9390 H     1 <1>   0.0800 
 29 H        0.0610     3.0360    -0.2520 H     1 <1>   0.0800 
 30 H       -1.9530    -0.5440     0.4540 H     1 <1>   0.0800 
 31 H       -2.7000     0.6800    -0.5420 H     1 <1>   0.0800 
 32 H        1.9640     0.2310     1.0240 H     1 <1>   0.1500 
 33 H        1.9150     1.9200    -2.8770 H     1 <1>   0.1500 
 34 H       -1.6420     4.2960     1.0010 H     1 <1>   0.0800 
 35 H       -0.8530     3.1070     1.9950 H     1 <1>   0.0800 
 36 H       -2.1600     0.8230     2.4340 H     1 <1>   0.0800 
 37 H       -3.7210     0.6450     1.6910 H     1 <1>   0.0800 
 38 H        4.2480     1.0460     1.3500 H     1 <1>   0.1500 
 39 H        4.1910     2.7310    -2.5610 H     1 <1>   0.1500 
 40 H       -3.5940     2.8710     0.7230 H     1 <1>   0.0800 
 41 H       -3.2550     3.0030     2.4290 H     1 <1>   0.0800 
 42 H        6.2050     1.8940     0.3790 H     1 <1>   0.3700 
 43 H        8.2390     1.5210    -0.2870 H     1 <1>   0.1500 
 44 H        7.8080     5.7330    -0.7970 H     1 <1>   0.1500 
 45 H       10.1720     6.0330    -0.2250 H     1 <1>   0.1500 
 46 H       11.5610     4.1070     0.3320 H     1 <1>   0.1500 
 47 H       12.1650     2.1850     1.5480 H     1 <1>   0.0800 
 48 H       12.5600     2.0090    -0.1660 H     1 <1>   0.0800 
 49 H       11.9460    -0.2760     1.7440 H     1 <1>   0.0800 
 50 H       13.5400     0.1410     1.1630 H     1 <1>   0.0800 
 51 H       12.3400    -0.4500     0.0410 H     1 <1>   0.0800 
@<TRIPOS>BOND
  1   1   2  2   
  2   1   3  2   
  3   1   4  am  
  4   1   5  1   
  5   4   6  1   
  6   4   7  1   
  7   5   8  ar  
  8   5   9  ar  
  9   6  10  1   
 10   6  28  1   
 11   6  29  1   
 12   7  11  1   
 13   7  30  1   
 14   7  31  1   
 15   8  12  ar  
 16   8  32  1   
 17   9  13  ar  
 18   9  33  1   
 19  10  14  1   
 20  10  34  1   
 21  10  35  1   
 22  11  14  1   
 23  11  36  1   
 24  11  37  1   
 25  12  15  ar  
 26  12  38  1   
 27  13  15  ar  
 28  13  39  1   
 29  14  40  1   
 30  14  41  1   
 31  15  16  1   
 32  16  17  am  
 33  16  42  1   
 34  17  18  2   
 35  17  19  1   
 36  19  20  ar  
 37  19  21  ar  
 38  20  22  ar  
 39  20  43  1   
 40  21  23  ar  
 41  21  44  1   
 42  22  24  1   
 43  22  25  ar  
 44  23  25  ar  
 45  23  45  1   
 46  24  26  1   
 47  25  46  1   
 48  26  27  1   
 49  26  47  1   
 50  26  48  1   
 51  27  49  1   
 52  27  50  1   
 53  27  51  1   
@<TRIPOS>SUBSTRUCTURE
  1 ****  15 GROUP 4 **** **** 0

# MOE 2024.06 (io_trps.svl 2023.06)
