@<TRIPOS>MOLECULE
NONAME
50 53 1 0 0 
SMALL
USER_CHARGES


@<TRIPOS>ATOM
  1 CL       0.6810    -1.1550    -1.3210 Cl    1 <1>  -0.1770 
  2 C        2.3680    -1.2870    -0.8610 C.ar  1 <1>   0.1770 
  3 C        3.2010    -2.1320    -1.5820 C.ar  1 <1>  -0.1440 
  4 C        2.8370    -0.5450     0.2160 C.ar  1 <1>  -0.1440 
  5 C        4.5320    -2.2280    -1.2090 C.ar  1 <1>  -0.1500 
  6 C        2.6780    -2.9410    -2.7600 C.3   1 <1>  -0.0960 
  7 C        4.1710    -0.6550     0.5740 C.ar  1 <1>  -0.1500 
  8 C        1.9090     0.3760     0.9960 C.3   1 <1>  -0.0960 
  9 C        5.0230    -1.4970    -0.1380 C.ar  1 <1>   0.0830 
 10 O        6.3380    -1.6580     0.1510 O.3   1 <1>  -0.3630 
 11 C        6.9490    -0.9570     1.2290 C.3   1 <1>   0.1810 
 12 C        8.4290    -1.3010     1.3540 C.2   1 <1>   0.5690 
 13 O        9.0710    -0.7750     2.2310 O.2   1 <1>  -0.5700 
 14 N        8.9830    -2.1820     0.4840 N.am  1 <1>  -0.7300 
 15 C       10.3890    -2.6300     0.4550 C.3   1 <1>   0.2200 
 16 C       11.0370    -2.2610    -0.8960 C.3   1 <1>  -0.0800 
 17 C       10.4650    -4.1580     0.6620 C.3   1 <1>  -0.0800 
 18 C       12.5220    -2.6770    -0.8540 C.3   1 <1>  -0.1600 
 19 C       10.3480    -3.0100    -2.0600 C.3   1 <1>  -0.1600 
 20 C       11.9510    -4.5710     0.7010 C.3   1 <1>  -0.1600 
 21 C        9.7770    -4.9060    -0.5030 C.3   1 <1>  -0.1600 
 22 C       12.6390    -4.1980    -0.6270 C.3   1 <1>  -0.0800 
 23 C       10.4480    -4.5330    -1.8390 C.3   1 <1>  -0.0800 
 24 C       11.9340    -4.9350    -1.7830 C.3   1 <1>  -0.1600 
 25 H        5.2050    -2.8720    -1.7450 H     1 <1>   0.1500 
 26 H        2.2890    -2.2810    -3.5150 H     1 <1>   0.0800 
 27 H        1.8910    -3.5970    -2.4340 H     1 <1>   0.0800 
 28 H        3.4590    -3.5370    -3.1980 H     1 <1>   0.0800 
 29 H        4.5310    -0.0810     1.4060 H     1 <1>   0.1500 
 30 H        1.4990     1.1240     0.3410 H     1 <1>   0.0800 
 31 H        2.4320     0.8720     1.7930 H     1 <1>   0.0800 
 32 H        1.1010    -0.1920     1.4210 H     1 <1>   0.0800 
 33 H        6.4480    -1.2280     2.1390 H     1 <1>   0.0800 
 34 H        6.8480     0.0970     1.0500 H     1 <1>   0.0800 
 35 H        8.3830    -2.5910    -0.2350 H     1 <1>   0.3700 
 36 H       10.9250    -2.1380     1.2510 H     1 <1>   0.0800 
 37 H       10.9710    -1.1970    -1.0450 H     1 <1>   0.0800 
 38 H       10.0000    -4.4150     1.5980 H     1 <1>   0.0800 
 39 H       13.0260    -2.1510    -0.0620 H     1 <1>   0.0800 
 40 H       13.0030    -2.4090    -1.7790 H     1 <1>   0.0800 
 41 H       10.8240    -2.7480    -2.9890 H     1 <1>   0.0800 
 42 H        9.3170    -2.7170    -2.1360 H     1 <1>   0.0800 
 43 H       12.0300    -5.6310     0.8680 H     1 <1>   0.0800 
 44 H       12.4460    -4.0760     1.5190 H     1 <1>   0.0800 
 45 H        8.7290    -4.6630    -0.5370 H     1 <1>   0.0800 
 46 H        9.8530    -5.9670    -0.3440 H     1 <1>   0.0800 
 47 H       13.6760    -4.4830    -0.5930 H     1 <1>   0.0800 
 48 H        9.9630    -5.0510    -2.6490 H     1 <1>   0.0800 
 49 H       12.0190    -5.9980    -1.6410 H     1 <1>   0.0800 
 50 H       12.4130    -4.6910    -2.7150 H     1 <1>   0.0800 
@<TRIPOS>BOND
  1   1   2  1   
  2   2   3  ar  
  3   2   4  ar  
  4   3   5  ar  
  5   3   6  1   
  6   4   7  ar  
  7   4   8  1   
  8   5   9  ar  
  9   5  25  1   
 10   6  26  1   
 11   6  27  1   
 12   6  28  1   
 13   7   9  ar  
 14   7  29  1   
 15   8  30  1   
 16   8  31  1   
 17   8  32  1   
 18   9  10  1   
 19  10  11  1   
 20  11  12  1   
 21  11  33  1   
 22  11  34  1   
 23  12  13  2   
 24  12  14  am  
 25  14  15  1   
 26  14  35  1   
 27  15  16  1   
 28  15  17  1   
 29  15  36  1   
 30  16  18  1   
 31  16  19  1   
 32  16  37  1   
 33  17  20  1   
 34  17  21  1   
 35  17  38  1   
 36  18  22  1   
 37  18  39  1   
 38  18  40  1   
 39  19  23  1   
 40  19  41  1   
 41  19  42  1   
 42  20  22  1   
 43  20  43  1   
 44  20  44  1   
 45  21  23  1   
 46  21  45  1   
 47  21  46  1   
 48  22  24  1   
 49  22  47  1   
 50  23  24  1   
 51  23  48  1   
 52  24  49  1   
 53  24  50  1   
@<TRIPOS>SUBSTRUCTURE
  1 ****  10 GROUP 4 **** **** 0

# MOE 2024.06 (io_trps.svl 2023.06)
