@<TRIPOS>MOLECULE
NONAME
30 30 1 0 0 
SMALL
USER_CHARGES


@<TRIPOS>ATOM
  1 S       -0.6180     0.3190     0.8020 S.o2  1 <1>   1.2580 
  2 O       -1.6580     1.3200     0.9350 O.2   1 <1>  -0.6500 
  3 O       -0.0250    -0.2020     2.0110 O.2   1 <1>  -0.6500 
  4 C       -1.3670    -1.0720    -0.0860 C.2   1 <1>  -0.0630 
  5 C        0.6980     0.9880    -0.3140 C.3   1 <1>   0.1050 
  6 C       -0.9530    -2.3600    -0.0540 C.2   1 <1>  -0.0220 
  7 C       -2.5070    -0.8680    -0.9410 C.2   1 <1>  -0.1500 
  8 C        0.3760     2.4320    -0.7630 C.3   1 <1>  -0.2400 
  9 C        2.0680     1.0500     0.3970 C.3   1 <1>  -0.2400 
 10 C        0.8980     0.1700    -1.6110 C.3   1 <1>  -0.2400 
 11 S        0.3950    -3.1710     0.8450 S.o2  1 <1>   1.2570 
 12 S       -1.9790    -3.3510    -1.0910 S.3   1 <1>  -0.0800 
 13 C       -2.9550    -1.9770    -1.5500 C.2   1 <1>  -0.1100 
 14 O       -0.0110    -3.4430     2.2030 O.2   1 <1>  -0.6500 
 15 O        1.6150    -2.4470     0.5680 O.2   1 <1>  -0.6500 
 16 C        0.5780    -4.7600     0.0540 C.3   1 <1>  -0.1350 
 17 H       -2.9410     0.1140    -1.0470 H     1 <1>   0.1500 
 18 H        1.1520     2.8300    -1.3920 H     1 <1>   0.0800 
 19 H        0.2750     3.0740     0.0960 H     1 <1>   0.0800 
 20 H       -0.5520     2.4590    -1.3070 H     1 <1>   0.0800 
 21 H        1.9990     1.6540     1.2860 H     1 <1>   0.0800 
 22 H        2.8250     1.4690    -0.2420 H     1 <1>   0.0800 
 23 H        2.3830     0.0650     0.6940 H     1 <1>   0.0800 
 24 H       -0.0080     0.1400    -2.1900 H     1 <1>   0.0800 
 25 H        1.2000    -0.8360    -1.3870 H     1 <1>   0.0800 
 26 H        1.6660     0.6110    -2.2230 H     1 <1>   0.0800 
 27 H       -3.7720    -2.1470    -2.2310 H     1 <1>   0.1500 
 28 H       -0.3100    -5.3490     0.1800 H     1 <1>   0.0800 
 29 H        1.3980    -5.2910     0.4960 H     1 <1>   0.0800 
 30 H        0.7770    -4.6410    -0.9930 H     1 <1>   0.0800 
@<TRIPOS>BOND
  1   1   2  2   
  2   1   3  2   
  3   1   4  1   
  4   1   5  1   
  5   4   6  2   
  6   4   7  1   
  7   5   8  1   
  8   5   9  1   
  9   5  10  1   
 10   6  11  1   
 11   6  12  1   
 12   7  13  2   
 13   7  17  1   
 14   8  18  1   
 15   8  19  1   
 16   8  20  1   
 17   9  21  1   
 18   9  22  1   
 19   9  23  1   
 20  10  24  1   
 21  10  25  1   
 22  10  26  1   
 23  11  14  2   
 24  11  15  2   
 25  11  16  1   
 26  12  13  1   
 27  13  27  1   
 28  16  28  1   
 29  16  29  1   
 30  16  30  1   
@<TRIPOS>SUBSTRUCTURE
  1 ****   4 GROUP 4 **** **** 0

# MOE 2024.06 (io_trps.svl 2023.06)
