@<TRIPOS>MOLECULE
NONAME
40 41 1 0 0 
SMALL
USER_CHARGES


@<TRIPOS>ATOM
  1 S       -0.0140     0.0350     1.0040 S.o2  1 <1>   1.3330 
  2 O        1.3520    -0.3210     1.3090 O.2   1 <1>  -0.6500 
  3 O       -0.9470    -0.9720     0.5670 O.2   1 <1>  -0.6500 
  4 N        0.0790     1.2230    -0.2460 N.am  1 <1>  -0.6930 
  5 C       -0.6820     0.9530     2.3760 C.3   1 <1>  -0.1350 
  6 C       -0.9760     2.0970    -0.4920 C.ar  1 <1>   0.1990 
  7 C        0.9600     0.8780    -1.4040 C.3   1 <1>   0.2570 
  8 C       -0.8040     3.4790    -0.3850 C.ar  1 <1>  -0.1440 
  9 C       -2.2260     1.5970    -0.8430 C.ar  1 <1>  -0.1500 
 10 C        2.3690     1.4690    -1.3080 C.2   1 <1>   0.5690 
 11 C       -1.8780     4.3210    -0.6220 C.ar  1 <1>  -0.1500 
 12 C        0.5430     4.0930    -0.0210 C.3   1 <1>  -0.0970 
 13 C       -3.2970     2.4400    -1.0740 C.ar  1 <1>  -0.1440 
 14 O        2.7600     2.1860    -2.2010 O.2   1 <1>  -0.5700 
 15 N        3.1430     1.1710    -0.2300 N.am  1 <1>  -0.5790 
 16 C       -3.1170     3.8070    -0.9610 C.ar  1 <1>  -0.1500 
 17 C       -4.6570     1.8810    -1.4530 C.3   1 <1>  -0.0970 
 18 C        4.4990     1.6640     0.0340 C.3   1 <1>   0.0490 
 19 C        5.4360     0.7680     0.7720 C.3   1 <1>  -0.2000 
 20 C        4.8630     1.9780     1.4460 C.3   1 <1>  -0.2000 
 21 H       -0.7500     0.3230     3.2420 H     1 <1>   0.0800 
 22 H       -1.6630     1.3160     2.1390 H     1 <1>   0.0800 
 23 H       -0.0510     1.7880     2.6060 H     1 <1>   0.0800 
 24 H        0.5090     1.2420    -2.3100 H     1 <1>   0.0800 
 25 H        1.0410    -0.1910    -1.4900 H     1 <1>   0.0800 
 26 H       -2.3550     0.5340    -0.9390 H     1 <1>   0.1500 
 27 H       -1.7580     5.3870    -0.5470 H     1 <1>   0.1500 
 28 H        1.0270     3.5260     0.7540 H     1 <1>   0.0800 
 29 H        0.4230     5.1020     0.3290 H     1 <1>   0.0800 
 30 H        1.1810     4.1080    -0.8870 H     1 <1>   0.0800 
 31 H        2.7480     0.5560     0.4990 H     1 <1>   0.3700 
 32 H       -3.9400     4.4770    -1.1410 H     1 <1>   0.1500 
 33 H       -4.7050     0.8240    -1.2590 H     1 <1>   0.0800 
 34 H       -4.8400     2.0480    -2.4990 H     1 <1>   0.0800 
 35 H       -5.4290     2.3660    -0.8820 H     1 <1>   0.0800 
 36 H        4.8890     2.2880    -0.7550 H     1 <1>   0.1000 
 37 H        6.4770     0.7790     0.5050 H     1 <1>   0.1000 
 38 H        5.0920    -0.2080     1.0680 H     1 <1>   0.1000 
 39 H        4.1220     1.8450     2.2150 H     1 <1>   0.1000 
 40 H        5.5170     2.8110     1.6380 H     1 <1>   0.1000 
@<TRIPOS>BOND
  1   1   2  2   
  2   1   3  2   
  3   1   4  am  
  4   1   5  1   
  5   4   6  1   
  6   4   7  1   
  7   5  21  1   
  8   5  22  1   
  9   5  23  1   
 10   6   8  ar  
 11   6   9  ar  
 12   7  10  1   
 13   7  24  1   
 14   7  25  1   
 15   8  11  ar  
 16   8  12  1   
 17   9  13  ar  
 18   9  26  1   
 19  10  14  2   
 20  10  15  am  
 21  11  16  ar  
 22  11  27  1   
 23  12  28  1   
 24  12  29  1   
 25  12  30  1   
 26  13  16  ar  
 27  13  17  1   
 28  15  18  1   
 29  15  31  1   
 30  16  32  1   
 31  17  33  1   
 32  17  34  1   
 33  17  35  1   
 34  18  19  1   
 35  18  20  1   
 36  18  36  1   
 37  19  20  1   
 38  19  37  1   
 39  19  38  1   
 40  20  39  1   
 41  20  40  1   
@<TRIPOS>SUBSTRUCTURE
  1 ****   4 GROUP 4 **** **** 0

# MOE 2024.06 (io_trps.svl 2023.06)
