@<TRIPOS>MOLECULE
NONAME
39 40 1 0 0 
SMALL
USER_CHARGES


@<TRIPOS>ATOM
  1 BR      -1.4370     0.3120    -2.8590 Br    1 <1>  -0.1110 
  2 C       -2.2300     1.0340    -1.2630 C.ar  1 <1>   0.1110 
  3 C       -3.4550     0.5430    -0.8540 C.ar  1 <1>  -0.1500 
  4 C       -1.5580     2.0210    -0.5700 C.ar  1 <1>  -0.1500 
  5 C       -4.0370     1.0670     0.2930 C.ar  1 <1>  -0.1440 
  6 C       -2.1370     2.5320     0.5770 C.ar  1 <1>  -0.1500 
  7 C       -3.3680     2.0570     1.0060 C.ar  1 <1>  -0.1500 
  8 C       -5.3910     0.5690     0.7600 C.3   1 <1>   0.4870 
  9 N       -6.4360     1.1140    -0.1500 N.4   1 <1>  -0.9590 
 10 C       -6.4880     2.6230    -0.0890 C.3   1 <1>   0.3430 
 11 C       -7.7830     0.4930     0.1180 C.3   1 <1>   0.3430 
 12 C       -7.5740     3.2020    -1.0130 C.3   1 <1>   0.1400 
 13 C       -8.8820     1.0630    -0.8000 C.3   1 <1>   0.1400 
 14 N       -8.8880     2.5530    -0.7340 N.am  1 <1>  -0.6600 
 15 C       -9.9670     3.2830    -0.3050 C.2   1 <1>   0.7800 
 16 O       -9.9030     4.4810    -0.1210 O.2   1 <1>  -0.5700 
 17 O      -11.1000     2.6270    -0.0620 O.3   1 <1>  -0.4300 
 18 C      -12.2540     3.3140     0.3680 C.3   1 <1>   0.1200 
 19 C      -13.3710     2.2930     0.5570 C.3   1 <1>  -0.2400 
 20 H       -3.9220    -0.2340    -1.4330 H     1 <1>   0.1500 
 21 H       -0.6040     2.3760    -0.9200 H     1 <1>   0.1500 
 22 H       -1.6260     3.2980     1.1370 H     1 <1>   0.1500 
 23 H       -3.7910     2.4710     1.9070 H     1 <1>   0.1500 
 24 H       -5.5740     0.8900     1.7730 H     1 <1>   0.0800 
 25 H       -5.4000    -0.5090     0.7360 H     1 <1>   0.0800 
 26 H       -6.1490     0.8680    -1.1060 H     1 <1>   0.4500 
 27 H       -5.5330     3.0370    -0.3720 H     1 <1>   0.0800 
 28 H       -6.6980     2.9390     0.9190 H     1 <1>   0.0800 
 29 H       -8.0700     0.6800     1.1400 H     1 <1>   0.0800 
 30 H       -7.7310    -0.5750    -0.0200 H     1 <1>   0.0800 
 31 H       -7.3070     3.0390    -2.0420 H     1 <1>   0.0800 
 32 H       -7.6340     4.2670    -0.8600 H     1 <1>   0.0800 
 33 H       -9.8340     0.6610    -0.4980 H     1 <1>   0.0800 
 34 H       -8.7100     0.7540    -1.8160 H     1 <1>   0.0800 
 35 H      -12.5190     4.0410    -0.3830 H     1 <1>   0.0800 
 36 H      -12.0300     3.8170     1.2940 H     1 <1>   0.0800 
 37 H      -13.5800     1.7940    -0.3730 H     1 <1>   0.0800 
 38 H      -14.2650     2.7920     0.8840 H     1 <1>   0.0800 
 39 H      -13.0930     1.5690     1.3020 H     1 <1>   0.0800 
@<TRIPOS>BOND
  1   1   2  1   
  2   2   3  ar  
  3   2   4  ar  
  4   3   5  ar  
  5   3  20  1   
  6   4   6  ar  
  7   4  21  1   
  8   5   7  ar  
  9   5   8  1   
 10   6   7  ar  
 11   6  22  1   
 12   7  23  1   
 13   8   9  1   
 14   8  24  1   
 15   8  25  1   
 16   9  10  1   
 17   9  11  1   
 18   9  26  1   
 19  10  12  1   
 20  10  27  1   
 21  10  28  1   
 22  11  13  1   
 23  11  29  1   
 24  11  30  1   
 25  12  14  1   
 26  12  31  1   
 27  12  32  1   
 28  13  14  1   
 29  13  33  1   
 30  13  34  1   
 31  14  15  am  
 32  15  16  2   
 33  15  17  1   
 34  17  18  1   
 35  18  19  1   
 36  18  35  1   
 37  18  36  1   
 38  19  37  1   
 39  19  38  1   
 40  19  39  1   
@<TRIPOS>SUBSTRUCTURE
  1 ****  10 GROUP 4 **** **** 0

# MOE 2024.06 (io_trps.svl 2023.06)
