@<TRIPOS>MOLECULE
NONAME
55 58 1 0 0 
SMALL
USER_CHARGES


@<TRIPOS>ATOM
  1 O       -0.3050    -0.3480     0.7130 O.3   1 <1>  -0.3630 
  2 C       -0.8050    -1.4810     0.1240 C.ar  1 <1>   0.0830 
  3 C       -1.1590     0.7000     1.1200 C.3   1 <1>   0.0400 
  4 C        0.0980    -2.4910    -0.2600 C.ar  1 <1>   0.1000 
  5 C       -2.1680    -1.6580    -0.1030 C.ar  1 <1>  -0.1500 
  6 N        1.4860    -2.4110    -0.0770 N.pl3 1 <1>  -0.8380 
  7 C       -0.3980    -3.6400    -0.8570 C.ar  1 <1>  -0.1500 
  8 C       -2.6380    -2.8150    -0.7010 C.ar  1 <1>  -0.1500 
  9 C        1.9200    -2.4310     1.3520 C.3   1 <1>   0.2090 
 10 C        2.1560    -1.3620    -0.9020 C.3   1 <1>   0.2090 
 11 C       -1.7530    -3.8070    -1.0780 C.ar  1 <1>  -0.1500 
 12 C        3.4550    -2.5090     1.4750 C.3   1 <1>   0.3430 
 13 C        3.6910    -1.4420    -0.7770 C.3   1 <1>   0.3430 
 14 N        4.1540    -1.4460     0.6600 N.4   1 <1>  -0.9590 
 15 C        5.6370    -1.5300     0.7760 C.3   1 <1>   0.4810 
 16 C        6.2600    -2.8140     0.2330 C.2   1 <1>  -0.2540 
 17 C        5.5990    -3.9310    -0.3670 C.2   1 <1>  -0.2880 
 18 C        7.9630    -2.7110     0.4620 C.3   1 <1>   0.1160 
 19 C        6.6770    -5.1680    -0.8500 C.3   1 <1>  -0.0220 
 20 C        9.3420    -3.6740     0.1040 C.3   1 <1>   0.0000 
 21 C        7.8160    -3.8650    -0.1020 C.3   1 <1>   0.0000 
 22 C        8.3750    -4.9090    -0.5970 C.3   1 <1>   0.0000 
 23 C       10.1430    -4.1580     1.3420 C.3   1 <1>  -0.2400 
 24 C       10.3260    -2.9890    -0.8790 C.3   1 <1>  -0.2400 
 25 H       -0.5560     1.4780     1.5520 H     1 <1>   0.0800 
 26 H       -1.8490     0.3240     1.8550 H     1 <1>   0.0800 
 27 H       -1.6820     1.0800     0.2600 H     1 <1>   0.0800 
 28 H       -2.8870    -0.9130     0.1750 H     1 <1>   0.1500 
 29 H        0.2900    -4.4110    -1.1500 H     1 <1>   0.1500 
 30 H       -3.6930    -2.9430    -0.8720 H     1 <1>   0.1500 
 31 H        1.4800    -3.2850     1.8390 H     1 <1>   0.0800 
 32 H        1.5640    -1.5490     1.8560 H     1 <1>   0.0800 
 33 H        1.8210    -0.3860    -0.5980 H     1 <1>   0.0800 
 34 H        1.8760    -1.4970    -1.9330 H     1 <1>   0.0800 
 35 H       -2.1160    -4.7070    -1.5420 H     1 <1>   0.1500 
 36 H        3.7620    -3.4870     1.1510 H     1 <1>   0.0800 
 37 H        3.7270    -2.4130     2.5120 H     1 <1>   0.0800 
 38 H        4.1270    -0.6070    -1.3000 H     1 <1>   0.0800 
 39 H        4.0160    -2.3370    -1.2750 H     1 <1>   0.0800 
 40 H        3.8600    -0.5460     1.0560 H     1 <1>   0.4500 
 41 H        5.9120    -1.4370     1.8140 H     1 <1>   0.0800 
 42 H        6.0770    -0.6970     0.2530 H     1 <1>   0.0800 
 43 H        4.5580    -4.1200    -0.5630 H     1 <1>   0.1500 
 44 H        8.0460    -2.6220     1.5350 H     1 <1>   0.0000 
 45 H        6.5210    -5.3590    -1.9000 H     1 <1>   0.0800 
 46 H        6.3990    -6.0770    -0.3400 H     1 <1>   0.0800 
 47 H        7.6910    -3.3610    -1.1510 H     1 <1>   0.0000 
 48 H        7.5070    -4.3890     0.8880 H     1 <1>   0.0000 
 49 H        8.7610    -4.9260    -1.6050 H     1 <1>   0.0000 
 50 H        9.5030    -4.6500     2.0530 H     1 <1>   0.0800 
 51 H       10.6180    -3.3260     1.8300 H     1 <1>   0.0800 
 52 H       10.9030    -4.8570     1.0380 H     1 <1>   0.0800 
 53 H        9.8160    -2.6330    -1.7560 H     1 <1>   0.0800 
 54 H       11.0840    -3.6860    -1.1900 H     1 <1>   0.0800 
 55 H       10.8060    -2.1520    -0.4030 H     1 <1>   0.0800 
@<TRIPOS>BOND
  1   1   2  1   
  2   1   3  1   
  3   2   4  ar  
  4   2   5  ar  
  5   3  25  1   
  6   3  26  1   
  7   3  27  1   
  8   4   6  1   
  9   4   7  ar  
 10   5   8  ar  
 11   5  28  1   
 12   6   9  1   
 13   6  10  1   
 14   7  11  ar  
 15   7  29  1   
 16   8  11  ar  
 17   8  30  1   
 18   9  12  1   
 19   9  31  1   
 20   9  32  1   
 21  10  13  1   
 22  10  33  1   
 23  10  34  1   
 24  11  35  1   
 25  12  14  1   
 26  12  36  1   
 27  12  37  1   
 28  13  14  1   
 29  13  38  1   
 30  13  39  1   
 31  14  15  1   
 32  14  40  1   
 33  15  16  1   
 34  15  41  1   
 35  15  42  1   
 36  16  17  2   
 37  16  18  1   
 38  17  19  1   
 39  17  43  1   
 40  18  20  1   
 41  18  21  1   
 42  18  44  1   
 43  19  22  1   
 44  19  45  1   
 45  19  46  1   
 46  20  22  1   
 47  20  23  1   
 48  20  24  1   
 49  21  22  1   
 50  21  47  1   
 51  21  48  1   
 52  22  49  1   
 53  23  50  1   
 54  23  51  1   
 55  23  52  1   
 56  24  53  1   
 57  24  54  1   
 58  24  55  1   
@<TRIPOS>SUBSTRUCTURE
  1 ****  13 GROUP 4 **** **** 0

# MOE 2024.06 (io_trps.svl 2023.06)
