@<TRIPOS>MOLECULE
NONAME
36 37 1 0 0 
SMALL
USER_CHARGES


@<TRIPOS>ATOM
  1 I        0.3040     0.9720     2.0100 I     1 <1>  -0.0810 
  2 C       -1.7350     0.9130     1.3950 C.ar  1 <1>   0.0810 
  3 C       -2.0700     1.4230     0.1540 C.ar  1 <1>  -0.1500 
  4 C       -2.6710     0.3680     2.2530 C.ar  1 <1>  -0.1500 
  5 C       -3.3950     1.3850    -0.2510 C.ar  1 <1>  -0.1440 
  6 C       -3.9900     0.3370     1.8410 C.ar  1 <1>  -0.1500 
  7 C       -4.3630     0.8380     0.5960 C.ar  1 <1>   0.1000 
  8 C       -3.7750     1.9320    -1.6210 C.3   1 <1>  -0.0960 
  9 N       -5.7100     0.7970     0.2170 N.pl3 1 <1>  -0.6000 
 10 C       -6.5020    -0.3060    -0.0200 C.2   1 <1>  -0.0380 
 11 C       -7.8260    -0.2150    -0.2950 C.2   1 <1>  -0.1360 
 12 C       -5.8360    -1.6820     0.0370 C.3   1 <1>  -0.0220 
 13 C       -8.6870    -1.3150    -0.5270 C.2   1 <1>   0.4950 
 14 C       -6.6030    -2.7590    -0.7670 C.3   1 <1>   0.0000 
 15 O       -9.8600    -1.1960    -0.7860 O.2   1 <1>  -0.5700 
 16 C       -8.1070    -2.7150    -0.4210 C.3   1 <1>  -0.0990 
 17 C       -6.4070    -2.5220    -2.2780 C.3   1 <1>  -0.2400 
 18 C       -6.0430    -4.1500    -0.4270 C.3   1 <1>  -0.2400 
 19 H       -1.3050     1.8370    -0.4790 H     1 <1>   0.1500 
 20 H       -2.3790    -0.0190     3.2130 H     1 <1>   0.1500 
 21 H       -4.7460    -0.0740     2.4850 H     1 <1>   0.1500 
 22 H       -2.9010     2.2050    -2.1840 H     1 <1>   0.0800 
 23 H       -4.3960     2.8010    -1.5100 H     1 <1>   0.0800 
 24 H       -4.3150     1.1850    -2.1750 H     1 <1>   0.0800 
 25 H       -6.1240     1.7200     0.0550 H     1 <1>   0.4000 
 26 H       -8.3070     0.7430    -0.3480 H     1 <1>   0.1500 
 27 H       -5.7690    -1.9750     1.0690 H     1 <1>   0.0800 
 28 H       -4.8320    -1.6170    -0.3450 H     1 <1>   0.0800 
 29 H       -8.6570    -3.3700    -1.0720 H     1 <1>   0.0800 
 30 H       -8.2610    -3.0510     0.5880 H     1 <1>   0.0800 
 31 H       -6.9370    -3.2640    -2.8500 H     1 <1>   0.0800 
 32 H       -6.7660    -1.5530    -2.5720 H     1 <1>   0.0800 
 33 H       -5.3650    -2.5820    -2.5360 H     1 <1>   0.0800 
 34 H       -6.1610    -4.3630     0.6210 H     1 <1>   0.0800 
 35 H       -4.9950    -4.2040    -0.6660 H     1 <1>   0.0800 
 36 H       -6.5570    -4.9120    -0.9870 H     1 <1>   0.0800 
@<TRIPOS>BOND
  1   1   2  1   
  2   2   3  ar  
  3   2   4  ar  
  4   3   5  ar  
  5   3  19  1   
  6   4   6  ar  
  7   4  20  1   
  8   5   7  ar  
  9   5   8  1   
 10   6   7  ar  
 11   6  21  1   
 12   7   9  1   
 13   8  22  1   
 14   8  23  1   
 15   8  24  1   
 16   9  10  1   
 17   9  25  1   
 18  10  11  2   
 19  10  12  1   
 20  11  13  1   
 21  11  26  1   
 22  12  14  1   
 23  12  27  1   
 24  12  28  1   
 25  13  15  2   
 26  13  16  1   
 27  14  16  1   
 28  14  17  1   
 29  14  18  1   
 30  16  29  1   
 31  16  30  1   
 32  17  31  1   
 33  17  32  1   
 34  17  33  1   
 35  18  34  1   
 36  18  35  1   
 37  18  36  1   
@<TRIPOS>SUBSTRUCTURE
  1 ****  10 GROUP 4 **** **** 0

# MOE 2024.06 (io_trps.svl 2023.06)
