@<TRIPOS>MOLECULE
NONAME
54 57 1 0 0 
SMALL
USER_CHARGES


@<TRIPOS>ATOM
  1 BR      -0.9610    -0.9760     0.6300 Br    1 <1>  -0.1110 
  2 C       -2.3630     0.3390     0.5620 C.ar  1 <1>   0.1110 
  3 C       -3.3890     0.1870    -0.3260 C.ar  1 <1>  -0.1500 
  4 C       -2.2840     1.4240     1.4370 C.ar  1 <1>  -0.1500 
  5 C       -4.4160     1.1490    -0.3770 C.ar  1 <1>   0.0000 
  6 C       -3.2740     2.3670     1.4000 C.ar  1 <1>  -0.1500 
  7 C       -4.3590     2.2580     0.5000 C.ar  1 <1>   0.0000 
  8 C       -5.5010     1.0490    -1.2710 C.ar  1 <1>  -0.1500 
  9 C       -5.3870     3.2190     0.4480 C.ar  1 <1>  -0.1500 
 10 C       -6.4850     1.9960    -1.2990 C.ar  1 <1>  -0.1500 
 11 C       -6.4360     3.0970    -0.4340 C.ar  1 <1>   0.0830 
 12 O       -7.4600     3.9780    -0.5380 O.3   1 <1>  -0.3630 
 13 C       -7.5040     5.1450     0.2540 C.3   1 <1>   0.1200 
 14 C       -8.7880     5.9020    -0.0980 C.3   1 <1>   0.2000 
 15 O       -8.9840     6.9500     0.8100 O.3   1 <1>  -0.6800 
 16 C      -10.0120     4.9590    -0.0550 C.3   1 <1>   0.3430 
 17 N      -11.2750     5.7260     0.1750 N.4   1 <1>  -0.9590 
 18 C      -12.3490     4.8830     0.8160 C.3   1 <1>   0.3430 
 19 C      -11.7760     6.4060    -1.0750 C.3   1 <1>   0.3430 
 20 C      -13.6540     5.6700     1.0600 C.3   1 <1>   0.2090 
 21 C      -13.0770     7.2000    -0.8360 C.3   1 <1>   0.2090 
 22 N      -14.1100     6.3380    -0.1930 N.pl3 1 <1>  -0.8380 
 23 C      -15.4060     6.8410    -0.1800 C.ar  1 <1>   0.1000 
 24 C      -15.7490     7.9500     0.5850 C.ar  1 <1>  -0.1500 
 25 C      -16.3880     6.2260    -0.9440 C.ar  1 <1>  -0.1500 
 26 C      -17.0450     8.4340     0.5840 C.ar  1 <1>  -0.1500 
 27 C      -17.6850     6.7060    -0.9490 C.ar  1 <1>  -0.1500 
 28 C      -18.0150     7.8110    -0.1840 C.ar  1 <1>  -0.1500 
 29 H       -3.4200    -0.6600    -0.9860 H     1 <1>   0.1500 
 30 H       -1.4530     1.4930     2.1160 H     1 <1>   0.1500 
 31 H       -3.2380     3.2130     2.0630 H     1 <1>   0.1500 
 32 H       -5.5390     0.2040    -1.9360 H     1 <1>   0.1500 
 33 H       -5.3110     4.0470     1.1250 H     1 <1>   0.1500 
 34 H       -7.3090     1.9150    -1.9850 H     1 <1>   0.1500 
 35 H       -6.6330     5.7370     0.0310 H     1 <1>   0.0800 
 36 H       -7.5090     4.8460     1.2880 H     1 <1>   0.0800 
 37 H       -8.6900     6.3320    -1.0800 H     1 <1>   0.0800 
 38 H       -8.2120     7.5580     0.8180 H     1 <1>   0.4000 
 39 H       -9.8630     4.2660     0.7560 H     1 <1>   0.0800 
 40 H      -10.0680     4.3830    -0.9640 H     1 <1>   0.0800 
 41 H      -10.9950     6.4730     0.8360 H     1 <1>   0.4500 
 42 H      -11.9960     4.4900     1.7550 H     1 <1>   0.0800 
 43 H      -12.5800     4.0490     0.1740 H     1 <1>   0.0800 
 44 H      -11.9740     5.6660    -1.8320 H     1 <1>   0.0800 
 45 H      -11.0230     7.0770    -1.4540 H     1 <1>   0.0800 
 46 H      -13.4990     6.4060     1.8290 H     1 <1>   0.0800 
 47 H      -14.4210     4.9940     1.3980 H     1 <1>   0.0800 
 48 H      -13.4550     7.5610    -1.7770 H     1 <1>   0.0800 
 49 H      -12.8750     8.0530    -0.2110 H     1 <1>   0.0800 
 50 H      -15.0020     8.4370     1.1830 H     1 <1>   0.1500 
 51 H      -16.1270     5.3690    -1.5360 H     1 <1>   0.1500 
 52 H      -17.3020     9.2930     1.1780 H     1 <1>   0.1500 
 53 H      -18.4370     6.2210    -1.5460 H     1 <1>   0.1500 
 54 H      -19.0240     8.1860    -0.1860 H     1 <1>   0.1500 
@<TRIPOS>BOND
  1   1   2  1   
  2   2   3  ar  
  3   2   4  ar  
  4   3   5  ar  
  5   3  29  1   
  6   4   6  ar  
  7   4  30  1   
  8   5   7  ar  
  9   5   8  ar  
 10   6   7  ar  
 11   6  31  1   
 12   7   9  ar  
 13   8  10  ar  
 14   8  32  1   
 15   9  11  ar  
 16   9  33  1   
 17  10  11  ar  
 18  10  34  1   
 19  11  12  1   
 20  12  13  1   
 21  13  14  1   
 22  13  35  1   
 23  13  36  1   
 24  14  15  1   
 25  14  16  1   
 26  14  37  1   
 27  15  38  1   
 28  16  17  1   
 29  16  39  1   
 30  16  40  1   
 31  17  18  1   
 32  17  19  1   
 33  17  41  1   
 34  18  20  1   
 35  18  42  1   
 36  18  43  1   
 37  19  21  1   
 38  19  44  1   
 39  19  45  1   
 40  20  22  1   
 41  20  46  1   
 42  20  47  1   
 43  21  22  1   
 44  21  48  1   
 45  21  49  1   
 46  22  23  1   
 47  23  24  ar  
 48  23  25  ar  
 49  24  26  ar  
 50  24  50  1   
 51  25  27  ar  
 52  25  51  1   
 53  26  28  ar  
 54  26  52  1   
 55  27  28  ar  
 56  27  53  1   
 57  28  54  1   
@<TRIPOS>SUBSTRUCTURE
  1 ****  16 GROUP 4 **** **** 0

# MOE 2024.06 (io_trps.svl 2023.06)
