@<TRIPOS>MOLECULE
NONAME
48 50 1 0 0 
SMALL
USER_CHARGES


@<TRIPOS>ATOM
  1 O        0.4710    -0.0350    -0.1760 O.2   1 <1>  -0.5700 
  2 C        0.7830    -1.0080     0.4820 C.2   1 <1>   0.6900 
  3 N        2.0650    -1.1490     0.9420 N.am  1 <1>  -0.6600 
  4 N       -0.1330    -1.9680     0.8080 N.am  1 <1>  -0.5470 
  5 C        3.0030     0.0150     0.9450 C.3   1 <1>   0.1400 
  6 C        2.7620    -2.4690     1.0150 C.3   1 <1>   0.1400 
  7 C       -1.4350    -2.1950     0.3560 C.ar  1 <1>   0.1170 
  8 C        4.0180    -0.1100    -0.1980 C.3   1 <1>   0.1400 
  9 C        3.8180    -2.6070    -0.0980 C.3   1 <1>   0.1400 
 10 C       -1.9080    -1.7260    -0.8660 C.ar  1 <1>  -0.1500 
 11 C       -2.3070    -2.9380     1.1440 C.ar  1 <1>  -0.1500 
 12 N        4.7330    -1.4240    -0.1320 N.am  1 <1>  -0.6600 
 13 C       -3.2010    -1.9860    -1.2770 C.ar  1 <1>  -0.1500 
 14 C       -3.5990    -3.1980     0.7300 C.ar  1 <1>  -0.1500 
 15 C        6.1030    -1.4970     0.0420 C.2   1 <1>   0.7150 
 16 C       -4.0880    -2.7300    -0.4940 C.ar  1 <1>   0.0860 
 17 O        6.6690    -0.5180     0.4990 O.2   1 <1>  -0.5700 
 18 C        6.8910    -2.6720    -0.2760 C.2   1 <1>   0.0550 
 19 C       -5.4420    -2.9960    -0.9390 C.2   1 <1>   0.6340 
 20 O        6.4560    -3.6360    -1.0880 O.3   1 <1>  -0.2800 
 21 C        8.1500    -3.0010     0.1300 C.2   1 <1>  -0.1500 
 22 O       -5.8840    -2.6120    -2.0040 O.2   1 <1>  -0.5700 
 23 O       -6.2420    -3.7030    -0.1330 O.3   1 <1>  -0.4300 
 24 C        7.3880    -4.5540    -1.2010 C.2   1 <1>  -0.0100 
 25 C        8.4690    -4.2210    -0.4660 C.2   1 <1>  -0.1500 
 26 C       -7.5710    -4.0050    -0.4910 C.3   1 <1>   0.1200 
 27 C       -8.1940    -4.8150     0.6410 C.3   1 <1>  -0.2400 
 28 H        0.1630    -2.5180     1.6060 H     1 <1>   0.3700 
 29 H        3.5280     0.0490     1.8830 H     1 <1>   0.0800 
 30 H        2.4580     0.9380     0.8410 H     1 <1>   0.0800 
 31 H        2.0590    -3.2780     0.9240 H     1 <1>   0.0800 
 32 H        3.2470    -2.5560     1.9720 H     1 <1>   0.0800 
 33 H        4.7140     0.7080    -0.1480 H     1 <1>   0.0800 
 34 H        3.4970    -0.0380    -1.1380 H     1 <1>   0.0800 
 35 H        3.3250    -2.6950    -1.0510 H     1 <1>   0.0800 
 36 H        4.3690    -3.5120     0.0770 H     1 <1>   0.0800 
 37 H       -1.2600    -1.1510    -1.5040 H     1 <1>   0.1500 
 38 H       -1.9720    -3.3130     2.0930 H     1 <1>   0.1500 
 39 H       -3.5370    -1.6060    -2.2270 H     1 <1>   0.1500 
 40 H       -4.2460    -3.7740     1.3690 H     1 <1>   0.1500 
 41 H        8.7890    -2.4310     0.7830 H     1 <1>   0.1500 
 42 H        7.2060    -5.4120    -1.8250 H     1 <1>   0.1500 
 43 H        9.3940    -4.7570    -0.3480 H     1 <1>   0.1500 
 44 H       -7.5580    -4.5700    -1.4090 H     1 <1>   0.0800 
 45 H       -8.1020    -3.0800    -0.6440 H     1 <1>   0.0800 
 46 H       -7.6470    -5.7290     0.7870 H     1 <1>   0.0800 
 47 H       -9.2110    -5.0600     0.3940 H     1 <1>   0.0800 
 48 H       -8.1910    -4.2430     1.5510 H     1 <1>   0.0800 
@<TRIPOS>BOND
  1   1   2  2   
  2   2   3  am  
  3   2   4  am  
  4   3   5  1   
  5   3   6  1   
  6   4   7  1   
  7   4  28  1   
  8   5   8  1   
  9   5  29  1   
 10   5  30  1   
 11   6   9  1   
 12   6  31  1   
 13   6  32  1   
 14   7  10  ar  
 15   7  11  ar  
 16   8  12  1   
 17   8  33  1   
 18   8  34  1   
 19   9  12  1   
 20   9  35  1   
 21   9  36  1   
 22  10  13  ar  
 23  10  37  1   
 24  11  14  ar  
 25  11  38  1   
 26  12  15  am  
 27  13  16  ar  
 28  13  39  1   
 29  14  16  ar  
 30  14  40  1   
 31  15  17  2   
 32  15  18  1   
 33  16  19  1   
 34  18  20  1   
 35  18  21  2   
 36  19  22  2   
 37  19  23  1   
 38  20  24  1   
 39  21  25  1   
 40  21  41  1   
 41  23  26  1   
 42  24  25  2   
 43  24  42  1   
 44  25  43  1   
 45  26  27  1   
 46  26  44  1   
 47  26  45  1   
 48  27  46  1   
 49  27  47  1   
 50  27  48  1   
@<TRIPOS>SUBSTRUCTURE
  1 ****   4 GROUP 4 **** **** 0

# MOE 2024.06 (io_trps.svl 2023.06)
