@<TRIPOS>MOLECULE
NONAME
35 38 1 0 0 
SMALL
USER_CHARGES


@<TRIPOS>ATOM
  1 S       -0.0410    -0.0040    -0.6610 S.3   1 <1>  -0.0800 
  2 C        0.9870     1.3630    -0.2440 C.2   1 <1>   0.1660 
  3 C       -1.4610     1.0330    -0.6550 C.2   1 <1>  -0.1400 
  4 N        2.3360     1.2450    -0.0820 N.2   1 <1>  -0.5760 
  5 C        0.2530     2.5100    -0.1140 C.2   1 <1>  -0.0010 
  6 C       -1.1460     2.2960    -0.3480 C.2   1 <1>  -0.1810 
  7 C       -2.8470     0.5040    -0.9610 C.3   1 <1>   0.3000 
  8 C        2.9550     2.3430     0.2220 C.2   1 <1>   0.3980 
  9 C        0.9710     3.6860     0.2200 C.2   1 <1>   0.1870 
 10 C       -2.2450     3.3400    -0.2900 C.3   1 <1>   0.0210 
 11 O       -3.7360     1.5880    -1.1060 O.3   1 <1>  -0.5600 
 12 N        2.2930     3.5750     0.3770 N.pl3 1 <1>   0.5610 
 13 C        4.4730     2.3530     0.4330 C.3   1 <1>  -0.0990 
 14 N        0.6150     4.9130     0.4200 N.2   1 <1>  -0.3380 
 15 C       -3.6440     2.6660    -0.2050 C.3   1 <1>   0.2800 
 16 N        2.7500     4.7820     0.6850 N.2   1 <1>  -0.4180 
 17 C        5.1660     0.9900     0.2570 C.3   1 <1>  -0.2400 
 18 N        1.7300     5.5660     0.7040 N.2   1 <1>   0.0000 
 19 C       -4.7320     3.6510    -0.6340 C.3   1 <1>  -0.2400 
 20 C       -3.9580     2.1600     1.2120 C.3   1 <1>  -0.2400 
 21 H       -3.2000    -0.1320    -0.1690 H     1 <1>   0.0800 
 22 H       -2.8470    -0.0450    -1.8860 H     1 <1>   0.0800 
 23 H       -2.1850     3.9510    -1.1720 H     1 <1>   0.0800 
 24 H       -2.1040     3.9800     0.5620 H     1 <1>   0.0800 
 25 H        4.6770     2.7140     1.4260 H     1 <1>   0.0800 
 26 H        4.9090     3.0500    -0.2620 H     1 <1>   0.0800 
 27 H        4.7730     0.2760     0.9590 H     1 <1>   0.0800 
 28 H        6.2240     1.0870     0.4210 H     1 <1>   0.0800 
 29 H        5.0070     0.6140    -0.7390 H     1 <1>   0.0800 
 30 H       -4.5630     3.9720    -1.6470 H     1 <1>   0.0800 
 31 H       -4.7280     4.5160     0.0040 H     1 <1>   0.0800 
 32 H       -5.6990     3.1850    -0.5750 H     1 <1>   0.0800 
 33 H       -3.1770     1.5210     1.5810 H     1 <1>   0.0800 
 34 H       -4.8900     1.6250     1.2180 H     1 <1>   0.0800 
 35 H       -4.0410     2.9920     1.8870 H     1 <1>   0.0800 
@<TRIPOS>BOND
  1   1   2  1   
  2   1   3  1   
  3   2   4  1   
  4   2   5  2   
  5   3   6  2   
  6   3   7  1   
  7   4   8  2   
  8   5   6  1   
  9   5   9  1   
 10   6  10  1   
 11   7  11  1   
 12   7  21  1   
 13   7  22  1   
 14   8  12  1   
 15   8  13  1   
 16   9  12  1   
 17   9  14  2   
 18  10  15  1   
 19  10  23  1   
 20  10  24  1   
 21  11  15  1   
 22  12  16  1   
 23  13  17  1   
 24  13  25  1   
 25  13  26  1   
 26  14  18  1   
 27  15  19  1   
 28  15  20  1   
 29  16  18  2   
 30  17  27  1   
 31  17  28  1   
 32  17  29  1   
 33  19  30  1   
 34  19  31  1   
 35  19  32  1   
 36  20  33  1   
 37  20  34  1   
 38  20  35  1   
@<TRIPOS>SUBSTRUCTURE
  1 ****   5 GROUP 4 **** **** 0

# MOE 2024.06 (io_trps.svl 2023.06)
