@<TRIPOS>MOLECULE
NONAME
50 52 1 0 0 
SMALL
USER_CHARGES


@<TRIPOS>ATOM
  1 CL      -2.8220    -2.6670    -1.5150 Cl    1 <1>  -0.1770 
  2 C       -2.2500    -2.1760     0.0720 C.ar  1 <1>   0.1770 
  3 C       -3.1250    -1.5870     0.9670 C.ar  1 <1>   0.1770 
  4 C       -0.9130    -2.3810     0.4130 C.ar  1 <1>   0.1990 
  5 CL      -4.8030    -1.3370     0.5450 Cl    1 <1>  -0.1770 
  6 C       -2.6910    -1.1800     2.2160 C.ar  1 <1>  -0.1500 
  7 N       -0.0140    -2.9860    -0.4640 N.am  1 <1>  -0.6930 
  8 C       -0.4880    -1.9630     1.6710 C.ar  1 <1>  -0.1500 
  9 C       -1.3640    -1.3690     2.5660 C.ar  1 <1>  -0.1500 
 10 S        0.4630    -4.6350    -0.2300 S.o2  1 <1>   1.4470 
 11 C        0.9350    -2.1060    -1.2130 C.3   1 <1>   0.2570 
 12 O        1.4200    -4.9190    -1.2790 O.2   1 <1>  -0.6500 
 13 O        0.8660    -4.7500     1.1520 O.2   1 <1>  -0.6500 
 14 C       -1.0810    -5.5340    -0.5310 C.ar  1 <1>  -0.0090 
 15 C        2.2590    -1.8680    -0.4820 C.2   1 <1>   0.5690 
 16 C       -1.4510    -5.9240    -1.8140 C.ar  1 <1>  -0.1500 
 17 C       -1.9530    -5.8230     0.5130 C.ar  1 <1>  -0.1500 
 18 O        2.4180    -0.8260     0.1090 O.2   1 <1>  -0.5700 
 19 N        3.2100    -2.8380    -0.5040 N.am  1 <1>  -0.7300 
 20 C       -2.6470    -6.5820    -2.0470 C.ar  1 <1>  -0.1500 
 21 C       -3.1500    -6.4800     0.2890 C.ar  1 <1>  -0.1500 
 22 C        4.4420    -2.8430     0.2930 C.3   1 <1>   0.2200 
 23 C       -3.4980    -6.8600    -0.9940 C.ar  1 <1>  -0.1500 
 24 C        5.6190    -3.2080    -0.6160 C.3   1 <1>  -0.1600 
 25 C        4.2790    -3.8600     1.4280 C.3   1 <1>  -0.1600 
 26 C        6.9190    -3.3480     0.1890 C.3   1 <1>  -0.1600 
 27 C        5.5760    -4.0020     2.2370 C.3   1 <1>  -0.1600 
 28 C        6.7590    -4.3630     1.3290 C.3   1 <1>  -0.1600 
 29 H       -3.3820    -0.7220     2.9020 H     1 <1>   0.1500 
 30 H        0.5430    -2.1070     1.9510 H     1 <1>   0.1500 
 31 H       -1.0090    -1.0550     3.5340 H     1 <1>   0.1500 
 32 H        0.4690    -1.1510    -1.3810 H     1 <1>   0.0800 
 33 H        1.1410    -2.5390    -2.1750 H     1 <1>   0.0800 
 34 H       -0.7980    -5.7080    -2.6420 H     1 <1>   0.1500 
 35 H       -1.6920    -5.5310     1.5170 H     1 <1>   0.1500 
 36 H        2.9850    -3.7410    -0.9420 H     1 <1>   0.3700 
 37 H       -2.9150    -6.8740    -3.0480 H     1 <1>   0.1500 
 38 H       -3.8110    -6.6950     1.1110 H     1 <1>   0.1500 
 39 H        4.6090    -1.8650     0.7140 H     1 <1>   0.0800 
 40 H       -4.4290    -7.3710    -1.1730 H     1 <1>   0.1500 
 41 H        5.7420    -2.4420    -1.3620 H     1 <1>   0.0800 
 42 H        5.4130    -4.1400    -1.1130 H     1 <1>   0.0800 
 43 H        4.0150    -4.8190     1.0180 H     1 <1>   0.0800 
 44 H        3.4840    -3.5410     2.0800 H     1 <1>   0.0800 
 45 H        7.1870    -2.3900     0.6010 H     1 <1>   0.0800 
 46 H        7.7160    -3.6600    -0.4640 H     1 <1>   0.0800 
 47 H        5.4500    -4.7630     2.9880 H     1 <1>   0.0800 
 48 H        5.7840    -3.0730     2.7410 H     1 <1>   0.0800 
 49 H        7.6640    -4.3970     1.9110 H     1 <1>   0.0800 
 50 H        6.6000    -5.3440     0.9120 H     1 <1>   0.0800 
@<TRIPOS>BOND
  1   1   2  1   
  2   2   3  ar  
  3   2   4  ar  
  4   3   5  1   
  5   3   6  ar  
  6   4   7  1   
  7   4   8  ar  
  8   6   9  ar  
  9   6  29  1   
 10   7  10  am  
 11   7  11  1   
 12   8   9  ar  
 13   8  30  1   
 14   9  31  1   
 15  10  12  2   
 16  10  13  2   
 17  10  14  1   
 18  11  15  1   
 19  11  32  1   
 20  11  33  1   
 21  14  16  ar  
 22  14  17  ar  
 23  15  18  2   
 24  15  19  am  
 25  16  20  ar  
 26  16  34  1   
 27  17  21  ar  
 28  17  35  1   
 29  19  22  1   
 30  19  36  1   
 31  20  23  ar  
 32  20  37  1   
 33  21  23  ar  
 34  21  38  1   
 35  22  24  1   
 36  22  25  1   
 37  22  39  1   
 38  23  40  1   
 39  24  26  1   
 40  24  41  1   
 41  24  42  1   
 42  25  27  1   
 43  25  43  1   
 44  25  44  1   
 45  26  28  1   
 46  26  45  1   
 47  26  46  1   
 48  27  28  1   
 49  27  47  1   
 50  27  48  1   
 51  28  49  1   
 52  28  50  1   
@<TRIPOS>SUBSTRUCTURE
  1 ****   7 GROUP 4 **** **** 0

# MOE 2024.06 (io_trps.svl 2023.06)
