@<TRIPOS>MOLECULE
NONAME
44 46 1 0 0 
SMALL
USER_CHARGES


@<TRIPOS>ATOM
  1 O       -0.8480    -0.0450    -0.7270 O.3   1 <1>  -0.3630 
  2 C       -1.8520    -0.5190     0.0480 C.ar  1 <1>   0.0830 
  3 C       -0.9390     1.1970    -1.3900 C.3   1 <1>   0.0400 
  4 C       -3.1350     0.0190     0.0670 C.ar  1 <1>  -0.1500 
  5 C       -1.5550    -1.6020     0.8580 C.ar  1 <1>  -0.1500 
  6 C       -4.1110    -0.5300     0.8880 C.ar  1 <1>  -0.1430 
  7 C       -2.5190    -2.1410     1.6890 C.ar  1 <1>  -0.1500 
  8 C       -3.7940    -1.6050     1.7080 C.ar  1 <1>  -0.1500 
  9 C       -5.5170     0.0360     0.8830 C.3   1 <1>   0.4860 
 10 N       -6.2180    -0.4460    -0.3480 N.4   1 <1>  -0.9590 
 11 C       -7.5280     0.2380    -0.6210 C.3   1 <1>   0.5660 
 12 C       -6.2820    -1.9480    -0.3530 C.3   1 <1>   0.3430 
 13 C       -7.4790     1.7030    -0.2070 C.ar  1 <1>  -0.1430 
 14 C       -8.6880    -0.5700    -0.0240 C.3   1 <1>  -0.1600 
 15 C       -7.4410    -2.4570    -1.2120 C.3   1 <1>  -0.1600 
 16 C       -7.9460     2.1460     1.0260 C.ar  1 <1>   0.1600 
 17 C       -6.9330     2.6310    -1.0750 C.ar  1 <1>  -0.1500 
 18 C       -8.7980    -1.9560    -0.6860 C.3   1 <1>  -0.1600 
 19 N       -7.8830     3.3930     1.4520 N.ar  1 <1>  -0.6200 
 20 C       -6.8780     3.9410    -0.6480 C.ar  1 <1>  -0.1500 
 21 C       -7.3580     4.2650     0.6080 C.ar  1 <1>   0.1600 
 22 H        0.0140     1.4000    -1.8450 H     1 <1>   0.0800 
 23 H       -1.1680     1.9620    -0.6690 H     1 <1>   0.0800 
 24 H       -1.6980     1.1350    -2.1480 H     1 <1>   0.0800 
 25 H       -3.3700     0.8620    -0.5550 H     1 <1>   0.1500 
 26 H       -0.5610    -2.0130     0.8370 H     1 <1>   0.1500 
 27 H       -2.2700    -2.9770     2.3220 H     1 <1>   0.1500 
 28 H       -4.5260    -2.0370     2.3690 H     1 <1>   0.1500 
 29 H       -5.4530     1.1120     0.8910 H     1 <1>   0.0800 
 30 H       -6.0480    -0.2790     1.7660 H     1 <1>   0.0800 
 31 H       -5.5970    -0.1820    -1.1190 H     1 <1>   0.4500 
 32 H       -7.6840     0.2290    -1.6880 H     1 <1>   0.0800 
 33 H       -6.4290    -2.3050     0.6540 H     1 <1>   0.0800 
 34 H       -5.3480    -2.3540    -0.7110 H     1 <1>   0.0800 
 35 H       -9.6130    -0.0370    -0.1680 H     1 <1>   0.0800 
 36 H       -8.5420    -0.6890     1.0350 H     1 <1>   0.0800 
 37 H       -7.4380    -3.5340    -1.2140 H     1 <1>   0.0800 
 38 H       -7.2930    -2.1400    -2.2300 H     1 <1>   0.0800 
 39 H       -8.3910     1.4520     1.7180 H     1 <1>   0.1500 
 40 H       -6.5640     2.3670    -2.0520 H     1 <1>   0.1500 
 41 H       -9.4960    -1.9170    -1.5070 H     1 <1>   0.0800 
 42 H       -9.1940    -2.6550     0.0330 H     1 <1>   0.0800 
 43 H       -6.4690     4.7110    -1.2780 H     1 <1>   0.1500 
 44 H       -7.3090     5.2910     0.9350 H     1 <1>   0.1500 
@<TRIPOS>BOND
  1   1   2  1   
  2   1   3  1   
  3   2   4  ar  
  4   2   5  ar  
  5   3  22  1   
  6   3  23  1   
  7   3  24  1   
  8   4   6  ar  
  9   4  25  1   
 10   5   7  ar  
 11   5  26  1   
 12   6   8  ar  
 13   6   9  1   
 14   7   8  ar  
 15   7  27  1   
 16   8  28  1   
 17   9  10  1   
 18   9  29  1   
 19   9  30  1   
 20  10  11  1   
 21  10  12  1   
 22  10  31  1   
 23  11  13  1   
 24  11  14  1   
 25  11  32  1   
 26  12  15  1   
 27  12  33  1   
 28  12  34  1   
 29  13  16  ar  
 30  13  17  ar  
 31  14  18  1   
 32  14  35  1   
 33  14  36  1   
 34  15  18  1   
 35  15  37  1   
 36  15  38  1   
 37  16  19  ar  
 38  16  39  1   
 39  17  20  ar  
 40  17  40  1   
 41  18  41  1   
 42  18  42  1   
 43  19  21  ar  
 44  20  21  ar  
 45  20  43  1   
 46  21  44  1   
@<TRIPOS>SUBSTRUCTURE
  1 ****   9 GROUP 4 **** **** 0

# MOE 2024.06 (io_trps.svl 2023.06)
