@<TRIPOS>MOLECULE
NONAME
47 48 1 0 0 
SMALL
USER_CHARGES


@<TRIPOS>ATOM
  1 S       -0.7280     0.5580     1.3830 S.o2  1 <1>   1.4470 
  2 O        0.2830    -0.3890     1.8040 O.2   1 <1>  -0.6500 
  3 O       -1.3010     1.4440     2.3740 O.2   1 <1>  -0.6500 
  4 N       -0.0230     1.5620     0.2110 N.am  1 <1>  -0.8490 
  5 C       -2.0520    -0.3080     0.4720 C.ar  1 <1>  -0.0090 
  6 C       -0.9180     2.6520    -0.1890 C.3   1 <1>   0.1960 
  7 C        1.2660     2.0870     0.6700 C.3   1 <1>   0.1960 
  8 C       -1.8060    -1.1810    -0.5910 C.ar  1 <1>  -0.1440 
  9 C       -3.3770    -0.0890     0.8340 C.ar  1 <1>  -0.1500 
 10 C       -0.3110     3.4320    -1.3590 C.3   1 <1>  -0.1600 
 11 C        1.9580     2.8590    -0.4590 C.3   1 <1>  -0.1600 
 12 C       -2.8630    -1.7960    -1.2430 C.ar  1 <1>  -0.1500 
 13 C       -0.3910    -1.4930    -1.0660 C.3   1 <1>  -0.0970 
 14 C       -4.4590    -0.6860     0.1880 C.ar  1 <1>   0.0860 
 15 C        1.0710     3.9880    -0.9960 C.3   1 <1>  -0.1600 
 16 C       -4.1660    -1.5550    -0.8590 C.ar  1 <1>  -0.1500 
 17 C       -5.8250    -0.4050     0.5990 C.2   1 <1>   0.5440 
 18 O       -6.0740    -0.0760     1.7410 O.2   1 <1>  -0.5700 
 19 N       -6.8590    -0.4940    -0.2920 N.am  1 <1>  -0.7300 
 20 C       -8.2740    -0.1490     0.0110 C.3   1 <1>   0.1400 
 21 C       -8.9340    -1.2470     0.8440 C.3   1 <1>   0.1200 
 22 O      -10.3040    -0.9950     0.9020 O.3   1 <1>  -0.5600 
 23 C      -11.0010    -1.8810     1.7170 C.3   1 <1>   0.0400 
 24 H       -1.0870     3.3170     0.6440 H     1 <1>   0.0800 
 25 H       -1.8690     2.2510    -0.4960 H     1 <1>   0.0800 
 26 H        1.9060     1.2730     0.9710 H     1 <1>   0.0800 
 27 H        1.1160     2.7290     1.5230 H     1 <1>   0.0800 
 28 H       -3.5900     0.5760     1.6560 H     1 <1>   0.1500 
 29 H       -0.9660     4.2410    -1.6290 H     1 <1>   0.0800 
 30 H       -0.2290     2.7760    -2.2080 H     1 <1>   0.0800 
 31 H        2.1920     2.1710    -1.2530 H     1 <1>   0.0800 
 32 H        2.8840     3.2670    -0.0960 H     1 <1>   0.0800 
 33 H       -2.6740    -2.4750    -2.0580 H     1 <1>   0.1500 
 34 H        0.1750    -1.9530    -0.2760 H     1 <1>   0.0800 
 35 H        0.1110    -0.5940    -1.3760 H     1 <1>   0.0800 
 36 H       -0.4000    -2.1690    -1.9010 H     1 <1>   0.0800 
 37 H        0.9640     4.7480    -0.2410 H     1 <1>   0.0800 
 38 H        1.5280     4.4370    -1.8620 H     1 <1>   0.0800 
 39 H       -4.9630    -2.0580    -1.3770 H     1 <1>   0.1500 
 40 H       -6.6550    -0.6760    -1.2750 H     1 <1>   0.3700 
 41 H       -8.8130    -0.0260    -0.9120 H     1 <1>   0.0800 
 42 H       -8.3050     0.7770     0.5600 H     1 <1>   0.0800 
 43 H       -8.5320    -1.2420     1.8430 H     1 <1>   0.0800 
 44 H       -8.7860    -2.2090     0.3840 H     1 <1>   0.0800 
 45 H      -12.0420    -1.6100     1.6930 H     1 <1>   0.0800 
 46 H      -10.6300    -1.8030     2.7250 H     1 <1>   0.0800 
 47 H      -10.8770    -2.8820     1.3430 H     1 <1>   0.0800 
@<TRIPOS>BOND
  1   1   2  2   
  2   1   3  2   
  3   1   4  am  
  4   1   5  1   
  5   4   6  1   
  6   4   7  1   
  7   5   8  ar  
  8   5   9  ar  
  9   6  10  1   
 10   6  24  1   
 11   6  25  1   
 12   7  11  1   
 13   7  26  1   
 14   7  27  1   
 15   8  12  ar  
 16   8  13  1   
 17   9  14  ar  
 18   9  28  1   
 19  10  15  1   
 20  10  29  1   
 21  10  30  1   
 22  11  15  1   
 23  11  31  1   
 24  11  32  1   
 25  12  16  ar  
 26  12  33  1   
 27  13  34  1   
 28  13  35  1   
 29  13  36  1   
 30  14  16  ar  
 31  14  17  1   
 32  15  37  1   
 33  15  38  1   
 34  16  39  1   
 35  17  18  2   
 36  17  19  am  
 37  19  20  1   
 38  19  40  1   
 39  20  21  1   
 40  20  41  1   
 41  20  42  1   
 42  21  22  1   
 43  21  43  1   
 44  21  44  1   
 45  22  23  1   
 46  23  45  1   
 47  23  46  1   
 48  23  47  1   
@<TRIPOS>SUBSTRUCTURE
  1 ****   9 GROUP 4 **** **** 0

# MOE 2024.06 (io_trps.svl 2023.06)
