@<TRIPOS>MOLECULE
NONAME
39 39 1 0 0 
SMALL
USER_CHARGES


@<TRIPOS>ATOM
  1 O        0.3360     0.6220     0.0270 O.3   1 <1>  -0.6800 
  2 C       -0.7440    -0.2660     0.1260 C.3   1 <1>   0.2000 
  3 C       -0.2480    -1.6520     0.6140 C.3   1 <1>   0.2000 
  4 C       -1.5040    -0.2760    -1.2200 C.3   1 <1>   0.2000 
  5 O        0.5710    -1.4750     1.7260 O.3   1 <1>  -0.6800 
  6 C        0.5770    -2.4320    -0.4280 C.3   1 <1>   0.1200 
  7 O       -1.8910     1.0300    -1.5070 O.3   1 <1>  -0.6800 
  8 C       -2.7420    -1.1900    -1.2220 C.3   1 <1>   0.2090 
  9 O        1.7810    -1.7770    -0.6710 O.3   1 <1>  -0.6800 
 10 N       -3.6540    -0.8640    -0.1000 N.pl3 1 <1>  -0.8690 
 11 C       -4.7840    -1.6570     0.0400 C.ar  1 <1>   0.1000 
 12 C       -6.0460    -1.1170    -0.1600 C.ar  1 <1>  -0.1500 
 13 C       -4.6800    -2.9980     0.3800 C.ar  1 <1>  -0.1500 
 14 C       -7.1890    -1.8910    -0.0390 C.ar  1 <1>  -0.1430 
 15 C       -5.8130    -3.7800     0.5020 C.ar  1 <1>  -0.1500 
 16 C       -7.0720    -3.2380     0.2930 C.ar  1 <1>  -0.1430 
 17 C       -8.5470    -1.2470    -0.2730 C.3   1 <1>  -0.0970 
 18 C       -8.2960    -4.1320     0.4360 C.3   1 <1>  -0.0970 
 19 H        0.7570     0.6680     0.9140 H     1 <1>   0.4000 
 20 H       -1.4070     0.1210     0.8810 H     1 <1>   0.0800 
 21 H       -1.0970    -2.2390     0.9230 H     1 <1>   0.0800 
 22 H       -0.8410    -0.5850    -2.0090 H     1 <1>   0.0800 
 23 H        1.5010    -1.5820     1.4220 H     1 <1>   0.4000 
 24 H        0.0500    -2.5320    -1.3590 H     1 <1>   0.0800 
 25 H        0.8030    -3.4190    -0.0600 H     1 <1>   0.0800 
 26 H       -1.1410     1.6160    -1.2650 H     1 <1>   0.4000 
 27 H       -2.4370    -2.2170    -1.1420 H     1 <1>   0.0800 
 28 H       -3.2670    -1.0750    -2.1560 H     1 <1>   0.0800 
 29 H        1.6110    -0.8160    -0.8160 H     1 <1>   0.4000 
 30 H       -3.8750     0.1400    -0.1500 H     1 <1>   0.4000 
 31 H       -6.1240    -0.0770    -0.4150 H     1 <1>   0.1500 
 32 H       -3.7110    -3.4220     0.5550 H     1 <1>   0.1500 
 33 H       -5.7070    -4.8170     0.7660 H     1 <1>   0.1500 
 34 H       -8.4430    -0.2050    -0.5190 H     1 <1>   0.0800 
 35 H       -9.1500    -1.3250     0.6130 H     1 <1>   0.0800 
 36 H       -9.0520    -1.7360    -1.0870 H     1 <1>   0.0800 
 37 H       -8.9390    -3.7530     1.2100 H     1 <1>   0.0800 
 38 H       -8.0130    -5.1360     0.6940 H     1 <1>   0.0800 
 39 H       -8.8400    -4.1620    -0.4900 H     1 <1>   0.0800 
@<TRIPOS>BOND
  1   1   2  1   
  2   1  19  1   
  3   2   3  1   
  4   2   4  1   
  5   2  20  1   
  6   3   5  1   
  7   3   6  1   
  8   3  21  1   
  9   4   7  1   
 10   4   8  1   
 11   4  22  1   
 12   5  23  1   
 13   6   9  1   
 14   6  24  1   
 15   6  25  1   
 16   7  26  1   
 17   8  10  1   
 18   8  27  1   
 19   8  28  1   
 20   9  29  1   
 21  10  11  1   
 22  10  30  1   
 23  11  12  ar  
 24  11  13  ar  
 25  12  14  ar  
 26  12  31  1   
 27  13  15  ar  
 28  13  32  1   
 29  14  16  ar  
 30  14  17  1   
 31  15  16  ar  
 32  15  33  1   
 33  16  18  1   
 34  17  34  1   
 35  17  35  1   
 36  17  36  1   
 37  18  37  1   
 38  18  38  1   
 39  18  39  1   
@<TRIPOS>SUBSTRUCTURE
  1 ****  10 GROUP 4 **** **** 0

# MOE 2024.06 (io_trps.svl 2023.06)
