@<TRIPOS>MOLECULE
NONAME
43 44 1 0 0 
SMALL
USER_CHARGES


@<TRIPOS>ATOM
  1 O        0.1540     1.5270     2.3540 O.2   1 <1>  -0.5700 
  2 C        0.0240     2.0300     1.2660 C.2   1 <1>   0.5690 
  3 N        1.0290     2.1330     0.3440 N.am  1 <1>  -0.5470 
  4 C       -1.3310     2.6030     0.8970 C.3   1 <1>  -0.0990 
  5 C        2.3640     1.6940     0.3690 C.ar  1 <1>   0.1170 
  6 C       -2.3120     1.5420     0.3610 C.3   1 <1>  -0.0800 
  7 C        3.2610     2.2590    -0.5290 C.ar  1 <1>  -0.1500 
  8 C        2.8280     0.7110     1.2400 C.ar  1 <1>  -0.1500 
  9 C       -1.8090     0.8940    -0.9450 C.3   1 <1>  -0.1600 
 10 C       -3.7010     2.1710     0.1480 C.3   1 <1>  -0.1600 
 11 C        4.5870     1.8650    -0.5620 C.ar  1 <1>   0.0830 
 12 C        4.1480     0.2980     1.2070 C.ar  1 <1>  -0.1500 
 13 C       -2.8180    -0.1220    -1.4960 C.3   1 <1>  -0.1600 
 14 C       -4.7060     1.1500    -0.4010 C.3   1 <1>  -0.1600 
 15 O        5.4010     2.4920    -1.4470 O.3   1 <1>  -0.3630 
 16 C        5.0310     0.8560     0.2990 C.ar  1 <1>   0.0830 
 17 C       -4.1970     0.5160    -1.7000 C.3   1 <1>  -0.1600 
 18 C        6.4550     3.2550    -0.9000 C.3   1 <1>   0.0400 
 19 O        6.3040     0.3850     0.2870 O.3   1 <1>  -0.3630 
 20 C        6.6730    -0.3510    -0.8580 C.3   1 <1>   0.0400 
 21 H        0.7690     2.6210    -0.5090 H     1 <1>   0.3700 
 22 H       -1.2080     3.3890     0.1760 H     1 <1>   0.0800 
 23 H       -1.7450     3.0440     1.7860 H     1 <1>   0.0800 
 24 H       -2.4050     0.7680     1.1060 H     1 <1>   0.0800 
 25 H        2.9370     3.0230    -1.2090 H     1 <1>   0.1500 
 26 H        2.1590     0.2560     1.9470 H     1 <1>   0.1500 
 27 H       -0.8770     0.3840    -0.7700 H     1 <1>   0.0800 
 28 H       -1.6390     1.6560    -1.6860 H     1 <1>   0.0800 
 29 H       -3.6240     2.9930    -0.5440 H     1 <1>   0.0800 
 30 H       -4.0710     2.5580     1.0820 H     1 <1>   0.0800 
 31 H        4.4960    -0.4630     1.8810 H     1 <1>   0.1500 
 32 H       -2.9060    -0.9440    -0.8070 H     1 <1>   0.0800 
 33 H       -2.4600    -0.5140    -2.4320 H     1 <1>   0.0800 
 34 H       -5.6500     1.6350    -0.5820 H     1 <1>   0.0800 
 35 H       -4.8670     0.3790     0.3330 H     1 <1>   0.0800 
 36 H       -4.8950    -0.2330    -2.0330 H     1 <1>   0.0800 
 37 H       -4.1330     1.2710    -2.4660 H     1 <1>   0.0800 
 38 H        6.9190     3.8070    -1.6970 H     1 <1>   0.0800 
 39 H        7.1730     2.5980    -0.4450 H     1 <1>   0.0800 
 40 H        6.0510     3.9320    -0.1680 H     1 <1>   0.0800 
 41 H        7.6700    -0.7250    -0.7110 H     1 <1>   0.0800 
 42 H        6.6460     0.2920    -1.7190 H     1 <1>   0.0800 
 43 H        5.9860    -1.1690    -0.9810 H     1 <1>   0.0800 
@<TRIPOS>BOND
  1   1   2  2   
  2   2   3  am  
  3   2   4  1   
  4   3   5  1   
  5   3  21  1   
  6   4   6  1   
  7   4  22  1   
  8   4  23  1   
  9   5   7  ar  
 10   5   8  ar  
 11   6   9  1   
 12   6  10  1   
 13   6  24  1   
 14   7  11  ar  
 15   7  25  1   
 16   8  12  ar  
 17   8  26  1   
 18   9  13  1   
 19   9  27  1   
 20   9  28  1   
 21  10  14  1   
 22  10  29  1   
 23  10  30  1   
 24  11  15  1   
 25  11  16  ar  
 26  12  16  ar  
 27  12  31  1   
 28  13  17  1   
 29  13  32  1   
 30  13  33  1   
 31  14  17  1   
 32  14  34  1   
 33  14  35  1   
 34  15  18  1   
 35  16  19  1   
 36  17  36  1   
 37  17  37  1   
 38  18  38  1   
 39  18  39  1   
 40  18  40  1   
 41  19  20  1   
 42  20  41  1   
 43  20  42  1   
 44  20  43  1   
@<TRIPOS>SUBSTRUCTURE
  1 ****   3 GROUP 4 **** **** 0

# MOE 2024.06 (io_trps.svl 2023.06)
