@<TRIPOS>MOLECULE
NONAME
47 49 1 0 0 
SMALL
USER_CHARGES


@<TRIPOS>ATOM
  1 CL      -3.0720     2.0820     0.3120 Cl    1 <1>  -0.1770 
  2 C       -1.8070     3.2780     0.2090 C.ar  1 <1>   0.1770 
  3 C       -0.5830     2.9290    -0.3250 C.ar  1 <1>  -0.1500 
  4 C       -2.0450     4.5600     0.6640 C.ar  1 <1>  -0.1500 
  5 C        0.4180     3.8840    -0.4040 C.ar  1 <1>  -0.1500 
  6 C       -1.0350     5.5050     0.5800 C.ar  1 <1>  -0.1500 
  7 C        0.2110     5.1860     0.0450 C.ar  1 <1>  -0.0090 
  8 S        1.5350     6.4240    -0.0330 S.o2  1 <1>   1.4470 
  9 O        0.9920     7.7640    -0.1060 O.2   1 <1>  -0.6500 
 10 O        2.5330     6.0630    -1.0190 O.2   1 <1>  -0.6500 
 11 N        2.3020     6.3010     1.4830 N.am  1 <1>  -0.8490 
 12 C        3.6950     5.8280     1.4400 C.3   1 <1>   0.1960 
 13 C        2.2480     7.5170     2.3090 C.3   1 <1>   0.1960 
 14 C        4.6830     6.8470     0.8120 C.3   1 <1>   0.3430 
 15 C        3.0970     8.6860     1.7470 C.3   1 <1>   0.3430 
 16 N        4.2660     8.3010     0.8590 N.4   1 <1>  -0.9590 
 17 C        4.0480     8.8110    -0.5250 C.3   1 <1>   0.4860 
 18 C        3.9850    10.3230    -0.4750 C.ar  1 <1>  -0.1430 
 19 C        5.0750    11.0580    -0.0180 C.ar  1 <1>   0.0830 
 20 C        2.8310    10.9740    -0.8830 C.ar  1 <1>  -0.1500 
 21 O        6.1770    10.3670     0.3850 O.3   1 <1>  -0.3630 
 22 C        4.9960    12.4480     0.0220 C.ar  1 <1>  -0.1500 
 23 C        2.7600    12.3550    -0.8400 C.ar  1 <1>  -0.1500 
 24 C        7.4050    11.0310     0.6120 C.3   1 <1>   0.0400 
 25 C        3.8420    13.0900    -0.3890 C.ar  1 <1>  -0.1500 
 26 H       -0.4210     1.9240    -0.6740 H     1 <1>   0.1500 
 27 H       -3.0070     4.8090     1.0760 H     1 <1>   0.1500 
 28 H        1.3720     3.6100    -0.8230 H     1 <1>   0.1500 
 29 H       -1.2220     6.5060     0.9340 H     1 <1>   0.1500 
 30 H        3.7500     4.8980     0.8980 H     1 <1>   0.0800 
 31 H        4.0190     5.6140     2.4440 H     1 <1>   0.0800 
 32 H        2.6030     7.2830     3.2980 H     1 <1>   0.0800 
 33 H        1.2260     7.8420     2.4210 H     1 <1>   0.0800 
 34 H        4.8310     6.5590    -0.2170 H     1 <1>   0.0800 
 35 H        5.6370     6.7320     1.3010 H     1 <1>   0.0800 
 36 H        3.4560     9.2730     2.5760 H     1 <1>   0.0800 
 37 H        2.4300     9.3270     1.1920 H     1 <1>   0.0800 
 38 H        5.0770     8.8710     1.1550 H     1 <1>   0.4500 
 39 H        3.1360     8.4160    -0.9390 H     1 <1>   0.0800 
 40 H        4.8670     8.5180    -1.1610 H     1 <1>   0.0800 
 41 H        1.9790    10.4170    -1.2400 H     1 <1>   0.1500 
 42 H        5.8150    13.0500     0.3690 H     1 <1>   0.1500 
 43 H        1.8640    12.8600    -1.1600 H     1 <1>   0.1500 
 44 H        7.3020    11.6820     1.4630 H     1 <1>   0.0800 
 45 H        7.6690    11.5920    -0.2680 H     1 <1>   0.0800 
 46 H        8.1600    10.2920     0.8100 H     1 <1>   0.0800 
 47 H        3.7830    14.1650    -0.3590 H     1 <1>   0.1500 
@<TRIPOS>BOND
  1   1   2  1   
  2   2   3  ar  
  3   2   4  ar  
  4   3   5  ar  
  5   3  26  1   
  6   4   6  ar  
  7   4  27  1   
  8   5   7  ar  
  9   5  28  1   
 10   6   7  ar  
 11   6  29  1   
 12   7   8  1   
 13   8   9  2   
 14   8  10  2   
 15   8  11  am  
 16  11  12  1   
 17  11  13  1   
 18  12  14  1   
 19  12  30  1   
 20  12  31  1   
 21  13  15  1   
 22  13  32  1   
 23  13  33  1   
 24  14  16  1   
 25  14  34  1   
 26  14  35  1   
 27  15  16  1   
 28  15  36  1   
 29  15  37  1   
 30  16  17  1   
 31  16  38  1   
 32  17  18  1   
 33  17  39  1   
 34  17  40  1   
 35  18  19  ar  
 36  18  20  ar  
 37  19  21  1   
 38  19  22  ar  
 39  20  23  ar  
 40  20  41  1   
 41  21  24  1   
 42  22  25  ar  
 43  22  42  1   
 44  23  25  ar  
 45  23  43  1   
 46  24  44  1   
 47  24  45  1   
 48  24  46  1   
 49  25  47  1   
@<TRIPOS>SUBSTRUCTURE
  1 ****   9 GROUP 4 **** **** 0

# MOE 2024.06 (io_trps.svl 2023.06)
