@<TRIPOS>MOLECULE
NONAME
31 32 1 0 0 
SMALL
USER_CHARGES


@<TRIPOS>ATOM
  1 CL      -0.1320    -0.6420    -1.8800 Cl    1 <1>  -0.1770 
  2 C        0.8140    -1.7210    -0.8770 C.ar  1 <1>   0.1770 
  3 C        0.1910    -2.7140    -0.1310 C.ar  1 <1>   0.0820 
  4 C        2.1850    -1.5530    -0.8550 C.ar  1 <1>  -0.1500 
  5 O       -1.1620    -2.8230    -0.2000 O.3   1 <1>  -0.3630 
  6 C        0.9870    -3.5470     0.6490 C.ar  1 <1>  -0.1500 
  7 C        2.9880    -2.3810    -0.0780 C.ar  1 <1>  -0.0090 
  8 C       -1.8700    -3.7940     0.5350 C.3   1 <1>   0.1200 
  9 C        2.3620    -3.3750     0.6680 C.ar  1 <1>  -0.1500 
 10 S        4.7910    -2.1880    -0.0430 S.o2  1 <1>   1.4470 
 11 C       -3.3550    -3.6270     0.2260 C.3   1 <1>  -0.2400 
 12 O        5.2500    -2.2050     1.3280 O.2   1 <1>  -0.6500 
 13 O        5.1980    -1.1290    -0.9380 O.2   1 <1>  -0.6500 
 14 N        5.3280    -3.5850    -0.8000 N.am  1 <1>  -0.7890 
 15 C        6.6500    -3.9930    -0.3960 C.3   1 <1>   0.1310 
 16 C        7.0930    -5.3660    -0.7710 C.3   1 <1>  -0.2000 
 17 C        6.7710    -5.0380     0.6580 C.3   1 <1>  -0.2000 
 18 H        2.6250    -0.7690    -1.4480 H     1 <1>   0.1500 
 19 H        0.5590    -4.3310     1.2470 H     1 <1>   0.1500 
 20 H       -1.6800    -3.6350     1.5820 H     1 <1>   0.0800 
 21 H       -1.5270    -4.7690     0.2340 H     1 <1>   0.0800 
 22 H        2.9680    -4.0260     1.2770 H     1 <1>   0.1500 
 23 H       -3.6840    -2.6440     0.5130 H     1 <1>   0.0800 
 24 H       -3.9260    -4.3540     0.7720 H     1 <1>   0.0800 
 25 H       -3.5320    -3.7700    -0.8260 H     1 <1>   0.0800 
 26 H        5.3940    -3.3090    -1.7770 H     1 <1>   0.4200 
 27 H        7.3760    -3.1940    -0.4150 H     1 <1>   0.1000 
 28 H        8.1240    -5.5310    -1.0300 H     1 <1>   0.1000 
 29 H        6.4180    -6.0020    -1.3150 H     1 <1>   0.1000 
 30 H        5.8680    -5.4230     1.0990 H     1 <1>   0.1000 
 31 H        7.5780    -4.9600     1.3650 H     1 <1>   0.1000 
@<TRIPOS>BOND
  1   1   2  1   
  2   2   3  ar  
  3   2   4  ar  
  4   3   5  1   
  5   3   6  ar  
  6   4   7  ar  
  7   4  18  1   
  8   5   8  1   
  9   6   9  ar  
 10   6  19  1   
 11   7   9  ar  
 12   7  10  1   
 13   8  11  1   
 14   8  20  1   
 15   8  21  1   
 16   9  22  1   
 17  10  12  2   
 18  10  13  2   
 19  10  14  am  
 20  11  23  1   
 21  11  24  1   
 22  11  25  1   
 23  14  15  1   
 24  14  26  1   
 25  15  16  1   
 26  15  17  1   
 27  15  27  1   
 28  16  17  1   
 29  16  28  1   
 30  16  29  1   
 31  17  30  1   
 32  17  31  1   
@<TRIPOS>SUBSTRUCTURE
  1 ****   7 GROUP 4 **** **** 0

# MOE 2024.06 (io_trps.svl 2023.06)
