@<TRIPOS>MOLECULE
NONAME
40 42 1 0 0 
SMALL
USER_CHARGES


@<TRIPOS>ATOM
  1 F        0.9810     0.1100    -1.1420 F     1 <1>  -0.1900 
  2 C        1.9110     0.9600    -0.7980 C.ar  1 <1>   0.1900 
  3 C        2.4860     1.7520    -1.7730 C.ar  1 <1>  -0.1500 
  4 C        2.2870     1.0390     0.5290 C.ar  1 <1>  -0.1500 
  5 C        3.4720     2.6500    -1.4010 C.ar  1 <1>  -0.1500 
  6 C        3.2740     1.9420     0.8860 C.ar  1 <1>  -0.1500 
  7 C        3.8780     2.7570    -0.0710 C.ar  1 <1>   0.1170 
  8 N        4.8860     3.6790     0.2940 N.am  1 <1>  -0.2370 
  9 C        5.9900     3.3940     1.0520 C.2   1 <1>   0.5690 
 10 C        4.9030     5.0030    -0.0500 C.2   1 <1>   0.5690 
 11 O        6.1770     2.3680     1.6630 O.2   1 <1>  -0.5700 
 12 C        6.9520     4.5920     1.1060 C.3   1 <1>   0.2510 
 13 O        4.0730     5.5800    -0.7040 O.2   1 <1>  -0.5700 
 14 C        6.0970     5.7230     0.5190 C.3   1 <1>  -0.0990 
 15 N        8.1970     4.4610     0.2970 N.3   1 <1>  -0.8100 
 16 C        8.8270     3.1220     0.4270 C.3   1 <1>   0.1100 
 17 C        9.1740     5.5220     0.5910 C.3   1 <1>   0.1100 
 18 C       10.2780     3.0700    -0.1080 C.3   1 <1>  -0.0800 
 19 C       10.2400     5.5640    -0.5150 C.3   1 <1>  -0.1600 
 20 C       10.5370     4.1850    -1.1310 C.3   1 <1>  -0.1600 
 21 C       10.5910     1.6960    -0.7120 C.3   1 <1>  -0.2400 
 22 H        2.1670     1.6650    -2.7960 H     1 <1>   0.1500 
 23 H        1.8180     0.4060     1.2610 H     1 <1>   0.1500 
 24 H        3.9260     3.2770    -2.1480 H     1 <1>   0.1500 
 25 H        3.5800     2.0110     1.9150 H     1 <1>   0.1500 
 26 H        7.2030     4.7880     2.1340 H     1 <1>   0.0800 
 27 H        5.7670     6.3940     1.2890 H     1 <1>   0.0800 
 28 H        6.5960     6.2690    -0.2610 H     1 <1>   0.0800 
 29 H        8.2270     2.4180    -0.1260 H     1 <1>   0.0800 
 30 H        8.8300     2.8110     1.4580 H     1 <1>   0.0800 
 31 H        9.6410     5.3210     1.5410 H     1 <1>   0.0800 
 32 H        8.6960     6.4840     0.6510 H     1 <1>   0.0800 
 33 H       10.9420     3.2200     0.7260 H     1 <1>   0.0800 
 34 H       11.1420     5.9750    -0.0970 H     1 <1>   0.0800 
 35 H        9.9150     6.2310    -1.2940 H     1 <1>   0.0800 
 36 H        9.8810     4.0350    -1.9730 H     1 <1>   0.0800 
 37 H       11.5510     4.1510    -1.4880 H     1 <1>   0.0800 
 38 H        9.9590     1.5050    -1.5620 H     1 <1>   0.0800 
 39 H       10.4300     0.9220     0.0180 H     1 <1>   0.0800 
 40 H       11.6170     1.6540    -1.0310 H     1 <1>   0.0800 
@<TRIPOS>BOND
  1   1   2  1   
  2   2   3  ar  
  3   2   4  ar  
  4   3   5  ar  
  5   3  22  1   
  6   4   6  ar  
  7   4  23  1   
  8   5   7  ar  
  9   5  24  1   
 10   6   7  ar  
 11   6  25  1   
 12   7   8  1   
 13   8   9  am  
 14   8  10  am  
 15   9  11  2   
 16   9  12  1   
 17  10  13  2   
 18  10  14  1   
 19  12  14  1   
 20  12  15  1   
 21  12  26  1   
 22  14  27  1   
 23  14  28  1   
 24  15  16  1   
 25  15  17  1   
 26  16  18  1   
 27  16  29  1   
 28  16  30  1   
 29  17  19  1   
 30  17  31  1   
 31  17  32  1   
 32  18  20  1   
 33  18  21  1   
 34  18  33  1   
 35  19  20  1   
 36  19  34  1   
 37  19  35  1   
 38  20  36  1   
 39  20  37  1   
 40  21  38  1   
 41  21  39  1   
 42  21  40  1   
@<TRIPOS>SUBSTRUCTURE
  1 ****   9 GROUP 4 **** **** 0

# MOE 2024.06 (io_trps.svl 2023.06)
