@<TRIPOS>MOLECULE
NONAME
49 50 1 0 0 
SMALL
USER_CHARGES


@<TRIPOS>ATOM
  1 S       -0.2230     0.4380    -0.5100 S.3   1 <1>  -0.0800 
  2 C        0.3840    -1.1930    -0.2670 C.2   1 <1>   0.1040 
  3 C        1.3710     1.1390    -0.2910 C.2   1 <1>  -0.1400 
  4 N       -0.4630    -2.2890    -0.3180 N.am  1 <1>  -0.4940 
  5 C        1.7310    -1.1700    -0.0300 C.2   1 <1>  -0.0860 
  6 C        2.2690     0.1670    -0.0510 C.2   1 <1>  -0.1500 
  7 C        1.4580     2.6510    -0.4060 C.3   1 <1>   0.0200 
  8 C       -1.8040    -2.4220    -0.5910 C.2   1 <1>   0.5690 
  9 C        2.5310    -2.3360     0.2150 C.2   1 <1>   0.8060 
 10 C        2.8860     3.1650    -0.2030 C.3   1 <1>  -0.2400 
 11 O       -2.5140    -1.4970    -0.9050 O.2   1 <1>  -0.5700 
 12 C       -2.4010    -3.8380    -0.4760 C.3   1 <1>   0.1710 
 13 O        2.0610    -3.4610     0.2550 O.2   1 <1>  -0.5700 
 14 O        3.8460    -2.1780     0.4090 O.3   1 <1>  -0.4300 
 15 N       -3.8750    -3.9150    -0.2470 N.3   1 <1>  -0.8100 
 16 C        4.7020    -3.2770     0.6570 C.3   1 <1>   0.0400 
 17 C       -4.4140    -5.2900    -0.3160 C.3   1 <1>   0.1100 
 18 C       -4.3150    -3.2350     0.9970 C.3   1 <1>   0.1100 
 19 C       -5.9550    -5.3150    -0.1420 C.3   1 <1>   0.3430 
 20 C       -5.8580    -3.1960     1.1170 C.3   1 <1>   0.3430 
 21 N       -6.5110    -3.9260    -0.0240 N.4   1 <1>  -0.9590 
 22 C       -7.9920    -3.8790    -0.0330 C.3   1 <1>   0.3430 
 23 C       -8.4610    -2.4550    -0.3070 C.3   1 <1>  -0.2400 
 24 H        0.0300    -3.1680    -0.1290 H     1 <1>   0.3700 
 25 H        3.3190     0.3340     0.1170 H     1 <1>   0.1500 
 26 H        0.8100     3.0940     0.3300 H     1 <1>   0.0800 
 27 H        1.1070     2.9460    -1.3790 H     1 <1>   0.0800 
 28 H        3.2440     2.8940     0.7750 H     1 <1>   0.0800 
 29 H        2.9070     4.2360    -0.2920 H     1 <1>   0.0800 
 30 H        3.5420     2.7450    -0.9450 H     1 <1>   0.0800 
 31 H       -1.8970    -4.3570     0.3200 H     1 <1>   0.0800 
 32 H       -2.1730    -4.3470    -1.3960 H     1 <1>   0.0800 
 33 H        5.7040    -2.9070     0.7780 H     1 <1>   0.0800 
 34 H        4.6550    -3.9520    -0.1800 H     1 <1>   0.0800 
 35 H        4.3800    -3.7750     1.5550 H     1 <1>   0.0800 
 36 H       -3.9590    -5.9040     0.4430 H     1 <1>   0.0800 
 37 H       -4.1670    -5.7200    -1.2730 H     1 <1>   0.0800 
 38 H       -3.9550    -2.2200     1.0110 H     1 <1>   0.0800 
 39 H       -3.9000    -3.7350     1.8560 H     1 <1>   0.0800 
 40 H       -6.2030    -5.8860     0.7370 H     1 <1>   0.0800 
 41 H       -6.3920    -5.8150    -0.9910 H     1 <1>   0.0800 
 42 H       -6.1720    -2.1650     1.1200 H     1 <1>   0.0800 
 43 H       -6.1540    -3.6320     2.0570 H     1 <1>   0.0800 
 44 H       -6.1360    -3.4400    -0.8560 H     1 <1>   0.4500 
 45 H       -8.3820    -4.2250     0.9110 H     1 <1>   0.0800 
 46 H       -8.3680    -4.5250    -0.8110 H     1 <1>   0.0800 
 47 H       -8.1990    -1.7930     0.4980 H     1 <1>   0.0800 
 48 H       -9.5320    -2.4490    -0.3990 H     1 <1>   0.0800 
 49 H       -8.0460    -2.0880    -1.2290 H     1 <1>   0.0800 
@<TRIPOS>BOND
  1   1   2  1   
  2   1   3  1   
  3   2   4  1   
  4   2   5  2   
  5   3   6  2   
  6   3   7  1   
  7   4   8  am  
  8   4  24  1   
  9   5   6  1   
 10   5   9  1   
 11   6  25  1   
 12   7  10  1   
 13   7  26  1   
 14   7  27  1   
 15   8  11  2   
 16   8  12  1   
 17   9  13  2   
 18   9  14  1   
 19  10  28  1   
 20  10  29  1   
 21  10  30  1   
 22  12  15  1   
 23  12  31  1   
 24  12  32  1   
 25  14  16  1   
 26  15  17  1   
 27  15  18  1   
 28  16  33  1   
 29  16  34  1   
 30  16  35  1   
 31  17  19  1   
 32  17  36  1   
 33  17  37  1   
 34  18  20  1   
 35  18  38  1   
 36  18  39  1   
 37  19  21  1   
 38  19  40  1   
 39  19  41  1   
 40  20  21  1   
 41  20  42  1   
 42  20  43  1   
 43  21  22  1   
 44  21  44  1   
 45  22  23  1   
 46  22  45  1   
 47  22  46  1   
 48  23  47  1   
 49  23  48  1   
 50  23  49  1   
@<TRIPOS>SUBSTRUCTURE
  1 ****   8 GROUP 4 **** **** 0

# MOE 2024.06 (io_trps.svl 2023.06)
