@<TRIPOS>MOLECULE
NONAME
45 46 1 0 0 
SMALL
USER_CHARGES


@<TRIPOS>ATOM
  1 O       -9.8660     3.1110    -0.1450 O.3   1 <1>  -0.3630 
  2 C      -10.1420     4.4320     0.0820 C.ar  1 <1>   0.0830 
  3 C      -10.7600     2.1090     0.2930 C.3   1 <1>   0.1200 
  4 C      -11.4200     5.0010    -0.0310 C.ar  1 <1>   0.0820 
  5 C       -9.0550     5.2310     0.4240 C.ar  1 <1>  -0.1440 
  6 C       -9.9630     0.8260     0.5080 C.3   1 <1>  -0.2400 
  7 O      -12.4680     4.2240    -0.4280 O.3   1 <1>  -0.3630 
  8 C      -11.5810     6.3570     0.2420 C.ar  1 <1>  -0.1500 
  9 C       -9.2350     6.5800     0.6850 C.ar  1 <1>  -0.1500 
 10 C       -7.6710     4.6260     0.5100 C.3   1 <1>   0.4860 
 11 C      -13.7690     4.7440    -0.6010 C.3   1 <1>   0.0400 
 12 C      -10.4960     7.1380     0.5990 C.ar  1 <1>  -0.1500 
 13 N       -7.3520     4.1050    -0.8330 N.4   1 <1>  -0.9060 
 14 C       -6.1080     3.3390    -0.8920 C.3   1 <1>   0.5660 
 15 C       -4.9640     4.2300    -0.4320 C.ar  1 <1>  -0.1430 
 16 C       -5.9200     2.8380    -2.3170 C.3   1 <1>  -0.2400 
 17 C       -4.2600     3.8840     0.7140 C.ar  1 <1>  -0.1500 
 18 C       -4.6150     5.3910    -1.1140 C.ar  1 <1>  -0.1500 
 19 C       -3.2320     4.6870     1.1760 C.ar  1 <1>  -0.1500 
 20 C       -3.5860     6.1920    -0.6510 C.ar  1 <1>  -0.1500 
 21 C       -2.8960     5.8420     0.4940 C.ar  1 <1>  -0.1500 
 22 H      -11.5120     1.9650    -0.4650 H     1 <1>   0.0800 
 23 H      -11.2240     2.4300     1.2110 H     1 <1>   0.0800 
 24 H       -9.5040     0.5120    -0.4120 H     1 <1>   0.0800 
 25 H      -10.6260     0.0460     0.8370 H     1 <1>   0.0800 
 26 H       -9.2130     0.9720     1.2630 H     1 <1>   0.0800 
 27 H      -12.5420     6.8330     0.1800 H     1 <1>   0.1500 
 28 H       -8.4050     7.2100     0.9610 H     1 <1>   0.1500 
 29 H       -7.6760     3.8260     1.2320 H     1 <1>   0.0800 
 30 H       -6.9490     5.3690     0.8110 H     1 <1>   0.0800 
 31 H      -14.4090     3.9440    -0.9280 H     1 <1>   0.0800 
 32 H      -13.7430     5.5160    -1.3500 H     1 <1>   0.0800 
 33 H      -14.1220     5.1290     0.3390 H     1 <1>   0.0800 
 34 H      -10.6380     8.1860     0.8080 H     1 <1>   0.1500 
 35 H       -7.3180     4.8870    -1.4870 H     1 <1>   0.4500 
 36 H       -8.1580     3.5180    -1.0940 H     1 <1>   0.4500 
 37 H       -6.1780     2.4890    -0.2300 H     1 <1>   0.0800 
 38 H       -5.8840     3.6480    -3.0220 H     1 <1>   0.0800 
 39 H       -6.7120     2.1620    -2.5870 H     1 <1>   0.0800 
 40 H       -4.9900     2.3000    -2.3820 H     1 <1>   0.0800 
 41 H       -4.4960     2.9870     1.2630 H     1 <1>   0.1500 
 42 H       -5.1260     5.6900    -2.0130 H     1 <1>   0.1500 
 43 H       -2.6870     4.4140     2.0640 H     1 <1>   0.1500 
 44 H       -3.3160     7.0900    -1.1820 H     1 <1>   0.1500 
 45 H       -2.0940     6.4660     0.8530 H     1 <1>   0.1500 
@<TRIPOS>BOND
  1   1   2  1   
  2   1   3  1   
  3   2   4  ar  
  4   2   5  ar  
  5   3   6  1   
  6   3  22  1   
  7   3  23  1   
  8   4   7  1   
  9   4   8  ar  
 10   5   9  ar  
 11   5  10  1   
 12   6  24  1   
 13   6  25  1   
 14   6  26  1   
 15   7  11  1   
 16   8  12  ar  
 17   8  27  1   
 18   9  12  ar  
 19   9  28  1   
 20  10  13  1   
 21  10  29  1   
 22  10  30  1   
 23  11  31  1   
 24  11  32  1   
 25  11  33  1   
 26  12  34  1   
 27  13  14  1   
 28  13  35  1   
 29  13  36  1   
 30  14  15  1   
 31  14  16  1   
 32  14  37  1   
 33  15  17  ar  
 34  15  18  ar  
 35  16  38  1   
 36  16  39  1   
 37  16  40  1   
 38  17  19  ar  
 39  17  41  1   
 40  18  20  ar  
 41  18  42  1   
 42  19  21  ar  
 43  19  43  1   
 44  20  21  ar  
 45  20  44  1   
 46  21  45  1   
@<TRIPOS>SUBSTRUCTURE
  1 ****  10 GROUP 4 **** **** 0

# MOE 2024.06 (io_trps.svl 2023.06)
