@<TRIPOS>MOLECULE
NONAME
45 48 1 0 0 
SMALL
USER_CHARGES


@<TRIPOS>ATOM
  1 O        0.3020     0.9240     1.5870 O.2   1 <1>  -0.5700 
  2 C        1.2250     1.7000     1.2630 C.2   1 <1>   0.5410 
  3 C        1.0070     2.9770     0.6560 C.2   1 <1>   0.0140 
  4 C        2.5450     1.2650     1.5240 C.2   1 <1>  -0.1360 
  5 C       -0.2830     3.4890     0.3540 C.2   1 <1>   0.2710 
  6 C        2.1710     3.7290     0.3610 C.2   1 <1>  -0.1500 
  7 C        3.6320     2.0300     1.2170 C.2   1 <1>  -0.1500 
  8 N       -0.4160     4.6990    -0.2090 N.2   1 <1>  -0.6210 
  9 N       -1.4010     2.7780     0.6410 N.pl3 1 <1>  -0.6000 
 10 C        3.4380     3.2830     0.6270 C.2   1 <1>  -0.1500 
 11 C       -1.6110     5.1930    -0.4640 C.2   1 <1>   0.4140 
 12 C       -2.6710     3.1610     0.2980 C.ar  1 <1>   0.1000 
 13 N       -1.6530     6.5160    -0.8250 N.pl3 1 <1>  -0.7880 
 14 C       -2.8060     4.3950    -0.3370 C.ar  1 <1>   0.0860 
 15 C       -3.7750     2.3410     0.5260 C.ar  1 <1>  -0.1500 
 16 C       -2.6530     7.4720    -0.2730 C.3   1 <1>   0.2090 
 17 C       -0.5040     7.1790    -1.5060 C.3   1 <1>   0.2090 
 18 C       -4.0800     4.7220    -0.8330 C.ar  1 <1>  -0.1500 
 19 C       -5.0200     2.7130     0.0760 C.ar  1 <1>  -0.1500 
 20 C       -1.9670     8.4500     0.6880 C.3   1 <1>  -0.1600 
 21 C        0.1990     8.1350    -0.5400 C.3   1 <1>  -0.1600 
 22 C       -5.1700     3.9080    -0.6210 C.ar  1 <1>  -0.1500 
 23 C       -0.7800     9.1710     0.0320 C.3   1 <1>  -0.0800 
 24 C       -0.0730    10.0800     1.0440 C.3   1 <1>  -0.2400 
 25 H        2.6520     0.2980     1.9790 H     1 <1>   0.1500 
 26 H        2.0520     4.6980    -0.0930 H     1 <1>   0.1500 
 27 H        4.6340     1.6910     1.4200 H     1 <1>   0.1500 
 28 H       -1.2510     1.8630     1.0930 H     1 <1>   0.4000 
 29 H        4.2970     3.8870     0.3860 H     1 <1>   0.1500 
 30 H       -3.6380     1.4110     1.0470 H     1 <1>   0.1500 
 31 H       -3.4160     6.9490     0.2750 H     1 <1>   0.0800 
 32 H       -3.1150     8.0090    -1.0830 H     1 <1>   0.0800 
 33 H       -0.8720     7.7250    -2.3570 H     1 <1>   0.0800 
 34 H        0.1960     6.4440    -1.8680 H     1 <1>   0.0800 
 35 H       -4.2000     5.6260    -1.4000 H     1 <1>   0.1500 
 36 H       -5.8760     2.0830     0.2480 H     1 <1>   0.1500 
 37 H       -1.6260     7.8940     1.5450 H     1 <1>   0.0800 
 38 H       -2.6880     9.1700     1.0290 H     1 <1>   0.0800 
 39 H        0.9980     8.6330    -1.0590 H     1 <1>   0.0800 
 40 H        0.6320     7.5540     0.2550 H     1 <1>   0.0800 
 41 H       -6.1400     4.1840    -0.9970 H     1 <1>   0.1500 
 42 H       -1.1500     9.7800    -0.7760 H     1 <1>   0.0800 
 43 H        0.3120     9.5020     1.8660 H     1 <1>   0.0800 
 44 H       -0.7600    10.8120     1.4310 H     1 <1>   0.0800 
 45 H        0.7440    10.5970     0.5740 H     1 <1>   0.0800 
@<TRIPOS>BOND
  1   1   2  2   
  2   2   3  1   
  3   2   4  1   
  4   3   5  2   
  5   3   6  1   
  6   4   7  2   
  7   4  25  1   
  8   5   8  1   
  9   5   9  1   
 10   6  10  2   
 11   6  26  1   
 12   7  10  1   
 13   7  27  1   
 14   8  11  2   
 15   9  12  1   
 16   9  28  1   
 17  10  29  1   
 18  11  13  1   
 19  11  14  1   
 20  12  14  ar  
 21  12  15  ar  
 22  13  16  1   
 23  13  17  1   
 24  14  18  ar  
 25  15  19  ar  
 26  15  30  1   
 27  16  20  1   
 28  16  31  1   
 29  16  32  1   
 30  17  21  1   
 31  17  33  1   
 32  17  34  1   
 33  18  22  ar  
 34  18  35  1   
 35  19  22  ar  
 36  19  36  1   
 37  20  23  1   
 38  20  37  1   
 39  20  38  1   
 40  21  23  1   
 41  21  39  1   
 42  21  40  1   
 43  22  41  1   
 44  23  24  1   
 45  23  42  1   
 46  24  43  1   
 47  24  44  1   
 48  24  45  1   
@<TRIPOS>SUBSTRUCTURE
  1 ****   8 GROUP 4 **** **** 0

# MOE 2024.06 (io_trps.svl 2023.06)
