@<TRIPOS>MOLECULE
NONAME
46 48 1 0 0 
SMALL
USER_CHARGES


@<TRIPOS>ATOM
  1 F       -2.0990    -0.6740    -1.4490 F     1 <1>  -0.3400 
  2 C       -1.6840    -1.0130    -0.2290 C.3   1 <1>   1.0200 
  3 F       -1.1320    -2.2160    -0.3580 F     1 <1>  -0.3400 
  4 F       -0.6720    -0.1880     0.0360 F     1 <1>  -0.3400 
  5 C       -2.8370    -0.9150     0.8570 C.3   1 <1>   0.5800 
  6 O       -2.4710    -1.3740     2.1270 O.3   1 <1>  -0.6800 
  7 N       -4.0900    -1.6470     0.4920 N.am  1 <1>  -0.2980 
  8 C       -3.3400     0.5300     1.0210 C.3   1 <1>  -0.0990 
  9 N       -5.1340    -0.7650     0.3010 N.2   1 <1>  -0.5120 
 10 C       -4.1550    -3.0350     0.4390 C.2   1 <1>   0.5440 
 11 C       -4.7760     0.4090     0.5790 C.2   1 <1>   0.3280 
 12 O       -3.1980    -3.6700     0.8460 O.2   1 <1>  -0.5700 
 13 C       -5.3130    -3.7420    -0.0810 C.ar  1 <1>   0.0860 
 14 C       -5.6400     1.6700     0.5180 C.3   1 <1>  -0.0190 
 15 C       -6.6220    -3.4350     0.2950 C.ar  1 <1>  -0.1500 
 16 C       -5.1400    -4.7920    -0.9830 C.ar  1 <1>  -0.1500 
 17 C       -7.1460     1.3370     0.4800 C.3   1 <1>  -0.1600 
 18 C       -5.2590     2.5450    -0.6910 C.3   1 <1>  -0.1600 
 19 C       -7.7100    -4.1230    -0.2130 C.ar  1 <1>  -0.1430 
 20 C       -6.2180    -5.4900    -1.4950 C.ar  1 <1>  -0.1500 
 21 C       -8.0060     2.6060     0.4130 C.3   1 <1>  -0.1600 
 22 C       -6.1200     3.8140    -0.7660 C.3   1 <1>  -0.1600 
 23 C       -7.5040    -5.1550    -1.1120 C.ar  1 <1>  -0.1500 
 24 C       -9.1200    -3.7550     0.2120 C.3   1 <1>  -0.0970 
 25 C       -7.6150     3.4730    -0.7900 C.3   1 <1>  -0.1600 
 26 H       -2.4810    -2.3600     2.0780 H     1 <1>   0.4000 
 27 H       -2.8120     1.2170     0.3880 H     1 <1>   0.0800 
 28 H       -3.2830     0.8630     2.0420 H     1 <1>   0.0800 
 29 H       -5.4560     2.2320     1.4170 H     1 <1>   0.0800 
 30 H       -6.7840    -2.6400     1.0020 H     1 <1>   0.1500 
 31 H       -4.1420    -5.0620    -1.2810 H     1 <1>   0.1500 
 32 H       -7.4120     0.7690     1.3550 H     1 <1>   0.0800 
 33 H       -7.3560     0.7250    -0.3820 H     1 <1>   0.0800 
 34 H       -5.3910     1.9750    -1.5960 H     1 <1>   0.0800 
 35 H       -4.2240     2.8330    -0.6320 H     1 <1>   0.0800 
 36 H       -6.0570    -6.2950    -2.1910 H     1 <1>   0.1500 
 37 H       -7.8790     3.1730     1.3200 H     1 <1>   0.0800 
 38 H       -9.0440     2.3330     0.3380 H     1 <1>   0.0800 
 39 H       -5.8660     4.3710    -1.6520 H     1 <1>   0.0800 
 40 H       -5.9130     4.4390     0.0860 H     1 <1>   0.0800 
 41 H       -8.3400    -5.7010    -1.5130 H     1 <1>   0.1500 
 42 H       -9.1560    -2.7400     0.5670 H     1 <1>   0.0800 
 43 H       -9.4460    -4.4100     1.0000 H     1 <1>   0.0800 
 44 H       -9.7960    -3.8460    -0.6190 H     1 <1>   0.0800 
 45 H       -8.1940     4.3810    -0.7830 H     1 <1>   0.0800 
 46 H       -7.8450     2.9430    -1.6990 H     1 <1>   0.0800 
@<TRIPOS>BOND
  1   1   2  1   
  2   2   3  1   
  3   2   4  1   
  4   2   5  1   
  5   5   6  1   
  6   5   7  1   
  7   5   8  1   
  8   6  26  1   
  9   7   9  1   
 10   7  10  am  
 11   8  11  1   
 12   8  27  1   
 13   8  28  1   
 14   9  11  2   
 15  10  12  2   
 16  10  13  1   
 17  11  14  1   
 18  13  15  ar  
 19  13  16  ar  
 20  14  17  1   
 21  14  18  1   
 22  14  29  1   
 23  15  19  ar  
 24  15  30  1   
 25  16  20  ar  
 26  16  31  1   
 27  17  21  1   
 28  17  32  1   
 29  17  33  1   
 30  18  22  1   
 31  18  34  1   
 32  18  35  1   
 33  19  23  ar  
 34  19  24  1   
 35  20  23  ar  
 36  20  36  1   
 37  21  25  1   
 38  21  37  1   
 39  21  38  1   
 40  22  25  1   
 41  22  39  1   
 42  22  40  1   
 43  23  41  1   
 44  24  42  1   
 45  24  43  1   
 46  24  44  1   
 47  25  45  1   
 48  25  46  1   
@<TRIPOS>SUBSTRUCTURE
  1 ****   9 GROUP 4 **** **** 0

# MOE 2024.06 (io_trps.svl 2023.06)
