@<TRIPOS>MOLECULE
NONAME
39 39 1 0 0 
SMALL
USER_CHARGES


@<TRIPOS>ATOM
  1 O       -9.6060     4.8740     0.5810 O.3   1 <1>  -0.3630 
  2 C       -9.2800     3.7460    -0.1130 C.ar  1 <1>   0.0820 
  3 C      -10.9310     5.2890     0.8150 C.3   1 <1>   0.1200 
  4 C      -10.1540     2.7330    -0.5490 C.ar  1 <1>   0.0820 
  5 C       -7.9270     3.6390    -0.3870 C.ar  1 <1>  -0.1500 
  6 C      -10.8850     6.6610     1.4810 C.3   1 <1>  -0.2400 
  7 O      -11.4890     2.8140    -0.2810 O.3   1 <1>  -0.3620 
  8 C       -9.6270     1.6500    -1.2500 C.ar  1 <1>  -0.1500 
  9 C       -7.4110     2.5530    -1.0750 C.ar  1 <1>  -0.1440 
 10 C      -12.4300     1.8970    -0.7900 C.3   1 <1>   0.1200 
 11 C       -8.2710     1.5590    -1.5100 C.ar  1 <1>  -0.1500 
 12 C       -5.9250     2.4650    -1.3290 C.3   1 <1>   0.4860 
 13 C      -13.8160     2.3560    -0.3480 C.3   1 <1>  -0.2400 
 14 N       -5.3220     1.9440    -0.0880 N.4   1 <1>  -0.9060 
 15 C       -3.8570     1.8630    -0.1110 C.3   1 <1>   0.4810 
 16 C       -3.4630     1.1980     1.1830 C.2   1 <1>  -0.2880 
 17 C       -2.9620    -0.0370     1.2940 C.2   1 <1>  -0.3000 
 18 H      -11.4050     4.5710     1.4610 H     1 <1>   0.0800 
 19 H      -11.4460     5.3410    -0.1280 H     1 <1>   0.0800 
 20 H       -7.2910     4.4370    -0.0460 H     1 <1>   0.1500 
 21 H      -10.3570     6.6020     2.4150 H     1 <1>   0.0800 
 22 H      -11.8850     7.0030     1.6730 H     1 <1>   0.0800 
 23 H      -10.3990     7.3700     0.8340 H     1 <1>   0.0800 
 24 H      -10.2590     0.8570    -1.6030 H     1 <1>   0.1500 
 25 H      -12.2090     0.9220    -0.3900 H     1 <1>   0.0800 
 26 H      -12.3580     1.8900    -1.8640 H     1 <1>   0.0800 
 27 H       -7.9050     0.7050    -2.0560 H     1 <1>   0.1500 
 28 H       -5.5360     3.4440    -1.5590 H     1 <1>   0.0800 
 29 H       -5.7270     1.8030    -2.1570 H     1 <1>   0.0800 
 30 H      -13.8740     2.3760     0.7260 H     1 <1>   0.0800 
 31 H      -14.5610     1.6750    -0.7180 H     1 <1>   0.0800 
 32 H      -14.0230     3.3360    -0.7380 H     1 <1>   0.0800 
 33 H       -5.7000     1.0100     0.1050 H     1 <1>   0.4500 
 34 H       -5.6310     2.5270     0.6970 H     1 <1>   0.4500 
 35 H       -3.4130     2.8430    -0.1850 H     1 <1>   0.0800 
 36 H       -3.5290     1.2620    -0.9440 H     1 <1>   0.0800 
 37 H       -3.6190     1.8280     2.0440 H     1 <1>   0.1500 
 38 H       -2.6840    -0.4860     2.2350 H     1 <1>   0.1500 
 39 H       -2.7770    -0.7120     0.4740 H     1 <1>   0.1500 
@<TRIPOS>BOND
  1   1   2  1   
  2   1   3  1   
  3   2   4  ar  
  4   2   5  ar  
  5   3   6  1   
  6   3  18  1   
  7   3  19  1   
  8   4   7  1   
  9   4   8  ar  
 10   5   9  ar  
 11   5  20  1   
 12   6  21  1   
 13   6  22  1   
 14   6  23  1   
 15   7  10  1   
 16   8  11  ar  
 17   8  24  1   
 18   9  11  ar  
 19   9  12  1   
 20  10  13  1   
 21  10  25  1   
 22  10  26  1   
 23  11  27  1   
 24  12  14  1   
 25  12  28  1   
 26  12  29  1   
 27  13  30  1   
 28  13  31  1   
 29  13  32  1   
 30  14  15  1   
 31  14  33  1   
 32  14  34  1   
 33  15  16  1   
 34  15  35  1   
 35  15  36  1   
 36  16  17  2   
 37  16  37  1   
 38  17  38  1   
 39  17  39  1   
@<TRIPOS>SUBSTRUCTURE
  1 ****   5 GROUP 4 **** **** 0

# MOE 2024.06 (io_trps.svl 2023.06)
