@<TRIPOS>MOLECULE
NONAME
29 29 1 0 0 
SMALL
USER_CHARGES


@<TRIPOS>ATOM
  1 S       -0.5130     2.5780    -2.3600 S.2   1 <1>  -0.6770 
  2 P        0.1550     1.7750    -0.7420 P.3   1 <1>   0.9530 
  3 N        1.3170     0.6220    -1.1950 N.pl3 1 <1>  -0.7760 
  4 C       -1.0640     0.8700     0.1760 C.3   1 <1>  -0.1600 
  5 C        1.0250     2.8920     0.3260 C.3   1 <1>  -0.1600 
  6 C        1.6070    -0.5820    -0.5670 C.ar  1 <1>   0.1000 
  7 C       -2.3310     1.6400     0.5830 C.3   1 <1>  -0.2400 
  8 C        0.3310     4.2320     0.6260 C.3   1 <1>  -0.2400 
  9 C        1.4860    -1.7710    -1.2740 C.ar  1 <1>  -0.1500 
 10 C        2.0230    -0.6310     0.7590 C.ar  1 <1>  -0.1500 
 11 C        1.7580    -2.9840    -0.6680 C.ar  1 <1>  -0.1500 
 12 C        2.2930    -1.8430     1.3690 C.ar  1 <1>  -0.1500 
 13 C        2.1590    -3.0220     0.6560 C.ar  1 <1>  -0.1500 
 14 H        1.3840     0.5850    -2.2150 H     1 <1>   0.4000 
 15 H       -0.6340     0.4530     1.0670 H     1 <1>   0.0800 
 16 H       -1.3890     0.0340    -0.4150 H     1 <1>   0.0800 
 17 H        1.9700     3.1330    -0.1250 H     1 <1>   0.0800 
 18 H        1.2510     2.4210     1.2630 H     1 <1>   0.0800 
 19 H       -2.1020     2.4120     1.2940 H     1 <1>   0.0800 
 20 H       -3.0410     0.9680     1.0340 H     1 <1>   0.0800 
 21 H       -2.7910     2.0880    -0.2820 H     1 <1>   0.0800 
 22 H        0.1120     4.7520    -0.2910 H     1 <1>   0.0800 
 23 H        0.9730     4.8550     1.2230 H     1 <1>   0.0800 
 24 H       -0.5880     4.0830     1.1620 H     1 <1>   0.0800 
 25 H        1.1740    -1.7480    -2.3020 H     1 <1>   0.1500 
 26 H        2.1450     0.2780     1.3140 H     1 <1>   0.1500 
 27 H        1.6570    -3.9000    -1.2250 H     1 <1>   0.1500 
 28 H        2.6130    -1.8710     2.3960 H     1 <1>   0.1500 
 29 H        2.3700    -3.9660     1.1290 H     1 <1>   0.1500 
@<TRIPOS>BOND
  1   1   2  2   
  2   2   3  1   
  3   2   4  1   
  4   2   5  1   
  5   3   6  1   
  6   3  14  1   
  7   4   7  1   
  8   4  15  1   
  9   4  16  1   
 10   5   8  1   
 11   5  17  1   
 12   5  18  1   
 13   6   9  ar  
 14   6  10  ar  
 15   7  19  1   
 16   7  20  1   
 17   7  21  1   
 18   8  22  1   
 19   8  23  1   
 20   8  24  1   
 21   9  11  ar  
 22   9  25  1   
 23  10  12  ar  
 24  10  26  1   
 25  11  13  ar  
 26  11  27  1   
 27  12  13  ar  
 28  12  28  1   
 29  13  29  1   
@<TRIPOS>SUBSTRUCTURE
  1 ****   3 GROUP 4 **** **** 0

# MOE 2024.06 (io_trps.svl 2023.06)
