@<TRIPOS>MOLECULE
NONAME
53 55 1 0 0 
SMALL
USER_CHARGES


@<TRIPOS>ATOM
  1 O       -1.3430    -1.5120    -0.4970 O.2   1 <1>  -0.5700 
  2 C       -2.4200    -1.3780     0.0630 C.2   1 <1>   0.5440 
  3 N       -2.7330    -2.1710     1.1420 N.am  1 <1>  -0.4200 
  4 C       -3.3930    -0.4140    -0.3690 C.ar  1 <1>   0.0860 
  5 C       -3.9720    -2.0690     1.7250 C.2   1 <1>   0.4500 
  6 C       -1.7760    -3.2020     1.6300 C.3   1 <1>   0.1400 
  7 C       -4.6120    -0.3760     0.3200 C.ar  1 <1>   0.1790 
  8 C       -3.1880     0.4750    -1.4270 C.ar  1 <1>  -0.1500 
  9 N       -4.8750    -1.2340     1.3710 N.2   1 <1>  -0.6290 
 10 C       -1.9480    -4.5160     0.8620 C.3   1 <1>   0.1200 
 11 C       -5.5840     0.5420    -0.0610 C.ar  1 <1>  -0.1500 
 12 C       -4.1620     1.3810    -1.7940 C.ar  1 <1>  -0.1500 
 13 O       -3.2440    -4.9930     1.0590 O.3   1 <1>  -0.5600 
 14 C       -5.3670     1.4150    -1.1070 C.ar  1 <1>  -0.1500 
 15 C       -3.5630    -6.1050     0.2840 C.3   1 <1>   0.1200 
 16 C       -5.0310    -6.4450     0.5170 C.3   1 <1>   0.1200 
 17 O       -5.3490    -7.5930    -0.2420 O.3   1 <1>  -0.3630 
 18 C       -6.6020    -8.1130    -0.2290 C.ar  1 <1>   0.0830 
 19 C       -6.8140    -9.2560    -0.9790 C.ar  1 <1>  -0.1500 
 20 C       -7.6610    -7.5660     0.4840 C.ar  1 <1>  -0.1500 
 21 C       -8.0590    -9.8650    -1.0310 C.ar  1 <1>  -0.1430 
 22 C       -8.9040    -8.1680     0.4360 C.ar  1 <1>  -0.1500 
 23 C       -9.1250    -9.3170    -0.3150 C.ar  1 <1>  -0.1430 
 24 C       -8.1990   -11.1200    -1.8830 C.3   1 <1>  -0.0970 
 25 C      -10.5330    -9.9310    -0.3210 C.3   1 <1>   0.0630 
 26 C      -11.5560    -8.9520    -0.9070 C.3   1 <1>  -0.2400 
 27 C      -10.9460   -10.3710     1.0880 C.3   1 <1>  -0.2400 
 28 H       -4.1740    -2.7490     2.5340 H     1 <1>   0.0600 
 29 H       -1.9310    -3.3770     2.6790 H     1 <1>   0.0800 
 30 H       -0.7690    -2.8440     1.5030 H     1 <1>   0.0800 
 31 H       -2.2510     0.4450    -1.9580 H     1 <1>   0.1500 
 32 H       -1.2530    -5.2540     1.2220 H     1 <1>   0.0800 
 33 H       -1.7850    -4.3480    -0.1900 H     1 <1>   0.0800 
 34 H       -6.5140     0.5580     0.4790 H     1 <1>   0.1500 
 35 H       -3.9920     2.0610    -2.6110 H     1 <1>   0.1500 
 36 H       -6.1280     2.1210    -1.3920 H     1 <1>   0.1500 
 37 H       -2.9360    -6.9270     0.5840 H     1 <1>   0.0800 
 38 H       -3.4040    -5.8640    -0.7540 H     1 <1>   0.0800 
 39 H       -5.6560    -5.6350     0.1860 H     1 <1>   0.0800 
 40 H       -5.2040    -6.6670     1.5540 H     1 <1>   0.0800 
 41 H       -5.9830    -9.6630    -1.5240 H     1 <1>   0.1500 
 42 H       -7.5410    -6.6790     1.0770 H     1 <1>   0.1500 
 43 H       -9.7090    -7.7270     0.9950 H     1 <1>   0.1500 
 44 H       -7.2670   -11.3760    -2.3510 H     1 <1>   0.0800 
 45 H       -8.9290   -10.9600    -2.6550 H     1 <1>   0.0800 
 46 H       -8.5040   -11.9480    -1.2690 H     1 <1>   0.0800 
 47 H      -10.5530   -10.8090    -0.9390 H     1 <1>   0.0800 
 48 H      -11.6510    -8.0770    -0.2910 H     1 <1>   0.0800 
 49 H      -12.5200    -9.4230    -0.9840 H     1 <1>   0.0800 
 50 H      -11.2440    -8.6460    -1.8900 H     1 <1>   0.0800 
 51 H      -11.0270    -9.5270     1.7480 H     1 <1>   0.0800 
 52 H      -10.2120   -11.0480     1.4860 H     1 <1>   0.0800 
 53 H      -11.8950   -10.8750     1.0570 H     1 <1>   0.0800 
@<TRIPOS>BOND
  1   1   2  2   
  2   2   3  am  
  3   2   4  1   
  4   3   5  1   
  5   3   6  1   
  6   4   7  ar  
  7   4   8  ar  
  8   5   9  2   
  9   5  28  1   
 10   6  10  1   
 11   6  29  1   
 12   6  30  1   
 13   7   9  1   
 14   7  11  ar  
 15   8  12  ar  
 16   8  31  1   
 17  10  13  1   
 18  10  32  1   
 19  10  33  1   
 20  11  14  ar  
 21  11  34  1   
 22  12  14  ar  
 23  12  35  1   
 24  13  15  1   
 25  14  36  1   
 26  15  16  1   
 27  15  37  1   
 28  15  38  1   
 29  16  17  1   
 30  16  39  1   
 31  16  40  1   
 32  17  18  1   
 33  18  19  ar  
 34  18  20  ar  
 35  19  21  ar  
 36  19  41  1   
 37  20  22  ar  
 38  20  42  1   
 39  21  23  ar  
 40  21  24  1   
 41  22  23  ar  
 42  22  43  1   
 43  23  25  1   
 44  24  44  1   
 45  24  45  1   
 46  24  46  1   
 47  25  26  1   
 48  25  27  1   
 49  25  47  1   
 50  26  48  1   
 51  26  49  1   
 52  26  50  1   
 53  27  51  1   
 54  27  52  1   
 55  27  53  1   
@<TRIPOS>SUBSTRUCTURE
  1 ****  16 GROUP 4 **** **** 0

# MOE 2024.06 (io_trps.svl 2023.06)
