@<TRIPOS>MOLECULE
NONAME
52 54 1 0 0 
SMALL
USER_CHARGES


@<TRIPOS>ATOM
  1 O       -0.2390     0.0550    -0.9420 O.2   1 <1>  -0.5700 
  2 C       -0.2310     1.2520    -0.7400 C.2   1 <1>   0.5440 
  3 N        0.9410     1.9030    -0.4300 N.am  1 <1>  -0.5470 
  4 C       -1.4630     2.0100    -0.8560 C.ar  1 <1>   0.0860 
  5 C        2.2190     1.4110    -0.1260 C.ar  1 <1>   0.1170 
  6 C       -1.7480     3.0970    -0.0280 C.ar  1 <1>  -0.1500 
  7 C       -2.4230     1.6680    -1.8070 C.ar  1 <1>  -0.1500 
  8 C        3.3170     2.2430    -0.3060 C.ar  1 <1>  -0.1500 
  9 C        2.4430     0.1320     0.3730 C.ar  1 <1>  -0.1500 
 10 C       -2.9290     3.8080    -0.1460 C.ar  1 <1>  -0.1500 
 11 C       -3.6060     2.3720    -1.9330 C.ar  1 <1>  -0.1500 
 12 C        4.5960     1.8140    -0.0010 C.ar  1 <1>  -0.1500 
 13 C        3.7220    -0.2990     0.6760 C.ar  1 <1>  -0.1500 
 14 C       -3.8720     3.4460    -1.0980 C.ar  1 <1>  -0.1430 
 15 C        4.8140     0.5370     0.4940 C.ar  1 <1>  -0.1430 
 16 C       -5.1820     4.2040    -1.2210 C.3   1 <1>   0.4860 
 17 C        6.2320     0.0760     0.8240 C.3   1 <1>   0.0630 
 18 N       -6.0640     3.8330    -0.0820 N.4   1 <1>  -0.9590 
 19 C        6.6320    -1.1240    -0.0400 C.3   1 <1>  -0.2400 
 20 C        6.3650    -0.2580     2.3140 C.3   1 <1>  -0.2400 
 21 C       -6.3480     2.3600     0.0150 C.3   1 <1>   0.3430 
 22 C       -7.3370     4.6270    -0.0240 C.3   1 <1>   0.3430 
 23 C       -7.2250     2.0390     1.2480 C.3   1 <1>   0.1200 
 24 C       -8.2450     4.1610     1.1390 C.3   1 <1>   0.1200 
 25 O       -7.5930     3.2080     1.9340 O.3   1 <1>  -0.5600 
 26 H        0.8950     2.9150    -0.5080 H     1 <1>   0.3700 
 27 H       -1.0360     3.3840     0.7290 H     1 <1>   0.1500 
 28 H       -2.2260     0.8300    -2.4570 H     1 <1>   0.1500 
 29 H        3.1760     3.2360    -0.6910 H     1 <1>   0.1500 
 30 H        1.6170    -0.5360     0.5280 H     1 <1>   0.1500 
 31 H       -3.1010     4.6420     0.5140 H     1 <1>   0.1500 
 32 H       -4.3100     2.0680    -2.6900 H     1 <1>   0.1500 
 33 H        5.4260     2.4820    -0.1540 H     1 <1>   0.1500 
 34 H        3.8590    -1.2950     1.0570 H     1 <1>   0.1500 
 35 H       -5.6600     3.9580    -2.1560 H     1 <1>   0.0800 
 36 H       -4.9850     5.2630    -1.2070 H     1 <1>   0.0800 
 37 H        6.9160     0.8780     0.6060 H     1 <1>   0.0800 
 38 H       -5.5650     4.0480     0.7930 H     1 <1>   0.4500 
 39 H        6.0090    -1.9750     0.1730 H     1 <1>   0.0800 
 40 H        7.6560    -1.3930     0.1450 H     1 <1>   0.0800 
 41 H        6.5250    -0.8760    -1.0810 H     1 <1>   0.0800 
 42 H        5.7370    -1.0890     2.5770 H     1 <1>   0.0800 
 43 H        6.0740     0.5920     2.9050 H     1 <1>   0.0800 
 44 H        7.3830    -0.5070     2.5500 H     1 <1>   0.0800 
 45 H       -5.4250     1.8070     0.0920 H     1 <1>   0.0800 
 46 H       -6.8540     2.0210    -0.8730 H     1 <1>   0.0800 
 47 H       -7.8810     4.5260    -0.9490 H     1 <1>   0.0800 
 48 H       -7.1130     5.6730     0.1080 H     1 <1>   0.0800 
 49 H       -6.6810     1.4150     1.9360 H     1 <1>   0.0800 
 50 H       -8.1180     1.5150     0.9550 H     1 <1>   0.0800 
 51 H       -9.1580     3.7300     0.7640 H     1 <1>   0.0800 
 52 H       -8.5010     4.9950     1.7680 H     1 <1>   0.0800 
@<TRIPOS>BOND
  1   1   2  2   
  2   2   3  am  
  3   2   4  1   
  4   3   5  1   
  5   3  26  1   
  6   4   6  ar  
  7   4   7  ar  
  8   5   8  ar  
  9   5   9  ar  
 10   6  10  ar  
 11   6  27  1   
 12   7  11  ar  
 13   7  28  1   
 14   8  12  ar  
 15   8  29  1   
 16   9  13  ar  
 17   9  30  1   
 18  10  14  ar  
 19  10  31  1   
 20  11  14  ar  
 21  11  32  1   
 22  12  15  ar  
 23  12  33  1   
 24  13  15  ar  
 25  13  34  1   
 26  14  16  1   
 27  15  17  1   
 28  16  18  1   
 29  16  35  1   
 30  16  36  1   
 31  17  19  1   
 32  17  20  1   
 33  17  37  1   
 34  18  21  1   
 35  18  22  1   
 36  18  38  1   
 37  19  39  1   
 38  19  40  1   
 39  19  41  1   
 40  20  42  1   
 41  20  43  1   
 42  20  44  1   
 43  21  23  1   
 44  21  45  1   
 45  21  46  1   
 46  22  24  1   
 47  22  47  1   
 48  22  48  1   
 49  23  25  1   
 50  23  49  1   
 51  23  50  1   
 52  24  25  1   
 53  24  51  1   
 54  24  52  1   
@<TRIPOS>SUBSTRUCTURE
  1 ****   4 GROUP 4 **** **** 0

# MOE 2024.06 (io_trps.svl 2023.06)
