@<TRIPOS>MOLECULE
NONAME
40 42 1 0 0 
SMALL
USER_CHARGES


@<TRIPOS>ATOM
  1 F       -1.7090    -0.4160    -2.2860 F     1 <1>  -0.3400 
  2 C       -2.4340    -0.5200    -1.1720 C.3   1 <1>   1.0200 
  3 F       -3.7010    -0.4420    -1.5650 F     1 <1>  -0.3400 
  4 F       -2.2000     0.6030    -0.5010 F     1 <1>  -0.3400 
  5 C       -2.0800    -1.8070    -0.3590 C.3   1 <1>   0.5680 
  6 N       -2.6560    -1.9790     1.0510 N.pl3 1 <1>  -0.8690 
  7 C       -2.3120    -2.9790    -1.3340 C.2   1 <1>   0.6590 
  8 C       -0.5850    -1.9750    -0.2070 C.2   1 <1>  -0.1240 
  9 C       -3.9780    -1.6170     1.2530 C.ar  1 <1>   0.1000 
 10 O       -3.3580    -3.3400    -1.8110 O.2   1 <1>  -0.5700 
 11 O       -1.1550    -3.5820    -1.6350 O.3   1 <1>  -0.2270 
 12 C        0.2610    -1.1940     0.6190 C.2   1 <1>   0.4950 
 13 C       -0.1740    -2.9930    -0.9620 C.2   1 <1>  -0.0610 
 14 C       -4.2740    -0.4330     1.9160 C.ar  1 <1>  -0.1500 
 15 C       -5.0220    -2.4160     0.8060 C.ar  1 <1>  -0.1500 
 16 O       -0.1470    -0.3700     1.3930 O.2   1 <1>  -0.5700 
 17 C        1.7550    -1.4640     0.4860 C.3   1 <1>  -0.0990 
 18 C        1.2620    -3.4680    -1.0600 C.3   1 <1>  -0.0220 
 19 C       -5.5860    -0.0460     2.1130 C.ar  1 <1>  -0.1500 
 20 C       -6.3360    -2.0310     1.0000 C.ar  1 <1>  -0.1500 
 21 C        2.0810    -2.9500     0.1570 C.3   1 <1>   0.0000 
 22 C       -6.6200    -0.8440     1.6530 C.ar  1 <1>  -0.1500 
 23 C        1.7670    -3.8200     1.3900 C.3   1 <1>  -0.2400 
 24 C        3.5810    -3.0830    -0.1470 C.3   1 <1>  -0.2400 
 25 H       -2.0340    -1.4630     1.6940 H     1 <1>   0.4000 
 26 H       -3.4750     0.1910     2.2740 H     1 <1>   0.1500 
 27 H       -4.8090    -3.3440     0.3080 H     1 <1>   0.1500 
 28 H        2.2420    -1.1740     1.3990 H     1 <1>   0.0800 
 29 H        2.1300    -0.8290    -0.2960 H     1 <1>   0.0800 
 30 H        1.6790    -3.0970    -1.9800 H     1 <1>   0.0800 
 31 H        1.2910    -4.5440    -1.0960 H     1 <1>   0.0800 
 32 H       -5.8050     0.8760     2.6240 H     1 <1>   0.1500 
 33 H       -7.1360    -2.6550     0.6440 H     1 <1>   0.1500 
 34 H       -7.6430    -0.5430     1.8040 H     1 <1>   0.1500 
 35 H        0.7210    -3.7850     1.6420 H     1 <1>   0.0800 
 36 H        2.3270    -3.4830     2.2450 H     1 <1>   0.0800 
 37 H        2.0290    -4.8470     1.2060 H     1 <1>   0.0800 
 38 H        3.8550    -2.4840    -0.9980 H     1 <1>   0.0800 
 39 H        3.8360    -4.1070    -0.3600 H     1 <1>   0.0800 
 40 H        4.1690    -2.7590     0.6950 H     1 <1>   0.0800 
@<TRIPOS>BOND
  1   1   2  1   
  2   2   3  1   
  3   2   4  1   
  4   2   5  1   
  5   5   6  1   
  6   5   7  1   
  7   5   8  1   
  8   6   9  1   
  9   6  25  1   
 10   7  10  2   
 11   7  11  1   
 12   8  12  1   
 13   8  13  2   
 14   9  14  ar  
 15   9  15  ar  
 16  11  13  1   
 17  12  16  2   
 18  12  17  1   
 19  13  18  1   
 20  14  19  ar  
 21  14  26  1   
 22  15  20  ar  
 23  15  27  1   
 24  17  21  1   
 25  17  28  1   
 26  17  29  1   
 27  18  21  1   
 28  18  30  1   
 29  18  31  1   
 30  19  22  ar  
 31  19  32  1   
 32  20  22  ar  
 33  20  33  1   
 34  21  23  1   
 35  21  24  1   
 36  22  34  1   
 37  23  35  1   
 38  23  36  1   
 39  23  37  1   
 40  24  38  1   
 41  24  39  1   
 42  24  40  1   
@<TRIPOS>SUBSTRUCTURE
  1 ****   5 GROUP 4 **** **** 0

# MOE 2024.06 (io_trps.svl 2023.06)
