@<TRIPOS>MOLECULE
NONAME
39 40 1 0 0 
SMALL
USER_CHARGES


@<TRIPOS>ATOM
  1 CL       1.3600    -0.5270     2.2470 Cl    1 <1>  -0.1770 
  2 C        2.8620    -0.1990     1.4220 C.ar  1 <1>   0.1770 
  3 C        3.5720     0.9450     1.7300 C.ar  1 <1>  -0.1500 
  4 C        3.3240    -1.0860     0.4710 C.ar  1 <1>  -0.1500 
  5 C        4.7620     1.2000     1.0720 C.ar  1 <1>  -0.1500 
  6 C        4.5160    -0.8210    -0.1800 C.ar  1 <1>  -0.1500 
  7 C        5.2660     0.3260     0.1020 C.ar  1 <1>   0.0540 
  8 C        6.5180     0.5920    -0.5880 C.2   1 <1>   0.4620 
  9 N        7.0470    -0.1500    -1.4950 N.2   1 <1>  -0.4100 
 10 N        7.2680     1.6710    -0.3350 N.2   1 <1>  -0.5650 
 11 O        8.1550     0.4060    -1.8720 O.3   1 <1>  -0.0190 
 12 C        8.2310     1.4890    -1.1440 C.2   1 <1>   0.2980 
 13 C        9.4360     2.4000    -1.3210 C.3   1 <1>   0.3200 
 14 N       10.6480     1.8100    -0.6960 N.am  1 <1>  -0.7300 
 15 C       11.8730     1.8060    -1.2700 C.2   1 <1>   0.5690 
 16 O       12.0630     2.3130    -2.3480 O.2   1 <1>  -0.5700 
 17 C       13.0210     1.1230    -0.5500 C.3   1 <1>  -0.0990 
 18 C       13.7910     2.0070     0.4600 C.3   1 <1>   0.0000 
 19 C       14.9320     1.1760     1.0670 C.3   1 <1>  -0.2400 
 20 C       14.3990     3.2310    -0.2400 C.3   1 <1>  -0.2400 
 21 C       12.8790     2.4830     1.6010 C.3   1 <1>  -0.2400 
 22 H        3.1940     1.6240     2.4730 H     1 <1>   0.1500 
 23 H        2.7560    -1.9710     0.2460 H     1 <1>   0.1500 
 24 H        5.3110     2.0940     1.3150 H     1 <1>   0.1500 
 25 H        4.8730    -1.5160    -0.9210 H     1 <1>   0.1500 
 26 H        9.2310     3.3480    -0.8560 H     1 <1>   0.0800 
 27 H        9.6010     2.5680    -2.3710 H     1 <1>   0.0800 
 28 H       10.5130     1.3950     0.2270 H     1 <1>   0.3700 
 29 H       13.7060     0.7730    -1.3010 H     1 <1>   0.0800 
 30 H       12.6370     0.2550    -0.0480 H     1 <1>   0.0800 
 31 H       14.5450     0.3140     1.5800 H     1 <1>   0.0800 
 32 H       15.4960     1.7630     1.7710 H     1 <1>   0.0800 
 33 H       15.6050     0.8390     0.2980 H     1 <1>   0.0800 
 34 H       15.0350     2.9250    -1.0520 H     1 <1>   0.0800 
 35 H       14.9850     3.8120     0.4490 H     1 <1>   0.0800 
 36 H       13.6290     3.8670    -0.6410 H     1 <1>   0.0800 
 37 H       12.4150     1.6460     2.0920 H     1 <1>   0.0800 
 38 H       12.1100     3.1370     1.2310 H     1 <1>   0.0800 
 39 H       13.4490     3.0280     2.3320 H     1 <1>   0.0800 
@<TRIPOS>BOND
  1   1   2  1   
  2   2   3  ar  
  3   2   4  ar  
  4   3   5  ar  
  5   3  22  1   
  6   4   6  ar  
  7   4  23  1   
  8   5   7  ar  
  9   5  24  1   
 10   6   7  ar  
 11   6  25  1   
 12   7   8  1   
 13   8   9  2   
 14   8  10  1   
 15   9  11  1   
 16  10  12  2   
 17  11  12  1   
 18  12  13  1   
 19  13  14  1   
 20  13  26  1   
 21  13  27  1   
 22  14  15  am  
 23  14  28  1   
 24  15  16  2   
 25  15  17  1   
 26  17  18  1   
 27  17  29  1   
 28  17  30  1   
 29  18  19  1   
 30  18  20  1   
 31  18  21  1   
 32  19  31  1   
 33  19  32  1   
 34  19  33  1   
 35  20  34  1   
 36  20  35  1   
 37  20  36  1   
 38  21  37  1   
 39  21  38  1   
 40  21  39  1   
@<TRIPOS>SUBSTRUCTURE
  1 ****  12 GROUP 4 **** **** 0

# MOE 2024.06 (io_trps.svl 2023.06)
