@<TRIPOS>MOLECULE
NONAME
38 38 1 0 0 
SMALL
USER_CHARGES


@<TRIPOS>ATOM
  1 O       -1.4760    -0.1650    -1.6650 O.co2 1 <1>  -0.9000 
  2 C       -2.5940     0.3050    -1.4200 C.2   1 <1>   0.9060 
  3 O       -3.2080     0.9030    -2.3250 O.co2 1 <1>  -0.9000 
  4 C       -3.2010     0.2480     0.0170 C.3   1 <1>  -0.1060 
  5 C       -2.8440    -1.0480     0.8380 C.3   1 <1>  -0.1860 
  6 C       -4.7550     0.2490    -0.0770 C.3   1 <1>  -0.0220 
  7 C       -2.7350     1.5050     0.8100 C.3   1 <1>  -0.1600 
  8 C       -1.4570    -1.2070     1.4870 C.2   1 <1>   0.9060 
  9 C       -3.2450    -2.3040     0.0430 C.3   1 <1>  -0.0220 
 10 C       -5.3700    -1.0850    -0.5140 C.2   1 <1>  -0.2760 
 11 C       -3.2170     2.8670     0.2750 C.3   1 <1>  -0.1600 
 12 O       -0.7740    -2.2230     1.2780 O.co2 1 <1>  -0.9000 
 13 O       -1.1310    -0.4250     2.3960 O.co2 1 <1>  -0.9000 
 14 C       -4.6800    -2.2350    -0.4800 C.2   1 <1>  -0.2760 
 15 C       -6.8070    -0.8980    -0.9830 C.3   1 <1>  -0.1020 
 16 C       -2.6260     4.0170     1.0990 C.3   1 <1>  -0.1600 
 17 C       -5.1540    -3.6040    -0.9490 C.3   1 <1>  -0.1020 
 18 C       -3.1040     5.3750     0.5770 C.3   1 <1>  -0.2400 
 19 H       -3.4890    -1.0380     1.6950 H     1 <1>   0.0800 
 20 H       -5.0650     1.0160    -0.7630 H     1 <1>   0.0800 
 21 H       -5.1650     0.5000     0.8840 H     1 <1>   0.0800 
 22 H       -1.6570     1.5090     0.8010 H     1 <1>   0.0800 
 23 H       -3.0400     1.4050     1.8370 H     1 <1>   0.0800 
 24 H       -3.1370    -3.1560     0.6910 H     1 <1>   0.0800 
 25 H       -2.5630    -2.4360    -0.7810 H     1 <1>   0.0800 
 26 H       -4.2890     2.9190     0.3120 H     1 <1>   0.0800 
 27 H       -2.9120     2.9720    -0.7530 H     1 <1>   0.0800 
 28 H       -6.8110    -0.2970    -1.8750 H     1 <1>   0.0800 
 29 H       -7.3730    -0.3930    -0.2220 H     1 <1>   0.0800 
 30 H       -7.2950    -1.8260    -1.1980 H     1 <1>   0.0800 
 31 H       -1.5510     3.9700     1.0470 H     1 <1>   0.0800 
 32 H       -2.9140     3.9030     2.1300 H     1 <1>   0.0800 
 33 H       -5.2000    -4.2770    -0.1130 H     1 <1>   0.0800 
 34 H       -4.4540    -3.9920    -1.6670 H     1 <1>   0.0800 
 35 H       -6.1170    -3.5710    -1.4160 H     1 <1>   0.0800 
 36 H       -2.8060     5.5000    -0.4490 H     1 <1>   0.0800 
 37 H       -2.6720     6.1670     1.1620 H     1 <1>   0.0800 
 38 H       -4.1750     5.4410     0.6380 H     1 <1>   0.0800 
@<TRIPOS>BOND
  1   1   2  ar  
  2   2   3  ar  
  3   2   4  1   
  4   4   5  1   
  5   4   6  1   
  6   4   7  1   
  7   5   8  1   
  8   5   9  1   
  9   5  19  1   
 10   6  10  1   
 11   6  20  1   
 12   6  21  1   
 13   7  11  1   
 14   7  22  1   
 15   7  23  1   
 16   8  12  ar  
 17   8  13  ar  
 18   9  14  1   
 19   9  24  1   
 20   9  25  1   
 21  10  14  2   
 22  10  15  1   
 23  11  16  1   
 24  11  26  1   
 25  11  27  1   
 26  14  17  1   
 27  15  28  1   
 28  15  29  1   
 29  15  30  1   
 30  16  18  1   
 31  16  31  1   
 32  16  32  1   
 33  17  33  1   
 34  17  34  1   
 35  17  35  1   
 36  18  36  1   
 37  18  37  1   
 38  18  38  1   
@<TRIPOS>SUBSTRUCTURE
  1 ****   4 GROUP 4 **** **** 0

# MOE 2024.06 (io_trps.svl 2023.06)
