@<TRIPOS>MOLECULE
NONAME
49 50 1 0 0 
SMALL
USER_CHARGES


@<TRIPOS>ATOM
  1 O        0.1810     1.5620    -3.1240 O.2   1 <1>  -0.5700 
  2 C        0.6520     1.5480    -2.0120 C.2   1 <1>   0.5690 
  3 N       -0.0700     1.7810    -0.8730 N.am  1 <1>  -0.5470 
  4 C        2.1380     1.2460    -1.8700 C.3   1 <1>   0.1810 
  5 C       -1.4260     2.0790    -0.6530 C.ar  1 <1>   0.1170 
  6 O        2.5320     1.2190    -0.5030 O.3   1 <1>  -0.3630 
  7 C       -1.9330     1.9520     0.6340 C.ar  1 <1>  -0.1500 
  8 C       -2.2880     2.5070    -1.6570 C.ar  1 <1>  -0.1500 
  9 C        3.8150     0.9620    -0.1500 C.ar  1 <1>   0.0830 
 10 C       -3.2580     2.2370     0.9100 C.ar  1 <1>  -0.1500 
 11 C       -3.6130     2.7920    -1.3810 C.ar  1 <1>  -0.1500 
 12 C        4.8350     0.7080    -1.0630 C.ar  1 <1>  -0.1500 
 13 C        4.1010     0.9570     1.2050 C.ar  1 <1>  -0.1500 
 14 C       -4.1210     2.6640    -0.0940 C.ar  1 <1>   0.1170 
 15 C        6.1190     0.4540    -0.6130 C.ar  1 <1>  -0.1500 
 16 C        5.3860     0.7020     1.6510 C.ar  1 <1>  -0.1500 
 17 N       -5.4770     2.9570     0.1270 N.am  1 <1>  -0.5470 
 18 C        6.4030     0.4500     0.7440 C.ar  1 <1>  -0.1430 
 19 C       -6.1620     3.2570     1.2710 C.2   1 <1>   0.5690 
 20 C        7.8140     0.1690     1.2330 C.3   1 <1>  -0.0170 
 21 O       -5.6560     3.3370     2.3630 O.2   1 <1>  -0.5700 
 22 C       -7.6520     3.5120     1.1440 C.3   1 <1>  -0.0990 
 23 C        8.0160    -1.3320     1.4540 C.3   1 <1>  -0.2400 
 24 C       -7.9560     4.8830     0.5180 C.3   1 <1>  -0.1600 
 25 C       -9.4650     5.1200     0.4050 C.3   1 <1>  -0.2400 
 26 H        0.4950     1.6900    -0.0260 H     1 <1>   0.3700 
 27 H        2.7040     2.0080    -2.3730 H     1 <1>   0.0800 
 28 H        2.3450     0.2850    -2.3040 H     1 <1>   0.0800 
 29 H       -1.2920     1.6250     1.4300 H     1 <1>   0.1500 
 30 H       -1.9290     2.6230    -2.6630 H     1 <1>   0.1500 
 31 H       -3.6180     2.1210     1.9150 H     1 <1>   0.1500 
 32 H       -4.2530     3.1200    -2.1780 H     1 <1>   0.1500 
 33 H        4.6570     0.7020    -2.1210 H     1 <1>   0.1500 
 34 H        3.3150     1.1520     1.9110 H     1 <1>   0.1500 
 35 H        6.9020     0.2560    -1.3240 H     1 <1>   0.1500 
 36 H        5.5910     0.6990     2.7070 H     1 <1>   0.1500 
 37 H       -6.0390     2.9930    -0.7210 H     1 <1>   0.3700 
 38 H        7.9920     0.6960     2.1540 H     1 <1>   0.0800 
 39 H        8.5280     0.5260     0.5110 H     1 <1>   0.0800 
 40 H       -8.0870     3.4640     2.1270 H     1 <1>   0.0800 
 41 H       -8.0910     2.7290     0.5540 H     1 <1>   0.0800 
 42 H        7.3190    -1.6950     2.1890 H     1 <1>   0.0800 
 43 H        9.0150    -1.5250     1.8000 H     1 <1>   0.0800 
 44 H        7.8580    -1.8670     0.5350 H     1 <1>   0.0800 
 45 H       -7.5130     4.9480    -0.4610 H     1 <1>   0.0800 
 46 H       -7.5200     5.6550     1.1300 H     1 <1>   0.0800 
 47 H       -9.9220     4.3720    -0.2180 H     1 <1>   0.0800 
 48 H       -9.6540     6.0870    -0.0290 H     1 <1>   0.0800 
 49 H       -9.9250     5.0900     1.3780 H     1 <1>   0.0800 
@<TRIPOS>BOND
  1   1   2  2   
  2   2   3  am  
  3   2   4  1   
  4   3   5  1   
  5   3  26  1   
  6   4   6  1   
  7   4  27  1   
  8   4  28  1   
  9   5   7  ar  
 10   5   8  ar  
 11   6   9  1   
 12   7  10  ar  
 13   7  29  1   
 14   8  11  ar  
 15   8  30  1   
 16   9  12  ar  
 17   9  13  ar  
 18  10  14  ar  
 19  10  31  1   
 20  11  14  ar  
 21  11  32  1   
 22  12  15  ar  
 23  12  33  1   
 24  13  16  ar  
 25  13  34  1   
 26  14  17  1   
 27  15  18  ar  
 28  15  35  1   
 29  16  18  ar  
 30  16  36  1   
 31  17  19  am  
 32  17  37  1   
 33  18  20  1   
 34  19  21  2   
 35  19  22  1   
 36  20  23  1   
 37  20  38  1   
 38  20  39  1   
 39  22  24  1   
 40  22  40  1   
 41  22  41  1   
 42  23  42  1   
 43  23  43  1   
 44  23  44  1   
 45  24  25  1   
 46  24  45  1   
 47  24  46  1   
 48  25  47  1   
 49  25  48  1   
 50  25  49  1   
@<TRIPOS>SUBSTRUCTURE
  1 ****   3 GROUP 4 **** **** 0

# MOE 2024.06 (io_trps.svl 2023.06)
