@<TRIPOS>MOLECULE
NONAME
26 27 1 0 0 
SMALL
USER_CHARGES


@<TRIPOS>ATOM
  1 S       -0.0570     0.2270    -0.9010 S.3   1 <1>  -0.0800 
  2 C       -1.4870     0.6480     0.0260 C.2   1 <1>  -0.1400 
  3 C        0.8930     1.4560    -0.0890 C.2   1 <1>  -0.1100 
  4 C       -1.2100     1.6530     0.8830 C.2   1 <1>  -0.1500 
  5 C       -2.7220    -0.1700    -0.2930 C.3   1 <1>   0.5230 
  6 C        0.1440     2.1130     0.8140 C.2   1 <1>  -0.1500 
  7 N       -3.9410     0.5680     0.1330 N.4   1 <1>  -0.9590 
  8 C       -5.1640    -0.3040     0.0840 C.3   1 <1>   0.3430 
  9 C       -4.1390     1.8090    -0.6980 C.3   1 <1>   0.3430 
 10 C       -6.4400     0.5000     0.3970 C.3   1 <1>   0.1200 
 11 C       -5.4640     2.5130    -0.3520 C.3   1 <1>   0.1200 
 12 O       -6.5290     1.6120    -0.4460 O.3   1 <1>  -0.5600 
 13 H        1.9260     1.5580    -0.3760 H     1 <1>   0.1500 
 14 H       -1.8850     2.1140     1.5830 H     1 <1>   0.1500 
 15 H       -2.6560    -1.1180     0.2180 H     1 <1>   0.0800 
 16 H       -2.7620    -0.3590    -1.3530 H     1 <1>   0.0800 
 17 H        0.4940     2.9120     1.4460 H     1 <1>   0.1500 
 18 H       -3.7890     0.8590     1.1050 H     1 <1>   0.4500 
 19 H       -5.0720    -1.1140     0.7890 H     1 <1>   0.0800 
 20 H       -5.2700    -0.7310    -0.9010 H     1 <1>   0.0800 
 21 H       -4.1600     1.5490    -1.7440 H     1 <1>   0.0800 
 22 H       -3.3200     2.4940    -0.5470 H     1 <1>   0.0800 
 23 H       -6.4510     0.8370     1.4200 H     1 <1>   0.0800 
 24 H       -7.3130    -0.1080     0.2280 H     1 <1>   0.0800 
 25 H       -5.6520     3.3140    -1.0470 H     1 <1>   0.0800 
 26 H       -5.4420     2.9230     0.6430 H     1 <1>   0.0800 
@<TRIPOS>BOND
  1   1   2  1   
  2   1   3  1   
  3   2   4  2   
  4   2   5  1   
  5   3   6  2   
  6   3  13  1   
  7   4   6  1   
  8   4  14  1   
  9   5   7  1   
 10   5  15  1   
 11   5  16  1   
 12   6  17  1   
 13   7   8  1   
 14   7   9  1   
 15   7  18  1   
 16   8  10  1   
 17   8  19  1   
 18   8  20  1   
 19   9  11  1   
 20   9  21  1   
 21   9  22  1   
 22  10  12  1   
 23  10  23  1   
 24  10  24  1   
 25  11  12  1   
 26  11  25  1   
 27  11  26  1   
@<TRIPOS>SUBSTRUCTURE
  1 ****   7 GROUP 4 **** **** 0

# MOE 2024.06 (io_trps.svl 2023.06)
