@<TRIPOS>MOLECULE
NONAME
38 42 1 0 0 
SMALL
USER_CHARGES


@<TRIPOS>ATOM
  1 F       -1.4350     0.4180     2.1250 F     1 <1>  -0.1900 
  2 C       -1.7780     1.5310     1.5350 C.ar  1 <1>   0.1900 
  3 C       -2.0750     1.5070     0.1870 C.ar  1 <1>  -0.1500 
  4 C       -1.8340     2.6910     2.2830 C.ar  1 <1>  -0.1500 
  5 C       -2.4390     2.6910    -0.4330 C.ar  1 <1>  -0.1500 
  6 C       -2.1990     3.8690     1.6530 C.ar  1 <1>  -0.1500 
  7 C       -2.4970     3.8730     0.2950 C.ar  1 <1>  -0.1430 
  8 C       -2.9030     5.1680    -0.3910 C.3   1 <1>   0.2840 
  9 N       -4.3670     5.2860    -0.3530 N.am  1 <1>  -0.4200 
 10 C       -5.0730     5.7160     0.7420 C.2   1 <1>   0.5690 
 11 C       -5.2110     4.8230    -1.3300 C.2   1 <1>   0.5690 
 12 O       -4.6510     6.3330     1.6850 O.2   1 <1>  -0.5700 
 13 C       -6.4770     5.2060     0.5770 C.3   1 <1>  -0.0190 
 14 O       -4.9100     4.2290    -2.3330 O.2   1 <1>  -0.5700 
 15 C       -6.5950     5.2790    -0.9570 C.3   1 <1>  -0.0190 
 16 C       -7.8560     5.5350     1.2040 C.3   1 <1>   0.1530 
 17 C       -8.0370     4.8790    -1.3860 C.3   1 <1>   0.1530 
 18 C       -8.5880     4.2180     0.9020 C.2   1 <1>  -0.2880 
 19 C       -8.5960     6.6190     0.3570 C.3   1 <1>  -0.1950 
 20 C       -8.6340     3.8690    -0.3940 C.2   1 <1>  -0.2880 
 21 C       -8.8130     6.2040    -1.0910 C.3   1 <1>  -0.1950 
 22 C       -9.9870     6.4710    -0.1850 C.3   1 <1>  -0.2000 
 23 H       -2.0240     0.5840    -0.3610 H     1 <1>   0.1500 
 24 H       -1.5990     2.6690     3.3320 H     1 <1>   0.1500 
 25 H       -2.6820     2.6880    -1.4840 H     1 <1>   0.1500 
 26 H       -2.2550     4.7820     2.2240 H     1 <1>   0.1500 
 27 H       -2.5670     5.1670    -1.4140 H     1 <1>   0.0800 
 28 H       -2.4620     6.0110     0.1120 H     1 <1>   0.0800 
 29 H       -6.3110     4.1730     0.8470 H     1 <1>   0.0800 
 30 H       -6.5090     6.3150    -1.2440 H     1 <1>   0.0800 
 31 H       -7.8130     5.7500     2.2580 H     1 <1>   0.0800 
 32 H       -8.1150     4.5770    -2.4160 H     1 <1>   0.0800 
 33 H       -8.9850     3.6720     1.7400 H     1 <1>   0.1500 
 34 H       -8.2230     7.6130     0.5350 H     1 <1>   0.1000 
 35 H       -9.0730     2.9800    -0.8130 H     1 <1>   0.1500 
 36 H       -8.6570     6.9410    -1.8610 H     1 <1>   0.1000 
 37 H      -10.5630     7.3650    -0.3500 H     1 <1>   0.1000 
 38 H      -10.6160     5.6520     0.1200 H     1 <1>   0.1000 
@<TRIPOS>BOND
  1   1   2  1   
  2   2   3  ar  
  3   2   4  ar  
  4   3   5  ar  
  5   3  23  1   
  6   4   6  ar  
  7   4  24  1   
  8   5   7  ar  
  9   5  25  1   
 10   6   7  ar  
 11   6  26  1   
 12   7   8  1   
 13   8   9  1   
 14   8  27  1   
 15   8  28  1   
 16   9  10  am  
 17   9  11  am  
 18  10  12  2   
 19  10  13  1   
 20  11  14  2   
 21  11  15  1   
 22  13  15  1   
 23  13  16  1   
 24  13  29  1   
 25  15  17  1   
 26  15  30  1   
 27  16  18  1   
 28  16  19  1   
 29  16  31  1   
 30  17  20  1   
 31  17  21  1   
 32  17  32  1   
 33  18  20  2   
 34  18  33  1   
 35  19  21  1   
 36  19  22  1   
 37  19  34  1   
 38  20  35  1   
 39  21  22  1   
 40  21  36  1   
 41  22  37  1   
 42  22  38  1   
@<TRIPOS>SUBSTRUCTURE
  1 ****   9 GROUP 4 **** **** 0

# MOE 2024.06 (io_trps.svl 2023.06)
