@<TRIPOS>MOLECULE
NONAME
38 39 1 0 0 
SMALL
USER_CHARGES


@<TRIPOS>ATOM
  1 O       -0.4330     3.4340     2.2920 O.2   1 <1>  -0.5700 
  2 C        0.0410     3.1510     1.2190 C.2   1 <1>   0.5940 
  3 C       -0.6230     2.3620     0.2130 C.2   1 <1>   0.0550 
  4 C        1.4430     3.6520     0.9500 C.3   1 <1>  -0.0990 
  5 O       -1.8610     1.9180     0.4110 O.3   1 <1>  -0.2800 
  6 C       -0.2140     1.9250    -1.0160 C.2   1 <1>  -0.1500 
  7 C        2.4510     2.6700     1.5320 C.3   1 <1>   0.2090 
  8 C       -2.2470     1.2250    -0.6320 C.2   1 <1>  -0.0400 
  9 C       -1.2670     1.1900    -1.5590 C.2   1 <1>  -0.1500 
 10 N        3.8100     3.1120     1.1510 N.pl3 1 <1>  -0.8690 
 11 C       -3.6320     0.6180    -0.6310 C.3   1 <1>  -0.0600 
 12 C        4.6360     2.2290     0.4650 C.ar  1 <1>   0.1000 
 13 C        5.9100     1.9570     0.9450 C.ar  1 <1>  -0.1500 
 14 C        4.2250     1.6090    -0.7060 C.ar  1 <1>  -0.1500 
 15 C        6.7570     1.0780     0.2890 C.ar  1 <1>  -0.1430 
 16 C        5.0600     0.7300    -1.3690 C.ar  1 <1>  -0.1500 
 17 C        6.3280     0.4550    -0.8790 C.ar  1 <1>  -0.1430 
 18 C        8.1420     0.8160     0.8630 C.3   1 <1>  -0.0970 
 19 C        7.2190    -0.5190    -1.6370 C.3   1 <1>  -0.0970 
 20 H        1.5670     4.6110     1.4180 H     1 <1>   0.0800 
 21 H        1.6050     3.7660    -0.1040 H     1 <1>   0.0800 
 22 H        0.7280     2.0900    -1.5070 H     1 <1>   0.1500 
 23 H        2.2660     1.6770     1.1570 H     1 <1>   0.0800 
 24 H        2.3650     2.6450     2.6060 H     1 <1>   0.0800 
 25 H       -1.2700     0.7070    -2.5200 H     1 <1>   0.1500 
 26 H        4.2830     3.5910     1.9250 H     1 <1>   0.4000 
 27 H       -3.7300    -0.0600     0.1970 H     1 <1>   0.0800 
 28 H       -3.8070     0.0830    -1.5470 H     1 <1>   0.0800 
 29 H       -4.3680     1.3960    -0.5330 H     1 <1>   0.0800 
 30 H        6.2340     2.4430     1.8450 H     1 <1>   0.1500 
 31 H        3.2520     1.8230    -1.1010 H     1 <1>   0.1500 
 32 H        4.7160     0.2610    -2.2730 H     1 <1>   0.1500 
 33 H        8.3000     1.3810     1.7640 H     1 <1>   0.0800 
 34 H        8.8960     1.1020     0.1520 H     1 <1>   0.0800 
 35 H        8.2540    -0.2270     1.0950 H     1 <1>   0.0800 
 36 H        8.1190    -0.0230    -1.9530 H     1 <1>   0.0800 
 37 H        6.7210    -0.9010    -2.5090 H     1 <1>   0.0800 
 38 H        7.4780    -1.3490    -1.0060 H     1 <1>   0.0800 
@<TRIPOS>BOND
  1   1   2  2   
  2   2   3  1   
  3   2   4  1   
  4   3   5  1   
  5   3   6  2   
  6   4   7  1   
  7   4  20  1   
  8   4  21  1   
  9   5   8  1   
 10   6   9  1   
 11   6  22  1   
 12   7  10  1   
 13   7  23  1   
 14   7  24  1   
 15   8   9  2   
 16   8  11  1   
 17   9  25  1   
 18  10  12  1   
 19  10  26  1   
 20  11  27  1   
 21  11  28  1   
 22  11  29  1   
 23  12  13  ar  
 24  12  14  ar  
 25  13  15  ar  
 26  13  30  1   
 27  14  16  ar  
 28  14  31  1   
 29  15  17  ar  
 30  15  18  1   
 31  16  17  ar  
 32  16  32  1   
 33  17  19  1   
 34  18  33  1   
 35  18  34  1   
 36  18  35  1   
 37  19  36  1   
 38  19  37  1   
 39  19  38  1   
@<TRIPOS>SUBSTRUCTURE
  1 ****   7 GROUP 4 **** **** 0

# MOE 2024.06 (io_trps.svl 2023.06)
