@<TRIPOS>MOLECULE
NONAME
44 45 1 0 0 
SMALL
USER_CHARGES


@<TRIPOS>ATOM
  1 S        0.3630    -0.4840    -0.5250 S.o2  1 <1>   1.3330 
  2 O        0.3500    -0.4360     0.9140 O.2   1 <1>  -0.6500 
  3 O        1.5500    -0.9450    -1.2100 O.2   1 <1>  -0.6500 
  4 N        0.0400     1.1060    -1.1220 N.am  1 <1>  -0.6930 
  5 C       -1.0360    -1.4090    -1.1190 C.3   1 <1>  -0.1350 
  6 C       -0.9820     1.8510    -0.5390 C.ar  1 <1>   0.1990 
  7 C        1.2140     1.8230    -1.7230 C.3   1 <1>   0.3370 
  8 C       -0.8200     2.4580     0.7010 C.ar  1 <1>  -0.1500 
  9 C       -2.1950     1.9990    -1.2020 C.ar  1 <1>  -0.1500 
 10 C        2.2970     2.2040    -0.6840 C.2   1 <1>   0.5690 
 11 C        0.7320     3.0160    -2.5670 C.3   1 <1>  -0.2400 
 12 C       -1.8470     3.1920     1.2640 C.ar  1 <1>  -0.1500 
 13 C       -3.2270     2.7320    -0.6430 C.ar  1 <1>  -0.1500 
 14 O        2.3980     3.3500    -0.3020 O.2   1 <1>  -0.5700 
 15 N        3.1250     1.2250    -0.2220 N.am  1 <1>  -0.5790 
 16 C       -3.0550     3.3350     0.6000 C.ar  1 <1>   0.0830 
 17 C        4.1230     1.3710     0.8420 C.3   1 <1>   0.0490 
 18 O       -4.0110     4.0720     1.2260 O.3   1 <1>  -0.3630 
 19 C        5.2000     0.3430     0.9360 C.3   1 <1>  -0.2000 
 20 C        4.0950     0.3720     1.9490 C.3   1 <1>  -0.2000 
 21 C       -5.2600     4.3040     0.6180 C.3   1 <1>   0.1200 
 22 C       -6.0890     5.1710     1.5600 C.3   1 <1>  -0.2400 
 23 H       -0.9410    -2.4390    -0.8370 H     1 <1>   0.0800 
 24 H       -1.0960    -1.3470    -2.1870 H     1 <1>   0.0800 
 25 H       -1.9420    -1.0200    -0.6960 H     1 <1>   0.0800 
 26 H        1.6860     1.1510    -2.4170 H     1 <1>   0.0800 
 27 H        0.1130     2.3520     1.2260 H     1 <1>   0.1500 
 28 H       -2.3230     1.5380    -2.1640 H     1 <1>   0.1500 
 29 H        0.2950     3.7740    -1.9410 H     1 <1>   0.0800 
 30 H        0.0150     2.6930    -3.2990 H     1 <1>   0.0800 
 31 H        1.5690     3.4550    -3.0780 H     1 <1>   0.0800 
 32 H       -1.7170     3.6600     2.2230 H     1 <1>   0.1500 
 33 H       -4.1480     2.8240    -1.1860 H     1 <1>   0.1500 
 34 H        2.9450     0.2540    -0.5100 H     1 <1>   0.3700 
 35 H        4.3500     2.3990     1.0810 H     1 <1>   0.1000 
 36 H        6.1820     0.6520     1.2470 H     1 <1>   0.1000 
 37 H        5.2240    -0.4550     0.2150 H     1 <1>   0.1000 
 38 H        3.3320    -0.3880     1.9290 H     1 <1>   0.1000 
 39 H        4.3220     0.7040     2.9460 H     1 <1>   0.1000 
 40 H       -5.7410     3.3550     0.4530 H     1 <1>   0.0800 
 41 H       -5.0950     4.8100    -0.3180 H     1 <1>   0.0800 
 42 H       -6.2330     4.6640     2.4970 H     1 <1>   0.0800 
 43 H       -7.0510     5.3680     1.1240 H     1 <1>   0.0800 
 44 H       -5.5900     6.1080     1.7320 H     1 <1>   0.0800 
@<TRIPOS>BOND
  1   1   2  2   
  2   1   3  2   
  3   1   4  am  
  4   1   5  1   
  5   4   6  1   
  6   4   7  1   
  7   5  23  1   
  8   5  24  1   
  9   5  25  1   
 10   6   8  ar  
 11   6   9  ar  
 12   7  10  1   
 13   7  11  1   
 14   7  26  1   
 15   8  12  ar  
 16   8  27  1   
 17   9  13  ar  
 18   9  28  1   
 19  10  14  2   
 20  10  15  am  
 21  11  29  1   
 22  11  30  1   
 23  11  31  1   
 24  12  16  ar  
 25  12  32  1   
 26  13  16  ar  
 27  13  33  1   
 28  15  17  1   
 29  15  34  1   
 30  16  18  1   
 31  17  19  1   
 32  17  20  1   
 33  17  35  1   
 34  18  21  1   
 35  19  20  1   
 36  19  36  1   
 37  19  37  1   
 38  20  38  1   
 39  20  39  1   
 40  21  22  1   
 41  21  40  1   
 42  21  41  1   
 43  22  42  1   
 44  22  43  1   
 45  22  44  1   
@<TRIPOS>SUBSTRUCTURE
  1 ****   6 GROUP 4 **** **** 0

# MOE 2024.06 (io_trps.svl 2023.06)
