@<TRIPOS>MOLECULE
NONAME
43 45 1 0 0 
SMALL
USER_CHARGES


@<TRIPOS>ATOM
  1 CL      -0.1870    -1.5160     2.4650 Cl    1 <1>  -0.1770 
  2 C        0.2590    -1.7880     0.7920 C.ar  1 <1>   0.1770 
  3 C       -0.5770    -2.5580    -0.0190 C.ar  1 <1>   0.1170 
  4 C        1.4320    -1.2230     0.3250 C.ar  1 <1>  -0.1500 
  5 N       -1.7580    -3.1020     0.5190 N.am  1 <1>  -0.5470 
  6 C       -0.1980    -2.7360    -1.3480 C.ar  1 <1>  -0.1500 
  7 C        1.7960    -1.4170    -0.9980 C.ar  1 <1>  -0.1500 
  8 C       -2.5430    -4.1450     0.1220 C.2   1 <1>   0.6900 
  9 C        0.9730    -2.1710    -1.8160 C.ar  1 <1>   0.1770 
 10 O       -2.2020    -4.8700    -0.7920 O.2   1 <1>  -0.5700 
 11 N       -3.7150    -4.3790     0.7920 N.am  1 <1>  -0.6600 
 12 CL       1.4280    -2.4070    -3.4840 Cl    1 <1>  -0.1770 
 13 C       -4.5210    -3.3110     1.4620 C.3   1 <1>   0.1400 
 14 C       -4.4720    -5.6540     0.5910 C.3   1 <1>   0.1400 
 15 C       -5.8340    -3.0610     0.7030 C.3   1 <1>   0.1400 
 16 C       -5.7840    -5.4040    -0.1680 C.3   1 <1>   0.1400 
 17 N       -6.5920    -4.3340     0.5010 N.am  1 <1>  -0.6600 
 18 C       -7.9190    -4.4490     0.8550 C.2   1 <1>   0.5690 
 19 O       -8.4870    -3.5230     1.3950 O.2   1 <1>  -0.5700 
 20 C       -8.7100    -5.7600     0.5970 C.3   1 <1>   0.2610 
 21 O       -8.7300    -6.0870    -0.7670 O.3   1 <1>  -0.5600 
 22 C      -10.1970    -5.7220     0.9550 C.3   1 <1>  -0.1600 
 23 C       -9.7850    -5.4300    -1.3950 C.3   1 <1>   0.1200 
 24 C      -10.8530    -5.2230    -0.3230 C.3   1 <1>  -0.1600 
 25 H        2.0490    -0.6400     0.9860 H     1 <1>   0.1500 
 26 H       -1.9800    -2.7880     1.4600 H     1 <1>   0.3700 
 27 H       -0.8060    -3.3090    -2.0230 H     1 <1>   0.1500 
 28 H        2.7020    -0.9920    -1.3930 H     1 <1>   0.1500 
 29 H       -3.9730    -2.3880     1.5130 H     1 <1>   0.0800 
 30 H       -4.7490    -3.6180     2.4680 H     1 <1>   0.0800 
 31 H       -4.6940    -6.0850     1.5510 H     1 <1>   0.0800 
 32 H       -3.8770    -6.3670     0.0460 H     1 <1>   0.0800 
 33 H       -5.6120    -2.6300    -0.2580 H     1 <1>   0.0800 
 34 H       -6.4250    -2.3480     1.2520 H     1 <1>   0.0800 
 35 H       -6.3280    -6.3280    -0.2270 H     1 <1>   0.0800 
 36 H       -5.5550    -5.0950    -1.1740 H     1 <1>   0.0800 
 37 H       -8.2230    -6.5600     1.1250 H     1 <1>   0.0800 
 38 H      -10.4100    -5.0990     1.8060 H     1 <1>   0.0800 
 39 H      -10.5260    -6.7240     1.1690 H     1 <1>   0.0800 
 40 H      -10.1350    -6.0400    -2.2090 H     1 <1>   0.0800 
 41 H       -9.4200    -4.4880    -1.7680 H     1 <1>   0.0800 
 42 H      -11.0900    -4.1750    -0.2490 H     1 <1>   0.0800 
 43 H      -11.7490    -5.7710    -0.5520 H     1 <1>   0.0800 
@<TRIPOS>BOND
  1   1   2  1   
  2   2   3  ar  
  3   2   4  ar  
  4   3   5  1   
  5   3   6  ar  
  6   4   7  ar  
  7   4  25  1   
  8   5   8  am  
  9   5  26  1   
 10   6   9  ar  
 11   6  27  1   
 12   7   9  ar  
 13   7  28  1   
 14   8  10  2   
 15   8  11  am  
 16   9  12  1   
 17  11  13  1   
 18  11  14  1   
 19  13  15  1   
 20  13  29  1   
 21  13  30  1   
 22  14  16  1   
 23  14  31  1   
 24  14  32  1   
 25  15  17  1   
 26  15  33  1   
 27  15  34  1   
 28  16  17  1   
 29  16  35  1   
 30  16  36  1   
 31  17  18  am  
 32  18  19  2   
 33  18  20  1   
 34  20  21  1   
 35  20  22  1   
 36  20  37  1   
 37  21  23  1   
 38  22  24  1   
 39  22  38  1   
 40  22  39  1   
 41  23  24  1   
 42  23  40  1   
 43  23  41  1   
 44  24  42  1   
 45  24  43  1   
@<TRIPOS>SUBSTRUCTURE
  1 ****  11 GROUP 4 **** **** 0

# MOE 2024.06 (io_trps.svl 2023.06)
