@<TRIPOS>MOLECULE
NONAME
39 43 1 0 0 
SMALL
USER_CHARGES


@<TRIPOS>ATOM
  1 BR      -0.5490    -0.8900     2.7830 Br    1 <1>  -0.1110 
  2 C       -1.4740    -1.9960     1.5100 C.ar  1 <1>   0.1110 
  3 C       -2.8490    -2.0920     1.5860 C.ar  1 <1>  -0.1500 
  4 C       -0.7370    -2.6650     0.5530 C.ar  1 <1>  -0.1500 
  5 C       -3.5420    -2.8830     0.6710 C.ar  1 <1>   0.0860 
  6 C       -1.4110    -3.4620    -0.3550 C.ar  1 <1>  -0.1500 
  7 C       -4.9880    -2.9820     0.7270 C.2   1 <1>   0.5440 
  8 C       -2.7910    -3.5690    -0.2910 C.ar  1 <1>  -0.1500 
  9 O       -5.5710    -2.9730     1.7980 O.2   1 <1>  -0.5700 
 10 N       -5.7230    -3.0660    -0.4190 N.am  1 <1>  -0.4300 
 11 N       -7.1720    -3.2340    -0.4360 N.am  1 <1>  -0.1200 
 12 C       -7.8150    -4.4550    -0.3530 C.2   1 <1>   0.5690 
 13 C       -8.0630    -2.2070    -0.1940 C.2   1 <1>   0.5690 
 14 O       -7.3260    -5.5590    -0.3800 O.2   1 <1>  -0.5700 
 15 C       -9.2910    -4.1680    -0.3360 C.3   1 <1>  -0.0190 
 16 O       -7.9200    -1.0280    -0.4160 O.2   1 <1>  -0.5700 
 17 C       -9.2800    -2.8310     0.4260 C.3   1 <1>  -0.0190 
 18 C      -10.5580    -4.9820     0.0590 C.3   1 <1>   0.1530 
 19 C      -10.7440    -2.3820     0.6750 C.3   1 <1>   0.1530 
 20 C      -10.9740    -4.6620     1.5020 C.2   1 <1>  -0.2880 
 21 C      -11.6470    -4.2780    -0.8150 C.3   1 <1>  -0.1950 
 22 C      -11.1140    -3.3600     1.8010 C.2   1 <1>  -0.2880 
 23 C      -11.6500    -2.7830    -0.5310 C.3   1 <1>  -0.1950 
 24 C      -12.9190    -3.5750    -0.4160 C.3   1 <1>  -0.2000 
 25 H       -3.3850    -1.5570     2.3510 H     1 <1>   0.1500 
 26 H        0.3340    -2.5660     0.5250 H     1 <1>   0.1500 
 27 H       -0.8590    -4.0020    -1.1060 H     1 <1>   0.1500 
 28 H       -3.2920    -4.2100    -0.9970 H     1 <1>   0.1500 
 29 H       -5.2700    -2.9490    -1.3270 H     1 <1>   0.3700 
 30 H       -9.4310    -3.9510    -1.3830 H     1 <1>   0.0800 
 31 H       -8.8920    -3.0140     1.4180 H     1 <1>   0.0800 
 32 H      -10.4800    -6.0350    -0.1480 H     1 <1>   0.0800 
 33 H      -10.8370    -1.3530     0.9770 H     1 <1>   0.0800 
 34 H      -11.1530    -5.5010     2.1530 H     1 <1>   0.1500 
 35 H      -11.6120    -4.6040    -1.8410 H     1 <1>   0.1000 
 36 H      -11.4330    -2.9350     2.7370 H     1 <1>   0.1500 
 37 H      -11.5420    -2.1190    -1.3730 H     1 <1>   0.1000 
 38 H      -13.3570    -3.7810     0.5460 H     1 <1>   0.1000 
 39 H      -13.6760    -3.4300    -1.1660 H     1 <1>   0.1000 
@<TRIPOS>BOND
  1   1   2  1   
  2   2   3  ar  
  3   2   4  ar  
  4   3   5  ar  
  5   3  25  1   
  6   4   6  ar  
  7   4  26  1   
  8   5   7  1   
  9   5   8  ar  
 10   6   8  ar  
 11   6  27  1   
 12   7   9  2   
 13   7  10  am  
 14   8  28  1   
 15  10  11  1   
 16  10  29  1   
 17  11  12  am  
 18  11  13  am  
 19  12  14  2   
 20  12  15  1   
 21  13  16  2   
 22  13  17  1   
 23  15  17  1   
 24  15  18  1   
 25  15  30  1   
 26  17  19  1   
 27  17  31  1   
 28  18  20  1   
 29  18  21  1   
 30  18  32  1   
 31  19  22  1   
 32  19  23  1   
 33  19  33  1   
 34  20  22  2   
 35  20  34  1   
 36  21  23  1   
 37  21  24  1   
 38  21  35  1   
 39  22  36  1   
 40  23  24  1   
 41  23  37  1   
 42  24  38  1   
 43  24  39  1   
@<TRIPOS>SUBSTRUCTURE
  1 ****  11 GROUP 4 **** **** 0

# MOE 2024.06 (io_trps.svl 2023.06)
