@<TRIPOS>MOLECULE
NONAME
51 52 1 0 0 
SMALL
USER_CHARGES


@<TRIPOS>ATOM
  1 O       -1.5150    -7.6210     0.9840 O.3   1 <1>  -0.3630 
  2 C       -2.7560    -7.2180     0.5880 C.ar  1 <1>   0.0830 
  3 C       -0.3560    -6.9340     0.5830 C.3   1 <1>   0.1200 
  4 C       -3.1330    -5.9050     0.2560 C.ar  1 <1>   0.0830 
  5 C       -3.6980    -8.2320     0.5230 C.ar  1 <1>  -0.1500 
  6 C        0.8330    -7.8760     0.7700 C.3   1 <1>  -0.1600 
  7 O       -2.2290    -4.8850     0.3540 O.3   1 <1>  -0.3630 
  8 C       -4.4430    -5.6660    -0.1570 C.ar  1 <1>  -0.1500 
  9 C       -4.9950    -7.9760     0.1200 C.ar  1 <1>  -0.1500 
 10 C        2.1510    -7.2030     0.3630 C.3   1 <1>  -0.1600 
 11 C       -2.6280    -3.5310     0.3210 C.3   1 <1>   0.0400 
 12 C       -5.3730    -6.6910    -0.2250 C.ar  1 <1>  -0.1430 
 13 C        3.3230    -8.1680     0.5490 C.3   1 <1>   0.3430 
 14 C       -6.7940    -6.4050    -0.6770 C.3   1 <1>  -0.0970 
 15 N        4.5870    -7.5500     0.0650 N.4   1 <1>  -0.9590 
 16 C        5.6360    -8.5980    -0.1610 C.3   1 <1>   0.3430 
 17 C        5.0960    -6.4730     0.9610 C.3   1 <1>   0.3430 
 18 C        7.0330    -7.9930    -0.4200 C.3   1 <1>  -0.0800 
 19 C        6.2020    -5.6900     0.2430 C.3   1 <1>  -0.1600 
 20 C        6.9670    -6.5080    -0.8160 C.3   1 <1>  -0.1600 
 21 C        7.7780    -8.7970    -1.4940 C.3   1 <1>  -0.2400 
 22 H       -0.2550    -6.0590     1.2010 H     1 <1>   0.0800 
 23 H       -0.4690    -6.6500    -0.4500 H     1 <1>   0.0800 
 24 H       -3.4070    -9.2310     0.7900 H     1 <1>   0.1500 
 25 H        0.6690    -8.7540     0.1680 H     1 <1>   0.0800 
 26 H        0.8760    -8.1700     1.8050 H     1 <1>   0.0800 
 27 H       -4.7630    -4.6810    -0.4350 H     1 <1>   0.1500 
 28 H       -5.7050    -8.7830     0.0750 H     1 <1>   0.1500 
 29 H        2.2880    -6.3250     0.9700 H     1 <1>   0.0800 
 30 H        2.0850    -6.9070    -0.6700 H     1 <1>   0.0800 
 31 H       -1.7710    -2.9240     0.5470 H     1 <1>   0.0800 
 32 H       -3.3920    -3.3740     1.0620 H     1 <1>   0.0800 
 33 H       -2.9900    -3.2970    -0.6640 H     1 <1>   0.0800 
 34 H        3.1210    -9.0640    -0.0150 H     1 <1>   0.0800 
 35 H        3.4160    -8.4400     1.5890 H     1 <1>   0.0800 
 36 H       -7.1170    -5.4460    -0.3140 H     1 <1>   0.0800 
 37 H       -7.4690    -7.1530    -0.3010 H     1 <1>   0.0800 
 38 H       -6.8410    -6.4050    -1.7510 H     1 <1>   0.0800 
 39 H        4.4060    -7.1120    -0.8470 H     1 <1>   0.4500 
 40 H        5.3510    -9.1980    -1.0100 H     1 <1>   0.0800 
 41 H        5.6960    -9.2500     0.6950 H     1 <1>   0.0800 
 42 H        5.4950    -6.9170     1.8600 H     1 <1>   0.0800 
 43 H        4.3040    -5.7980     1.2410 H     1 <1>   0.0800 
 44 H        7.5980    -8.0720     0.4940 H     1 <1>   0.0800 
 45 H        6.8940    -5.3380     0.9890 H     1 <1>   0.0800 
 46 H        5.7790    -4.8170    -0.2230 H     1 <1>   0.0800 
 47 H        6.4680    -6.4160    -1.7660 H     1 <1>   0.0800 
 48 H        7.9600    -6.1070    -0.9340 H     1 <1>   0.0800 
 49 H        7.2630    -8.7520    -2.4380 H     1 <1>   0.0800 
 50 H        7.8700    -9.8290    -1.2010 H     1 <1>   0.0800 
 51 H        8.7700    -8.4030    -1.6330 H     1 <1>   0.0800 
@<TRIPOS>BOND
  1   1   2  1   
  2   1   3  1   
  3   2   4  ar  
  4   2   5  ar  
  5   3   6  1   
  6   3  22  1   
  7   3  23  1   
  8   4   7  1   
  9   4   8  ar  
 10   5   9  ar  
 11   5  24  1   
 12   6  10  1   
 13   6  25  1   
 14   6  26  1   
 15   7  11  1   
 16   8  12  ar  
 17   8  27  1   
 18   9  12  ar  
 19   9  28  1   
 20  10  13  1   
 21  10  29  1   
 22  10  30  1   
 23  11  31  1   
 24  11  32  1   
 25  11  33  1   
 26  12  14  1   
 27  13  15  1   
 28  13  34  1   
 29  13  35  1   
 30  14  36  1   
 31  14  37  1   
 32  14  38  1   
 33  15  16  1   
 34  15  17  1   
 35  15  39  1   
 36  16  18  1   
 37  16  40  1   
 38  16  41  1   
 39  17  19  1   
 40  17  42  1   
 41  17  43  1   
 42  18  20  1   
 43  18  21  1   
 44  18  44  1   
 45  19  20  1   
 46  19  45  1   
 47  19  46  1   
 48  20  47  1   
 49  20  48  1   
 50  21  49  1   
 51  21  50  1   
 52  21  51  1   
@<TRIPOS>SUBSTRUCTURE
  1 ****   3 GROUP 4 **** **** 0

# MOE 2024.06 (io_trps.svl 2023.06)
