@<TRIPOS>MOLECULE
NONAME
53 55 1 0 0 
SMALL
USER_CHARGES


@<TRIPOS>ATOM
  1 CL       7.0990     1.0940    -1.8350 Cl    1 <1>  -0.1770 
  2 C        7.5670    -0.3280    -0.9270 C.ar  1 <1>   0.1770 
  3 C        6.6220    -0.9980    -0.1590 C.ar  1 <1>   0.0820 
  4 C        8.8770    -0.7490    -0.9960 C.ar  1 <1>  -0.1500 
  5 O        5.3470    -0.5280    -0.1480 O.3   1 <1>  -0.2330 
  6 C        7.0210    -2.1270     0.5410 C.ar  1 <1>  -0.1500 
  7 C        9.3030    -1.8760    -0.2850 C.ar  1 <1>   0.0280 
  8 C        4.4760    -0.5560     0.8580 C.2   1 <1>   0.6590 
  9 C        8.3380    -2.5580     0.4760 C.ar  1 <1>   0.0830 
 10 C       10.6490    -2.3850    -0.2880 C.2   1 <1>  -0.1670 
 11 O        4.7330    -0.9780     1.9540 O.2   1 <1>  -0.5700 
 12 C        3.1000    -0.0180     0.5450 C.3   1 <1>  -0.0990 
 13 O        8.6720    -3.6690     1.1650 O.3   1 <1>  -0.2330 
 14 C       10.9230    -3.5230     0.4000 C.2   1 <1>  -0.1240 
 15 C       11.7250    -1.6300    -1.0720 C.3   1 <1>  -0.0220 
 16 C        2.1890    -1.1580     0.1030 C.3   1 <1>   0.1400 
 17 C        9.9000    -4.1890     1.1590 C.2   1 <1>   0.7060 
 18 C       12.3130    -4.1590     0.4240 C.3   1 <1>  -0.0220 
 19 C       13.1480    -2.0890    -0.7310 C.3   1 <1>  -0.1600 
 20 N        0.8450    -0.6220    -0.2000 N.am  1 <1>  -0.7300 
 21 O       10.0830    -5.2040     1.8030 O.2   1 <1>  -0.5700 
 22 C       13.2290    -3.6150    -0.6780 C.3   1 <1>  -0.1600 
 23 C        0.4170    -0.2540    -1.4350 C.2   1 <1>   0.7800 
 24 O        1.1510    -0.3080    -2.3970 O.2   1 <1>  -0.5700 
 25 O       -0.8250     0.1880    -1.6230 O.3   1 <1>  -0.4300 
 26 C       -1.8830     0.3670    -0.7080 C.3   1 <1>   0.2800 
 27 C       -2.2890    -0.9770    -0.0900 C.3   1 <1>  -0.2400 
 28 C       -3.0440     0.9020    -1.5470 C.3   1 <1>  -0.2400 
 29 C       -1.5040     1.4140     0.3470 C.3   1 <1>  -0.2400 
 30 H        9.5570    -0.1910    -1.6100 H     1 <1>   0.1500 
 31 H        6.3230    -2.6870     1.1380 H     1 <1>   0.1500 
 32 H        3.1770     0.7160    -0.2370 H     1 <1>   0.0800 
 33 H        2.7040     0.4480     1.4280 H     1 <1>   0.0800 
 34 H       11.6620    -0.5770    -0.8640 H     1 <1>   0.0800 
 35 H       11.5490    -1.7760    -2.1240 H     1 <1>   0.0800 
 36 H        2.1130    -1.9000     0.8800 H     1 <1>   0.0800 
 37 H        2.5950    -1.6290    -0.7780 H     1 <1>   0.0800 
 38 H       12.2310    -5.2260     0.3060 H     1 <1>   0.0800 
 39 H       12.7570    -3.9710     1.3870 H     1 <1>   0.0800 
 40 H       13.4310    -1.6860     0.2270 H     1 <1>   0.0800 
 41 H       13.8360    -1.7080    -1.4660 H     1 <1>   0.0800 
 42 H        0.1880    -0.5390     0.5720 H     1 <1>   0.3700 
 43 H       12.9260    -4.0220    -1.6280 H     1 <1>   0.0800 
 44 H       14.2420    -3.9250    -0.4910 H     1 <1>   0.0800 
 45 H       -1.5410    -1.3600     0.5750 H     1 <1>   0.0800 
 46 H       -2.4740    -1.6990    -0.8670 H     1 <1>   0.0800 
 47 H       -3.1940    -0.8570     0.4780 H     1 <1>   0.0800 
 48 H       -3.3080     0.1940    -2.3130 H     1 <1>   0.0800 
 49 H       -2.7700     1.8310    -2.0130 H     1 <1>   0.0800 
 50 H       -3.9090     1.0730    -0.9320 H     1 <1>   0.0800 
 51 H       -0.7480     1.0580     1.0190 H     1 <1>   0.0800 
 52 H       -2.3670     1.6630     0.9380 H     1 <1>   0.0800 
 53 H       -1.1560     2.3120    -0.1320 H     1 <1>   0.0800 
@<TRIPOS>BOND
  1   1   2  1   
  2   2   3  ar  
  3   2   4  ar  
  4   3   5  1   
  5   3   6  ar  
  6   4   7  ar  
  7   4  30  1   
  8   5   8  1   
  9   6   9  ar  
 10   6  31  1   
 11   7   9  ar  
 12   7  10  1   
 13   8  11  2   
 14   8  12  1   
 15   9  13  1   
 16  10  14  2   
 17  10  15  1   
 18  12  16  1   
 19  12  32  1   
 20  12  33  1   
 21  13  17  1   
 22  14  17  1   
 23  14  18  1   
 24  15  19  1   
 25  15  34  1   
 26  15  35  1   
 27  16  20  1   
 28  16  36  1   
 29  16  37  1   
 30  17  21  2   
 31  18  22  1   
 32  18  38  1   
 33  18  39  1   
 34  19  22  1   
 35  19  40  1   
 36  19  41  1   
 37  20  23  am  
 38  20  42  1   
 39  22  43  1   
 40  22  44  1   
 41  23  24  2   
 42  23  25  1   
 43  25  26  1   
 44  26  27  1   
 45  26  28  1   
 46  26  29  1   
 47  27  45  1   
 48  27  46  1   
 49  27  47  1   
 50  28  48  1   
 51  28  49  1   
 52  28  50  1   
 53  29  51  1   
 54  29  52  1   
 55  29  53  1   
@<TRIPOS>SUBSTRUCTURE
  1 ****   3 GROUP 4 **** **** 0

# MOE 2024.06 (io_trps.svl 2023.06)
