@<TRIPOS>MOLECULE
NONAME
29 30 1 0 0 
SMALL
USER_CHARGES


@<TRIPOS>ATOM
  1 S       -0.3250     0.1370    -0.0190 S.3   1 <1>  -0.2860 
  2 C       -1.1340    -1.4640    -0.0160 C.2   1 <1>   0.2420 
  3 C        1.4700    -0.2930    -0.0250 C.3   1 <1>  -0.0100 
  4 N       -0.4750    -2.5640    -0.0180 N.2   1 <1>  -0.5650 
  5 N       -2.4900    -1.5650    -0.0110 N.pl3 1 <1>   0.0480 
  6 C       -1.4560    -3.5040    -0.0140 C.ar  1 <1>   0.2270 
  7 C       -2.7180    -2.9200    -0.0100 C.ar  1 <1>  -0.1520 
  8 C       -3.3820    -0.3740    -0.0080 C.3   1 <1>   0.0960 
  9 C       -1.3080    -4.8890    -0.0140 C.ar  1 <1>  -0.1500 
 10 C       -3.8560    -3.7400    -0.0060 C.ar  1 <1>  -0.1500 
 11 C       -4.8850    -0.6800    -0.0030 C.3   1 <1>  -0.1600 
 12 C       -2.4290    -5.6870    -0.0100 C.ar  1 <1>  -0.1500 
 13 C       -3.7020    -5.1090    -0.0060 C.ar  1 <1>  -0.1500 
 14 C       -5.7170     0.6130    -0.0010 C.3   1 <1>   0.0400 
 15 C       -7.1780     0.3200     0.0040 C.1   1 <1>   0.3570 
 16 N       -8.2910     0.0890     0.0080 N.1   1 <1>  -0.5570 
 17 H        2.0310     0.6230    -0.0270 H     1 <1>   0.0800 
 18 H        1.6650    -0.8720    -0.9100 H     1 <1>   0.0800 
 19 H        1.6710    -0.8720     0.8600 H     1 <1>   0.0800 
 20 H       -3.1440     0.2120    -0.8790 H     1 <1>   0.0800 
 21 H       -3.1380     0.2120     0.8600 H     1 <1>   0.0800 
 22 H       -0.3170    -5.3010    -0.0180 H     1 <1>   0.1500 
 23 H       -4.8460    -3.3290    -0.0030 H     1 <1>   0.1500 
 24 H       -5.1290    -1.2500     0.8770 H     1 <1>   0.0800 
 25 H       -5.1350    -1.2500    -0.8820 H     1 <1>   0.0800 
 26 H       -2.3340    -6.7590    -0.0100 H     1 <1>   0.1500 
 27 H       -4.5660    -5.7510    -0.0030 H     1 <1>   0.1500 
 28 H       -5.4930     1.1990    -0.8740 H     1 <1>   0.0800 
 29 H       -5.4870     1.2000     0.8710 H     1 <1>   0.0800 
@<TRIPOS>BOND
  1   1   2  1   
  2   1   3  1   
  3   2   4  2   
  4   2   5  1   
  5   3  17  1   
  6   3  18  1   
  7   3  19  1   
  8   4   6  1   
  9   5   7  1   
 10   5   8  1   
 11   6   7  ar  
 12   6   9  ar  
 13   7  10  ar  
 14   8  11  1   
 15   8  20  1   
 16   8  21  1   
 17   9  12  ar  
 18   9  22  1   
 19  10  13  ar  
 20  10  23  1   
 21  11  14  1   
 22  11  24  1   
 23  11  25  1   
 24  12  13  ar  
 25  12  26  1   
 26  13  27  1   
 27  14  15  1   
 28  14  28  1   
 29  14  29  1   
 30  15  16  3   
@<TRIPOS>SUBSTRUCTURE
  1 ****   5 GROUP 4 **** **** 0

# MOE 2024.06 (io_trps.svl 2023.06)
