@<TRIPOS>MOLECULE
NONAME
50 52 1 0 0 
SMALL
USER_CHARGES


@<TRIPOS>ATOM
  1 S       -0.3500     1.3460     0.9000 S.o2  1 <1>   1.4470 
  2 O       -0.9880     2.3230     1.7600 O.2   1 <1>  -0.6500 
  3 O        0.1600     0.1370     1.5130 O.2   1 <1>  -0.6500 
  4 N       -1.5180     0.8870    -0.2380 N.am  1 <1>  -0.8490 
  5 C        0.9570     2.1620    -0.0530 C.ar  1 <1>  -0.0090 
  6 C       -2.5470     0.0360     0.3820 C.3   1 <1>   0.1960 
  7 C       -2.1670     2.0490    -0.8710 C.3   1 <1>   0.1960 
  8 C        1.6250     1.5080    -1.0830 C.ar  1 <1>   0.0820 
  9 C        1.3310     3.4720     0.2300 C.ar  1 <1>  -0.1500 
 10 C       -3.6220    -0.4440    -0.6150 C.3   1 <1>   0.2090 
 11 C       -3.1960     1.6440    -1.9450 C.3   1 <1>   0.2090 
 12 O        1.3040     0.2420    -1.4120 O.3   1 <1>  -0.3630 
 13 C        2.6190     2.1450    -1.8110 C.ar  1 <1>  -0.1500 
 14 C        2.3260     4.1180    -0.4880 C.ar  1 <1>  -0.1440 
 15 N       -4.1990     0.6510    -1.4550 N.pl3 1 <1>  -0.8380 
 16 C        2.1630    -0.7710    -0.9380 C.3   1 <1>   0.0400 
 17 C        2.9700     3.4470    -1.5120 C.ar  1 <1>  -0.1500 
 18 C        2.7120     5.5480    -0.1520 C.3   1 <1>  -0.0970 
 19 C       -5.4930     1.1090    -1.1610 C.ar  1 <1>   0.1000 
 20 C       -5.8360     1.8530    -0.0180 C.ar  1 <1>   0.0820 
 21 C       -6.4910     0.8000    -2.0740 C.ar  1 <1>  -0.1500 
 22 O       -4.8490     2.1570     0.8770 O.3   1 <1>  -0.3620 
 23 C       -7.1530     2.2600     0.1730 C.ar  1 <1>  -0.1500 
 24 C       -7.7980     1.2080    -1.8800 C.ar  1 <1>  -0.1500 
 25 C       -5.0820     2.9670     2.0070 C.3   1 <1>   0.0400 
 26 C       -8.1300     1.9380    -0.7550 C.ar  1 <1>  -0.1500 
 27 H       -3.0230     0.5670     1.1870 H     1 <1>   0.0800 
 28 H       -2.0770    -0.8340     0.8090 H     1 <1>   0.0800 
 29 H       -1.4200     2.6630    -1.3410 H     1 <1>   0.0800 
 30 H       -2.6600     2.6500    -0.1270 H     1 <1>   0.0800 
 31 H        0.8330     3.9940     1.0290 H     1 <1>   0.1500 
 32 H       -4.4130    -0.9290    -0.0700 H     1 <1>   0.0800 
 33 H       -3.1800    -1.1760    -1.2680 H     1 <1>   0.0800 
 34 H       -2.6720     1.2170    -2.7810 H     1 <1>   0.0800 
 35 H       -3.7080     2.5240    -2.2910 H     1 <1>   0.0800 
 36 H        3.1090     1.6190    -2.6110 H     1 <1>   0.1500 
 37 H        1.7510    -1.7210    -1.2250 H     1 <1>   0.0800 
 38 H        2.2230    -0.7070     0.1340 H     1 <1>   0.0800 
 39 H        3.1360    -0.6410    -1.3780 H     1 <1>   0.0800 
 40 H        3.7440     3.9350    -2.0790 H     1 <1>   0.1500 
 41 H        1.8960     6.0590     0.3280 H     1 <1>   0.0800 
 42 H        2.9690     6.0860    -1.0460 H     1 <1>   0.0800 
 43 H        3.5590     5.5500     0.5110 H     1 <1>   0.0800 
 44 H       -6.2270     0.2310    -2.9460 H     1 <1>   0.1500 
 45 H       -7.4440     2.8260     1.0360 H     1 <1>   0.1500 
 46 H       -8.5530     0.9550    -2.6040 H     1 <1>   0.1500 
 47 H       -4.1480     3.0850     2.5270 H     1 <1>   0.0800 
 48 H       -5.7960     2.4790     2.6450 H     1 <1>   0.0800 
 49 H       -5.4430     3.9260     1.6800 H     1 <1>   0.0800 
 50 H       -9.1460     2.2560    -0.6000 H     1 <1>   0.1500 
@<TRIPOS>BOND
  1   1   2  2   
  2   1   3  2   
  3   1   4  am  
  4   1   5  1   
  5   4   6  1   
  6   4   7  1   
  7   5   8  ar  
  8   5   9  ar  
  9   6  10  1   
 10   6  27  1   
 11   6  28  1   
 12   7  11  1   
 13   7  29  1   
 14   7  30  1   
 15   8  12  1   
 16   8  13  ar  
 17   9  14  ar  
 18   9  31  1   
 19  10  15  1   
 20  10  32  1   
 21  10  33  1   
 22  11  15  1   
 23  11  34  1   
 24  11  35  1   
 25  12  16  1   
 26  13  17  ar  
 27  13  36  1   
 28  14  17  ar  
 29  14  18  1   
 30  15  19  1   
 31  16  37  1   
 32  16  38  1   
 33  16  39  1   
 34  17  40  1   
 35  18  41  1   
 36  18  42  1   
 37  18  43  1   
 38  19  20  ar  
 39  19  21  ar  
 40  20  22  1   
 41  20  23  ar  
 42  21  24  ar  
 43  21  44  1   
 44  22  25  1   
 45  23  26  ar  
 46  23  45  1   
 47  24  26  ar  
 48  24  46  1   
 49  25  47  1   
 50  25  48  1   
 51  25  49  1   
 52  26  50  1   
@<TRIPOS>SUBSTRUCTURE
  1 ****   7 GROUP 4 **** **** 0

# MOE 2024.06 (io_trps.svl 2023.06)
