@<TRIPOS>MOLECULE
NONAME
42 43 1 0 0 
SMALL
USER_CHARGES


@<TRIPOS>ATOM
  1 O       -1.2570     0.2330    -0.4370 O.3   1 <1>  -0.5600 
  2 C       -2.0690    -0.6220     0.3230 C.3   1 <1>   0.1200 
  3 C       -1.1310     1.5250     0.0910 C.3   1 <1>   0.1200 
  4 C       -3.4960    -0.0470     0.4790 C.3   1 <1>   0.3430 
  5 C       -2.5130     2.2040     0.2500 C.3   1 <1>   0.3430 
  6 N       -3.6280     1.2970    -0.1880 N.4   1 <1>  -0.9590 
  7 C       -4.9680     1.9310    -0.0490 C.3   1 <1>   0.3430 
  8 C       -6.0280     1.0970    -0.7630 C.3   1 <1>  -0.1600 
  9 C       -7.3860     1.8080    -0.7470 C.3   1 <1>   0.1200 
 10 O       -8.3160     1.0190    -1.4530 O.3   1 <1>  -0.3630 
 11 C       -8.7290    -0.1790    -0.9690 C.ar  1 <1>   0.0820 
 12 C       -8.9360    -0.4210     0.3850 C.ar  1 <1>  -0.1500 
 13 C       -8.9440    -1.1950    -1.8850 C.ar  1 <1>  -0.1500 
 14 C       -9.3280    -1.6780     0.8100 C.ar  1 <1>  -0.1500 
 15 C       -9.3360    -2.4500    -1.4560 C.ar  1 <1>  -0.1500 
 16 C       -9.5260    -2.7010    -0.1060 C.ar  1 <1>  -0.1440 
 17 C       -9.9600    -4.0800     0.3640 C.3   1 <1>  -0.0170 
 18 C      -11.4860    -4.1750     0.4090 C.3   1 <1>  -0.2400 
 19 H       -1.6090    -0.7690     1.2850 H     1 <1>   0.0800 
 20 H       -2.1050    -1.5730    -0.1800 H     1 <1>   0.0800 
 21 H       -0.5140     2.0950    -0.5810 H     1 <1>   0.0800 
 22 H       -0.6250     1.4630     1.0390 H     1 <1>   0.0800 
 23 H       -3.7270     0.0350     1.5280 H     1 <1>   0.0800 
 24 H       -4.1960    -0.7440     0.0470 H     1 <1>   0.0800 
 25 H       -2.5240     3.1110    -0.3320 H     1 <1>   0.0800 
 26 H       -2.6470     2.4800     1.2830 H     1 <1>   0.0800 
 27 H       -3.4390     1.1130    -1.1860 H     1 <1>   0.4500 
 28 H       -4.9450     2.9160    -0.4890 H     1 <1>   0.0800 
 29 H       -5.2230     2.0330     0.9940 H     1 <1>   0.0800 
 30 H       -6.1330     0.1460    -0.2740 H     1 <1>   0.0800 
 31 H       -5.7400     0.9440    -1.7880 H     1 <1>   0.0800 
 32 H       -7.3270     2.7520    -1.2610 H     1 <1>   0.0800 
 33 H       -7.7520     1.9820     0.2490 H     1 <1>   0.0800 
 34 H       -8.8130     0.3550     1.1140 H     1 <1>   0.1500 
 35 H       -8.8010    -0.9990    -2.9320 H     1 <1>   0.1500 
 36 H       -9.4900    -1.8600     1.8580 H     1 <1>   0.1500 
 37 H       -9.4990    -3.2310    -2.1780 H     1 <1>   0.1500 
 38 H       -9.5570    -4.2740     1.3430 H     1 <1>   0.0800 
 39 H       -9.5720    -4.8300    -0.3020 H     1 <1>   0.0800 
 40 H      -11.8840    -3.4400     1.0870 H     1 <1>   0.0800 
 41 H      -11.7870    -5.1520     0.7410 H     1 <1>   0.0800 
 42 H      -11.8970    -3.9980    -0.5690 H     1 <1>   0.0800 
@<TRIPOS>BOND
  1   1   2  1   
  2   1   3  1   
  3   2   4  1   
  4   2  19  1   
  5   2  20  1   
  6   3   5  1   
  7   3  21  1   
  8   3  22  1   
  9   4   6  1   
 10   4  23  1   
 11   4  24  1   
 12   5   6  1   
 13   5  25  1   
 14   5  26  1   
 15   6   7  1   
 16   6  27  1   
 17   7   8  1   
 18   7  28  1   
 19   7  29  1   
 20   8   9  1   
 21   8  30  1   
 22   8  31  1   
 23   9  10  1   
 24   9  32  1   
 25   9  33  1   
 26  10  11  1   
 27  11  12  ar  
 28  11  13  ar  
 29  12  14  ar  
 30  12  34  1   
 31  13  15  ar  
 32  13  35  1   
 33  14  16  ar  
 34  14  36  1   
 35  15  16  ar  
 36  15  37  1   
 37  16  17  1   
 38  17  18  1   
 39  17  38  1   
 40  17  39  1   
 41  18  40  1   
 42  18  41  1   
 43  18  42  1   
@<TRIPOS>SUBSTRUCTURE
  1 ****   8 GROUP 4 **** **** 0

# MOE 2024.06 (io_trps.svl 2023.06)
