@<TRIPOS>MOLECULE
NONAME
35 38 1 0 0 
SMALL
USER_CHARGES


@<TRIPOS>ATOM
  1 S       -0.7860    -0.7350     0.7300 S.3   1 <1>  -0.1570 
  2 C        0.8860    -0.2070     0.4270 C.2   1 <1>   0.2420 
  3 C       -1.3670     0.9120     0.3880 C.2   1 <1>  -0.0370 
  4 N        2.0130    -0.8270     0.4580 N.2   1 <1>  -0.5650 
  5 N        0.9170     1.1010     0.1080 N.pl3 1 <1>   0.3340 
  6 C       -0.3490     1.7280     0.0940 C.2   1 <1>  -0.1690 
  7 C       -2.8380     1.2530     0.4440 C.3   1 <1>  -0.0220 
  8 C        2.8980     0.1600     0.1260 C.2   1 <1>   0.1730 
  9 C        2.2280     1.3340    -0.0870 C.2   1 <1>  -0.3020 
 10 C       -0.5360     3.1990    -0.2310 C.3   1 <1>  -0.0220 
 11 C       -3.0500     2.6320    -0.2140 C.3   1 <1>  -0.1600 
 12 C        4.3280    -0.0800     0.0320 C.ar  1 <1>   0.0540 
 13 C       -1.9550     3.6520     0.1770 C.3   1 <1>  -0.1600 
 14 C        4.8570    -1.3680     0.1210 C.ar  1 <1>  -0.1500 
 15 C        5.2340     0.9650    -0.1510 C.ar  1 <1>  -0.1500 
 16 C        6.2170    -1.6020     0.0280 C.ar  1 <1>  -0.1500 
 17 C        6.5950     0.7370    -0.2440 C.ar  1 <1>  -0.1500 
 18 C        7.0970    -0.5500    -0.1570 C.ar  1 <1>  -0.1430 
 19 C        8.5900    -0.8040    -0.2580 C.3   1 <1>  -0.0970 
 20 H       -3.1510     1.2780     1.4730 H     1 <1>   0.0800 
 21 H       -3.4130     0.5050    -0.0730 H     1 <1>   0.0800 
 22 H        2.6020     2.2990    -0.3630 H     1 <1>   0.1500 
 23 H       -0.3940     3.3430    -1.2880 H     1 <1>   0.0800 
 24 H        0.1930     3.7910     0.2940 H     1 <1>   0.0800 
 25 H       -4.0190     3.0120     0.0590 H     1 <1>   0.0800 
 26 H       -3.0370     2.5100    -1.2840 H     1 <1>   0.0800 
 27 H       -2.1680     4.6050    -0.2760 H     1 <1>   0.0800 
 28 H       -1.9810     3.7870     1.2450 H     1 <1>   0.0800 
 29 H        4.1890    -2.1990     0.2650 H     1 <1>   0.1500 
 30 H        4.8730     1.9730    -0.2190 H     1 <1>   0.1500 
 31 H        6.5860    -2.6100     0.1030 H     1 <1>   0.1500 
 32 H        7.2640     1.5680    -0.3840 H     1 <1>   0.1500 
 33 H        8.7780    -1.7700    -0.6910 H     1 <1>   0.0800 
 34 H        9.0310    -0.7710     0.7220 H     1 <1>   0.0800 
 35 H        9.0580    -0.0590    -0.8750 H     1 <1>   0.0800 
@<TRIPOS>BOND
  1   1   2  1   
  2   1   3  1   
  3   2   4  2   
  4   2   5  1   
  5   3   6  2   
  6   3   7  1   
  7   4   8  1   
  8   5   6  1   
  9   5   9  1   
 10   6  10  1   
 11   7  11  1   
 12   7  20  1   
 13   7  21  1   
 14   8   9  2   
 15   8  12  1   
 16   9  22  1   
 17  10  13  1   
 18  10  23  1   
 19  10  24  1   
 20  11  13  1   
 21  11  25  1   
 22  11  26  1   
 23  12  14  ar  
 24  12  15  ar  
 25  13  27  1   
 26  13  28  1   
 27  14  16  ar  
 28  14  29  1   
 29  15  17  ar  
 30  15  30  1   
 31  16  18  ar  
 32  16  31  1   
 33  17  18  ar  
 34  17  32  1   
 35  18  19  1   
 36  19  33  1   
 37  19  34  1   
 38  19  35  1   
@<TRIPOS>SUBSTRUCTURE
  1 ****   9 GROUP 4 **** **** 0

# MOE 2024.06 (io_trps.svl 2023.06)
