@<TRIPOS>MOLECULE
NONAME
40 42 1 0 0 
SMALL
USER_CHARGES


@<TRIPOS>ATOM
  1 F       -0.0950    -2.2500     1.6820 F     1 <1>  -0.1900 
  2 C       -1.1420    -2.0860     0.9070 C.ar  1 <1>   0.1900 
  3 C       -1.1850    -2.7270    -0.3380 C.ar  1 <1>   0.1000 
  4 C       -2.1610    -1.2780     1.3710 C.ar  1 <1>  -0.1500 
  5 N       -0.1740    -3.5550    -0.8470 N.pl3 1 <1>  -0.8380 
  6 C       -2.3190    -2.5150    -1.1120 C.ar  1 <1>  -0.1500 
  7 C       -3.2780    -1.0880     0.5730 C.ar  1 <1>  -0.1500 
  8 C        1.0860    -2.8970    -1.3100 C.3   1 <1>   0.2090 
  9 C       -0.0220    -4.9110    -0.2360 C.3   1 <1>   0.2090 
 10 C       -3.3520    -1.7070    -0.6650 C.ar  1 <1>  -0.1500 
 11 C        2.2150    -2.9920    -0.2620 C.3   1 <1>   0.3430 
 12 C        1.1300    -4.9660     0.7910 C.3   1 <1>   0.3430 
 13 N        2.4170    -4.3950     0.2570 N.4   1 <1>  -0.9590 
 14 C        3.5050    -4.4590     1.2680 C.3   1 <1>   0.4860 
 15 C        4.8090    -4.0410     0.6200 C.ar  1 <1>  -0.1430 
 16 C        5.3720    -4.8090    -0.3880 C.ar  1 <1>   0.1900 
 17 C        5.4740    -2.8870     1.0110 C.ar  1 <1>  -0.1500 
 18 F        4.7520    -5.8930    -0.7760 F     1 <1>  -0.1900 
 19 C        6.5570    -4.4690    -1.0110 C.ar  1 <1>  -0.1500 
 20 C        6.6640    -2.5290     0.3960 C.ar  1 <1>  -0.1500 
 21 C        7.2060    -3.3140    -0.6110 C.ar  1 <1>  -0.1500 
 22 H       -2.0860    -0.8060     2.3340 H     1 <1>   0.1500 
 23 H       -2.3860    -2.9910    -2.0740 H     1 <1>   0.1500 
 24 H       -4.0860    -0.4620     0.9130 H     1 <1>   0.1500 
 25 H        0.8900    -1.8590    -1.5250 H     1 <1>   0.0800 
 26 H        1.4060    -3.3600    -2.2270 H     1 <1>   0.0800 
 27 H        0.1570    -5.6270    -1.0190 H     1 <1>   0.0800 
 28 H       -0.9430    -5.1880     0.2490 H     1 <1>   0.0800 
 29 H       -4.2210    -1.5590    -1.2840 H     1 <1>   0.1500 
 30 H        1.9680    -2.3380     0.5570 H     1 <1>   0.0800 
 31 H        3.1290    -2.6280    -0.7030 H     1 <1>   0.0800 
 32 H        1.2780    -5.9900     1.0910 H     1 <1>   0.0800 
 33 H        0.8250    -4.4110     1.6630 H     1 <1>   0.0800 
 34 H        2.7230    -4.9760    -0.5370 H     1 <1>   0.4500 
 35 H        3.6040    -5.4660     1.6400 H     1 <1>   0.0800 
 36 H        3.2800    -3.8080     2.0970 H     1 <1>   0.0800 
 37 H        5.0840    -2.2580     1.7940 H     1 <1>   0.1500 
 38 H        6.9640    -5.0920    -1.7880 H     1 <1>   0.1500 
 39 H        7.1800    -1.6330     0.7030 H     1 <1>   0.1500 
 40 H        8.1330    -3.0260    -1.0790 H     1 <1>   0.1500 
@<TRIPOS>BOND
  1   1   2  1   
  2   2   3  ar  
  3   2   4  ar  
  4   3   5  1   
  5   3   6  ar  
  6   4   7  ar  
  7   4  22  1   
  8   5   8  1   
  9   5   9  1   
 10   6  10  ar  
 11   6  23  1   
 12   7  10  ar  
 13   7  24  1   
 14   8  11  1   
 15   8  25  1   
 16   8  26  1   
 17   9  12  1   
 18   9  27  1   
 19   9  28  1   
 20  10  29  1   
 21  11  13  1   
 22  11  30  1   
 23  11  31  1   
 24  12  13  1   
 25  12  32  1   
 26  12  33  1   
 27  13  14  1   
 28  13  34  1   
 29  14  15  1   
 30  14  35  1   
 31  14  36  1   
 32  15  16  ar  
 33  15  17  ar  
 34  16  18  1   
 35  16  19  ar  
 36  17  20  ar  
 37  17  37  1   
 38  19  21  ar  
 39  19  38  1   
 40  20  21  ar  
 41  20  39  1   
 42  21  40  1   
@<TRIPOS>SUBSTRUCTURE
  1 ****  11 GROUP 4 **** **** 0

# MOE 2024.06 (io_trps.svl 2023.06)
