@<TRIPOS>MOLECULE
NONAME
42 44 1 0 0 
SMALL
USER_CHARGES


@<TRIPOS>ATOM
  1 S       -0.3460     0.9550     2.1000 S.o2  1 <1>   1.4470 
  2 O       -0.9850     1.6230     3.2100 O.2   1 <1>  -0.6500 
  3 O       -0.0840    -0.4640     2.1660 O.2   1 <1>  -0.6500 
  4 N       -1.3990     1.1450     0.7790 N.am  1 <1>  -0.8490 
  5 C        1.1420     1.8680     1.6010 C.ar  1 <1>  -0.0090 
  6 C       -1.0080     0.3240    -0.3920 C.3   1 <1>   0.1960 
  7 C       -2.7890     0.8240     1.1800 C.3   1 <1>   0.1960 
  8 C        2.1440     1.2500     0.8680 C.ar  1 <1>  -0.1500 
  9 C        1.3000     3.2140     1.9080 C.ar  1 <1>  -0.1500 
 10 C       -1.9510     0.5300    -1.6070 C.3   1 <1>   0.3430 
 11 C       -3.7970     0.8830     0.0050 C.3   1 <1>   0.3430 
 12 C        3.2770     1.9250     0.4180 C.ar  1 <1>   0.0860 
 13 C        2.4180     3.9130     1.4890 C.ar  1 <1>  -0.1500 
 14 N       -3.1520     1.3720    -1.2630 N.4   1 <1>  -0.9590 
 15 C        4.2670     1.2290    -0.3780 C.2   1 <1>   0.5440 
 16 C        3.3940     3.2750     0.7470 C.ar  1 <1>  -0.1500 
 17 C       -4.1140     1.5040    -2.3970 C.3   1 <1>   0.2630 
 18 O        3.9060     0.4020    -1.1880 O.2   1 <1>  -0.5700 
 19 N        5.6000     1.4980    -0.1930 N.am  1 <1>  -0.4940 
 20 C        6.7330     1.0660    -0.8460 C.2   1 <1>   0.4420 
 21 S        6.6770     0.0580    -2.2620 S.3   1 <1>  -0.0800 
 22 N        7.9360     1.3560    -0.5070 N.2   1 <1>  -0.3380 
 23 C        8.4030     0.1130    -2.2720 C.2   1 <1>   0.2280 
 24 N        8.8860     0.8080    -1.3240 N.2   1 <1>  -0.3380 
 25 H       -1.0110    -0.7210    -0.1280 H     1 <1>   0.0800 
 26 H       -0.0050     0.5720    -0.6970 H     1 <1>   0.0800 
 27 H       -3.1110     1.5230     1.9350 H     1 <1>   0.0800 
 28 H       -2.8250    -0.1580     1.6250 H     1 <1>   0.0800 
 29 H        2.0510     0.2020     0.6310 H     1 <1>   0.1500 
 30 H        0.5420     3.7220     2.4830 H     1 <1>   0.1500 
 31 H       -2.2670    -0.4360    -1.9650 H     1 <1>   0.0800 
 32 H       -1.3950     1.0010    -2.4000 H     1 <1>   0.0800 
 33 H       -4.6120     1.5320     0.2780 H     1 <1>   0.0800 
 34 H       -4.2060    -0.1020    -0.1510 H     1 <1>   0.0800 
 35 H        2.5230     4.9560     1.7390 H     1 <1>   0.1500 
 36 H       -2.7640     2.2990    -1.0190 H     1 <1>   0.4500 
 37 H        4.2480     3.8400     0.4130 H     1 <1>   0.1500 
 38 H       -4.5230     0.5410    -2.6570 H     1 <1>   0.0800 
 39 H       -3.6190     1.9130    -3.2630 H     1 <1>   0.0800 
 40 H       -4.9240     2.1610    -2.1250 H     1 <1>   0.0800 
 41 H        5.8200     2.0950     0.6000 H     1 <1>   0.3700 
 42 H        8.9190    -0.4220    -3.0480 H     1 <1>   0.1500 
@<TRIPOS>BOND
  1   1   2  2   
  2   1   3  2   
  3   1   4  am  
  4   1   5  1   
  5   4   6  1   
  6   4   7  1   
  7   5   8  ar  
  8   5   9  ar  
  9   6  10  1   
 10   6  25  1   
 11   6  26  1   
 12   7  11  1   
 13   7  27  1   
 14   7  28  1   
 15   8  12  ar  
 16   8  29  1   
 17   9  13  ar  
 18   9  30  1   
 19  10  14  1   
 20  10  31  1   
 21  10  32  1   
 22  11  14  1   
 23  11  33  1   
 24  11  34  1   
 25  12  15  1   
 26  12  16  ar  
 27  13  16  ar  
 28  13  35  1   
 29  14  17  1   
 30  14  36  1   
 31  15  18  2   
 32  15  19  am  
 33  16  37  1   
 34  17  38  1   
 35  17  39  1   
 36  17  40  1   
 37  19  20  1   
 38  19  41  1   
 39  20  21  1   
 40  20  22  2   
 41  21  23  1   
 42  22  24  1   
 43  23  24  2   
 44  23  42  1   
@<TRIPOS>SUBSTRUCTURE
  1 ****   8 GROUP 4 **** **** 0

# MOE 2024.06 (io_trps.svl 2023.06)
