@<TRIPOS>MOLECULE
NONAME
39 40 1 0 0 
SMALL
USER_CHARGES


@<TRIPOS>ATOM
  1 S       -0.4740    -0.4100    -0.9340 S.o2  1 <1>   1.3330 
  2 O       -0.7130     0.8870    -1.5250 O.2   1 <1>  -0.6500 
  3 O       -0.2600    -1.5630    -1.7770 O.2   1 <1>  -0.6500 
  4 N       -1.7640    -0.7550     0.1060 N.am  1 <1>  -0.8490 
  5 C        0.8980    -0.2460     0.1880 C.3   1 <1>  -0.1350 
  6 C       -3.0510    -0.3260    -0.4730 C.3   1 <1>   0.1960 
  7 C       -1.8390    -2.1860     0.4620 C.3   1 <1>   0.1960 
  8 C       -4.2300    -0.5540     0.4930 C.3   1 <1>   0.1400 
  9 C       -2.9540    -2.4540     1.4850 C.3   1 <1>   0.1400 
 10 N       -4.2720    -1.9700     0.9720 N.am  1 <1>  -0.6600 
 11 C       -5.2500    -2.8570     0.6060 C.2   1 <1>   0.6900 
 12 O       -4.9800    -4.0310     0.4400 O.2   1 <1>  -0.5700 
 13 N       -6.5270    -2.3960     0.4630 N.am  1 <1>  -0.5470 
 14 C       -7.6780    -3.0240    -0.0310 C.ar  1 <1>   0.1170 
 15 C       -8.9250    -2.5940     0.4080 C.ar  1 <1>  -0.1500 
 16 C       -7.6250    -4.0530    -0.9640 C.ar  1 <1>  -0.1500 
 17 C      -10.1030    -3.1670    -0.0590 C.ar  1 <1>  -0.1440 
 18 C       -8.7840    -4.6380    -1.4370 C.ar  1 <1>  -0.1500 
 19 C      -10.0170    -4.2000    -0.9880 C.ar  1 <1>  -0.1500 
 20 C      -11.4720    -2.6810     0.4460 C.3   1 <1>   1.1630 
 21 F      -11.8810    -3.3630     1.5070 F     1 <1>  -0.3400 
 22 F      -11.4590    -1.4030     0.8060 F     1 <1>  -0.3400 
 23 F      -12.4300    -2.7980    -0.4660 F     1 <1>  -0.3400 
 24 H        0.6980     0.5300     0.9010 H     1 <1>   0.0800 
 25 H        1.7860     0.0080    -0.3560 H     1 <1>   0.0800 
 26 H        1.0660    -1.1650     0.7120 H     1 <1>   0.0800 
 27 H       -3.2330    -0.8600    -1.3910 H     1 <1>   0.0800 
 28 H       -3.0110     0.7250    -0.7070 H     1 <1>   0.0800 
 29 H       -0.9020    -2.5070     0.8800 H     1 <1>   0.0800 
 30 H       -2.0280    -2.7810    -0.4190 H     1 <1>   0.0800 
 31 H       -5.1420    -0.2960    -0.0130 H     1 <1>   0.0800 
 32 H       -4.1200     0.1000     1.3400 H     1 <1>   0.0800 
 33 H       -2.7240    -1.9420     2.4030 H     1 <1>   0.0800 
 34 H       -2.9960    -3.5080     1.7000 H     1 <1>   0.0800 
 35 H       -6.6690    -1.5060     0.9260 H     1 <1>   0.3700 
 36 H       -8.9670    -1.8000     1.1340 H     1 <1>   0.1500 
 37 H       -6.6740    -4.4020    -1.3230 H     1 <1>   0.1500 
 38 H       -8.7230    -5.4380    -2.1560 H     1 <1>   0.1500 
 39 H      -10.9080    -4.6720    -1.3680 H     1 <1>   0.1500 
@<TRIPOS>BOND
  1   1   2  2   
  2   1   3  2   
  3   1   4  am  
  4   1   5  1   
  5   4   6  1   
  6   4   7  1   
  7   5  24  1   
  8   5  25  1   
  9   5  26  1   
 10   6   8  1   
 11   6  27  1   
 12   6  28  1   
 13   7   9  1   
 14   7  29  1   
 15   7  30  1   
 16   8  10  1   
 17   8  31  1   
 18   8  32  1   
 19   9  10  1   
 20   9  33  1   
 21   9  34  1   
 22  10  11  am  
 23  11  12  2   
 24  11  13  am  
 25  13  14  1   
 26  13  35  1   
 27  14  15  ar  
 28  14  16  ar  
 29  15  17  ar  
 30  15  36  1   
 31  16  18  ar  
 32  16  37  1   
 33  17  19  ar  
 34  17  20  1   
 35  18  19  ar  
 36  18  38  1   
 37  19  39  1   
 38  20  21  1   
 39  20  22  1   
 40  20  23  1   
@<TRIPOS>SUBSTRUCTURE
  1 ****  13 GROUP 4 **** **** 0

# MOE 2024.06 (io_trps.svl 2023.06)
