@<TRIPOS>MOLECULE
NONAME
50 52 1 0 0 
SMALL
USER_CHARGES


@<TRIPOS>ATOM
  1 CL      -0.8090    -2.7290    -2.4560 Cl    1 <1>  -0.1770 
  2 C        0.5280    -3.6260    -1.7820 C.ar  1 <1>   0.1770 
  3 C        0.6150    -3.8850    -0.4220 C.ar  1 <1>  -0.0090 
  4 C        1.4950    -4.0700    -2.6650 C.ar  1 <1>  -0.1500 
  5 S       -0.6480    -3.3140     0.7370 S.o2  1 <1>   1.4470 
  6 C        1.7120    -4.6120     0.0240 C.ar  1 <1>  -0.1500 
  7 C        2.5770    -4.7870    -2.1920 C.ar  1 <1>  -0.1500 
  8 O       -0.8370    -1.8900     0.5780 O.2   1 <1>  -0.6500 
  9 O       -0.3350    -3.8200     2.0570 O.2   1 <1>  -0.6500 
 10 N       -2.0510    -4.1160     0.2280 N.am  1 <1>  -0.8490 
 11 C        2.7140    -5.0670    -0.8340 C.ar  1 <1>   0.0860 
 12 C       -2.0660    -5.5280     0.6230 C.3   1 <1>   0.1960 
 13 C       -3.2640    -3.4250     0.6750 C.3   1 <1>   0.1960 
 14 C        3.8520    -5.8170    -0.3390 C.2   1 <1>   0.5440 
 15 C       -3.2560    -6.2450    -0.0210 C.3   1 <1>  -0.1600 
 16 C       -4.5050    -4.0730     0.0500 C.3   1 <1>  -0.1600 
 17 O        4.0880    -6.9020    -0.8350 O.2   1 <1>  -0.5700 
 18 N        4.6660    -5.3390     0.6710 N.am  1 <1>  -0.6600 
 19 C       -4.5800    -5.5720     0.3610 C.3   1 <1>  -0.1600 
 20 C        5.6880    -6.2290     1.2880 C.3   1 <1>   0.1400 
 21 C        4.5960    -3.9300     1.1640 C.3   1 <1>   0.1400 
 22 C        7.0020    -6.1530     0.5020 C.3   1 <1>  -0.1600 
 23 C        5.9560    -3.3120     1.5180 C.3   1 <1>  -0.1600 
 24 C        7.8230    -4.8770     0.7460 C.3   1 <1>  -0.1600 
 25 C        7.0630    -3.5690     0.4820 C.3   1 <1>  -0.1600 
 26 H        1.3950    -3.8560    -3.7150 H     1 <1>   0.1500 
 27 H        1.8010    -4.8430     1.0730 H     1 <1>   0.1500 
 28 H        3.3320    -5.1430    -2.8730 H     1 <1>   0.1500 
 29 H       -2.1290    -5.6100     1.6960 H     1 <1>   0.0800 
 30 H       -1.1550    -6.0060     0.3010 H     1 <1>   0.0800 
 31 H       -3.2300    -2.3920     0.3690 H     1 <1>   0.0800 
 32 H       -3.3280    -3.4570     1.7510 H     1 <1>   0.0800 
 33 H       -3.2680    -7.2730     0.2940 H     1 <1>   0.0800 
 34 H       -3.1340    -6.2280    -1.0900 H     1 <1>   0.0800 
 35 H       -4.4680    -3.9240    -1.0160 H     1 <1>   0.0800 
 36 H       -5.3870    -3.5810     0.4190 H     1 <1>   0.0800 
 37 H       -4.7620    -5.7110     1.4130 H     1 <1>   0.0800 
 38 H       -5.3930    -6.0210    -0.1830 H     1 <1>   0.0800 
 39 H        5.3270    -7.2440     1.2640 H     1 <1>   0.0800 
 40 H        5.8420    -5.9670     2.3200 H     1 <1>   0.0800 
 41 H        3.9570    -3.8950     2.0300 H     1 <1>   0.0800 
 42 H        4.1500    -3.3140     0.4020 H     1 <1>   0.0800 
 43 H        6.7890    -6.2580    -0.5470 H     1 <1>   0.0800 
 44 H        7.6070    -6.9950     0.7850 H     1 <1>   0.0800 
 45 H        6.2680    -3.6500     2.4900 H     1 <1>   0.0800 
 46 H        5.8080    -2.2500     1.6000 H     1 <1>   0.0800 
 47 H        8.6830    -4.9070     0.1000 H     1 <1>   0.0800 
 48 H        8.1880    -4.8780     1.7580 H     1 <1>   0.0800 
 49 H        7.7720    -2.7620     0.5400 H     1 <1>   0.0800 
 50 H        6.6540    -3.5690    -0.5150 H     1 <1>   0.0800 
@<TRIPOS>BOND
  1   1   2  1   
  2   2   3  ar  
  3   2   4  ar  
  4   3   5  1   
  5   3   6  ar  
  6   4   7  ar  
  7   4  26  1   
  8   5   8  2   
  9   5   9  2   
 10   5  10  am  
 11   6  11  ar  
 12   6  27  1   
 13   7  11  ar  
 14   7  28  1   
 15  10  12  1   
 16  10  13  1   
 17  11  14  1   
 18  12  15  1   
 19  12  29  1   
 20  12  30  1   
 21  13  16  1   
 22  13  31  1   
 23  13  32  1   
 24  14  17  2   
 25  14  18  am  
 26  15  19  1   
 27  15  33  1   
 28  15  34  1   
 29  16  19  1   
 30  16  35  1   
 31  16  36  1   
 32  18  20  1   
 33  18  21  1   
 34  19  37  1   
 35  19  38  1   
 36  20  22  1   
 37  20  39  1   
 38  20  40  1   
 39  21  23  1   
 40  21  41  1   
 41  21  42  1   
 42  22  24  1   
 43  22  43  1   
 44  22  44  1   
 45  23  25  1   
 46  23  45  1   
 47  23  46  1   
 48  24  25  1   
 49  24  47  1   
 50  24  48  1   
 51  25  49  1   
 52  25  50  1   
@<TRIPOS>SUBSTRUCTURE
  1 ****   6 GROUP 4 **** **** 0

# MOE 2024.06 (io_trps.svl 2023.06)
