@<TRIPOS>MOLECULE
NONAME
24 25 1 0 0 
SMALL
USER_CHARGES


@<TRIPOS>ATOM
  1 O        0.1690     0.4700     0.7840 O.2   1 <1>  -0.5700 
  2 C       -0.1700     1.5650     0.4060 C.2   1 <1>   0.5690 
  3 N        0.6430     2.6220     0.1180 N.am  1 <1>  -0.4770 
  4 C       -1.6180     1.9080     0.1810 C.3   1 <1>  -0.0990 
  5 C        2.0520     2.6420     0.0980 C.ar  1 <1>   0.1170 
  6 C       -0.1400     3.7780    -0.3630 C.3   1 <1>   0.1400 
  7 C       -1.6010     3.4220    -0.0670 C.3   1 <1>  -0.1600 
  8 C        2.7720     1.5680    -0.4180 C.ar  1 <1>  -0.1500 
  9 C        2.7580     3.7400     0.5850 C.ar  1 <1>  -0.1500 
 10 C        4.1540     1.5930    -0.4610 C.ar  1 <1>  -0.1500 
 11 C        4.1410     3.7740     0.5460 C.ar  1 <1>  -0.1500 
 12 C        4.8350     2.6970     0.0190 C.ar  1 <1>   0.0820 
 13 O        6.1770     2.7140    -0.0290 O.3   1 <1>  -0.5320 
 14 H       -2.2060     1.6470     1.0420 H     1 <1>   0.0800 
 15 H       -1.9710     1.3750    -0.6820 H     1 <1>   0.0800 
 16 H        0.0200     3.8920    -1.4220 H     1 <1>   0.0800 
 17 H        0.1470     4.6810     0.1470 H     1 <1>   0.0800 
 18 H       -1.9130     3.9380     0.8250 H     1 <1>   0.0800 
 19 H       -2.2490     3.7070    -0.8770 H     1 <1>   0.0800 
 20 H        2.2450     0.7070    -0.7870 H     1 <1>   0.1500 
 21 H        2.2250     4.5710     1.0060 H     1 <1>   0.1500 
 22 H        4.7060     0.7620    -0.8600 H     1 <1>   0.1500 
 23 H        4.6680     4.6300     0.9260 H     1 <1>   0.1500 
 24 H        6.5580     3.5240     0.3520 H     1 <1>   0.4500 
@<TRIPOS>BOND
  1   1   2  2   
  2   2   3  am  
  3   2   4  1   
  4   3   5  1   
  5   3   6  1   
  6   4   7  1   
  7   4  14  1   
  8   4  15  1   
  9   5   8  ar  
 10   5   9  ar  
 11   6   7  1   
 12   6  16  1   
 13   6  17  1   
 14   7  18  1   
 15   7  19  1   
 16   8  10  ar  
 17   8  20  1   
 18   9  11  ar  
 19   9  21  1   
 20  10  12  ar  
 21  10  22  1   
 22  11  12  ar  
 23  11  23  1   
 24  12  13  1   
 25  13  24  1   
@<TRIPOS>SUBSTRUCTURE
  1 ****   5 GROUP 4 **** **** 0

# MOE 2024.06 (io_trps.svl 2023.06)
