@<TRIPOS>MOLECULE
NONAME
46 47 1 0 0 
SMALL
USER_CHARGES


@<TRIPOS>ATOM
  1 BR      -2.0850     1.9240    -2.9270 Br    1 <1>  -0.1110 
  2 C       -0.9390     2.6540    -1.5570 C.ar  1 <1>   0.1110 
  3 C       -1.1580     2.3200    -0.2280 C.ar  1 <1>  -0.1440 
  4 C        0.0740     3.5060    -1.9530 C.ar  1 <1>  -0.1500 
  5 C       -0.3140     2.8670     0.7290 C.ar  1 <1>  -0.1500 
  6 C       -2.2830     1.3880     0.1700 C.3   1 <1>   0.4870 
  7 C        0.9010     4.0460    -0.9850 C.ar  1 <1>  -0.1500 
  8 C        0.7070     3.7250     0.3490 C.ar  1 <1>  -0.1500 
  9 N       -3.5820     2.0790    -0.0830 N.4   1 <1>  -0.9590 
 10 C       -3.7240     3.2620     0.8310 C.3   1 <1>   0.4860 
 11 C       -4.7550     1.1240    -0.0550 C.3   1 <1>   0.3430 
 12 C       -5.0490     3.9420     0.5510 C.ar  1 <1>  -0.1430 
 13 C       -5.8590     1.4390    -1.1140 C.3   1 <1>   0.3430 
 14 C       -5.2180     4.6970    -0.6030 C.ar  1 <1>  -0.1500 
 15 C       -6.1060     3.8030     1.4400 C.ar  1 <1>  -0.1500 
 16 N       -7.1140     0.6100    -0.9920 N.4   1 <1>  -0.9590 
 17 C       -6.4430     5.2770    -0.8780 C.ar  1 <1>  -0.1500 
 18 C       -7.3280     4.3890     1.1640 C.ar  1 <1>  -0.1500 
 19 C       -7.9790     0.8240    -2.2000 C.3   1 <1>   0.2630 
 20 C       -7.9130     0.9570     0.2310 C.3   1 <1>   0.2630 
 21 C       -7.4990     5.1200     0.0020 C.ar  1 <1>  -0.1500 
 22 H        0.2180     3.7430    -2.9930 H     1 <1>   0.1500 
 23 H       -0.4260     2.6340     1.7750 H     1 <1>   0.1500 
 24 H       -2.1910     1.1180     1.2100 H     1 <1>   0.0800 
 25 H       -2.2130     0.4890    -0.4230 H     1 <1>   0.0800 
 26 H        1.7000     4.7120    -1.2680 H     1 <1>   0.1500 
 27 H        1.3620     4.1470     1.0950 H     1 <1>   0.1500 
 28 H       -3.4780     2.4740    -1.0290 H     1 <1>   0.4500 
 29 H       -2.9210     3.9640     0.6650 H     1 <1>   0.0800 
 30 H       -3.6890     2.9480     1.8610 H     1 <1>   0.0800 
 31 H       -5.1940     1.1410     0.9290 H     1 <1>   0.0800 
 32 H       -4.3980     0.1250    -0.2430 H     1 <1>   0.0800 
 33 H       -5.4360     1.2840    -2.0930 H     1 <1>   0.0800 
 34 H       -6.1380     2.4750    -1.0370 H     1 <1>   0.0800 
 35 H       -4.4050     4.8530    -1.2940 H     1 <1>   0.1500 
 36 H       -5.9910     3.2540     2.3610 H     1 <1>   0.1500 
 37 H       -6.8880    -0.3990    -0.9660 H     1 <1>   0.4500 
 38 H       -6.5760     5.8690    -1.7700 H     1 <1>   0.1500 
 39 H       -8.1480     4.2980     1.8600 H     1 <1>   0.1500 
 40 H       -8.2690     1.8600    -2.2790 H     1 <1>   0.0800 
 41 H       -8.8740     0.2240    -2.1330 H     1 <1>   0.0800 
 42 H       -7.4520     0.5440    -3.0990 H     1 <1>   0.0800 
 43 H       -8.1820     2.0020     0.2190 H     1 <1>   0.0800 
 44 H       -7.3500     0.7560     1.1280 H     1 <1>   0.0800 
 45 H       -8.8200     0.3740     0.2640 H     1 <1>   0.0800 
 46 H       -8.4480     5.5860    -0.2090 H     1 <1>   0.1500 
@<TRIPOS>BOND
  1   1   2  1   
  2   2   3  ar  
  3   2   4  ar  
  4   3   5  ar  
  5   3   6  1   
  6   4   7  ar  
  7   4  22  1   
  8   5   8  ar  
  9   5  23  1   
 10   6   9  1   
 11   6  24  1   
 12   6  25  1   
 13   7   8  ar  
 14   7  26  1   
 15   8  27  1   
 16   9  10  1   
 17   9  11  1   
 18   9  28  1   
 19  10  12  1   
 20  10  29  1   
 21  10  30  1   
 22  11  13  1   
 23  11  31  1   
 24  11  32  1   
 25  12  14  ar  
 26  12  15  ar  
 27  13  16  1   
 28  13  33  1   
 29  13  34  1   
 30  14  17  ar  
 31  14  35  1   
 32  15  18  ar  
 33  15  36  1   
 34  16  19  1   
 35  16  20  1   
 36  16  37  1   
 37  17  21  ar  
 38  17  38  1   
 39  18  21  ar  
 40  18  39  1   
 41  19  40  1   
 42  19  41  1   
 43  19  42  1   
 44  20  43  1   
 45  20  44  1   
 46  20  45  1   
 47  21  46  1   
@<TRIPOS>SUBSTRUCTURE
  1 ****   9 GROUP 4 **** **** 0

# MOE 2024.06 (io_trps.svl 2023.06)
