@<TRIPOS>MOLECULE
NONAME
27 27 1 0 0 
SMALL
USER_CHARGES


@<TRIPOS>ATOM
  1 CL       0.2500    -0.8900     0.5850 Cl    1 <1>  -0.1770 
  2 C       -1.4140    -1.3480     0.3180 C.ar  1 <1>   0.1770 
  3 C       -1.7330    -2.6840     0.1740 C.ar  1 <1>  -0.1500 
  4 C       -2.3870    -0.3660     0.2510 C.ar  1 <1>  -0.1500 
  5 C       -3.0580    -3.0070    -0.0360 C.ar  1 <1>   0.1900 
  6 C       -3.7110    -0.7200     0.0390 C.ar  1 <1>  -0.1500 
  7 F       -3.3630    -4.2740    -0.1800 F     1 <1>  -0.1900 
  8 C       -4.0810    -2.0580    -0.1040 C.ar  1 <1>   0.1170 
  9 N       -5.4090    -2.4730    -0.3250 N.am  1 <1>  -0.5470 
 10 C       -6.6010    -1.8530    -0.1030 C.2   1 <1>   0.6900 
 11 O       -6.6740    -0.7670     0.4340 O.2   1 <1>  -0.5700 
 12 N       -7.7230    -2.5020    -0.4980 N.am  1 <1>  -0.7300 
 13 C       -9.0990    -1.9980    -0.3080 C.3   1 <1>   0.1400 
 14 C      -10.0040    -3.1590     0.1040 C.3   1 <1>  -0.1600 
 15 C      -11.4480    -2.6910     0.3140 C.3   1 <1>  -0.2400 
 16 H       -0.9740    -3.4420     0.2240 H     1 <1>   0.1500 
 17 H       -2.1100     0.6670     0.3640 H     1 <1>   0.1500 
 18 H       -4.4550     0.0540    -0.0170 H     1 <1>   0.1500 
 19 H       -5.4990    -3.4580    -0.5580 H     1 <1>   0.3700 
 20 H       -7.6410    -3.3350    -1.0760 H     1 <1>   0.3700 
 21 H       -9.4470    -1.5610    -1.2280 H     1 <1>   0.0800 
 22 H       -9.1090    -1.2360     0.4560 H     1 <1>   0.0800 
 23 H       -9.6370    -3.5850     1.0230 H     1 <1>   0.0800 
 24 H       -9.9890    -3.9170    -0.6590 H     1 <1>   0.0800 
 25 H      -11.4920    -1.9440     1.0880 H     1 <1>   0.0800 
 26 H      -12.0650    -3.5220     0.6080 H     1 <1>   0.0800 
 27 H      -11.8460    -2.2740    -0.5940 H     1 <1>   0.0800 
@<TRIPOS>BOND
  1   1   2  1   
  2   2   3  ar  
  3   2   4  ar  
  4   3   5  ar  
  5   3  16  1   
  6   4   6  ar  
  7   4  17  1   
  8   5   7  1   
  9   5   8  ar  
 10   6   8  ar  
 11   6  18  1   
 12   8   9  1   
 13   9  10  am  
 14   9  19  1   
 15  10  11  2   
 16  10  12  am  
 17  12  13  1   
 18  12  20  1   
 19  13  14  1   
 20  13  21  1   
 21  13  22  1   
 22  14  15  1   
 23  14  23  1   
 24  14  24  1   
 25  15  25  1   
 26  15  26  1   
 27  15  27  1   
@<TRIPOS>SUBSTRUCTURE
  1 ****   9 GROUP 4 **** **** 0

# MOE 2024.06 (io_trps.svl 2023.06)
