@<TRIPOS>MOLECULE
NONAME
42 43 1 0 0 
SMALL
USER_CHARGES


@<TRIPOS>ATOM
  1 O        5.5850     4.6330    -0.5560 O.3   1 <1>  -0.5600 
  2 C        5.5850     5.5620     0.4880 C.3   1 <1>   0.1200 
  3 C        4.4320     3.8480    -0.6460 C.3   1 <1>   0.1200 
  4 C        4.4040     6.5390     0.3300 C.3   1 <1>   0.3430 
  5 C        3.1940     4.7420    -0.8560 C.3   1 <1>   0.3430 
  6 N        3.0920     5.8100     0.2040 N.4   1 <1>  -0.9590 
  7 C        1.9750     6.7630    -0.0500 C.3   1 <1>   0.3430 
  8 C        0.6290     6.0710     0.1480 C.3   1 <1>  -0.1600 
  9 C       -0.5220     7.0620    -0.0130 C.3   1 <1>   0.1200 
 10 O       -1.7130     6.3420     0.1720 O.3   1 <1>  -0.3630 
 11 C       -2.9250     6.9460     0.0840 C.ar  1 <1>   0.0820 
 12 C       -4.0350     6.1420     0.2820 C.ar  1 <1>  -0.1500 
 13 C       -3.1010     8.3010    -0.1890 C.ar  1 <1>  -0.1500 
 14 C       -5.3130     6.6710     0.2130 C.ar  1 <1>  -0.1440 
 15 C       -4.3760     8.8370    -0.2630 C.ar  1 <1>  -0.1440 
 16 C       -5.4760     8.0190    -0.0610 C.ar  1 <1>  -0.1500 
 17 C       -6.5290     5.7890     0.4300 C.3   1 <1>  -0.0970 
 18 C       -4.5770    10.3130    -0.5590 C.3   1 <1>  -0.0970 
 19 H        6.5180     6.0980     0.4480 H     1 <1>   0.0800 
 20 H        5.5350     5.0340     1.4250 H     1 <1>   0.0800 
 21 H        4.3420     3.2570     0.2490 H     1 <1>   0.0800 
 22 H        4.5560     3.1830    -1.4840 H     1 <1>   0.0800 
 23 H        4.5760     7.1340    -0.5520 H     1 <1>   0.0800 
 24 H        4.3780     7.2040     1.1780 H     1 <1>   0.0800 
 25 H        2.3110     4.1250    -0.8480 H     1 <1>   0.0800 
 26 H        3.2700     5.1990    -1.8290 H     1 <1>   0.0800 
 27 H        2.9140     5.3390     1.1010 H     1 <1>   0.4500 
 28 H        2.0440     7.1550    -1.0530 H     1 <1>   0.0800 
 29 H        2.0440     7.5900     0.6390 H     1 <1>   0.0800 
 30 H        0.5770     5.6510     1.1370 H     1 <1>   0.0800 
 31 H        0.4990     5.2910    -0.5810 H     1 <1>   0.0800 
 32 H       -0.5390     7.4880    -1.0030 H     1 <1>   0.0800 
 33 H       -0.4810     7.8390     0.7310 H     1 <1>   0.0800 
 34 H       -3.8890     5.0980     0.4910 H     1 <1>   0.1500 
 35 H       -2.2620     8.9500    -0.3440 H     1 <1>   0.1500 
 36 H       -6.4670     8.4330    -0.1160 H     1 <1>   0.1500 
 37 H       -6.2480     4.8560     0.8850 H     1 <1>   0.0800 
 38 H       -7.0020     5.5840    -0.5140 H     1 <1>   0.0800 
 39 H       -7.2340     6.2830     1.0740 H     1 <1>   0.0800 
 40 H       -3.7340    10.7110    -1.0950 H     1 <1>   0.0800 
 41 H       -4.6920    10.8550     0.3620 H     1 <1>   0.0800 
 42 H       -5.4570    10.4560    -1.1590 H     1 <1>   0.0800 
@<TRIPOS>BOND
  1   1   2  1   
  2   1   3  1   
  3   2   4  1   
  4   2  19  1   
  5   2  20  1   
  6   3   5  1   
  7   3  21  1   
  8   3  22  1   
  9   4   6  1   
 10   4  23  1   
 11   4  24  1   
 12   5   6  1   
 13   5  25  1   
 14   5  26  1   
 15   6   7  1   
 16   6  27  1   
 17   7   8  1   
 18   7  28  1   
 19   7  29  1   
 20   8   9  1   
 21   8  30  1   
 22   8  31  1   
 23   9  10  1   
 24   9  32  1   
 25   9  33  1   
 26  10  11  1   
 27  11  12  ar  
 28  11  13  ar  
 29  12  14  ar  
 30  12  34  1   
 31  13  15  ar  
 32  13  35  1   
 33  14  16  ar  
 34  14  17  1   
 35  15  16  ar  
 36  15  18  1   
 37  16  36  1   
 38  17  37  1   
 39  17  38  1   
 40  17  39  1   
 41  18  40  1   
 42  18  41  1   
 43  18  42  1   
@<TRIPOS>SUBSTRUCTURE
  1 ****   9 GROUP 4 **** **** 0

# MOE 2024.06 (io_trps.svl 2023.06)
