@<TRIPOS>MOLECULE
NONAME
34 36 1 0 0 
SMALL
USER_CHARGES


@<TRIPOS>ATOM
  1 O       -1.3890    -0.8560    -1.2520 O.3   1 <1>  -0.5600 
  2 C       -1.6220    -1.3020     0.0440 C.3   1 <1>   0.5500 
  3 C       -1.1930     0.5160    -1.2320 C.3   1 <1>   0.1200 
  4 N       -2.3570    -0.1990     0.7050 N.3   1 <1>  -0.8100 
  5 C       -2.3650    -2.6560    -0.0460 C.3   1 <1>  -0.1600 
  6 C       -0.2720    -1.5130     0.7670 C.3   1 <1>  -0.1600 
  7 C       -2.0900     0.9990    -0.0990 C.3   1 <1>   0.2700 
  8 C       -3.8240    -0.3140     0.7250 C.3   1 <1>   0.3900 
  9 C       -1.5060    -3.7950    -0.6250 C.3   1 <1>  -0.1600 
 10 C        0.5820    -2.6430     0.1710 C.3   1 <1>  -0.1600 
 11 C       -3.4660     1.4220    -0.5950 C.3   1 <1>   0.1200 
 12 C       -1.4810     2.1350     0.7530 C.3   1 <1>   0.1200 
 13 O       -4.3080     0.9330     0.3780 O.3   1 <1>  -0.5600 
 14 C       -0.1950    -3.9620     0.1480 C.3   1 <1>  -0.1600 
 15 O       -0.4290     1.6700     1.5240 O.3   1 <1>  -0.6800 
 16 H       -1.4560     0.9310    -2.1870 H     1 <1>   0.0800 
 17 H       -0.1560     0.7130    -1.0240 H     1 <1>   0.0800 
 18 H       -3.2240    -2.5690    -0.6820 H     1 <1>   0.0800 
 19 H       -2.6850    -2.9390     0.9400 H     1 <1>   0.0800 
 20 H       -0.4800    -1.7510     1.7940 H     1 <1>   0.0800 
 21 H        0.3120    -0.6150     0.7550 H     1 <1>   0.0800 
 22 H       -4.1840    -0.5720     1.7070 H     1 <1>   0.0800 
 23 H       -4.2100    -1.0000    -0.0040 H     1 <1>   0.0800 
 24 H       -1.2810    -3.5760    -1.6560 H     1 <1>   0.0800 
 25 H       -2.0610    -4.7170    -0.5980 H     1 <1>   0.0800 
 26 H        1.4800    -2.7620     0.7520 H     1 <1>   0.0800 
 27 H        0.8690    -2.3790    -0.8330 H     1 <1>   0.0800 
 28 H       -3.7160     0.9500    -1.5300 H     1 <1>   0.0800 
 29 H       -3.5840     2.4880    -0.6740 H     1 <1>   0.0800 
 30 H       -2.2270     2.5230     1.4260 H     1 <1>   0.0800 
 31 H       -1.1200     2.9370     0.1340 H     1 <1>   0.0800 
 32 H        0.4040    -4.7250    -0.3180 H     1 <1>   0.0800 
 33 H       -0.4070    -4.2750     1.1560 H     1 <1>   0.0800 
 34 H       -0.7270     0.8240     1.9250 H     1 <1>   0.4000 
@<TRIPOS>BOND
  1   1   2  1   
  2   1   3  1   
  3   2   4  1   
  4   2   5  1   
  5   2   6  1   
  6   3   7  1   
  7   3  16  1   
  8   3  17  1   
  9   4   7  1   
 10   4   8  1   
 11   5   9  1   
 12   5  18  1   
 13   5  19  1   
 14   6  10  1   
 15   6  20  1   
 16   6  21  1   
 17   7  11  1   
 18   7  12  1   
 19   8  13  1   
 20   8  22  1   
 21   8  23  1   
 22   9  14  1   
 23   9  24  1   
 24   9  25  1   
 25  10  14  1   
 26  10  26  1   
 27  10  27  1   
 28  11  13  1   
 29  11  28  1   
 30  11  29  1   
 31  12  15  1   
 32  12  30  1   
 33  12  31  1   
 34  14  32  1   
 35  14  33  1   
 36  15  34  1   
@<TRIPOS>SUBSTRUCTURE
  1 ****   2 GROUP 4 **** **** 0

# MOE 2024.06 (io_trps.svl 2023.06)
