@<TRIPOS>MOLECULE
NONAME
46 47 1 0 0 
SMALL
USER_CHARGES


@<TRIPOS>ATOM
  1 O       -0.0790     0.1780    -0.6540 O.3   1 <1>  -0.3570 
  2 C       -0.0720     1.4500    -0.9520 C.2   1 <1>   0.1770 
  3 C       -1.3820    -0.3710    -0.6060 C.3   1 <1>   0.1200 
  4 N       -1.3160     1.8850    -1.1190 N.pl3 1 <1>  -0.8690 
  5 C        1.0830     2.1940    -1.0580 C.2   1 <1>  -0.1360 
  6 C       -2.3100     0.8230    -0.8930 C.3   1 <1>   0.2890 
  7 C        2.3920     1.7820    -0.8830 C.2   1 <1>   0.5360 
  8 C       -3.3220     1.1900     0.2360 C.3   1 <1>   0.0000 
  9 O        2.7390     0.5540    -0.5780 O.3   1 <1>  -0.4300 
 10 N        3.4860     2.5350    -0.9850 N.2   1 <1>  -0.1460 
 11 C       -2.6310     1.5180     1.5760 C.3   1 <1>  -0.2400 
 12 C       -4.1510     2.4160    -0.1880 C.3   1 <1>  -0.2400 
 13 C       -4.3000     0.0230     0.4670 C.3   1 <1>  -0.2400 
 14 C        4.1350     0.3760    -0.4530 C.3   1 <1>   0.1200 
 15 C        4.7120     1.7840    -0.6920 C.3   1 <1>   0.2660 
 16 C        5.5030     2.4060     0.4960 C.3   1 <1>   0.0000 
 17 C        6.7490     1.5520     0.7960 C.3   1 <1>  -0.2400 
 18 C        5.9900     3.8190     0.1210 C.3   1 <1>  -0.2400 
 19 C        4.6670     2.5130     1.7880 C.3   1 <1>  -0.2400 
 20 H       -1.5360    -0.8060     0.3630 H     1 <1>   0.0800 
 21 H       -1.4660    -1.1230    -1.3680 H     1 <1>   0.0800 
 22 H       -1.6460     2.8300    -1.3350 H     1 <1>   0.4000 
 23 H        0.9280     3.2240    -1.3070 H     1 <1>   0.1500 
 24 H       -2.8470     0.6380    -1.8070 H     1 <1>   0.0800 
 25 H        3.5220     3.5350    -1.1840 H     1 <1>   0.4000 
 26 H       -1.9540     2.3460     1.4610 H     1 <1>   0.0800 
 27 H       -2.0720     0.6780     1.9460 H     1 <1>   0.0800 
 28 H       -3.3600     1.7850     2.3210 H     1 <1>   0.0800 
 29 H       -3.5250     3.2820    -0.3010 H     1 <1>   0.0800 
 30 H       -4.8980     2.6440     0.5520 H     1 <1>   0.0800 
 31 H       -4.6500     2.2320    -1.1230 H     1 <1>   0.0800 
 32 H       -3.7880    -0.8520     0.8260 H     1 <1>   0.0800 
 33 H       -4.8090    -0.2310    -0.4470 H     1 <1>   0.0800 
 34 H       -5.0410     0.2920     1.1980 H     1 <1>   0.0800 
 35 H        4.4630    -0.3220    -1.2040 H     1 <1>   0.0800 
 36 H        4.3470    -0.0180     0.5250 H     1 <1>   0.0800 
 37 H        5.3380     1.7640    -1.5680 H     1 <1>   0.0800 
 38 H        6.4840     0.5650     1.1310 H     1 <1>   0.0800 
 39 H        7.3410     2.0070     1.5730 H     1 <1>   0.0800 
 40 H        7.3720     1.4580    -0.0770 H     1 <1>   0.0800 
 41 H        6.5820     3.7980    -0.7780 H     1 <1>   0.0800 
 42 H        6.6090     4.2210     0.9070 H     1 <1>   0.0800 
 43 H        5.1720     4.5020    -0.0200 H     1 <1>   0.0800 
 44 H        4.3310     1.5490     2.1270 H     1 <1>   0.0800 
 45 H        3.8060     3.1450     1.6580 H     1 <1>   0.0800 
 46 H        5.2610     2.9400     2.5800 H     1 <1>   0.0800 
@<TRIPOS>BOND
  1   1   2  1   
  2   1   3  1   
  3   2   4  1   
  4   2   5  2   
  5   3   6  1   
  6   3  20  1   
  7   3  21  1   
  8   4   6  1   
  9   4  22  1   
 10   5   7  1   
 11   5  23  1   
 12   6   8  1   
 13   6  24  1   
 14   7   9  1   
 15   7  10  2   
 16   8  11  1   
 17   8  12  1   
 18   8  13  1   
 19   9  14  1   
 20  10  15  1   
 21  10  25  1   
 22  11  26  1   
 23  11  27  1   
 24  11  28  1   
 25  12  29  1   
 26  12  30  1   
 27  12  31  1   
 28  13  32  1   
 29  13  33  1   
 30  13  34  1   
 31  14  15  1   
 32  14  35  1   
 33  14  36  1   
 34  15  16  1   
 35  15  37  1   
 36  16  17  1   
 37  16  18  1   
 38  16  19  1   
 39  17  38  1   
 40  17  39  1   
 41  17  40  1   
 42  18  41  1   
 43  18  42  1   
 44  18  43  1   
 45  19  44  1   
 46  19  45  1   
 47  19  46  1   
@<TRIPOS>SUBSTRUCTURE
  1 ****   5 GROUP 4 **** **** 0

# MOE 2024.06 (io_trps.svl 2023.06)
