@<TRIPOS>MOLECULE
NONAME
31 31 1 0 0 
SMALL
USER_CHARGES


@<TRIPOS>ATOM
  1 CL       0.4360     0.0770     0.0210 Cl    1 <1>  -0.1770 
  2 C        0.2730    -1.6660    -0.0070 C.ar  1 <1>   0.1770 
  3 C        1.4060    -2.4700    -0.0260 C.ar  1 <1>   0.0820 
  4 C       -0.9970    -2.2100    -0.0090 C.ar  1 <1>  -0.1500 
  5 O        2.6220    -1.8590    -0.0220 O.3   1 <1>  -0.3630 
  6 C        1.2430    -3.8540    -0.0480 C.ar  1 <1>  -0.1500 
  7 C       -1.1450    -3.5860    -0.0310 C.ar  1 <1>  -0.1500 
  8 C        3.8240    -2.5820    -0.0330 C.3   1 <1>   0.1200 
  9 C       -0.0280    -4.4100    -0.0520 C.ar  1 <1>  -0.1440 
 10 C        4.9540    -1.5500    -0.0190 C.3   1 <1>   0.3430 
 11 C       -0.2060    -5.9180    -0.0750 C.3   1 <1>  -0.0960 
 12 N        6.3030    -2.1930    -0.0280 N.4   1 <1>  -0.9060 
 13 C        7.3900    -1.1900    -0.0130 C.3   1 <1>   0.3430 
 14 C        8.7180    -1.9320    -0.0230 C.3   1 <1>  -0.2400 
 15 H       -1.8560    -1.5640     0.0070 H     1 <1>   0.1500 
 16 H        2.0870    -4.5160    -0.0620 H     1 <1>   0.1500 
 17 H       -2.1340    -4.0130    -0.0300 H     1 <1>   0.1500 
 18 H        3.8480    -3.1760    -0.9310 H     1 <1>   0.0800 
 19 H        3.8490    -3.2010     0.8460 H     1 <1>   0.0800 
 20 H        4.8490    -0.9400     0.8640 H     1 <1>   0.0800 
 21 H        4.8500    -0.9150    -0.8840 H     1 <1>   0.0800 
 22 H        0.6190    -6.3920    -0.5740 H     1 <1>   0.0800 
 23 H       -1.1100    -6.1820    -0.5950 H     1 <1>   0.0800 
 24 H       -0.2660    -6.2930     0.9320 H     1 <1>   0.0800 
 25 H        6.4100    -2.7820    -0.8630 H     1 <1>   0.4500 
 26 H        6.4100    -2.8060     0.7910 H     1 <1>   0.4500 
 27 H        7.3210    -0.5760     0.8720 H     1 <1>   0.0800 
 28 H        7.3210    -0.5510    -0.8800 H     1 <1>   0.0800 
 29 H        8.8210    -2.5540     0.8480 H     1 <1>   0.0800 
 30 H        9.5220    -1.2160    -0.0130 H     1 <1>   0.0800 
 31 H        8.8210    -2.5290    -0.9120 H     1 <1>   0.0800 
@<TRIPOS>BOND
  1   1   2  1   
  2   2   3  ar  
  3   2   4  ar  
  4   3   5  1   
  5   3   6  ar  
  6   4   7  ar  
  7   4  15  1   
  8   5   8  1   
  9   6   9  ar  
 10   6  16  1   
 11   7   9  ar  
 12   7  17  1   
 13   8  10  1   
 14   8  18  1   
 15   8  19  1   
 16   9  11  1   
 17  10  12  1   
 18  10  20  1   
 19  10  21  1   
 20  11  22  1   
 21  11  23  1   
 22  11  24  1   
 23  12  13  1   
 24  12  25  1   
 25  12  26  1   
 26  13  14  1   
 27  13  27  1   
 28  13  28  1   
 29  14  29  1   
 30  14  30  1   
 31  14  31  1   
@<TRIPOS>SUBSTRUCTURE
  1 ****   5 GROUP 4 **** **** 0

# MOE 2024.06 (io_trps.svl 2023.06)
