@<TRIPOS>MOLECULE
NONAME
46 48 1 0 0 
SMALL
USER_CHARGES


@<TRIPOS>ATOM
  1 F       -0.3730     0.7860     1.6760 F     1 <1>  -0.1900 
  2 C       -0.8970     1.6210     0.8090 C.ar  1 <1>   0.1900 
  3 C       -0.0660     2.4450     0.0330 C.ar  1 <1>   0.1000 
  4 C       -2.2720     1.6410     0.7290 C.ar  1 <1>  -0.1500 
  5 N        1.3330     2.4610     0.0740 N.pl3 1 <1>  -0.8380 
  6 C       -0.7240     3.3070    -0.8410 C.ar  1 <1>  -0.1500 
  7 C       -2.9180     2.5040    -0.1600 C.ar  1 <1>   0.0860 
  8 C        2.1320     1.2280     0.3630 C.3   1 <1>   0.2090 
  9 C        2.0720     3.7640     0.1660 C.3   1 <1>   0.2090 
 10 C       -2.1030     3.3370    -0.9310 C.ar  1 <1>  -0.1500 
 11 C       -4.3570     2.5540    -0.2820 C.2   1 <1>   0.3980 
 12 C        3.5770     1.3550    -0.1510 C.3   1 <1>   0.1400 
 13 C        3.3960     3.6420     0.9410 C.3   1 <1>   0.1400 
 14 O       -4.8990     3.6120    -0.5370 O.2   1 <1>  -0.5700 
 15 C       -5.1660     1.3640    -0.1040 C.ar  1 <1>   0.0860 
 16 N        4.2830     2.5680     0.3820 N.am  1 <1>  -0.6600 
 17 C       -4.7520     0.1110    -0.5620 C.ar  1 <1>  -0.1500 
 18 C       -6.4040     1.4340     0.5350 C.ar  1 <1>  -0.1500 
 19 C        5.6440     2.7320     0.3650 C.2   1 <1>   0.5690 
 20 C       -5.5280    -1.0190    -0.3740 C.ar  1 <1>  -0.1500 
 21 C       -7.1860     0.3090     0.7250 C.ar  1 <1>  -0.1500 
 22 O        6.1660     3.7080     0.8500 O.2   1 <1>  -0.5700 
 23 C        6.5300     1.6630    -0.2730 C.3   1 <1>  -0.0990 
 24 C       -6.7470    -0.9220     0.2720 C.ar  1 <1>  -0.1500 
 25 C        8.0020     2.0730    -0.4640 C.3   1 <1>  -0.2400 
 26 H       -2.8430     0.9890     1.3650 H     1 <1>   0.1500 
 27 H       -0.1410     3.9570    -1.4660 H     1 <1>   0.1500 
 28 H        1.6590     0.3810    -0.1020 H     1 <1>   0.0800 
 29 H        2.1530     1.0590     1.4260 H     1 <1>   0.0800 
 30 H        1.4470     4.4940     0.6510 H     1 <1>   0.0800 
 31 H        2.2860     4.1150    -0.8280 H     1 <1>   0.0800 
 32 H       -2.5730     4.0230    -1.6170 H     1 <1>   0.1500 
 33 H        3.5520     1.4090    -1.2260 H     1 <1>   0.0800 
 34 H        4.1180     0.4690     0.1290 H     1 <1>   0.0800 
 35 H        3.1820     3.4180     1.9710 H     1 <1>   0.0800 
 36 H        3.9030     4.5910     0.9110 H     1 <1>   0.0800 
 37 H       -3.8120     0.0170    -1.0780 H     1 <1>   0.1500 
 38 H       -6.7540     2.3910     0.8830 H     1 <1>   0.1500 
 39 H       -5.1870    -1.9750    -0.7340 H     1 <1>   0.1500 
 40 H       -8.1370     0.3920     1.2230 H     1 <1>   0.1500 
 41 H        6.1240     1.4130    -1.2360 H     1 <1>   0.0800 
 42 H        6.4950     0.7870     0.3470 H     1 <1>   0.0800 
 43 H       -7.3540    -1.7990     0.4190 H     1 <1>   0.1500 
 44 H        8.0640     2.9490    -1.0850 H     1 <1>   0.0800 
 45 H        8.5550     1.2770    -0.9290 H     1 <1>   0.0800 
 46 H        8.4510     2.2970     0.4880 H     1 <1>   0.0800 
@<TRIPOS>BOND
  1   1   2  1   
  2   2   3  ar  
  3   2   4  ar  
  4   3   5  1   
  5   3   6  ar  
  6   4   7  ar  
  7   4  26  1   
  8   5   8  1   
  9   5   9  1   
 10   6  10  ar  
 11   6  27  1   
 12   7  10  ar  
 13   7  11  1   
 14   8  12  1   
 15   8  28  1   
 16   8  29  1   
 17   9  13  1   
 18   9  30  1   
 19   9  31  1   
 20  10  32  1   
 21  11  14  2   
 22  11  15  1   
 23  12  16  1   
 24  12  33  1   
 25  12  34  1   
 26  13  16  1   
 27  13  35  1   
 28  13  36  1   
 29  15  17  ar  
 30  15  18  ar  
 31  16  19  am  
 32  17  20  ar  
 33  17  37  1   
 34  18  21  ar  
 35  18  38  1   
 36  19  22  2   
 37  19  23  1   
 38  20  24  ar  
 39  20  39  1   
 40  21  24  ar  
 41  21  40  1   
 42  23  25  1   
 43  23  41  1   
 44  23  42  1   
 45  24  43  1   
 46  25  44  1   
 47  25  45  1   
 48  25  46  1   
@<TRIPOS>SUBSTRUCTURE
  1 ****   3 GROUP 4 **** **** 0

# MOE 2024.06 (io_trps.svl 2023.06)
