@<TRIPOS>MOLECULE
NONAME
28 27 1 0 0 
SMALL
USER_CHARGES


@<TRIPOS>ATOM
  1 F        0.4820    -0.1380    -0.3190 F     1 <1>  -0.3400 
  2 C        0.7470     0.8150    -1.2040 C.3   1 <1>   1.0200 
  3 F        1.6420     0.2890    -2.0290 F     1 <1>  -0.3400 
  4 F       -0.3520     0.9710    -1.9270 F     1 <1>  -0.3400 
  5 C        1.2710     2.1090    -0.5610 C.3   1 <1>   0.2200 
  6 N        2.6270     1.9510     0.1390 N.am  1 <1>  -0.7300 
  7 C        0.1710     2.6960     0.3360 C.3   1 <1>   1.0200 
  8 C        3.7460     2.6000    -0.2320 C.2   1 <1>   0.7800 
  9 F        0.5540     3.8420     0.8820 F     1 <1>  -0.3400 
 10 F       -0.9630     2.9670    -0.2960 F     1 <1>  -0.3400 
 11 F       -0.1470     1.9100     1.3570 F     1 <1>  -0.3400 
 12 O        3.7490     3.3690    -1.1680 O.2   1 <1>  -0.5700 
 13 O        4.8260     2.3380     0.4930 O.3   1 <1>  -0.4300 
 14 C        6.1180     2.8810     0.3160 C.3   1 <1>   0.2800 
 15 C        6.0850     4.4000     0.5170 C.3   1 <1>  -0.2400 
 16 C        6.6760     2.4840    -1.0560 C.3   1 <1>  -0.2400 
 17 C        6.9740     2.2440     1.4120 C.3   1 <1>  -0.2400 
 18 H        1.3950     2.8070    -1.3680 H     1 <1>   0.0800 
 19 H        2.7000     1.3170     0.9390 H     1 <1>   0.3700 
 20 H        7.0870     4.7910     0.5170 H     1 <1>   0.0800 
 21 H        5.6260     4.6440     1.4580 H     1 <1>   0.0800 
 22 H        5.5490     4.8870    -0.2760 H     1 <1>   0.0800 
 23 H        6.1390     2.9700    -1.8490 H     1 <1>   0.0800 
 24 H        6.6190     1.4190    -1.1900 H     1 <1>   0.0800 
 25 H        7.7050     2.7820    -1.1320 H     1 <1>   0.0800 
 26 H        6.5820     2.4920     2.3830 H     1 <1>   0.0800 
 27 H        7.9850     2.6040     1.3530 H     1 <1>   0.0800 
 28 H        6.9880     1.1750     1.3020 H     1 <1>   0.0800 
@<TRIPOS>BOND
  1   1   2  1   
  2   2   3  1   
  3   2   4  1   
  4   2   5  1   
  5   5   6  1   
  6   5   7  1   
  7   5  18  1   
  8   6   8  am  
  9   6  19  1   
 10   7   9  1   
 11   7  10  1   
 12   7  11  1   
 13   8  12  2   
 14   8  13  1   
 15  13  14  1   
 16  14  15  1   
 17  14  16  1   
 18  14  17  1   
 19  15  20  1   
 20  15  21  1   
 21  15  22  1   
 22  16  23  1   
 23  16  24  1   
 24  16  25  1   
 25  17  26  1   
 26  17  27  1   
 27  17  28  1   
@<TRIPOS>SUBSTRUCTURE
  1 ****   6 GROUP 4 **** **** 0

# MOE 2024.06 (io_trps.svl 2023.06)
