@<TRIPOS>MOLECULE
NONAME
47 50 1 0 0 
SMALL
USER_CHARGES


@<TRIPOS>ATOM
  1 S        0.4900     0.6420    -0.1120 S.3   1 <1>  -0.0800 
  2 C       -0.2420    -0.9340     0.1160 C.2   1 <1>   0.1040 
  3 C       -1.0700     1.4160    -0.3010 C.2   1 <1>  -0.1400 
  4 N        0.6680    -1.9600     0.3230 N.am  1 <1>  -0.4940 
  5 C       -1.6100    -0.8360     0.0840 C.2   1 <1>  -0.0860 
  6 C       -2.0590     0.5160    -0.1830 C.2   1 <1>  -0.1810 
  7 C       -1.0740     2.9080    -0.5550 C.3   1 <1>   0.0200 
  8 C        0.7090    -3.2400    -0.1620 C.2   1 <1>   0.5690 
  9 C       -2.5350    -1.9060     0.3430 C.2   1 <1>   0.7160 
 10 C       -3.5270     0.8990    -0.3330 C.3   1 <1>   0.0210 
 11 C       -1.9560     3.6480     0.4590 C.3   1 <1>  -0.1600 
 12 O       -0.0100    -3.5870    -1.0700 O.2   1 <1>  -0.5700 
 13 C        1.6040    -4.2890     0.5270 C.3   1 <1>  -0.0190 
 14 O       -3.3170    -1.8790     1.2740 O.2   1 <1>  -0.5700 
 15 N       -2.6070    -2.9850    -0.4560 N.am  1 <1>  -0.8000 
 16 C       -3.9420     1.9930     0.6600 C.3   1 <1>  -0.1600 
 17 C       -3.4650     3.4080     0.2830 C.3   1 <1>  -0.1600 
 18 C        3.2130    -3.8740     0.9010 C.3   1 <1>  -0.1860 
 19 C        1.6690    -5.7610    -0.2360 C.3   1 <1>   0.0580 
 20 C        3.6150    -2.4910     0.4300 C.2   1 <1>   0.9060 
 21 C        4.1740    -5.1080     0.3650 C.3   1 <1>   0.0580 
 22 C        2.7230    -6.9570    -0.5450 C.2   1 <1>  -0.2880 
 23 C        2.9110    -5.3920     0.0620 C.3   1 <1>  -0.1600 
 24 O        3.2500    -1.5450     1.1340 O.co2 1 <1>  -0.9000 
 25 O        4.1940    -2.3290    -0.6430 O.co2 1 <1>  -0.9000 
 26 C        4.0390    -6.6130    -0.2310 C.2   1 <1>  -0.2880 
 27 H        1.5780    -1.6400     0.7180 H     1 <1>   0.3700 
 28 H       -1.4130     3.0990    -1.5580 H     1 <1>   0.0800 
 29 H       -0.0670     3.2780    -0.4720 H     1 <1>   0.0800 
 30 H       -4.1600     0.0460    -0.1760 H     1 <1>   0.0800 
 31 H       -3.7020     1.2340    -1.3400 H     1 <1>   0.0800 
 32 H       -1.7700     4.7020     0.3520 H     1 <1>   0.0800 
 33 H       -1.6580     3.3690     1.4550 H     1 <1>   0.0800 
 34 H        1.1070    -4.4500     1.4710 H     1 <1>   0.0800 
 35 H       -3.1680    -3.7720    -0.1450 H     1 <1>   0.3700 
 36 H       -1.7740    -3.2250    -1.0120 H     1 <1>   0.3700 
 37 H       -3.5910     1.7330     1.6440 H     1 <1>   0.0800 
 38 H       -5.0170     2.0070     0.6990 H     1 <1>   0.0800 
 39 H       -3.7540     3.6320    -0.7290 H     1 <1>   0.0800 
 40 H       -3.9820     4.1050     0.9210 H     1 <1>   0.0800 
 41 H        3.3050    -3.8290     1.9740 H     1 <1>   0.0800 
 42 H        1.2780    -5.5790    -1.2270 H     1 <1>   0.0800 
 43 H        4.8290    -4.6460    -0.3610 H     1 <1>   0.0800 
 44 H        2.3460    -7.8790    -0.9550 H     1 <1>   0.1500 
 45 H        3.0270    -4.8740    -0.9760 H     1 <1>   0.0800 
 46 H        2.7670    -5.8610     1.1790 H     1 <1>   0.0800 
 47 H        4.9360    -7.2000    -0.3380 H     1 <1>   0.1500 
@<TRIPOS>BOND
  1   1   2  1   
  2   1   3  1   
  3   2   4  1   
  4   2   5  2   
  5   3   6  2   
  6   3   7  1   
  7   4   8  am  
  8   4  27  1   
  9   5   6  1   
 10   5   9  1   
 11   6  10  1   
 12   7  11  1   
 13   7  28  1   
 14   7  29  1   
 15   8  12  2   
 16   8  13  1   
 17   9  14  2   
 18   9  15  am  
 19  10  16  1   
 20  10  30  1   
 21  10  31  1   
 22  11  17  1   
 23  11  32  1   
 24  11  33  1   
 25  13  18  1   
 26  13  19  1   
 27  13  34  1   
 28  15  35  1   
 29  15  36  1   
 30  16  17  1   
 31  16  37  1   
 32  16  38  1   
 33  17  39  1   
 34  17  40  1   
 35  18  20  1   
 36  18  21  1   
 37  18  41  1   
 38  19  22  1   
 39  19  23  1   
 40  19  42  1   
 41  20  24  ar  
 42  20  25  ar  
 43  21  23  1   
 44  21  26  1   
 45  21  43  1   
 46  22  26  2   
 47  22  44  1   
 48  23  45  1   
 49  23  46  1   
 50  26  47  1   
@<TRIPOS>SUBSTRUCTURE
  1 ****   4 GROUP 4 **** **** 0

# MOE 2024.06 (io_trps.svl 2023.06)
