@<TRIPOS>MOLECULE
NONAME
29 30 1 0 0 
SMALL
USER_CHARGES


@<TRIPOS>ATOM
  1 I        1.7330     0.5460    -2.9860 I     1 <1>  -0.0280 
  2 C        2.8620    -0.5530    -1.5650 C.2   1 <1>   0.1680 
  3 O        3.7880     0.0850    -0.8960 O.3   1 <1>  -0.2800 
  4 C        2.7660    -1.8550    -1.2380 C.2   1 <1>  -0.1500 
  5 C        4.3530    -0.8000    -0.0810 C.2   1 <1>   0.0950 
  6 C        3.7470    -2.0170    -0.2580 C.2   1 <1>  -0.1500 
  7 C        5.4100    -0.3550     0.7680 C.2   1 <1>  -0.1050 
  8 C        6.2750    -1.0940     1.5130 C.2   1 <1>   0.0790 
  9 C        7.2630    -0.4740     2.3310 C.1   1 <1>   0.4920 
 10 C        6.3250    -2.5250     1.5600 C.2   1 <1>   0.6160 
 11 N        8.0670     0.0610     2.9370 N.1   1 <1>  -0.5570 
 12 O        5.9820    -3.0940     2.5780 O.2   1 <1>  -0.5700 
 13 N        6.7370    -3.2790     0.4790 N.am  1 <1>  -0.6600 
 14 C        7.2340    -2.7170    -0.8160 C.3   1 <1>   0.1400 
 15 C        6.7690    -4.7760     0.5190 C.3   1 <1>   0.1400 
 16 C        8.5650    -3.3730    -1.2200 C.3   1 <1>   0.1200 
 17 C        8.1270    -5.3060     0.0340 C.3   1 <1>   0.1200 
 18 O        8.4480    -4.7660    -1.2170 O.3   1 <1>  -0.5600 
 19 H        2.1010    -2.6070    -1.6230 H     1 <1>   0.1500 
 20 H        3.9550    -2.9420     0.2500 H     1 <1>   0.1500 
 21 H        5.5010     0.7180     0.7940 H     1 <1>   0.1500 
 22 H        6.5040    -2.9050    -1.5850 H     1 <1>   0.0800 
 23 H        7.3770    -1.6540    -0.7480 H     1 <1>   0.0800 
 24 H        6.5880    -5.1380     1.5160 H     1 <1>   0.0800 
 25 H        5.9930    -5.1630    -0.1170 H     1 <1>   0.0800 
 26 H        9.3510    -3.0910    -0.5420 H     1 <1>   0.0800 
 27 H        8.8410    -3.0700    -2.2150 H     1 <1>   0.0800 
 28 H        8.0930    -6.3760    -0.0680 H     1 <1>   0.0800 
 29 H        8.9050    -5.0500     0.7330 H     1 <1>   0.0800 
@<TRIPOS>BOND
  1   1   2  1   
  2   2   3  1   
  3   2   4  2   
  4   3   5  1   
  5   4   6  1   
  6   4  19  1   
  7   5   6  2   
  8   5   7  1   
  9   6  20  1   
 10   7   8  2   
 11   7  21  1   
 12   8   9  1   
 13   8  10  1   
 14   9  11  3   
 15  10  12  2   
 16  10  13  am  
 17  13  14  1   
 18  13  15  1   
 19  14  16  1   
 20  14  22  1   
 21  14  23  1   
 22  15  17  1   
 23  15  24  1   
 24  15  25  1   
 25  16  18  1   
 26  16  26  1   
 27  16  27  1   
 28  17  18  1   
 29  17  28  1   
 30  17  29  1   
@<TRIPOS>SUBSTRUCTURE
  1 ****  10 GROUP 4 **** **** 0

# MOE 2024.06 (io_trps.svl 2023.06)
