@<TRIPOS>MOLECULE
NONAME
45 46 1 0 0 
SMALL
USER_CHARGES


@<TRIPOS>ATOM
  1 O        1.7140     3.4800    -0.5000 O.2   1 <1>  -0.5700 
  2 C        0.7460     2.7940    -0.2700 C.2   1 <1>   0.5690 
  3 N        0.6980     1.9070     0.7680 N.am  1 <1>  -0.7300 
  4 C       -0.4600     2.9140    -1.1900 C.3   1 <1>   0.0440 
  5 C        1.5690     1.7120     1.9600 C.3   1 <1>   0.1400 
  6 C       -1.5740     1.9350    -0.8320 C.ar  1 <1>  -0.1430 
  7 C        3.0160     2.1780     1.7710 C.3   1 <1>  -0.1600 
  8 C       -2.5510     2.2910     0.0840 C.ar  1 <1>  -0.1500 
  9 C       -1.6050     0.6710    -1.4000 C.ar  1 <1>  -0.1500 
 10 C        3.6790     1.4840     0.5790 C.3   1 <1>   0.3430 
 11 C       -3.5440     1.3920     0.4320 C.ar  1 <1>  -0.1500 
 12 C       -2.5980    -0.2270    -1.0510 C.ar  1 <1>  -0.1500 
 13 N        4.9470     2.1760     0.2170 N.4   1 <1>  -0.9590 
 14 C       -3.5730     0.1280    -0.1330 C.ar  1 <1>  -0.1430 
 15 C        4.6530     3.4380    -0.5550 C.3   1 <1>   0.3430 
 16 C        5.8440     1.2860    -0.5930 C.3   1 <1>   0.3430 
 17 C       -4.6620    -0.8580     0.2490 C.3   1 <1>  -0.0970 
 18 C        5.9430     4.1060    -1.0690 C.3   1 <1>   0.1200 
 19 C        7.0920     2.0440    -1.0860 C.3   1 <1>   0.1200 
 20 O        6.7160     3.1900    -1.7930 O.3   1 <1>  -0.5600 
 21 H       -0.1950     1.3960     0.8340 H     1 <1>   0.3700 
 22 H       -0.1390     2.7460    -2.2010 H     1 <1>   0.0800 
 23 H       -0.8310     3.9210    -1.1330 H     1 <1>   0.0800 
 24 H        1.5660     0.6640     2.2120 H     1 <1>   0.0800 
 25 H        1.1320     2.2440     2.7900 H     1 <1>   0.0800 
 26 H        3.5670     1.9490     2.6650 H     1 <1>   0.0800 
 27 H        3.0080     3.2470     1.6560 H     1 <1>   0.0800 
 28 H       -2.5480     3.2690     0.5350 H     1 <1>   0.1500 
 29 H       -0.8600     0.3750    -2.1170 H     1 <1>   0.1500 
 30 H        3.0110     1.4940    -0.2670 H     1 <1>   0.0800 
 31 H        3.8740     0.4560     0.8370 H     1 <1>   0.0800 
 32 H       -4.2970     1.6810     1.1450 H     1 <1>   0.1500 
 33 H       -2.6110    -1.2060    -1.4990 H     1 <1>   0.1500 
 34 H        5.4400     2.4390     1.0780 H     1 <1>   0.4500 
 35 H        4.1090     4.1350     0.0610 H     1 <1>   0.0800 
 36 H        4.0270     3.2080    -1.4030 H     1 <1>   0.0800 
 37 H        5.3110     0.9170    -1.4530 H     1 <1>   0.0800 
 38 H        6.1520     0.4370    -0.0040 H     1 <1>   0.0800 
 39 H       -5.5680    -0.3370     0.5020 H     1 <1>   0.0800 
 40 H       -4.3480    -1.4390     1.0970 H     1 <1>   0.0800 
 41 H       -4.8720    -1.5220    -0.5700 H     1 <1>   0.0800 
 42 H        6.5310     4.4900    -0.2540 H     1 <1>   0.0800 
 43 H        5.6980     4.9200    -1.7280 H     1 <1>   0.0800 
 44 H        7.6630     1.4230    -1.7550 H     1 <1>   0.0800 
 45 H        7.7240     2.3340    -0.2640 H     1 <1>   0.0800 
@<TRIPOS>BOND
  1   1   2  2   
  2   2   3  am  
  3   2   4  1   
  4   3   5  1   
  5   3  21  1   
  6   4   6  1   
  7   4  22  1   
  8   4  23  1   
  9   5   7  1   
 10   5  24  1   
 11   5  25  1   
 12   6   8  ar  
 13   6   9  ar  
 14   7  10  1   
 15   7  26  1   
 16   7  27  1   
 17   8  11  ar  
 18   8  28  1   
 19   9  12  ar  
 20   9  29  1   
 21  10  13  1   
 22  10  30  1   
 23  10  31  1   
 24  11  14  ar  
 25  11  32  1   
 26  12  14  ar  
 27  12  33  1   
 28  13  15  1   
 29  13  16  1   
 30  13  34  1   
 31  14  17  1   
 32  15  18  1   
 33  15  35  1   
 34  15  36  1   
 35  16  19  1   
 36  16  37  1   
 37  16  38  1   
 38  17  39  1   
 39  17  40  1   
 40  17  41  1   
 41  18  20  1   
 42  18  42  1   
 43  18  43  1   
 44  19  20  1   
 45  19  44  1   
 46  19  45  1   
@<TRIPOS>SUBSTRUCTURE
  1 ****   2 GROUP 4 **** **** 0

# MOE 2024.06 (io_trps.svl 2023.06)
