@<TRIPOS>MOLECULE
NONAME
51 53 1 0 0 
SMALL
USER_CHARGES


@<TRIPOS>ATOM
  1 S        0.5050     0.1460    -0.2680 S.3   1 <1>  -0.0800 
  2 C        1.8950    -0.8460    -0.5660 C.2   1 <1>   0.4420 
  3 C       -0.4400    -1.0570    -1.0760 C.2   1 <1>   0.1980 
  4 N        1.5950    -1.9230    -1.1940 N.2   1 <1>  -0.3380 
  5 N        3.1030    -0.3730    -0.0950 N.am  1 <1>  -0.4940 
  6 N        0.2620    -2.0370    -1.4820 N.2   1 <1>  -0.3380 
  7 C       -1.9350    -0.8060    -1.1980 C.3   1 <1>   0.0200 
  8 C        4.3550    -0.9010    -0.2630 C.2   1 <1>   0.5690 
  9 C       -2.6750    -1.9350    -1.9280 C.3   1 <1>  -0.2400 
 10 O        4.5700    -1.8550    -0.9700 O.2   1 <1>  -0.5700 
 11 C        5.5180    -0.2270     0.4960 C.3   1 <1>   0.1710 
 12 N        6.8150    -0.9660     0.5030 N.3   1 <1>  -0.8100 
 13 C        7.9610    -0.1720     1.0020 C.3   1 <1>   0.1100 
 14 C        6.7470    -2.2840     1.1840 C.3   1 <1>   0.1100 
 15 C        9.2860    -0.9780     0.9590 C.3   1 <1>   0.3430 
 16 C        8.0260    -3.1170     0.9310 C.3   1 <1>   0.3430 
 17 N        9.0840    -2.2930     0.2610 N.4   1 <1>  -0.9590 
 18 C       10.3360    -3.0310    -0.0470 C.3   1 <1>   0.4860 
 19 C       11.2700    -2.1140    -0.8170 C.ar  1 <1>  -0.1440 
 20 C       12.4400    -1.6170    -0.2480 C.ar  1 <1>  -0.1440 
 21 C       10.9340    -1.7600    -2.1180 C.ar  1 <1>  -0.1500 
 22 C       13.2440    -0.7620    -0.9870 C.ar  1 <1>  -0.1500 
 23 C       12.8800    -1.9870     1.1630 C.3   1 <1>  -0.0970 
 24 C       11.7430    -0.9070    -2.8450 C.ar  1 <1>  -0.1500 
 25 C       12.8980    -0.4060    -2.2770 C.ar  1 <1>  -0.1500 
 26 H        3.0310     0.4860     0.4410 H     1 <1>   0.3700 
 27 H       -2.0870     0.1170    -1.7290 H     1 <1>   0.0800 
 28 H       -2.3470    -0.6950    -0.2110 H     1 <1>   0.0800 
 29 H       -2.2850    -2.0500    -2.9250 H     1 <1>   0.0800 
 30 H       -3.7250    -1.7140    -1.9900 H     1 <1>   0.0800 
 31 H       -2.5470    -2.8650    -1.4020 H     1 <1>   0.0800 
 32 H        5.2090    -0.0560     1.5120 H     1 <1>   0.0800 
 33 H        5.6780     0.7300     0.0330 H     1 <1>   0.0800 
 34 H        7.7760     0.1550     2.0120 H     1 <1>   0.0800 
 35 H        8.0750     0.7070     0.3910 H     1 <1>   0.0800 
 36 H        5.9040    -2.8520     0.8300 H     1 <1>   0.0800 
 37 H        6.6140    -2.1410     2.2430 H     1 <1>   0.0800 
 38 H        9.6360    -1.1460     1.9640 H     1 <1>   0.0800 
 39 H       10.0320    -0.3930     0.4450 H     1 <1>   0.0800 
 40 H        7.7690    -3.9550     0.3040 H     1 <1>   0.0800 
 41 H        8.3890    -3.5050     1.8690 H     1 <1>   0.0800 
 42 H        8.6450    -2.0100    -0.6290 H     1 <1>   0.4500 
 43 H       10.1150    -3.8970    -0.6480 H     1 <1>   0.0800 
 44 H       10.8050    -3.3600     0.8640 H     1 <1>   0.0800 
 45 H       10.0410    -2.1420    -2.5840 H     1 <1>   0.1500 
 46 H       14.1530    -0.3660    -0.5670 H     1 <1>   0.1500 
 47 H       12.1350    -1.7030     1.8820 H     1 <1>   0.0800 
 48 H       13.7960    -1.4860     1.4220 H     1 <1>   0.0800 
 49 H       13.0560    -3.0460     1.2310 H     1 <1>   0.0800 
 50 H       11.4780    -0.6330    -3.8520 H     1 <1>   0.1500 
 51 H       13.5310     0.2580    -2.8410 H     1 <1>   0.1500 
@<TRIPOS>BOND
  1   1   2  1   
  2   1   3  1   
  3   2   4  2   
  4   2   5  1   
  5   3   6  2   
  6   3   7  1   
  7   4   6  1   
  8   5   8  am  
  9   5  26  1   
 10   7   9  1   
 11   7  27  1   
 12   7  28  1   
 13   8  10  2   
 14   8  11  1   
 15   9  29  1   
 16   9  30  1   
 17   9  31  1   
 18  11  12  1   
 19  11  32  1   
 20  11  33  1   
 21  12  13  1   
 22  12  14  1   
 23  13  15  1   
 24  13  34  1   
 25  13  35  1   
 26  14  16  1   
 27  14  36  1   
 28  14  37  1   
 29  15  17  1   
 30  15  38  1   
 31  15  39  1   
 32  16  17  1   
 33  16  40  1   
 34  16  41  1   
 35  17  18  1   
 36  17  42  1   
 37  18  19  1   
 38  18  43  1   
 39  18  44  1   
 40  19  20  ar  
 41  19  21  ar  
 42  20  22  ar  
 43  20  23  1   
 44  21  24  ar  
 45  21  45  1   
 46  22  25  ar  
 47  22  46  1   
 48  23  47  1   
 49  23  48  1   
 50  23  49  1   
 51  24  25  ar  
 52  24  50  1   
 53  25  51  1   
@<TRIPOS>SUBSTRUCTURE
  1 ****  12 GROUP 4 **** **** 0

# MOE 2024.06 (io_trps.svl 2023.06)
