@<TRIPOS>MOLECULE
NONAME
55 57 1 0 0 
SMALL
USER_CHARGES


@<TRIPOS>ATOM
  1 CL       0.4680     0.0960     0.7940 Cl    1 <1>  -0.1770 
  2 C        2.1760     0.4280     0.6710 C.ar  1 <1>   0.1770 
  3 C        2.6110     1.4490    -0.1510 C.ar  1 <1>  -0.1500 
  4 C        3.0700    -0.3340     1.3970 C.ar  1 <1>  -0.1500 
  5 C        3.9670     1.7110    -0.2470 C.ar  1 <1>  -0.1500 
  6 C        4.4250    -0.0670     1.2970 C.ar  1 <1>  -0.1500 
  7 C        4.8850     0.9560     0.4760 C.ar  1 <1>  -0.1430 
  8 C        6.3850     1.2280     0.3850 C.3   1 <1>   0.0640 
  9 C        6.7280     2.6360     0.8730 C.3   1 <1>  -0.0990 
 10 C        6.9040     1.0360    -1.0400 C.3   1 <1>  -0.0990 
 11 C        8.2090     2.9320     0.7310 C.2   1 <1>   0.4950 
 12 C        8.3890     1.3350    -1.1400 C.2   1 <1>   0.4950 
 13 O        8.6600     3.7220     1.5270 O.2   1 <1>  -0.5700 
 14 C        9.0050     2.3140    -0.2870 C.2   1 <1>   0.0290 
 15 O        8.9830     0.6950    -1.9810 O.2   1 <1>  -0.5700 
 16 C       10.3330     2.6740    -0.4110 C.2   1 <1>  -0.0500 
 17 N       11.2090     2.1860    -1.3230 N.pl3 1 <1>  -0.8690 
 18 C       12.6250     2.5760    -1.4770 C.3   1 <1>   0.2090 
 19 C       13.5210     1.4740    -0.8850 C.3   1 <1>   0.3430 
 20 N       14.9920     1.7810    -0.9590 N.4   1 <1>  -0.9590 
 21 C       15.7930     0.5560    -0.5950 C.3   1 <1>   0.3430 
 22 C       15.3680     2.9460    -0.0720 C.3   1 <1>   0.3430 
 23 C       17.3150     0.8110    -0.6160 C.3   1 <1>   0.1400 
 24 C       16.8790     3.2340    -0.1130 C.3   1 <1>   0.1400 
 25 N       17.6610     2.0010     0.2180 N.am  1 <1>  -0.6600 
 26 C       18.5350     1.9990     1.2760 C.2   1 <1>   0.5690 
 27 O       18.6000     2.9320     2.0350 O.2   1 <1>  -0.5700 
 28 C       19.4390     0.8170     1.5390 C.3   1 <1>  -0.1790 
 29 H        1.8940     2.0280    -0.7060 H     1 <1>   0.1500 
 30 H        2.7060    -1.1230     2.0300 H     1 <1>   0.1500 
 31 H        4.2940     2.5090    -0.8900 H     1 <1>   0.1500 
 32 H        5.1150    -0.6660     1.8670 H     1 <1>   0.1500 
 33 H        6.9010     0.5260     1.0200 H     1 <1>   0.0800 
 34 H        6.4480     2.7270     1.9080 H     1 <1>   0.0800 
 35 H        6.1820     3.3770     0.3200 H     1 <1>   0.0800 
 36 H        6.3840     1.6770    -1.7270 H     1 <1>   0.0800 
 37 H        6.7280     0.0190    -1.3430 H     1 <1>   0.0800 
 38 H       10.7200     3.4160     0.2740 H     1 <1>   0.1500 
 39 H       10.8370     1.4940    -2.0090 H     1 <1>   0.4000 
 40 H       12.7830     3.5060    -0.9620 H     1 <1>   0.0800 
 41 H       12.8360     2.7120    -2.5240 H     1 <1>   0.0800 
 42 H       13.3200     0.5620    -1.4220 H     1 <1>   0.0800 
 43 H       13.2370     1.3230     0.1440 H     1 <1>   0.0800 
 44 H       15.2310     2.0290    -1.9290 H     1 <1>   0.4500 
 45 H       15.5630    -0.2470    -1.2770 H     1 <1>   0.0800 
 46 H       15.5200     0.2310     0.3960 H     1 <1>   0.0800 
 47 H       15.0940     2.7320     0.9480 H     1 <1>   0.0800 
 48 H       14.8380     3.8330    -0.3770 H     1 <1>   0.0800 
 49 H       17.6430     0.9810    -1.6280 H     1 <1>   0.0800 
 50 H       17.8180    -0.0690    -0.2560 H     1 <1>   0.0800 
 51 H       17.1000     4.0260     0.5810 H     1 <1>   0.0800 
 52 H       17.1600     3.5800    -1.0920 H     1 <1>   0.0800 
 53 H       19.9660     0.5460     0.6440 H     1 <1>   0.0800 
 54 H       18.8640    -0.0150     1.8960 H     1 <1>   0.0800 
 55 H       20.1620     1.0800     2.2910 H     1 <1>   0.0800 
@<TRIPOS>BOND
  1   1   2  1   
  2   2   3  ar  
  3   2   4  ar  
  4   3   5  ar  
  5   3  29  1   
  6   4   6  ar  
  7   4  30  1   
  8   5   7  ar  
  9   5  31  1   
 10   6   7  ar  
 11   6  32  1   
 12   7   8  1   
 13   8   9  1   
 14   8  10  1   
 15   8  33  1   
 16   9  11  1   
 17   9  34  1   
 18   9  35  1   
 19  10  12  1   
 20  10  36  1   
 21  10  37  1   
 22  11  13  2   
 23  11  14  1   
 24  12  14  1   
 25  12  15  2   
 26  14  16  2   
 27  16  17  1   
 28  16  38  1   
 29  17  18  1   
 30  17  39  1   
 31  18  19  1   
 32  18  40  1   
 33  18  41  1   
 34  19  20  1   
 35  19  42  1   
 36  19  43  1   
 37  20  21  1   
 38  20  22  1   
 39  20  44  1   
 40  21  23  1   
 41  21  45  1   
 42  21  46  1   
 43  22  24  1   
 44  22  47  1   
 45  22  48  1   
 46  23  25  1   
 47  23  49  1   
 48  23  50  1   
 49  24  25  1   
 50  24  51  1   
 51  24  52  1   
 52  25  26  am  
 53  26  27  2   
 54  26  28  1   
 55  28  53  1   
 56  28  54  1   
 57  28  55  1   
@<TRIPOS>SUBSTRUCTURE
  1 ****  16 GROUP 4 **** **** 0

# MOE 2024.06 (io_trps.svl 2023.06)
