@<TRIPOS>MOLECULE
NONAME
50 52 1 0 0 
SMALL
USER_CHARGES


@<TRIPOS>ATOM
  1 S        0.1970    -0.3090     0.6460 S.o2  1 <1>   1.4470 
  2 O        0.3420    -0.7240     2.0240 O.2   1 <1>  -0.6500 
  3 O       -1.0330     0.3230     0.2160 O.2   1 <1>  -0.6500 
  4 N        0.3970    -1.7000    -0.2990 N.am  1 <1>  -0.8490 
  5 C        1.6280     0.6980     0.1670 C.ar  1 <1>  -0.0090 
  6 C        0.1100    -1.5240    -1.7130 C.3   1 <1>   0.1960 
  7 C       -0.4500    -2.7980     0.1310 C.3   1 <1>   0.1960 
  8 C        2.9150     0.2890     0.4790 C.ar  1 <1>  -0.1500 
  9 C        1.4800     1.8850    -0.5360 C.ar  1 <1>  -0.1500 
 10 C       -0.0170    -2.9440    -2.2470 C.3   1 <1>  -0.1600 
 11 C       -0.4290    -3.7800    -1.0350 C.3   1 <1>  -0.1600 
 12 C        4.0510     1.0100     0.1130 C.ar  1 <1>   0.0860 
 13 C        2.5830     2.6280    -0.9130 C.ar  1 <1>  -0.1500 
 14 C        3.8620     2.2020    -0.5990 C.ar  1 <1>  -0.1430 
 15 C        5.3610     0.4940     0.4720 C.2   1 <1>   0.5440 
 16 C        5.0470     3.0510    -1.0420 C.3   1 <1>  -0.0960 
 17 O        6.1830     1.1870     1.0370 O.2   1 <1>  -0.5700 
 18 N        5.6760    -0.8010     0.1740 N.am  1 <1>  -0.7300 
 19 C        6.9400    -1.4770     0.5070 C.3   1 <1>   0.2200 
 20 C        7.6810    -1.8110    -0.7920 C.3   1 <1>  -0.1600 
 21 C        6.6250    -2.7440     1.3100 C.3   1 <1>  -0.1600 
 22 C        8.9580    -2.6160    -0.5100 C.3   1 <1>  -0.1600 
 23 C        7.9000    -3.5510     1.5950 C.3   1 <1>  -0.1600 
 24 C        8.6490    -3.8840     0.2970 C.3   1 <1>  -0.1600 
 25 H        0.8960    -0.9760    -2.2060 H     1 <1>   0.0800 
 26 H       -0.8280    -1.0080    -1.8460 H     1 <1>   0.0800 
 27 H       -1.4560    -2.4430     0.2940 H     1 <1>   0.0800 
 28 H       -0.0760    -3.2400     1.0410 H     1 <1>   0.0800 
 29 H        3.0390    -0.6260     1.0350 H     1 <1>   0.1500 
 30 H        0.4920     2.2330    -0.7900 H     1 <1>   0.1500 
 31 H        0.9370    -3.2750    -2.6200 H     1 <1>   0.0800 
 32 H       -0.7420    -2.9940    -3.0410 H     1 <1>   0.0800 
 33 H       -1.3960    -4.2320    -1.1650 H     1 <1>   0.0800 
 34 H        0.2980    -4.5520    -0.8480 H     1 <1>   0.0800 
 35 H        2.4350     3.5470    -1.4550 H     1 <1>   0.1500 
 36 H        5.7790     2.4410    -1.5400 H     1 <1>   0.0800 
 37 H        5.5090     3.5070    -0.1840 H     1 <1>   0.0800 
 38 H        4.7410     3.8290    -1.7180 H     1 <1>   0.0800 
 39 H        5.0090    -1.3690    -0.3450 H     1 <1>   0.3700 
 40 H        7.5570    -0.8270     1.1060 H     1 <1>   0.0800 
 41 H        7.9410    -0.8960    -1.2940 H     1 <1>   0.0800 
 42 H        7.0390    -2.3860    -1.4360 H     1 <1>   0.0800 
 43 H        5.9380    -3.3600     0.7580 H     1 <1>   0.0800 
 44 H        6.1650    -2.4660     2.2420 H     1 <1>   0.0800 
 45 H        9.6500    -2.0020     0.0420 H     1 <1>   0.0800 
 46 H        9.4280    -2.8850    -1.4410 H     1 <1>   0.0800 
 47 H        7.6450    -4.4610     2.1100 H     1 <1>   0.0800 
 48 H        8.5450    -2.9780     2.2400 H     1 <1>   0.0800 
 49 H        9.5680    -4.3940     0.5320 H     1 <1>   0.0800 
 50 H        8.0480    -4.5490    -0.3000 H     1 <1>   0.0800 
@<TRIPOS>BOND
  1   1   2  2   
  2   1   3  2   
  3   1   4  am  
  4   1   5  1   
  5   4   6  1   
  6   4   7  1   
  7   5   8  ar  
  8   5   9  ar  
  9   6  10  1   
 10   6  25  1   
 11   6  26  1   
 12   7  11  1   
 13   7  27  1   
 14   7  28  1   
 15   8  12  ar  
 16   8  29  1   
 17   9  13  ar  
 18   9  30  1   
 19  10  11  1   
 20  10  31  1   
 21  10  32  1   
 22  11  33  1   
 23  11  34  1   
 24  12  14  ar  
 25  12  15  1   
 26  13  14  ar  
 27  13  35  1   
 28  14  16  1   
 29  15  17  2   
 30  15  18  am  
 31  16  36  1   
 32  16  37  1   
 33  16  38  1   
 34  18  19  1   
 35  18  39  1   
 36  19  20  1   
 37  19  21  1   
 38  19  40  1   
 39  20  22  1   
 40  20  41  1   
 41  20  42  1   
 42  21  23  1   
 43  21  43  1   
 44  21  44  1   
 45  22  24  1   
 46  22  45  1   
 47  22  46  1   
 48  23  24  1   
 49  23  47  1   
 50  23  48  1   
 51  24  49  1   
 52  24  50  1   
@<TRIPOS>SUBSTRUCTURE
  1 ****   8 GROUP 4 **** **** 0

# MOE 2024.06 (io_trps.svl 2023.06)
