@<TRIPOS>MOLECULE
NONAME
42 44 1 0 0 
SMALL
USER_CHARGES


@<TRIPOS>ATOM
  1 F        0.1520     0.8860     2.0720 F     1 <1>  -0.1900 
  2 C       -0.7150     0.0680     1.5250 C.ar  1 <1>   0.1900 
  3 C       -1.5650     0.5550     0.5280 C.ar  1 <1>   0.1170 
  4 C       -0.7350    -1.2390     1.9700 C.ar  1 <1>  -0.1500 
  5 N       -1.4810     1.9030     0.1320 N.am  1 <1>  -0.5470 
  6 C       -2.4760    -0.3430    -0.0290 C.ar  1 <1>  -0.1500 
  7 C       -1.6530    -2.0860     1.3840 C.ar  1 <1>   0.1900 
  8 C       -1.9630     2.5960    -0.9420 C.2   1 <1>   0.5690 
  9 C       -2.5230    -1.6640     0.3940 C.ar  1 <1>  -0.1500 
 10 F       -1.7020    -3.3310     1.7780 F     1 <1>  -0.1900 
 11 O       -2.6340     2.1080    -1.8190 O.2   1 <1>  -0.5700 
 12 C       -1.6050     4.0820    -1.0120 C.3   1 <1>   0.1710 
 13 N       -0.4110     4.4520    -0.1940 N.3   1 <1>  -0.8100 
 14 C       -0.3560     5.9170     0.0250 C.3   1 <1>   0.1100 
 15 C        0.8480     4.0040    -0.8480 C.3   1 <1>   0.1100 
 16 C        0.8760     6.3390     0.8500 C.3   1 <1>   0.2090 
 17 C        2.1000     4.3940    -0.0390 C.3   1 <1>   0.2090 
 18 N        2.1330     5.8660     0.2100 N.pl3 1 <1>  -0.8380 
 19 C        3.3110     6.4230     0.6700 C.ar  1 <1>   0.4100 
 20 N        4.0910     5.6670     1.4350 N.ar  1 <1>  -0.6200 
 21 C        3.6230     7.7360     0.3270 C.ar  1 <1>  -0.1500 
 22 C        5.2020     6.2370     1.8690 C.ar  1 <1>   0.1600 
 23 C        4.7810     8.3180     0.7860 C.ar  1 <1>  -0.1500 
 24 C        5.5900     7.5340     1.5830 C.ar  1 <1>  -0.1500 
 25 H       -0.0670    -1.5820     2.7380 H     1 <1>   0.1500 
 26 H       -0.8680     2.4960     0.7070 H     1 <1>   0.3700 
 27 H       -3.1560    -0.0170    -0.7950 H     1 <1>   0.1500 
 28 H       -3.2250    -2.3570    -0.0360 H     1 <1>   0.1500 
 29 H       -2.4610     4.6250    -0.6550 H     1 <1>   0.0800 
 30 H       -1.4470     4.3560    -2.0400 H     1 <1>   0.0800 
 31 H       -1.2420     6.2330     0.5470 H     1 <1>   0.0800 
 32 H       -0.3240     6.4270    -0.9230 H     1 <1>   0.0800 
 33 H        0.9280     4.4440    -1.8270 H     1 <1>   0.0800 
 34 H        0.8390     2.9350    -0.9660 H     1 <1>   0.0800 
 35 H        0.8030     5.9210     1.8400 H     1 <1>   0.0800 
 36 H        0.8960     7.4110     0.9410 H     1 <1>   0.0800 
 37 H        2.9840     4.1050    -0.5800 H     1 <1>   0.0800 
 38 H        2.0970     3.8710     0.9010 H     1 <1>   0.0800 
 39 H        2.9460     8.2770    -0.3040 H     1 <1>   0.1500 
 40 H        5.8410     5.6350     2.4910 H     1 <1>   0.1500 
 41 H        5.0460     9.3300     0.5350 H     1 <1>   0.1500 
 42 H        6.5110     7.9240     1.9770 H     1 <1>   0.1500 
@<TRIPOS>BOND
  1   1   2  1   
  2   2   3  ar  
  3   2   4  ar  
  4   3   5  1   
  5   3   6  ar  
  6   4   7  ar  
  7   4  25  1   
  8   5   8  am  
  9   5  26  1   
 10   6   9  ar  
 11   6  27  1   
 12   7   9  ar  
 13   7  10  1   
 14   8  11  2   
 15   8  12  1   
 16   9  28  1   
 17  12  13  1   
 18  12  29  1   
 19  12  30  1   
 20  13  14  1   
 21  13  15  1   
 22  14  16  1   
 23  14  31  1   
 24  14  32  1   
 25  15  17  1   
 26  15  33  1   
 27  15  34  1   
 28  16  18  1   
 29  16  35  1   
 30  16  36  1   
 31  17  18  1   
 32  17  37  1   
 33  17  38  1   
 34  18  19  1   
 35  19  20  ar  
 36  19  21  ar  
 37  20  22  ar  
 38  21  23  ar  
 39  21  39  1   
 40  22  24  ar  
 41  22  40  1   
 42  23  24  ar  
 43  23  41  1   
 44  24  42  1   
@<TRIPOS>SUBSTRUCTURE
  1 ****  15 GROUP 4 **** **** 0

# MOE 2024.06 (io_trps.svl 2023.06)
