@<TRIPOS>MOLECULE
NONAME
42 44 1 0 0 
SMALL
USER_CHARGES


@<TRIPOS>ATOM
  1 BR       0.2660     0.0940     0.8750 Br    1 <1>  -0.1110 
  2 C        0.7690     1.9070     0.4770 C.ar  1 <1>   0.1110 
  3 C       -0.1720     2.9070     0.6140 C.ar  1 <1>  -0.1500 
  4 C        2.0580     2.1670     0.0620 C.ar  1 <1>  -0.1500 
  5 C        0.1930     4.2110     0.3270 C.ar  1 <1>  -0.1500 
  6 C        2.4110     3.4750    -0.2220 C.ar  1 <1>  -0.1500 
  7 C        1.4890     4.5160    -0.0930 C.ar  1 <1>  -0.1430 
  8 C        1.9350     5.9470    -0.4250 C.3   1 <1>   0.4240 
  9 O        3.0950     6.1710     0.2910 O.3   1 <1>  -0.6800 
 10 C        2.2800     6.0860    -1.9170 C.3   1 <1>  -0.1600 
 11 C        0.9550     7.0600    -0.0220 C.3   1 <1>  -0.1600 
 12 C        2.3730     7.5340    -2.4130 C.3   1 <1>   0.3430 
 13 C        1.4960     8.4700    -0.2950 C.3   1 <1>   0.3430 
 14 N        2.6310     8.4400    -1.2670 N.4   1 <1>  -0.9590 
 15 C        3.1010     9.7930    -1.6670 C.3   1 <1>   0.4860 
 16 C        3.5030    10.5650    -0.4230 C.ar  1 <1>  -0.1430 
 17 C        2.7280    11.6360     0.0090 C.ar  1 <1>  -0.1500 
 18 C        4.6420    10.2000     0.2890 C.ar  1 <1>  -0.1500 
 19 C        3.0800    12.3360     1.1510 C.ar  1 <1>  -0.1500 
 20 C        5.0020    10.8950     1.4320 C.ar  1 <1>  -0.1500 
 21 C        4.2120    11.9500     1.8430 C.ar  1 <1>   0.1900 
 22 F        4.5450    12.6050     2.9210 F     1 <1>  -0.1900 
 23 H       -1.1690     2.6650     0.9390 H     1 <1>   0.1500 
 24 H        2.7660     1.3630    -0.0360 H     1 <1>   0.1500 
 25 H       -0.5600     4.9690     0.4400 H     1 <1>   0.1500 
 26 H        3.4180     3.6720    -0.5480 H     1 <1>   0.1500 
 27 H        3.1000     5.5440     1.0460 H     1 <1>   0.4000 
 28 H        1.5200     5.5930    -2.4970 H     1 <1>   0.0800 
 29 H        3.2020     5.5730    -2.1250 H     1 <1>   0.0800 
 30 H        0.7010     6.9730     1.0200 H     1 <1>   0.0800 
 31 H        0.0440     6.9420    -0.5810 H     1 <1>   0.0800 
 32 H        1.4470     7.8130    -2.8880 H     1 <1>   0.0800 
 33 H        3.1650     7.6100    -3.1410 H     1 <1>   0.0800 
 34 H        1.8470     8.8940     0.6340 H     1 <1>   0.0800 
 35 H        0.7010     9.0960    -0.6650 H     1 <1>   0.0800 
 36 H        3.3940     7.9910    -0.7290 H     1 <1>   0.4500 
 37 H        2.3190    10.3190    -2.1890 H     1 <1>   0.0800 
 38 H        3.9530     9.7090    -2.3230 H     1 <1>   0.0800 
 39 H        1.8480    11.9400    -0.5330 H     1 <1>   0.1500 
 40 H        5.2620     9.3800    -0.0340 H     1 <1>   0.1500 
 41 H        2.4960    13.1690     1.5040 H     1 <1>   0.1500 
 42 H        5.8780    10.6310     1.9980 H     1 <1>   0.1500 
@<TRIPOS>BOND
  1   1   2  1   
  2   2   3  ar  
  3   2   4  ar  
  4   3   5  ar  
  5   3  23  1   
  6   4   6  ar  
  7   4  24  1   
  8   5   7  ar  
  9   5  25  1   
 10   6   7  ar  
 11   6  26  1   
 12   7   8  1   
 13   8   9  1   
 14   8  10  1   
 15   8  11  1   
 16   9  27  1   
 17  10  12  1   
 18  10  28  1   
 19  10  29  1   
 20  11  13  1   
 21  11  30  1   
 22  11  31  1   
 23  12  14  1   
 24  12  32  1   
 25  12  33  1   
 26  13  14  1   
 27  13  34  1   
 28  13  35  1   
 29  14  15  1   
 30  14  36  1   
 31  15  16  1   
 32  15  37  1   
 33  15  38  1   
 34  16  17  ar  
 35  16  18  ar  
 36  17  19  ar  
 37  17  39  1   
 38  18  20  ar  
 39  18  40  1   
 40  19  21  ar  
 41  19  41  1   
 42  20  21  ar  
 43  20  42  1   
 44  21  22  1   
@<TRIPOS>SUBSTRUCTURE
  1 ****   9 GROUP 4 **** **** 0

# MOE 2024.06 (io_trps.svl 2023.06)
