@<TRIPOS>MOLECULE
NONAME
54 55 1 0 0 
SMALL
USER_CHARGES


@<TRIPOS>ATOM
  1 CL      -0.6210     0.5910     0.9020 Cl    1 <1>  -0.1770 
  2 C       -2.2390     0.0070     0.5810 C.ar  1 <1>   0.1770 
  3 C       -2.9670    -0.6260     1.5780 C.ar  1 <1>  -0.1440 
  4 C       -2.7620     0.1940    -0.6860 C.ar  1 <1>  -0.1500 
  5 C       -4.2450    -1.0720     1.2790 C.ar  1 <1>  -0.1500 
  6 C       -2.3850    -0.8290     2.9700 C.3   1 <1>  -0.0960 
  7 C       -4.0380    -0.2560    -0.9740 C.ar  1 <1>  -0.1500 
  8 C       -4.7880    -0.8940     0.0130 C.ar  1 <1>   0.0830 
  9 O       -6.0470    -1.3690    -0.1710 O.3   1 <1>  -0.3630 
 10 C       -6.7210    -1.3260    -1.4260 C.3   1 <1>   0.2610 
 11 C       -8.2380    -1.4190    -1.1990 C.2   1 <1>   0.5690 
 12 C       -6.2060    -2.4870    -2.2900 C.3   1 <1>  -0.2400 
 13 O       -8.9850    -1.0680    -2.0830 O.2   1 <1>  -0.5700 
 14 N       -8.7080    -1.8990    -0.0090 N.am  1 <1>  -0.7300 
 15 C      -10.1060    -2.0710     0.4310 C.3   1 <1>   0.2200 
 16 C      -10.8310    -3.0520    -0.4920 C.3   1 <1>  -0.1600 
 17 C      -10.8190    -0.7180     0.4520 C.3   1 <1>  -0.1600 
 18 C      -12.3120    -3.2150    -0.1360 C.3   1 <1>   0.5030 
 19 C      -12.3000    -0.8340     0.8260 C.3   1 <1>   0.5030 
 20 N      -12.9530    -1.9050     0.0570 N.4   1 <1>  -0.9060 
 21 C      -12.5160    -4.1010     1.0970 C.3   1 <1>  -0.2400 
 22 C      -13.0510    -3.8610    -1.3070 C.3   1 <1>  -0.2400 
 23 C      -13.0290     0.4500     0.4340 C.3   1 <1>  -0.2400 
 24 C      -12.5010    -1.0510     2.3280 C.3   1 <1>  -0.2400 
 25 H       -2.1700     0.6890    -1.4350 H     1 <1>   0.1500 
 26 H       -4.8350    -1.5670     2.0280 H     1 <1>   0.1500 
 27 H       -2.1440     0.1230     3.4090 H     1 <1>   0.0800 
 28 H       -1.4890    -1.4200     2.9100 H     1 <1>   0.0800 
 29 H       -3.0850    -1.3330     3.6110 H     1 <1>   0.0800 
 30 H       -4.4200    -0.0990    -1.9640 H     1 <1>   0.1500 
 31 H       -6.5260    -0.3780    -1.8920 H     1 <1>   0.0800 
 32 H       -6.4150    -3.4270    -1.8120 H     1 <1>   0.0800 
 33 H       -5.1490    -2.4020    -2.4590 H     1 <1>   0.0800 
 34 H       -6.7030    -2.4730    -3.2440 H     1 <1>   0.0800 
 35 H       -7.9870    -2.1190     0.6880 H     1 <1>   0.3700 
 36 H      -10.0830    -2.4750     1.4290 H     1 <1>   0.0800 
 37 H      -10.3430    -4.0100    -0.4490 H     1 <1>   0.0800 
 38 H      -10.7610    -2.7050    -1.5060 H     1 <1>   0.0800 
 39 H      -10.7480    -0.2630    -0.5200 H     1 <1>   0.0800 
 40 H      -10.3230    -0.0630     1.1460 H     1 <1>   0.0800 
 41 H      -13.8890    -2.0540     0.4370 H     1 <1>   0.4500 
 42 H      -13.0810    -1.5250    -0.8840 H     1 <1>   0.4500 
 43 H      -11.8890    -3.8140     1.9170 H     1 <1>   0.0800 
 44 H      -12.2520    -5.1160     0.8580 H     1 <1>   0.0800 
 45 H      -13.5430    -4.0990     1.4140 H     1 <1>   0.0800 
 46 H      -12.9670    -3.2660    -2.2000 H     1 <1>   0.0800 
 47 H      -14.0920    -4.0080    -1.0790 H     1 <1>   0.0800 
 48 H      -12.6250    -4.8260    -1.5230 H     1 <1>   0.0800 
 49 H      -12.9470     0.6410    -0.6220 H     1 <1>   0.0800 
 50 H      -12.5930     1.2910     0.9470 H     1 <1>   0.0800 
 51 H      -14.0690     0.4070     0.7040 H     1 <1>   0.0800 
 52 H      -11.8800    -1.8330     2.7170 H     1 <1>   0.0800 
 53 H      -13.5290    -1.2630     2.5590 H     1 <1>   0.0800 
 54 H      -12.2260    -0.1570     2.8610 H     1 <1>   0.0800 
@<TRIPOS>BOND
  1   1   2  1   
  2   2   3  ar  
  3   2   4  ar  
  4   3   5  ar  
  5   3   6  1   
  6   4   7  ar  
  7   4  25  1   
  8   5   8  ar  
  9   5  26  1   
 10   6  27  1   
 11   6  28  1   
 12   6  29  1   
 13   7   8  ar  
 14   7  30  1   
 15   8   9  1   
 16   9  10  1   
 17  10  11  1   
 18  10  12  1   
 19  10  31  1   
 20  11  13  2   
 21  11  14  am  
 22  12  32  1   
 23  12  33  1   
 24  12  34  1   
 25  14  15  1   
 26  14  35  1   
 27  15  16  1   
 28  15  17  1   
 29  15  36  1   
 30  16  18  1   
 31  16  37  1   
 32  16  38  1   
 33  17  19  1   
 34  17  39  1   
 35  17  40  1   
 36  18  20  1   
 37  18  21  1   
 38  18  22  1   
 39  19  20  1   
 40  19  23  1   
 41  19  24  1   
 42  20  41  1   
 43  20  42  1   
 44  21  43  1   
 45  21  44  1   
 46  21  45  1   
 47  22  46  1   
 48  22  47  1   
 49  22  48  1   
 50  23  49  1   
 51  23  50  1   
 52  23  51  1   
 53  24  52  1   
 54  24  53  1   
 55  24  54  1   
@<TRIPOS>SUBSTRUCTURE
  1 ****  14 GROUP 4 **** **** 0

# MOE 2024.06 (io_trps.svl 2023.06)
