@<TRIPOS>MOLECULE
NONAME
44 47 1 0 0 
SMALL
USER_CHARGES


@<TRIPOS>ATOM
  1 N       -2.6010     1.5290     0.2500 N.4   1 <1>  -0.9590 
  2 C       -3.6850     0.6880     0.8620 C.3   1 <1>   0.4230 
  3 C       -1.2660     0.8280     0.2040 C.3   1 <1>   0.3430 
  4 C       -2.4390     2.8670     0.9280 C.3   1 <1>   0.3430 
  5 C       -3.8510    -0.6560     0.1010 C.3   1 <1>  -0.0800 
  6 C       -5.0500     1.4300     0.8430 C.3   1 <1>  -0.0800 
  7 C       -0.1680     1.7030    -0.4330 C.3   1 <1>   0.1100 
  8 C       -1.3270     3.7190     0.2830 C.3   1 <1>   0.1100 
  9 C       -4.9180    -1.5140     0.8120 C.3   1 <1>  -0.1600 
 10 C       -4.3100    -0.4060    -1.3550 C.3   1 <1>  -0.1600 
 11 C       -6.1110     0.5610     1.5490 C.3   1 <1>  -0.1600 
 12 C       -5.5120     1.6850    -0.6110 C.3   1 <1>  -0.1600 
 13 N       -0.0460     2.9940     0.2630 N.3   1 <1>  -0.8100 
 14 C       -6.2700    -0.7820     0.8160 C.3   1 <1>  -0.0800 
 15 C       -5.6550     0.3460    -1.3590 C.3   1 <1>  -0.0800 
 16 C        1.0250     3.8160    -0.3160 C.3   1 <1>   0.0300 
 17 C       -6.7070    -0.5160    -0.6370 C.3   1 <1>  -0.1600 
 18 H       -2.8930     1.7050    -0.7170 H     1 <1>   0.4500 
 19 H       -3.4260     0.4740     1.8860 H     1 <1>   0.0800 
 20 H       -1.3440    -0.0820    -0.3650 H     1 <1>   0.0800 
 21 H       -0.9580     0.5720     1.2040 H     1 <1>   0.0800 
 22 H       -2.1920     2.7190     1.9660 H     1 <1>   0.0800 
 23 H       -3.3600     3.4220     0.8800 H     1 <1>   0.0800 
 24 H       -2.9380    -1.2210     0.1110 H     1 <1>   0.0800 
 25 H       -4.9950     2.3570     1.3820 H     1 <1>   0.0800 
 26 H       -0.3870     1.8620    -1.4750 H     1 <1>   0.0800 
 27 H        0.7710     1.1790    -0.3680 H     1 <1>   0.0800 
 28 H       -1.2100     4.6240     0.8550 H     1 <1>   0.0800 
 29 H       -1.6140     3.9940    -0.7170 H     1 <1>   0.0800 
 30 H       -4.6140    -1.7230     1.8240 H     1 <1>   0.0800 
 31 H       -5.0240    -2.4590     0.3070 H     1 <1>   0.0800 
 32 H       -3.5740     0.1530    -1.9030 H     1 <1>   0.0800 
 33 H       -4.4290    -1.3500    -1.8610 H     1 <1>   0.0800 
 34 H       -7.0570     1.0760     1.5640 H     1 <1>   0.0800 
 35 H       -5.8260     0.3850     2.5730 H     1 <1>   0.0800 
 36 H       -4.8230     2.3260    -1.1310 H     1 <1>   0.0800 
 37 H       -6.4650     2.1900    -0.6030 H     1 <1>   0.0800 
 38 H       -7.0120    -1.3850     1.3130 H     1 <1>   0.0800 
 39 H       -5.9730     0.5230    -2.3740 H     1 <1>   0.0800 
 40 H        1.9620     3.2860    -0.2690 H     1 <1>   0.0800 
 41 H        1.1310     4.7300     0.2440 H     1 <1>   0.0800 
 42 H        0.8100     4.0570    -1.3430 H     1 <1>   0.0800 
 43 H       -7.6590    -0.0140    -0.6450 H     1 <1>   0.0800 
 44 H       -6.8330    -1.4510    -1.1560 H     1 <1>   0.0800 
@<TRIPOS>BOND
  1   1   2  1   
  2   1   3  1   
  3   1   4  1   
  4   1  18  1   
  5   2   5  1   
  6   2   6  1   
  7   2  19  1   
  8   3   7  1   
  9   3  20  1   
 10   3  21  1   
 11   4   8  1   
 12   4  22  1   
 13   4  23  1   
 14   5   9  1   
 15   5  10  1   
 16   5  24  1   
 17   6  11  1   
 18   6  12  1   
 19   6  25  1   
 20   7  13  1   
 21   7  26  1   
 22   7  27  1   
 23   8  13  1   
 24   8  28  1   
 25   8  29  1   
 26   9  14  1   
 27   9  30  1   
 28   9  31  1   
 29  10  15  1   
 30  10  32  1   
 31  10  33  1   
 32  11  14  1   
 33  11  34  1   
 34  11  35  1   
 35  12  15  1   
 36  12  36  1   
 37  12  37  1   
 38  13  16  1   
 39  14  17  1   
 40  14  38  1   
 41  15  17  1   
 42  15  39  1   
 43  16  40  1   
 44  16  41  1   
 45  16  42  1   
 46  17  43  1   
 47  17  44  1   
@<TRIPOS>SUBSTRUCTURE
  1 ****   2 GROUP 4 **** **** 0

# MOE 2024.06 (io_trps.svl 2023.06)
