@<TRIPOS>MOLECULE
NONAME
37 39 1 0 0 
SMALL
USER_CHARGES


@<TRIPOS>ATOM
  1 CL       0.3370     0.1180    -0.3890 Cl    1 <1>  -0.1770 
  2 C        1.8770     0.8560    -0.0560 C.ar  1 <1>   0.4870 
  3 N        2.6060     0.2970     0.8950 N.ar  1 <1>  -0.6200 
  4 C        2.2430     1.9650    -0.7970 C.ar  1 <1>  -0.1500 
  5 C        3.7650     0.8830     1.1260 C.ar  1 <1>   0.1600 
  6 C        3.4650     2.5570    -0.5530 C.ar  1 <1>  -0.1500 
  7 C        4.2490     1.9870     0.4370 C.ar  1 <1>  -0.1440 
  8 C        5.6170     2.5450     0.7750 C.3   1 <1>   0.4870 
  9 N        6.5800     2.1570    -0.2920 N.4   1 <1>  -0.9590 
 10 C        6.7240     0.6490    -0.4020 C.3   1 <1>   0.3430 
 11 C        7.9210     2.8290    -0.0780 C.3   1 <1>   0.3430 
 12 C        7.7980     0.2150    -1.4220 C.3   1 <1>   0.2090 
 13 C        8.9780     2.3890    -1.1110 C.3   1 <1>   0.2090 
 14 N        9.0820     0.9020    -1.1110 N.pl3 1 <1>  -0.8380 
 15 C        9.9790     0.2690    -0.2830 C.ar  1 <1>   0.7200 
 16 N       10.4330     0.9690     0.7560 N.ar  1 <1>  -0.6200 
 17 N       10.2660    -0.9930    -0.5760 N.ar  1 <1>  -0.6200 
 18 C       11.2980     0.3500     1.5260 C.ar  1 <1>   0.1600 
 19 C       11.1320    -1.5850     0.2110 C.ar  1 <1>   0.1600 
 20 C       11.6890    -0.9460     1.2920 C.ar  1 <1>  -0.1500 
 21 H        1.5710     2.3460    -1.5450 H     1 <1>   0.1500 
 22 H        4.3600     0.4440     1.9120 H     1 <1>   0.1500 
 23 H        3.7720     3.4250    -1.1140 H     1 <1>   0.1500 
 24 H        5.9470     2.1620     1.7270 H     1 <1>   0.0800 
 25 H        5.5550     3.6190     0.8450 H     1 <1>   0.0800 
 26 H        6.2010     2.4850    -1.1890 H     1 <1>   0.4500 
 27 H        5.7810     0.2080    -0.6830 H     1 <1>   0.0800 
 28 H        7.0040     0.2440     0.5560 H     1 <1>   0.0800 
 29 H        8.3000     2.5780     0.9000 H     1 <1>   0.0800 
 30 H        7.8110     3.9000    -0.1250 H     1 <1>   0.0800 
 31 H        7.4880     0.4650    -2.4220 H     1 <1>   0.0800 
 32 H        7.9160    -0.8550    -1.3810 H     1 <1>   0.0800 
 33 H        9.9320     2.8290    -0.8720 H     1 <1>   0.0800 
 34 H        8.7050     2.7300    -2.0940 H     1 <1>   0.0800 
 35 H       11.7070     0.8870     2.3660 H     1 <1>   0.1500 
 36 H       11.4050    -2.6030    -0.0110 H     1 <1>   0.1500 
 37 H       12.4000    -1.4400     1.9270 H     1 <1>   0.1500 
@<TRIPOS>BOND
  1   1   2  1   
  2   2   3  ar  
  3   2   4  ar  
  4   3   5  ar  
  5   4   6  ar  
  6   4  21  1   
  7   5   7  ar  
  8   5  22  1   
  9   6   7  ar  
 10   6  23  1   
 11   7   8  1   
 12   8   9  1   
 13   8  24  1   
 14   8  25  1   
 15   9  10  1   
 16   9  11  1   
 17   9  26  1   
 18  10  12  1   
 19  10  27  1   
 20  10  28  1   
 21  11  13  1   
 22  11  29  1   
 23  11  30  1   
 24  12  14  1   
 25  12  31  1   
 26  12  32  1   
 27  13  14  1   
 28  13  33  1   
 29  13  34  1   
 30  14  15  1   
 31  15  16  ar  
 32  15  17  ar  
 33  16  18  ar  
 34  17  19  ar  
 35  18  20  ar  
 36  18  35  1   
 37  19  20  ar  
 38  19  36  1   
 39  20  37  1   
@<TRIPOS>SUBSTRUCTURE
  1 ****  10 GROUP 4 **** **** 0

# MOE 2024.06 (io_trps.svl 2023.06)
