@<TRIPOS>MOLECULE
NONAME
47 49 1 0 0 
SMALL
USER_CHARGES


@<TRIPOS>ATOM
  1 S        0.9970     0.5500     0.8350 S.o2  1 <1>   1.4470 
  2 O        0.7060     1.1030     2.1370 O.2   1 <1>  -0.6500 
  3 O        2.3740     0.3050     0.4670 O.2   1 <1>  -0.6500 
  4 N        0.3630     1.6610    -0.3350 N.am  1 <1>  -0.6930 
  5 C        0.0040    -0.9350     0.5230 C.ar  1 <1>  -0.0090 
  6 C       -0.9420     2.1350    -0.2630 C.ar  1 <1>   0.1990 
  7 C        1.2320     2.1090    -1.4710 C.3   1 <1>   0.2570 
  8 C       -1.3210    -1.0070     0.9410 C.ar  1 <1>  -0.1500 
  9 C        0.5280    -2.0280    -0.1600 C.ar  1 <1>  -0.1500 
 10 C       -1.3490     2.9560     0.7810 C.ar  1 <1>  -0.1500 
 11 C       -1.8710     1.7870    -1.2360 C.ar  1 <1>  -0.1500 
 12 C        1.4480     3.6250    -1.5330 C.2   1 <1>   0.5690 
 13 C       -2.0950    -2.1270     0.6900 C.ar  1 <1>  -0.1500 
 14 C       -0.2390    -3.1520    -0.4140 C.ar  1 <1>  -0.1500 
 15 C       -2.6530     3.4100     0.8570 C.ar  1 <1>  -0.1500 
 16 C       -3.1750     2.2420    -1.1630 C.ar  1 <1>  -0.1500 
 17 O        1.0540     4.2070    -2.5190 O.2   1 <1>  -0.5700 
 18 N        2.0910     4.2970    -0.5240 N.am  1 <1>  -0.6600 
 19 C       -1.5530    -3.2020     0.0120 C.ar  1 <1>  -0.1500 
 20 C       -3.5750     3.0540    -0.1140 C.ar  1 <1>  -0.1430 
 21 C        2.6460     3.7070     0.7140 C.3   1 <1>   0.1400 
 22 C        2.2740     5.7630    -0.5430 C.3   1 <1>   0.1400 
 23 C       -5.0050     3.5550    -0.0350 C.3   1 <1>  -0.0970 
 24 C        3.4480     4.8340     1.3520 C.3   1 <1>  -0.1600 
 25 C        2.7770     6.1110     0.8530 C.3   1 <1>  -0.1600 
 26 H        0.7740     1.8030    -2.3930 H     1 <1>   0.0800 
 27 H        2.1980     1.6450    -1.4320 H     1 <1>   0.0800 
 28 H       -1.7540    -0.1730     1.4690 H     1 <1>   0.1500 
 29 H        1.5510    -2.0010    -0.4960 H     1 <1>   0.1500 
 30 H       -0.6400     3.2410     1.5360 H     1 <1>   0.1500 
 31 H       -1.5720     1.1550    -2.0500 H     1 <1>   0.1500 
 32 H       -3.1180    -2.1590     1.0230 H     1 <1>   0.1500 
 33 H        0.1880    -3.9870    -0.9420 H     1 <1>   0.1500 
 34 H       -2.9460     4.0460     1.6740 H     1 <1>   0.1500 
 35 H       -3.8780     1.9630    -1.9280 H     1 <1>   0.1500 
 36 H       -2.1520    -4.0760    -0.1840 H     1 <1>   0.1500 
 37 H        3.2670     2.8530     0.5010 H     1 <1>   0.0800 
 38 H        1.8370     3.4210     1.3640 H     1 <1>   0.0800 
 39 H        1.3470     6.2620    -0.7710 H     1 <1>   0.0800 
 40 H        3.0110     6.0140    -1.2870 H     1 <1>   0.0800 
 41 H       -5.0940     4.4830    -0.5720 H     1 <1>   0.0800 
 42 H       -5.2910     3.7180     0.9880 H     1 <1>   0.0800 
 43 H       -5.6800     2.8380    -0.4660 H     1 <1>   0.0800 
 44 H        4.4620     4.7890     0.9920 H     1 <1>   0.0800 
 45 H        3.4520     4.7630     2.4250 H     1 <1>   0.0800 
 46 H        1.9330     6.3480     1.4780 H     1 <1>   0.0800 
 47 H        3.4480     6.9510     0.8380 H     1 <1>   0.0800 
@<TRIPOS>BOND
  1   1   2  2   
  2   1   3  2   
  3   1   4  am  
  4   1   5  1   
  5   4   6  1   
  6   4   7  1   
  7   5   8  ar  
  8   5   9  ar  
  9   6  10  ar  
 10   6  11  ar  
 11   7  12  1   
 12   7  26  1   
 13   7  27  1   
 14   8  13  ar  
 15   8  28  1   
 16   9  14  ar  
 17   9  29  1   
 18  10  15  ar  
 19  10  30  1   
 20  11  16  ar  
 21  11  31  1   
 22  12  17  2   
 23  12  18  am  
 24  13  19  ar  
 25  13  32  1   
 26  14  19  ar  
 27  14  33  1   
 28  15  20  ar  
 29  15  34  1   
 30  16  20  ar  
 31  16  35  1   
 32  18  21  1   
 33  18  22  1   
 34  19  36  1   
 35  20  23  1   
 36  21  24  1   
 37  21  37  1   
 38  21  38  1   
 39  22  25  1   
 40  22  39  1   
 41  22  40  1   
 42  23  41  1   
 43  23  42  1   
 44  23  43  1   
 45  24  25  1   
 46  24  44  1   
 47  24  45  1   
 48  25  46  1   
 49  25  47  1   
@<TRIPOS>SUBSTRUCTURE
  1 ****   4 GROUP 4 **** **** 0

# MOE 2024.06 (io_trps.svl 2023.06)
