@<TRIPOS>MOLECULE
NONAME
41 41 1 0 0 
SMALL
USER_CHARGES


@<TRIPOS>ATOM
  1 O        0.1150     1.8900     2.0310 O.2   1 <1>  -0.5700 
  2 C       -0.1420     2.0190     0.8570 C.2   1 <1>   0.5690 
  3 N        0.7430     2.4860    -0.0670 N.am  1 <1>  -0.5470 
  4 C       -1.5360     1.6390     0.3670 C.3   1 <1>   0.1810 
  5 C        2.0690     2.9060     0.0820 C.ar  1 <1>   0.1170 
  6 O       -1.6770     1.8470    -1.0220 O.3   1 <1>  -0.5600 
  7 C        2.3540     4.2560     0.3500 C.ar  1 <1>  -0.1430 
  8 C        3.1200     1.9830    -0.0670 C.ar  1 <1>  -0.1430 
  9 C       -2.9350     1.5140    -1.5140 C.3   1 <1>   0.0400 
 10 C        3.6750     4.6420     0.5240 C.ar  1 <1>  -0.1500 
 11 C        1.3090     5.3830     0.4640 C.3   1 <1>   0.0630 
 12 C        4.4250     2.4160     0.1160 C.ar  1 <1>  -0.1500 
 13 C        2.9550     0.4950    -0.4330 C.3   1 <1>   0.0630 
 14 C        4.7050     3.7320     0.4140 C.ar  1 <1>  -0.1500 
 15 C        0.5330     5.3310     1.7830 C.3   1 <1>  -0.2400 
 16 C        0.3660     5.4880    -0.7430 C.3   1 <1>  -0.2400 
 17 C        2.1300     0.2500    -1.7040 C.3   1 <1>  -0.2400 
 18 C        2.4440    -0.3440     0.7410 C.3   1 <1>  -0.2400 
 19 H        0.3580     2.5300    -1.0120 H     1 <1>   0.3700 
 20 H       -2.2620     2.2410     0.8820 H     1 <1>   0.0800 
 21 H       -1.7100     0.6000     0.5800 H     1 <1>   0.0800 
 22 H       -2.9420     1.7050    -2.5730 H     1 <1>   0.0800 
 23 H       -3.6800     2.1230    -1.0310 H     1 <1>   0.0800 
 24 H       -3.1230     0.4690    -1.3340 H     1 <1>   0.0800 
 25 H        3.9230     5.6640     0.7490 H     1 <1>   0.1500 
 26 H        1.8480     6.3150     0.4790 H     1 <1>   0.0800 
 27 H        5.2480     1.7300     0.0270 H     1 <1>   0.1500 
 28 H        3.9370     0.1140    -0.6590 H     1 <1>   0.0800 
 29 H        5.7230     4.0490     0.5570 H     1 <1>   0.1500 
 30 H       -0.1500     4.5060     1.7990 H     1 <1>   0.0800 
 31 H       -0.0280     6.2380     1.9200 H     1 <1>   0.0800 
 32 H        1.2170     5.2220     2.6050 H     1 <1>   0.0800 
 33 H       -0.3700     4.7070    -0.7390 H     1 <1>   0.0800 
 34 H        0.9320     5.4300    -1.6560 H     1 <1>   0.0800 
 35 H       -0.1520     6.4300    -0.7210 H     1 <1>   0.0800 
 36 H        1.0810     0.3970    -1.5300 H     1 <1>   0.0800 
 37 H        2.2700    -0.7620    -2.0410 H     1 <1>   0.0800 
 38 H        2.4520     0.9170    -2.4840 H     1 <1>   0.0800 
 39 H        1.4140    -0.1370     0.9470 H     1 <1>   0.0800 
 40 H        3.0170    -0.1240     1.6240 H     1 <1>   0.0800 
 41 H        2.5410    -1.3920     0.5200 H     1 <1>   0.0800 
@<TRIPOS>BOND
  1   1   2  2   
  2   2   3  am  
  3   2   4  1   
  4   3   5  1   
  5   3  19  1   
  6   4   6  1   
  7   4  20  1   
  8   4  21  1   
  9   5   7  ar  
 10   5   8  ar  
 11   6   9  1   
 12   7  10  ar  
 13   7  11  1   
 14   8  12  ar  
 15   8  13  1   
 16   9  22  1   
 17   9  23  1   
 18   9  24  1   
 19  10  14  ar  
 20  10  25  1   
 21  11  15  1   
 22  11  16  1   
 23  11  26  1   
 24  12  14  ar  
 25  12  27  1   
 26  13  17  1   
 27  13  18  1   
 28  13  28  1   
 29  14  29  1   
 30  15  30  1   
 31  15  31  1   
 32  15  32  1   
 33  16  33  1   
 34  16  34  1   
 35  16  35  1   
 36  17  36  1   
 37  17  37  1   
 38  17  38  1   
 39  18  39  1   
 40  18  40  1   
 41  18  41  1   
@<TRIPOS>SUBSTRUCTURE
  1 ****   3 GROUP 4 **** **** 0

# MOE 2024.06 (io_trps.svl 2023.06)
