@<TRIPOS>MOLECULE
NONAME
49 50 1 0 0 
SMALL
USER_CHARGES


@<TRIPOS>ATOM
  1 S        0.9870    -0.2820    -2.6300 S.o2  1 <1>   1.4470 
  2 O        2.1340    -0.7430    -3.3800 O.2   1 <1>  -0.6500 
  3 O        0.3480     0.9680    -2.9640 O.2   1 <1>  -0.6500 
  4 N        1.5470    -0.1030    -1.0370 N.am  1 <1>  -0.8490 
  5 C       -0.2420    -1.6010    -2.4300 C.ar  1 <1>  -0.0090 
  6 C        2.3720    -1.2400    -0.5750 C.3   1 <1>   0.1960 
  7 C        2.2570     1.1730    -0.8220 C.3   1 <1>   0.1960 
  8 C       -0.9660    -1.6980    -1.2530 C.ar  1 <1>  -0.1500 
  9 C       -0.4760    -2.5580    -3.4060 C.ar  1 <1>  -0.1500 
 10 C        2.6800    -1.1430     0.9410 C.3   1 <1>   0.3430 
 11 C        2.7590     1.3240     0.6400 C.3   1 <1>   0.3430 
 12 C       -1.8470    -2.7380    -0.9770 C.ar  1 <1>   0.0860 
 13 C       -1.3690    -3.5920    -3.1810 C.ar  1 <1>  -0.1500 
 14 N        2.2830     0.1930     1.5170 N.4   1 <1>  -0.9590 
 15 C       -2.0430    -3.7010    -1.9750 C.ar  1 <1>  -0.1430 
 16 C       -2.4570    -2.7540     0.3400 C.2   1 <1>   0.5440 
 17 C        2.6680     0.3450     2.9510 C.3   1 <1>   0.2630 
 18 C       -2.9640    -4.8970    -1.7660 C.3   1 <1>  -0.0970 
 19 O       -1.7510    -2.5710     1.3160 O.2   1 <1>  -0.5700 
 20 N       -3.8080    -2.9200     0.4830 N.am  1 <1>  -0.7300 
 21 C       -4.6120    -2.9780     1.7190 C.3   1 <1>   0.2200 
 22 C       -4.5450    -1.6420     2.4550 C.3   1 <1>  -0.2400 
 23 C       -4.1560    -4.1440     2.5930 C.3   1 <1>  -0.2400 
 24 H        3.2980    -1.2680    -1.1270 H     1 <1>   0.0800 
 25 H        1.8620    -2.1710    -0.7610 H     1 <1>   0.0800 
 26 H        1.5930     1.9930    -1.0420 H     1 <1>   0.0800 
 27 H        3.0920     1.2490    -1.4990 H     1 <1>   0.0800 
 28 H       -0.8370    -0.9450    -0.4960 H     1 <1>   0.1500 
 29 H        0.0510    -2.5030    -4.3440 H     1 <1>   0.1500 
 30 H        3.7320    -1.3170     1.0950 H     1 <1>   0.0800 
 31 H        2.1430    -1.9260     1.4520 H     1 <1>   0.0800 
 32 H        2.4100     2.2660     1.0310 H     1 <1>   0.0800 
 33 H        3.8360     1.3530     0.6360 H     1 <1>   0.0800 
 34 H       -1.5250    -4.3220    -3.9580 H     1 <1>   0.1500 
 35 H        1.2520     0.2100     1.4340 H     1 <1>   0.4500 
 36 H        3.7400     0.3190     3.0580 H     1 <1>   0.0800 
 37 H        2.2420    -0.4540     3.5370 H     1 <1>   0.0800 
 38 H        2.3030     1.2830     3.3380 H     1 <1>   0.0800 
 39 H       -3.9890    -4.6040    -1.8990 H     1 <1>   0.0800 
 40 H       -2.8400    -5.3020    -0.7770 H     1 <1>   0.0800 
 41 H       -2.7420    -5.6790    -2.4710 H     1 <1>   0.0800 
 42 H       -4.3630    -2.9710    -0.3710 H     1 <1>   0.3700 
 43 H       -5.6370    -3.1540     1.4370 H     1 <1>   0.0800 
 44 H       -3.5480    -1.4490     2.8040 H     1 <1>   0.0800 
 45 H       -5.2010    -1.6630     3.3060 H     1 <1>   0.0800 
 46 H       -4.8560    -0.8450     1.8050 H     1 <1>   0.0800 
 47 H       -3.1520    -3.9890     2.9460 H     1 <1>   0.0800 
 48 H       -4.1980    -5.0630     2.0390 H     1 <1>   0.0800 
 49 H       -4.8010    -4.2320     3.4480 H     1 <1>   0.0800 
@<TRIPOS>BOND
  1   1   2  2   
  2   1   3  2   
  3   1   4  am  
  4   1   5  1   
  5   4   6  1   
  6   4   7  1   
  7   5   8  ar  
  8   5   9  ar  
  9   6  10  1   
 10   6  24  1   
 11   6  25  1   
 12   7  11  1   
 13   7  26  1   
 14   7  27  1   
 15   8  12  ar  
 16   8  28  1   
 17   9  13  ar  
 18   9  29  1   
 19  10  14  1   
 20  10  30  1   
 21  10  31  1   
 22  11  14  1   
 23  11  32  1   
 24  11  33  1   
 25  12  15  ar  
 26  12  16  1   
 27  13  15  ar  
 28  13  34  1   
 29  14  17  1   
 30  14  35  1   
 31  15  18  1   
 32  16  19  2   
 33  16  20  am  
 34  17  36  1   
 35  17  37  1   
 36  17  38  1   
 37  18  39  1   
 38  18  40  1   
 39  18  41  1   
 40  20  21  1   
 41  20  42  1   
 42  21  22  1   
 43  21  23  1   
 44  21  43  1   
 45  22  44  1   
 46  22  45  1   
 47  22  46  1   
 48  23  47  1   
 49  23  48  1   
 50  23  49  1   
@<TRIPOS>SUBSTRUCTURE
  1 ****   8 GROUP 4 **** **** 0

# MOE 2024.06 (io_trps.svl 2023.06)
