@<TRIPOS>MOLECULE
NONAME
29 29 1 0 0 
SMALL
USER_CHARGES


@<TRIPOS>ATOM
  1 CL       0.0160     0.6580    -0.0240 Cl    1 <1>  -0.1770 
  2 C       -1.6490     1.0380    -0.3790 C.ar  1 <1>   0.1770 
  3 C       -1.9610     1.6380    -1.5830 C.ar  1 <1>  -0.1500 
  4 C       -2.6250     0.7290     0.5490 C.ar  1 <1>  -0.1500 
  5 C       -3.2870     1.9260    -1.8360 C.ar  1 <1>   0.1770 
  6 C       -3.9600     1.0210     0.2890 C.ar  1 <1>   0.1990 
  7 CL      -3.7170     2.6810    -3.3490 Cl    1 <1>  -0.1770 
  8 C       -4.2810     1.6290    -0.9230 C.ar  1 <1>  -0.1500 
  9 N       -4.9120     0.6840     1.2440 N.am  1 <1>  -0.7570 
 10 S       -6.5680     1.1230     1.3460 S.o2  1 <1>   1.3330 
 11 O       -6.6940     2.4620     0.8300 O.2   1 <1>  -0.6500 
 12 O       -6.9140     0.8050     2.7080 O.2   1 <1>  -0.6500 
 13 C       -7.3500    -0.0570     0.2430 C.3   1 <1>  -0.0550 
 14 C       -8.8790     0.0920     0.1670 C.3   1 <1>  -0.1600 
 15 C       -9.4920    -0.9380    -0.7890 C.3   1 <1>  -0.1600 
 16 C      -11.0130    -0.7830    -0.8570 C.3   1 <1>  -0.2400 
 17 H       -1.1960     1.8740    -2.2990 H     1 <1>   0.1500 
 18 H       -2.3410     0.2610     1.4730 H     1 <1>   0.1500 
 19 H       -5.2940     1.8840    -1.1680 H     1 <1>   0.1500 
 20 H       -4.5960     0.3830     2.1630 H     1 <1>   0.4200 
 21 H       -7.1170    -1.0500     0.5740 H     1 <1>   0.0800 
 22 H       -6.9440     0.0630    -0.7430 H     1 <1>   0.0800 
 23 H       -9.1220     1.0860    -0.1680 H     1 <1>   0.0800 
 24 H       -9.2960    -0.0370     1.1520 H     1 <1>   0.0800 
 25 H       -9.2540    -1.9340    -0.4550 H     1 <1>   0.0800 
 26 H       -9.0810    -0.8100    -1.7770 H     1 <1>   0.0800 
 27 H      -11.4510    -0.9300     0.1140 H     1 <1>   0.0800 
 28 H      -11.4280    -1.5120    -1.5320 H     1 <1>   0.0800 
 29 H      -11.2770     0.1980    -1.2120 H     1 <1>   0.0800 
@<TRIPOS>BOND
  1   1   2  1   
  2   2   3  ar  
  3   2   4  ar  
  4   3   5  ar  
  5   3  17  1   
  6   4   6  ar  
  7   4  18  1   
  8   5   7  1   
  9   5   8  ar  
 10   6   8  ar  
 11   6   9  1   
 12   8  19  1   
 13   9  10  am  
 14   9  20  1   
 15  10  11  2   
 16  10  12  2   
 17  10  13  1   
 18  13  14  1   
 19  13  21  1   
 20  13  22  1   
 21  14  15  1   
 22  14  23  1   
 23  14  24  1   
 24  15  16  1   
 25  15  25  1   
 26  15  26  1   
 27  16  27  1   
 28  16  28  1   
 29  16  29  1   
@<TRIPOS>SUBSTRUCTURE
  1 ****   6 GROUP 4 **** **** 0

# MOE 2024.06 (io_trps.svl 2023.06)
