@<TRIPOS>MOLECULE
NONAME
33 33 1 0 0 
SMALL
USER_CHARGES


@<TRIPOS>ATOM
  1 S        0.0650     0.3420    -0.2040 S.o2  1 <1>   1.3330 
  2 O        1.1500     0.9720    -0.9150 O.2   1 <1>  -0.6500 
  3 O       -1.3060     0.7170    -0.4510 O.2   1 <1>  -0.6500 
  4 N        0.1720    -1.3760    -0.4370 N.am  1 <1>  -0.6930 
  5 C        0.3670     0.4780     1.5440 C.3   1 <1>  -0.1350 
  6 C        1.3710    -2.0710    -0.3760 C.ar  1 <1>   0.1990 
  7 C       -1.0980    -2.1120    -0.6510 C.3   1 <1>   0.1160 
  8 C        2.4220    -1.7820    -1.2390 C.ar  1 <1>  -0.1500 
  9 C        1.5520    -3.0910     0.5520 C.ar  1 <1>  -0.1500 
 10 C        3.6140    -2.4760    -1.1670 C.ar  1 <1>  -0.1500 
 11 C        2.7460    -3.7830     0.6230 C.ar  1 <1>  -0.1500 
 12 C        3.8140    -3.4880    -0.2260 C.ar  1 <1>   0.0860 
 13 C        5.0630    -4.2180    -0.1280 C.2   1 <1>   0.5440 
 14 O        5.0700    -5.4130     0.0840 O.2   1 <1>  -0.5700 
 15 N        6.2860    -3.6290    -0.2430 N.am  1 <1>  -0.7300 
 16 C        6.6300    -2.2110    -0.0320 C.3   1 <1>   0.1400 
 17 C        7.7870    -2.1380     0.9570 C.3   1 <1>  -0.2400 
 18 H        0.3180     1.5050     1.8450 H     1 <1>   0.0800 
 19 H        1.3400     0.0950     1.7820 H     1 <1>   0.0800 
 20 H       -0.3690    -0.0780     2.0910 H     1 <1>   0.0800 
 21 H       -1.6110    -1.7020    -1.5030 H     1 <1>   0.0800 
 22 H       -1.7280    -2.0140     0.2160 H     1 <1>   0.0800 
 23 H       -0.9030    -3.1550    -0.8340 H     1 <1>   0.0800 
 24 H        2.2960    -1.0090    -1.9770 H     1 <1>   0.1500 
 25 H        0.7500    -3.3390     1.2230 H     1 <1>   0.1500 
 26 H        4.4060    -2.2390    -1.8550 H     1 <1>   0.1500 
 27 H        2.8680    -4.5730     1.3450 H     1 <1>   0.1500 
 28 H        7.0710    -4.2830    -0.1860 H     1 <1>   0.3700 
 29 H        5.7820    -1.6750     0.3600 H     1 <1>   0.0800 
 30 H        6.9180    -1.7690    -0.9710 H     1 <1>   0.0800 
 31 H        7.5050    -2.5840     1.8940 H     1 <1>   0.0800 
 32 H        8.0460    -1.1100     1.1350 H     1 <1>   0.0800 
 33 H        8.6500    -2.6430     0.5630 H     1 <1>   0.0800 
@<TRIPOS>BOND
  1   1   2  2   
  2   1   3  2   
  3   1   4  am  
  4   1   5  1   
  5   4   6  1   
  6   4   7  1   
  7   5  18  1   
  8   5  19  1   
  9   5  20  1   
 10   6   8  ar  
 11   6   9  ar  
 12   7  21  1   
 13   7  22  1   
 14   7  23  1   
 15   8  10  ar  
 16   8  24  1   
 17   9  11  ar  
 18   9  25  1   
 19  10  12  ar  
 20  10  26  1   
 21  11  12  ar  
 22  11  27  1   
 23  12  13  1   
 24  13  14  2   
 25  13  15  am  
 26  15  16  1   
 27  15  28  1   
 28  16  17  1   
 29  16  29  1   
 30  16  30  1   
 31  17  31  1   
 32  17  32  1   
 33  17  33  1   
@<TRIPOS>SUBSTRUCTURE
  1 ****   8 GROUP 4 **** **** 0

# MOE 2024.06 (io_trps.svl 2023.06)
