@<TRIPOS>MOLECULE
NONAME
34 34 1 0 0 
SMALL
USER_CHARGES


@<TRIPOS>ATOM
  1 S        0.2460    -0.0200     0.6880 S.o2  1 <1>   1.4470 
  2 O        0.6350     0.0220     2.0790 O.2   1 <1>  -0.6500 
  3 O        0.2960     1.1790    -0.1160 O.2   1 <1>  -0.6500 
  4 N        1.3200    -1.0490    -0.0750 N.am  1 <1>  -0.9140 
  5 C       -1.3480    -0.8640     0.4990 C.ar  1 <1>  -0.0090 
  6 C        2.6800    -0.7380     0.2740 C.3   1 <1>   0.3340 
  7 C       -2.3850    -0.2970    -0.2340 C.ar  1 <1>  -0.1500 
  8 C       -1.5690    -2.1070     1.0780 C.ar  1 <1>  -0.1500 
  9 C        3.5540    -1.4980    -0.6960 C.2   1 <1>  -0.2880 
 10 C       -3.6030    -0.9390    -0.3890 C.ar  1 <1>  -0.1430 
 11 C       -2.7780    -2.7640     0.9350 C.ar  1 <1>  -0.1500 
 12 C        4.3840    -0.9480    -1.5890 C.2   1 <1>  -0.3000 
 13 C       -3.8060    -2.1830     0.1980 C.ar  1 <1>   0.0830 
 14 C       -4.7090    -0.2780    -1.2000 C.3   1 <1>  -0.0970 
 15 O       -5.0150    -2.7760     0.0200 O.3   1 <1>  -0.3620 
 16 C       -5.3250    -4.0250     0.5920 C.3   1 <1>   0.1200 
 17 C       -6.7560    -4.3800     0.2010 C.3   1 <1>  -0.2400 
 18 H        1.2390    -0.8070    -1.0590 H     1 <1>   0.4200 
 19 H        2.8860    -1.0430     1.2880 H     1 <1>   0.0800 
 20 H        2.8620     0.3220     0.1830 H     1 <1>   0.0800 
 21 H       -2.2310     0.6670    -0.6890 H     1 <1>   0.1500 
 22 H       -0.7790    -2.5650     1.6500 H     1 <1>   0.1500 
 23 H        3.4350    -2.5630    -0.5930 H     1 <1>   0.1500 
 24 H       -2.8980    -3.7220     1.4020 H     1 <1>   0.1500 
 25 H        4.9940    -1.5190    -2.2690 H     1 <1>   0.1500 
 26 H        4.5260     0.1110    -1.7190 H     1 <1>   0.1500 
 27 H       -4.3970     0.6760    -1.5840 H     1 <1>   0.0800 
 28 H       -5.5760    -0.1320    -0.5810 H     1 <1>   0.0800 
 29 H       -4.9800    -0.9090    -2.0270 H     1 <1>   0.0800 
 30 H       -5.2320    -3.9420     1.6610 H     1 <1>   0.0800 
 31 H       -4.6340    -4.7560     0.2100 H     1 <1>   0.0800 
 32 H       -7.4370    -3.6350     0.5730 H     1 <1>   0.0800 
 33 H       -7.0250    -5.3310     0.6240 H     1 <1>   0.0800 
 34 H       -6.8420    -4.4430    -0.8690 H     1 <1>   0.0800 
@<TRIPOS>BOND
  1   1   2  2   
  2   1   3  2   
  3   1   4  am  
  4   1   5  1   
  5   4   6  1   
  6   4  18  1   
  7   5   7  ar  
  8   5   8  ar  
  9   6   9  1   
 10   6  19  1   
 11   6  20  1   
 12   7  10  ar  
 13   7  21  1   
 14   8  11  ar  
 15   8  22  1   
 16   9  12  2   
 17   9  23  1   
 18  10  13  ar  
 19  10  14  1   
 20  11  13  ar  
 21  11  24  1   
 22  12  25  1   
 23  12  26  1   
 24  13  15  1   
 25  14  27  1   
 26  14  28  1   
 27  14  29  1   
 28  15  16  1   
 29  16  17  1   
 30  16  30  1   
 31  16  31  1   
 32  17  32  1   
 33  17  33  1   
 34  17  34  1   
@<TRIPOS>SUBSTRUCTURE
  1 ****   5 GROUP 4 **** **** 0

# MOE 2024.06 (io_trps.svl 2023.06)
