@<TRIPOS>MOLECULE
NONAME
39 40 1 0 0 
SMALL
USER_CHARGES


@<TRIPOS>ATOM
  1 O        0.5280    -1.0610     0.6270 O.2   1 <1>  -0.5700 
  2 C       -0.0220    -2.0610     0.2490 C.2   1 <1>   0.5690 
  3 N        0.5010    -2.8040    -0.7550 N.am  1 <1>  -0.4900 
  4 C       -1.3300    -2.5000     0.8770 C.3   1 <1>  -0.0990 
  5 C       -0.0060    -3.9580    -1.2570 C.2   1 <1>   0.5690 
  6 C       -1.5230    -4.0250     0.7910 C.3   1 <1>  -0.0800 
  7 O        0.5380    -4.5000    -2.1810 O.2   1 <1>  -0.5700 
  8 C       -1.2760    -4.5300    -0.6500 C.3   1 <1>  -0.0990 
  9 C       -2.9230    -4.4190     1.2990 C.3   1 <1>  -0.0990 
 10 C       -3.1450    -5.9220     1.2620 C.2   1 <1>   0.4140 
 11 O       -2.3320    -6.5830     1.8870 O.2   1 <1>  -0.5700 
 12 C       -4.2060    -6.4820     0.5280 C.3   1 <1>  -0.7150 
 13 C       -5.5060    -5.9500     0.6180 C.2   1 <1>   0.4140 
 14 C       -3.9660    -7.6000    -0.2940 C.2   1 <1>   0.4140 
 15 O       -5.8100    -4.9750     1.2850 O.2   1 <1>  -0.5700 
 16 C       -6.6550    -6.5920    -0.1360 C.3   1 <1>  -0.0990 
 17 O       -2.8570    -7.9920    -0.6120 O.2   1 <1>  -0.5700 
 18 C       -5.1070    -8.3680    -0.9390 C.3   1 <1>  -0.0990 
 19 C       -6.4780    -8.1110    -0.2930 C.3   1 <1>   0.0000 
 20 C       -7.5900    -8.6730    -1.1920 C.3   1 <1>  -0.2400 
 21 C       -6.5610    -8.8080     1.0780 C.3   1 <1>  -0.2400 
 22 H        1.3650    -2.4730    -1.1710 H     1 <1>   0.3700 
 23 H       -2.1310    -1.9990     0.3650 H     1 <1>   0.0800 
 24 H       -1.3460    -2.1900     1.9060 H     1 <1>   0.0800 
 25 H       -0.7920    -4.4920     1.4320 H     1 <1>   0.0800 
 26 H       -1.2060    -5.6050    -0.6500 H     1 <1>   0.0800 
 27 H       -2.1030    -4.2610    -1.2810 H     1 <1>   0.0800 
 28 H       -3.6600    -3.9320     0.6900 H     1 <1>   0.0800 
 29 H       -3.0600    -4.0930     2.3130 H     1 <1>   0.0800 
 30 H       -6.7120    -6.1230    -1.1000 H     1 <1>   0.0800 
 31 H       -7.5710    -6.3870     0.3870 H     1 <1>   0.0800 
 32 H       -4.8760    -9.4170    -0.9000 H     1 <1>   0.0800 
 33 H       -5.1300    -8.0780    -1.9730 H     1 <1>   0.0800 
 34 H       -7.5690    -8.2040    -2.1600 H     1 <1>   0.0800 
 35 H       -8.5550    -8.4960    -0.7500 H     1 <1>   0.0800 
 36 H       -7.4640    -9.7330    -1.3250 H     1 <1>   0.0800 
 37 H       -5.7800    -8.4610     1.7320 H     1 <1>   0.0800 
 38 H       -6.4530    -9.8720     0.9680 H     1 <1>   0.0800 
 39 H       -7.5060    -8.6050     1.5490 H     1 <1>   0.0800 
@<TRIPOS>BOND
  1   1   2  2   
  2   2   3  am  
  3   2   4  1   
  4   3   5  am  
  5   3  22  1   
  6   4   6  1   
  7   4  23  1   
  8   4  24  1   
  9   5   7  2   
 10   5   8  1   
 11   6   8  1   
 12   6   9  1   
 13   6  25  1   
 14   8  26  1   
 15   8  27  1   
 16   9  10  1   
 17   9  28  1   
 18   9  29  1   
 19  10  11  2   
 20  10  12  1   
 21  12  13  1   
 22  12  14  1   
 23  13  15  2   
 24  13  16  1   
 25  14  17  2   
 26  14  18  1   
 27  16  19  1   
 28  16  30  1   
 29  16  31  1   
 30  18  19  1   
 31  18  32  1   
 32  18  33  1   
 33  19  20  1   
 34  19  21  1   
 35  20  34  1   
 36  20  35  1   
 37  20  36  1   
 38  21  37  1   
 39  21  38  1   
 40  21  39  1   
@<TRIPOS>SUBSTRUCTURE
  1 ****  10 GROUP 4 **** **** 0

# MOE 2024.06 (io_trps.svl 2023.06)
