@<TRIPOS>MOLECULE
NONAME
44 44 1 0 0 
SMALL
USER_CHARGES


@<TRIPOS>ATOM
  1 O       -0.2170     1.7080    -0.1770 O.2   1 <1>  -0.5700 
  2 C        0.5730     2.4870     0.3200 C.2   1 <1>   0.5440 
  3 N        0.0570     3.5430     1.0230 N.am  1 <1>  -0.7300 
  4 C        2.0070     2.3090     0.1670 C.ar  1 <1>   0.0860 
  5 C       -1.3490     3.6680     1.5170 C.3   1 <1>   0.1400 
  6 C        2.5510     1.0370    -0.0240 C.ar  1 <1>  -0.1500 
  7 C        2.8990     3.3850     0.2010 C.ar  1 <1>  -0.1500 
  8 C       -2.3210     4.1820     0.4330 C.3   1 <1>   0.3430 
  9 C        3.9130     0.8470    -0.1600 C.ar  1 <1>  -0.1500 
 10 C        4.2640     3.2020     0.0660 C.ar  1 <1>  -0.1500 
 11 N       -2.4620     3.2080    -0.6910 N.4   1 <1>  -0.9590 
 12 C        4.7820     1.9240    -0.1140 C.ar  1 <1>   0.0830 
 13 C       -2.7230     3.8730    -1.9990 C.3   1 <1>   0.2630 
 14 C       -3.4560     2.1330    -0.4040 C.3   1 <1>   0.2630 
 15 O        6.1000     1.6540    -0.2520 O.3   1 <1>  -0.3630 
 16 C        7.0760     2.6710    -0.2350 C.3   1 <1>   0.1200 
 17 C        8.4470     2.0200    -0.4230 C.3   1 <1>  -0.1600 
 18 C        9.5660     3.0690    -0.4160 C.3   1 <1>  -0.1600 
 19 C       10.9360     2.4120    -0.6050 C.3   1 <1>  -0.2400 
 20 H        0.7350     4.1230     1.5280 H     1 <1>   0.3700 
 21 H       -1.3590     4.3560     2.3450 H     1 <1>   0.0800 
 22 H       -1.6850     2.7140     1.8860 H     1 <1>   0.0800 
 23 H        1.8950     0.1850    -0.0640 H     1 <1>   0.1500 
 24 H        2.5270     4.3850     0.3270 H     1 <1>   0.1500 
 25 H       -1.9380     5.1170     0.0600 H     1 <1>   0.0800 
 26 H       -3.2870     4.3710     0.8720 H     1 <1>   0.0800 
 27 H        4.3150    -0.1400    -0.3040 H     1 <1>   0.1500 
 28 H        4.9100     4.0590     0.1010 H     1 <1>   0.1500 
 29 H       -1.5340     2.7240    -0.7460 H     1 <1>   0.4500 
 30 H       -3.6710     4.3860    -1.9780 H     1 <1>   0.0800 
 31 H       -2.7430     3.1410    -2.7900 H     1 <1>   0.0800 
 32 H       -1.9450     4.5870    -2.2150 H     1 <1>   0.0800 
 33 H       -4.4430     2.5510    -0.2890 H     1 <1>   0.0800 
 34 H       -3.1880     1.6110     0.5000 H     1 <1>   0.0800 
 35 H       -3.4730     1.4190    -1.2120 H     1 <1>   0.0800 
 36 H        7.0230     3.1770     0.7130 H     1 <1>   0.0800 
 37 H        6.8670     3.3560    -1.0380 H     1 <1>   0.0800 
 38 H        8.4570     1.4910    -1.3600 H     1 <1>   0.0800 
 39 H        8.6110     1.3150     0.3730 H     1 <1>   0.0800 
 40 H        9.5580     3.6030     0.5200 H     1 <1>   0.0800 
 41 H        9.4040     3.7790    -1.2090 H     1 <1>   0.0800 
 42 H       11.1300     1.7120     0.1890 H     1 <1>   0.0800 
 43 H       11.7080     3.1600    -0.5980 H     1 <1>   0.0800 
 44 H       10.9760     1.8890    -1.5450 H     1 <1>   0.0800 
@<TRIPOS>BOND
  1   1   2  2   
  2   2   3  am  
  3   2   4  1   
  4   3   5  1   
  5   3  20  1   
  6   4   6  ar  
  7   4   7  ar  
  8   5   8  1   
  9   5  21  1   
 10   5  22  1   
 11   6   9  ar  
 12   6  23  1   
 13   7  10  ar  
 14   7  24  1   
 15   8  11  1   
 16   8  25  1   
 17   8  26  1   
 18   9  12  ar  
 19   9  27  1   
 20  10  12  ar  
 21  10  28  1   
 22  11  13  1   
 23  11  14  1   
 24  11  29  1   
 25  12  15  1   
 26  13  30  1   
 27  13  31  1   
 28  13  32  1   
 29  14  33  1   
 30  14  34  1   
 31  14  35  1   
 32  15  16  1   
 33  16  17  1   
 34  16  36  1   
 35  16  37  1   
 36  17  18  1   
 37  17  38  1   
 38  17  39  1   
 39  18  19  1   
 40  18  40  1   
 41  18  41  1   
 42  19  42  1   
 43  19  43  1   
 44  19  44  1   
@<TRIPOS>SUBSTRUCTURE
  1 ****   4 GROUP 4 **** **** 0

# MOE 2024.06 (io_trps.svl 2023.06)
