@<TRIPOS>MOLECULE
NONAME
43 44 1 0 0 
SMALL
USER_CHARGES


@<TRIPOS>ATOM
  1 BR      -0.0320    -1.3690    -0.4550 Br    1 <1>  -0.1110 
  2 C       -1.9260    -1.0650    -0.3220 C.ar  1 <1>   0.1110 
  3 C       -2.5730    -1.3830     0.8550 C.ar  1 <1>  -0.1500 
  4 C       -2.5950    -0.5350    -1.4070 C.ar  1 <1>  -0.1500 
  5 C       -3.9370    -1.1590     0.9400 C.ar  1 <1>  -0.1500 
  6 C       -3.9590    -0.3180    -1.3010 C.ar  1 <1>  -0.1500 
  7 C       -4.6510    -0.6220    -0.1300 C.ar  1 <1>  -0.0090 
  8 S       -6.4380    -0.3290     0.0080 S.o2  1 <1>   1.4470 
  9 O       -6.8930     0.4640    -1.1130 O.2   1 <1>  -0.6500 
 10 O       -7.0850    -1.5890     0.2990 O.2   1 <1>  -0.6500 
 11 N       -6.5630     0.6250     1.4020 N.am  1 <1>  -0.8490 
 12 C       -7.9560     0.6400     1.9430 C.3   1 <1>   0.2570 
 13 C       -6.0190     1.9730     1.1950 C.3   1 <1>   0.1960 
 14 C       -9.0170     1.4190     1.1330 C.2   1 <1>   0.5690 
 15 C       -5.7870     2.6780     2.5300 C.3   1 <1>  -0.2400 
 16 O       -9.0730     2.6110     1.3420 O.2   1 <1>  -0.5700 
 17 N       -9.8680     0.8200     0.2300 N.am  1 <1>  -0.6600 
 18 C      -10.0140    -0.6470    -0.0040 C.3   1 <1>   0.1400 
 19 C      -10.6600     1.6500    -0.7240 C.3   1 <1>   0.1400 
 20 C      -11.4920    -1.0480     0.0650 C.3   1 <1>  -0.1600 
 21 C      -12.1430     1.2750    -0.6450 C.3   1 <1>  -0.1600 
 22 C      -12.3550    -0.2230    -0.8970 C.3   1 <1>  -0.1600 
 23 H       -2.0230    -1.7970     1.6820 H     1 <1>   0.1500 
 24 H       -2.0610    -0.2990    -2.3110 H     1 <1>   0.1500 
 25 H       -4.4610    -1.4010     1.8500 H     1 <1>   0.1500 
 26 H       -4.4950     0.0950    -2.1400 H     1 <1>   0.1500 
 27 H       -7.9330     1.0830     2.9200 H     1 <1>   0.0800 
 28 H       -8.2850    -0.3680     2.1040 H     1 <1>   0.0800 
 29 H       -6.6680     2.5600     0.5640 H     1 <1>   0.0800 
 30 H       -5.0670     1.9000     0.6960 H     1 <1>   0.0800 
 31 H       -6.7200     2.9440     2.9930 H     1 <1>   0.0800 
 32 H       -5.2380     3.5860     2.3610 H     1 <1>   0.0800 
 33 H       -5.2160     2.0510     3.1910 H     1 <1>   0.0800 
 34 H       -9.4790    -1.2210     0.7260 H     1 <1>   0.0800 
 35 H       -9.6140    -0.8870    -0.9750 H     1 <1>   0.0800 
 36 H      -10.2910     1.4760    -1.7210 H     1 <1>   0.0800 
 37 H      -10.5450     2.6990    -0.5100 H     1 <1>   0.0800 
 38 H      -11.8410    -0.9100     1.0740 H     1 <1>   0.0800 
 39 H      -11.5860    -2.0930    -0.1730 H     1 <1>   0.0800 
 40 H      -12.6910     1.8460    -1.3730 H     1 <1>   0.0800 
 41 H      -12.5150     1.5410     0.3290 H     1 <1>   0.0800 
 42 H      -13.3940    -0.4720    -0.7630 H     1 <1>   0.0800 
 43 H      -12.0830    -0.4570    -1.9120 H     1 <1>   0.0800 
@<TRIPOS>BOND
  1   1   2  1   
  2   2   3  ar  
  3   2   4  ar  
  4   3   5  ar  
  5   3  23  1   
  6   4   6  ar  
  7   4  24  1   
  8   5   7  ar  
  9   5  25  1   
 10   6   7  ar  
 11   6  26  1   
 12   7   8  1   
 13   8   9  2   
 14   8  10  2   
 15   8  11  am  
 16  11  12  1   
 17  11  13  1   
 18  12  14  1   
 19  12  27  1   
 20  12  28  1   
 21  13  15  1   
 22  13  29  1   
 23  13  30  1   
 24  14  16  2   
 25  14  17  am  
 26  15  31  1   
 27  15  32  1   
 28  15  33  1   
 29  17  18  1   
 30  17  19  1   
 31  18  20  1   
 32  18  34  1   
 33  18  35  1   
 34  19  21  1   
 35  19  36  1   
 36  19  37  1   
 37  20  22  1   
 38  20  38  1   
 39  20  39  1   
 40  21  22  1   
 41  21  40  1   
 42  21  41  1   
 43  22  42  1   
 44  22  43  1   
@<TRIPOS>SUBSTRUCTURE
  1 ****   8 GROUP 4 **** **** 0

# MOE 2024.06 (io_trps.svl 2023.06)
