@<TRIPOS>MOLECULE
NONAME
35 36 1 0 0 
SMALL
USER_CHARGES


@<TRIPOS>ATOM
  1 O       -0.7420     0.3470    -0.8720 O.3   1 <1>  -0.3630 
  2 C       -1.5230    -0.5600    -0.2350 C.ar  1 <1>   0.0830 
  3 C       -0.7030     1.6950    -0.4570 C.3   1 <1>   0.0400 
  4 C       -1.6080    -1.8160    -0.8120 C.ar  1 <1>  -0.1500 
  5 C       -2.2190    -0.2980     0.9410 C.ar  1 <1>  -0.1500 
  6 C       -2.3650    -2.8180    -0.2240 C.ar  1 <1>  -0.1430 
  7 C       -2.9870    -1.2900     1.5230 C.ar  1 <1>  -0.1500 
  8 C       -3.0600    -2.5460     0.9440 C.ar  1 <1>  -0.1500 
  9 C       -2.4130    -4.2050    -0.8420 C.3   1 <1>  -0.0170 
 10 C       -1.4630    -5.1570    -0.0950 C.3   1 <1>  -0.0800 
 11 C       -0.0620    -4.5360     0.0340 C.3   1 <1>   0.3430 
 12 C       -1.4010    -6.5280    -0.7910 C.3   1 <1>  -0.1600 
 13 N        0.8670    -5.4810     0.7180 N.4   1 <1>  -0.9060 
 14 C       -0.3760    -7.4440    -0.1060 C.3   1 <1>  -0.1600 
 15 C        0.9990    -6.7800     0.0050 C.3   1 <1>   0.3430 
 16 H       -0.0700     2.2350    -1.1380 H     1 <1>   0.0800 
 17 H       -0.2950     1.7440     0.5370 H     1 <1>   0.0800 
 18 H       -1.6990     2.0980    -0.4850 H     1 <1>   0.0800 
 19 H       -1.0740    -1.9880    -1.7290 H     1 <1>   0.1500 
 20 H       -2.1770     0.6660     1.4110 H     1 <1>   0.1500 
 21 H       -3.5320    -1.0840     2.4280 H     1 <1>   0.1500 
 22 H       -3.6650    -3.3050     1.4100 H     1 <1>   0.1500 
 23 H       -2.1410    -4.1440    -1.8830 H     1 <1>   0.0800 
 24 H       -3.4220    -4.5820    -0.7960 H     1 <1>   0.0800 
 25 H       -1.8580    -5.2900     0.8980 H     1 <1>   0.0800 
 26 H       -0.1280    -3.6160     0.5940 H     1 <1>   0.0800 
 27 H        0.3150    -4.3010    -0.9490 H     1 <1>   0.0800 
 28 H       -1.1250    -6.4000    -1.8260 H     1 <1>   0.0800 
 29 H       -2.3730    -6.9950    -0.7690 H     1 <1>   0.0800 
 30 H        0.5120    -5.6540     1.6660 H     1 <1>   0.4500 
 31 H        1.7890    -5.0390     0.8180 H     1 <1>   0.4500 
 32 H       -0.2800    -8.3540    -0.6730 H     1 <1>   0.0800 
 33 H       -0.7240    -7.7160     0.8760 H     1 <1>   0.0800 
 34 H        1.6740    -7.4310     0.5390 H     1 <1>   0.0800 
 35 H        1.3980    -6.6150    -0.9830 H     1 <1>   0.0800 
@<TRIPOS>BOND
  1   1   2  1   
  2   1   3  1   
  3   2   4  ar  
  4   2   5  ar  
  5   3  16  1   
  6   3  17  1   
  7   3  18  1   
  8   4   6  ar  
  9   4  19  1   
 10   5   7  ar  
 11   5  20  1   
 12   6   8  ar  
 13   6   9  1   
 14   7   8  ar  
 15   7  21  1   
 16   8  22  1   
 17   9  10  1   
 18   9  23  1   
 19   9  24  1   
 20  10  11  1   
 21  10  12  1   
 22  10  25  1   
 23  11  13  1   
 24  11  26  1   
 25  11  27  1   
 26  12  14  1   
 27  12  28  1   
 28  12  29  1   
 29  13  15  1   
 30  13  30  1   
 31  13  31  1   
 32  14  15  1   
 33  14  32  1   
 34  14  33  1   
 35  15  34  1   
 36  15  35  1   
@<TRIPOS>SUBSTRUCTURE
  1 ****   6 GROUP 4 **** **** 0

# MOE 2024.06 (io_trps.svl 2023.06)
