@<TRIPOS>MOLECULE
NONAME
45 45 1 0 0 
SMALL
USER_CHARGES


@<TRIPOS>ATOM
  1 S        0.0730     0.4070     0.7360 S.o2  1 <1>   1.4470 
  2 O        0.7890     0.4490     1.9900 O.2   1 <1>  -0.6500 
  3 O       -0.7350     1.5280     0.3160 O.2   1 <1>  -0.6500 
  4 N        1.2090     0.2650    -0.4890 N.am  1 <1>  -0.9140 
  5 C       -0.8840    -1.1290     0.6070 C.ar  1 <1>  -0.0090 
  6 C        2.3810     1.0880    -0.2650 C.3   1 <1>   0.1960 
  7 C       -2.2700    -1.1120     0.6320 C.ar  1 <1>  -0.1500 
  8 C       -0.2560    -2.3610     0.4930 C.ar  1 <1>  -0.1500 
  9 C        3.2780     1.0070    -1.4990 C.3   1 <1>  -0.1600 
 10 C       -3.0460    -2.2670     0.5330 C.ar  1 <1>   0.0860 
 11 C       -0.9930    -3.5270     0.3970 C.ar  1 <1>  -0.1500 
 12 C        4.5450     1.8520    -1.3240 C.3   1 <1>  -0.2400 
 13 C       -2.3760    -3.4910     0.4130 C.ar  1 <1>  -0.1430 
 14 C       -4.4930    -2.1430     0.5490 C.2   1 <1>   0.5440 
 15 C       -3.1460    -4.8010     0.2970 C.3   1 <1>  -0.0970 
 16 O       -5.1800    -2.8060     1.3000 O.2   1 <1>  -0.5700 
 17 N       -5.0990    -1.2490    -0.2880 N.am  1 <1>  -0.7300 
 18 C       -6.5430    -0.9260    -0.3190 C.3   1 <1>   0.1400 
 19 C       -6.7600     0.5780    -0.0820 C.3   1 <1>  -0.0800 
 20 C       -8.2610     0.8920    -0.0640 C.3   1 <1>  -0.2400 
 21 C       -6.0670     1.4470    -1.1440 C.3   1 <1>  -0.2400 
 22 H        0.7290     0.6540    -1.2980 H     1 <1>   0.4200 
 23 H        2.9170     0.7300     0.6000 H     1 <1>   0.0800 
 24 H        2.0870     2.1110    -0.0870 H     1 <1>   0.0800 
 25 H       -2.7720    -0.1640     0.7400 H     1 <1>   0.1500 
 26 H        0.8210    -2.4070     0.4800 H     1 <1>   0.1500 
 27 H        2.7400     1.3590    -2.3620 H     1 <1>   0.0800 
 28 H        3.5610    -0.0180    -1.6640 H     1 <1>   0.0800 
 29 H       -0.4750    -4.4680     0.3110 H     1 <1>   0.1500 
 30 H        4.2920     2.8870    -1.1730 H     1 <1>   0.0800 
 31 H        5.1620     1.7760    -2.2020 H     1 <1>   0.0800 
 32 H        5.1140     1.5080    -0.4780 H     1 <1>   0.0800 
 33 H       -3.9020    -4.7250    -0.4640 H     1 <1>   0.0800 
 34 H       -3.6260    -5.0260     1.2340 H     1 <1>   0.0800 
 35 H       -2.4940    -5.6170     0.0440 H     1 <1>   0.0800 
 36 H       -4.5280    -0.7230    -0.9500 H     1 <1>   0.3700 
 37 H       -7.0580    -1.4890     0.4420 H     1 <1>   0.0800 
 38 H       -6.9460    -1.2120    -1.2750 H     1 <1>   0.0800 
 39 H       -6.3590     0.8240     0.8880 H     1 <1>   0.0800 
 40 H       -8.7100     0.6620    -1.0140 H     1 <1>   0.0800 
 41 H       -8.4240     1.9330     0.1500 H     1 <1>   0.0800 
 42 H       -8.7540     0.3130     0.6980 H     1 <1>   0.0800 
 43 H       -6.4080     1.1860    -2.1300 H     1 <1>   0.0800 
 44 H       -5.0000     1.3260    -1.1010 H     1 <1>   0.0800 
 45 H       -6.2850     2.4870    -0.9710 H     1 <1>   0.0800 
@<TRIPOS>BOND
  1   1   2  2   
  2   1   3  2   
  3   1   4  am  
  4   1   5  1   
  5   4   6  1   
  6   4  22  1   
  7   5   7  ar  
  8   5   8  ar  
  9   6   9  1   
 10   6  23  1   
 11   6  24  1   
 12   7  10  ar  
 13   7  25  1   
 14   8  11  ar  
 15   8  26  1   
 16   9  12  1   
 17   9  27  1   
 18   9  28  1   
 19  10  13  ar  
 20  10  14  1   
 21  11  13  ar  
 22  11  29  1   
 23  12  30  1   
 24  12  31  1   
 25  12  32  1   
 26  13  15  1   
 27  14  16  2   
 28  14  17  am  
 29  15  33  1   
 30  15  34  1   
 31  15  35  1   
 32  17  18  1   
 33  17  36  1   
 34  18  19  1   
 35  18  37  1   
 36  18  38  1   
 37  19  20  1   
 38  19  21  1   
 39  19  39  1   
 40  20  40  1   
 41  20  41  1   
 42  20  42  1   
 43  21  43  1   
 44  21  44  1   
 45  21  45  1   
@<TRIPOS>SUBSTRUCTURE
  1 ****   7 GROUP 4 **** **** 0

# MOE 2024.06 (io_trps.svl 2023.06)
