@<TRIPOS>MOLECULE
NONAME
35 36 1 0 0 
SMALL
USER_CHARGES


@<TRIPOS>ATOM
  1 S       -0.0100    -0.2180     0.8000 S.o2  1 <1>   1.4470 
  2 O        0.6620    -1.0830    -0.1440 O.2   1 <1>  -0.6500 
  3 O        0.2100    -0.3960     2.2170 O.2   1 <1>  -0.6500 
  4 N        0.5210     1.3480     0.5290 N.am  1 <1>  -0.9140 
  5 C       -1.7810    -0.1240     0.4310 C.ar  1 <1>  -0.0090 
  6 C        1.9530     1.4520     0.3660 C.3   1 <1>   0.2760 
  7 C       -2.7360    -0.5490     1.3470 C.ar  1 <1>  -0.1500 
  8 C       -2.2330     0.3750    -0.7840 C.ar  1 <1>  -0.1500 
  9 C        2.4180     2.7340     1.0650 C.3   1 <1>  -0.1600 
 10 C        2.2880     1.5010    -1.1310 C.3   1 <1>  -0.1600 
 11 C       -4.0870    -0.4710     1.0610 C.ar  1 <1>  -0.1500 
 12 C       -3.5840     0.4540    -1.0690 C.ar  1 <1>  -0.1500 
 13 C        3.9190     2.9760     0.8470 C.3   1 <1>  -0.1600 
 14 C        3.7870     1.7420    -1.3620 C.3   1 <1>  -0.1600 
 15 C       -4.5490     0.0350    -0.1540 C.ar  1 <1>  -0.1790 
 16 C        4.2610     3.0150    -0.6480 C.3   1 <1>  -0.1600 
 17 C       -5.9740     0.1210    -0.4530 C.2   1 <1>   0.9790 
 18 O       -6.3660     0.5830    -1.5400 O.co2 1 <1>  -0.9000 
 19 O       -6.8200    -0.2630     0.3750 O.co2 1 <1>  -0.9000 
 20 H        0.3080     1.8020     1.4130 H     1 <1>   0.4200 
 21 H        2.4530     0.6100     0.8230 H     1 <1>   0.0800 
 22 H       -2.4240    -0.9460     2.2970 H     1 <1>   0.1500 
 23 H       -1.5190     0.7090    -1.5160 H     1 <1>   0.1500 
 24 H        2.2280     2.6580     2.1210 H     1 <1>   0.0800 
 25 H        1.8700     3.5740     0.6740 H     1 <1>   0.0800 
 26 H        1.7280     2.2950    -1.5940 H     1 <1>   0.0800 
 27 H        2.0080     0.5750    -1.5990 H     1 <1>   0.0800 
 28 H       -4.8140    -0.8040     1.7850 H     1 <1>   0.1500 
 29 H       -3.9150     0.8460    -2.0170 H     1 <1>   0.1500 
 30 H        4.4810     2.1890     1.3200 H     1 <1>   0.0800 
 31 H        4.2050     3.9070     1.3060 H     1 <1>   0.0800 
 32 H        3.9790     1.8270    -2.4180 H     1 <1>   0.0800 
 33 H        4.3430     0.8970    -0.9930 H     1 <1>   0.0800 
 34 H        5.3250     3.1230    -0.7730 H     1 <1>   0.0800 
 35 H        3.7890     3.8720    -1.1000 H     1 <1>   0.0800 
@<TRIPOS>BOND
  1   1   2  2   
  2   1   3  2   
  3   1   4  am  
  4   1   5  1   
  5   4   6  1   
  6   4  20  1   
  7   5   7  ar  
  8   5   8  ar  
  9   6   9  1   
 10   6  10  1   
 11   6  21  1   
 12   7  11  ar  
 13   7  22  1   
 14   8  12  ar  
 15   8  23  1   
 16   9  13  1   
 17   9  24  1   
 18   9  25  1   
 19  10  14  1   
 20  10  26  1   
 21  10  27  1   
 22  11  15  ar  
 23  11  28  1   
 24  12  15  ar  
 25  12  29  1   
 26  13  16  1   
 27  13  30  1   
 28  13  31  1   
 29  14  16  1   
 30  14  32  1   
 31  14  33  1   
 32  15  17  1   
 33  16  34  1   
 34  16  35  1   
 35  17  18  ar  
 36  17  19  ar  
@<TRIPOS>SUBSTRUCTURE
  1 ****   5 GROUP 4 **** **** 0

# MOE 2024.06 (io_trps.svl 2023.06)
