@<TRIPOS>MOLECULE
NONAME
40 40 1 0 0 
SMALL
USER_CHARGES


@<TRIPOS>ATOM
  1 O        3.7670     0.9220     0.7620 O.2   1 <1>  -0.5700 
  2 C        3.6020     1.8430    -0.0130 C.2   1 <1>   0.7150 
  3 N        4.7320     2.3120    -0.6140 N.am  1 <1>  -0.7300 
  4 C        2.2810     2.3840    -0.2670 C.2   1 <1>   0.0550 
  5 C        4.9740     3.6470    -1.2160 C.3   1 <1>   0.0600 
  6 O        1.3110     2.2450     0.6310 O.3   1 <1>  -0.2800 
  7 C        1.7650     3.0560    -1.3350 C.2   1 <1>  -0.1500 
  8 C        0.2080     2.7930     0.1820 C.2   1 <1>  -0.0400 
  9 C        0.4260     3.3240    -1.0450 C.2   1 <1>  -0.1500 
 10 C       -1.0100     2.7130     1.0850 C.3   1 <1>   0.5230 
 11 N       -2.2490     3.0800     0.3280 N.4   1 <1>  -0.9590 
 12 C       -2.9890     4.2110     0.9600 C.3   1 <1>   0.4230 
 13 C       -3.0840     1.8820     0.0130 C.3   1 <1>   0.4230 
 14 C       -2.1270     5.4720     0.9320 C.3   1 <1>  -0.2400 
 15 C       -3.4380     3.8730     2.3830 C.3   1 <1>  -0.2400 
 16 C       -2.2760     0.8820    -0.8190 C.3   1 <1>  -0.2400 
 17 C       -4.3250     2.2870    -0.7860 C.3   1 <1>  -0.2400 
 18 H        5.5690     1.7750    -0.3740 H     1 <1>   0.3700 
 19 H        4.1810     4.3280    -0.9620 H     1 <1>   0.0800 
 20 H        5.0400     3.5570    -2.2870 H     1 <1>   0.0800 
 21 H        5.9000     4.0480    -0.8410 H     1 <1>   0.0800 
 22 H        2.2710     3.3280    -2.2450 H     1 <1>   0.1500 
 23 H       -0.2370     3.8490    -1.7100 H     1 <1>   0.1500 
 24 H       -0.8570     3.3730     1.9210 H     1 <1>   0.0800 
 25 H       -1.0950     1.7110     1.4730 H     1 <1>   0.0800 
 26 H       -1.9110     3.4260    -0.5730 H     1 <1>   0.4500 
 27 H       -3.8690     4.4220     0.3740 H     1 <1>   0.0800 
 28 H       -3.3980     1.4050     0.9280 H     1 <1>   0.0800 
 29 H       -1.2680     5.3950     1.5730 H     1 <1>   0.0800 
 30 H       -2.7120     6.3060     1.2770 H     1 <1>   0.0800 
 31 H       -1.8090     5.6930    -0.0710 H     1 <1>   0.0800 
 32 H       -2.6070     3.7420     3.0520 H     1 <1>   0.0800 
 33 H       -4.0550     2.9940     2.3980 H     1 <1>   0.0800 
 34 H       -4.0320     4.6860     2.7650 H     1 <1>   0.0800 
 35 H       -1.9000     1.3370    -1.7180 H     1 <1>   0.0800 
 36 H       -2.9060     0.0580    -1.1050 H     1 <1>   0.0800 
 37 H       -1.4580     0.4620    -0.2620 H     1 <1>   0.0800 
 38 H       -4.0580     2.8580    -1.6580 H     1 <1>   0.0800 
 39 H       -5.0190     2.8430    -0.1830 H     1 <1>   0.0800 
 40 H       -4.8470     1.4060    -1.1160 H     1 <1>   0.0800 
@<TRIPOS>BOND
  1   1   2  2   
  2   2   3  am  
  3   2   4  1   
  4   3   5  1   
  5   3  18  1   
  6   4   6  1   
  7   4   7  2   
  8   5  19  1   
  9   5  20  1   
 10   5  21  1   
 11   6   8  1   
 12   7   9  1   
 13   7  22  1   
 14   8   9  2   
 15   8  10  1   
 16   9  23  1   
 17  10  11  1   
 18  10  24  1   
 19  10  25  1   
 20  11  12  1   
 21  11  13  1   
 22  11  26  1   
 23  12  14  1   
 24  12  15  1   
 25  12  27  1   
 26  13  16  1   
 27  13  17  1   
 28  13  28  1   
 29  14  29  1   
 30  14  30  1   
 31  14  31  1   
 32  15  32  1   
 33  15  33  1   
 34  15  34  1   
 35  16  35  1   
 36  16  36  1   
 37  16  37  1   
 38  17  38  1   
 39  17  39  1   
 40  17  40  1   
@<TRIPOS>SUBSTRUCTURE
  1 ****   8 GROUP 4 **** **** 0

# MOE 2024.06 (io_trps.svl 2023.06)
