@<TRIPOS>MOLECULE
NONAME
44 46 1 0 0 
SMALL
USER_CHARGES


@<TRIPOS>ATOM
  1 S        0.1210    -0.0210     0.5060 S.o2  1 <1>   1.3330 
  2 O       -0.1380    -0.6080     1.8030 O.2   1 <1>  -0.6500 
  3 O        0.4250     1.3890     0.4050 O.2   1 <1>  -0.6500 
  4 N        1.4000    -0.8870    -0.1890 N.am  1 <1>  -0.8490 
  5 C       -1.2450    -0.3830    -0.6060 C.3   1 <1>  -0.0550 
  6 C        2.6920    -0.1730    -0.0680 C.3   1 <1>   0.1960 
  7 C        1.4680    -2.2800     0.2500 C.3   1 <1>   0.1960 
  8 C       -2.5780     0.2790    -0.2150 C.3   1 <1>  -0.2400 
  9 C        3.9240    -1.0940    -0.2240 C.3   1 <1>  -0.0190 
 10 C        2.4100    -3.0750    -0.6700 C.3   1 <1>  -0.1600 
 11 C        5.1660    -0.3130    -0.6670 C.2   1 <1>   0.5690 
 12 C        3.6120    -2.2570    -1.1820 C.3   1 <1>  -0.1600 
 13 O        5.0100     0.5490    -1.4980 O.2   1 <1>  -0.5700 
 14 N        6.4100    -0.6160    -0.1400 N.am  1 <1>  -0.4770 
 15 C        7.6360     0.0220    -0.3890 C.ar  1 <1>   0.1170 
 16 C        6.6700    -1.7870     0.7490 C.3   1 <1>   0.1400 
 17 C        8.6890    -0.6530     0.1920 C.ar  1 <1>  -0.1440 
 18 C        7.8970     1.1880    -1.1010 C.ar  1 <1>  -0.1500 
 19 C        8.1950    -1.8770     0.9140 C.3   1 <1>  -0.0170 
 20 C        9.9920    -0.2070     0.0830 C.ar  1 <1>  -0.1500 
 21 C        9.1990     1.6480    -1.2190 C.ar  1 <1>  -0.1500 
 22 C       10.2450     0.9530    -0.6300 C.ar  1 <1>  -0.1500 
 23 H       -1.3900    -1.4450    -0.6450 H     1 <1>   0.0800 
 24 H       -0.9770    -0.0570    -1.5930 H     1 <1>   0.0800 
 25 H        2.7540     0.3170     0.8900 H     1 <1>   0.0800 
 26 H        2.7020     0.5980    -0.8210 H     1 <1>   0.0800 
 27 H        0.4890    -2.7290     0.2270 H     1 <1>   0.0800 
 28 H        1.8230    -2.3140     1.2680 H     1 <1>   0.0800 
 29 H       -2.8820    -0.0510     0.7640 H     1 <1>   0.0800 
 30 H       -3.3450     0.0210    -0.9230 H     1 <1>   0.0800 
 31 H       -2.4660     1.3500    -0.1970 H     1 <1>   0.0800 
 32 H        4.1100    -1.5010     0.7500 H     1 <1>   0.0800 
 33 H        1.8510    -3.4380    -1.5150 H     1 <1>   0.0800 
 34 H        2.7600    -3.9350    -0.1280 H     1 <1>   0.0800 
 35 H        4.4690    -2.8950    -1.3090 H     1 <1>   0.0800 
 36 H        3.3680    -1.8400    -2.1450 H     1 <1>   0.0800 
 37 H        6.2870    -2.6880     0.3030 H     1 <1>   0.0800 
 38 H        6.2070    -1.6210     1.7060 H     1 <1>   0.0800 
 39 H        7.0960     1.7370    -1.5600 H     1 <1>   0.1500 
 40 H        8.5770    -2.7690     0.4510 H     1 <1>   0.0800 
 41 H        8.4730    -1.8570     1.9520 H     1 <1>   0.0800 
 42 H       10.8000    -0.7500     0.5430 H     1 <1>   0.1500 
 43 H        9.3960     2.5490    -1.7720 H     1 <1>   0.1500 
 44 H       11.2530     1.3170    -0.7270 H     1 <1>   0.1500 
@<TRIPOS>BOND
  1   1   2  2   
  2   1   3  2   
  3   1   4  am  
  4   1   5  1   
  5   4   6  1   
  6   4   7  1   
  7   5   8  1   
  8   5  23  1   
  9   5  24  1   
 10   6   9  1   
 11   6  25  1   
 12   6  26  1   
 13   7  10  1   
 14   7  27  1   
 15   7  28  1   
 16   8  29  1   
 17   8  30  1   
 18   8  31  1   
 19   9  11  1   
 20   9  12  1   
 21   9  32  1   
 22  10  12  1   
 23  10  33  1   
 24  10  34  1   
 25  11  13  2   
 26  11  14  am  
 27  12  35  1   
 28  12  36  1   
 29  14  15  1   
 30  14  16  1   
 31  15  17  ar  
 32  15  18  ar  
 33  16  19  1   
 34  16  37  1   
 35  16  38  1   
 36  17  19  1   
 37  17  20  ar  
 38  18  21  ar  
 39  18  39  1   
 40  19  40  1   
 41  19  41  1   
 42  20  22  ar  
 43  20  42  1   
 44  21  22  ar  
 45  21  43  1   
 46  22  44  1   
@<TRIPOS>SUBSTRUCTURE
  1 ****   9 GROUP 4 **** **** 0

# MOE 2024.06 (io_trps.svl 2023.06)
