@<TRIPOS>MOLECULE
NONAME
35 36 1 0 0 
SMALL
USER_CHARGES


@<TRIPOS>ATOM
  1 O       -0.9420    -0.9050     1.1240 O.2   1 <1>  -0.5700 
  2 C       -1.7500    -0.3180     0.4460 C.2   1 <1>   0.5690 
  3 N       -2.8100    -0.8770    -0.1740 N.am  1 <1>  -0.6600 
  4 C       -1.7080     1.1630     0.1950 C.3   1 <1>  -0.0990 
  5 C       -3.6400     0.0960    -0.8990 C.3   1 <1>   0.1400 
  6 C       -3.1420    -2.3220    -0.1680 C.3   1 <1>   0.1400 
  7 C       -3.0600     1.4560    -0.4830 C.3   1 <1>  -0.1600 
  8 C       -3.8610    -2.6870     1.1320 C.3   1 <1>   0.1400 
  9 N       -4.1980    -4.1320     1.1500 N.am  1 <1>  -0.7300 
 10 C       -5.2590    -4.6710     0.5000 C.2   1 <1>   0.6900 
 11 O       -5.9780    -3.9620    -0.1770 O.2   1 <1>  -0.5700 
 12 N       -5.4580    -6.0140     0.6220 N.am  1 <1>  -0.5470 
 13 C       -6.4790    -6.8440     0.1400 C.ar  1 <1>   0.1170 
 14 C       -7.7520    -6.3770    -0.1760 C.ar  1 <1>  -0.1500 
 15 C       -6.2200    -8.2020    -0.0130 C.ar  1 <1>  -0.1500 
 16 C       -8.7320    -7.2390    -0.6350 C.ar  1 <1>  -0.1500 
 17 C       -7.1970    -9.0680    -0.4710 C.ar  1 <1>  -0.1500 
 18 C       -8.4560    -8.5870    -0.7840 C.ar  1 <1>  -0.1500 
 19 H       -0.8870     1.3810    -0.4610 H     1 <1>   0.0800 
 20 H       -1.5970     1.6990     1.1190 H     1 <1>   0.0800 
 21 H       -4.6750     0.0030    -0.6140 H     1 <1>   0.0800 
 22 H       -3.5350    -0.0630    -1.9590 H     1 <1>   0.0800 
 23 H       -2.2300    -2.8880    -0.2440 H     1 <1>   0.0800 
 24 H       -3.7700    -2.5510    -1.0120 H     1 <1>   0.0800 
 25 H       -2.9500     2.1090    -1.3310 H     1 <1>   0.0800 
 26 H       -3.7280     1.9170     0.2230 H     1 <1>   0.0800 
 27 H       -4.7680    -2.1110     1.2120 H     1 <1>   0.0800 
 28 H       -3.2270    -2.4580     1.9720 H     1 <1>   0.0800 
 29 H       -3.6150    -4.7140     1.7470 H     1 <1>   0.3700 
 30 H       -4.6950    -6.4990     1.0790 H     1 <1>   0.3700 
 31 H       -7.9850    -5.3350    -0.0610 H     1 <1>   0.1500 
 32 H       -5.2460    -8.5880     0.2230 H     1 <1>   0.1500 
 33 H       -9.7090    -6.8590    -0.8770 H     1 <1>   0.1500 
 34 H       -6.9800   -10.1160    -0.5870 H     1 <1>   0.1500 
 35 H       -9.2180    -9.2570    -1.1420 H     1 <1>   0.1500 
@<TRIPOS>BOND
  1   1   2  2   
  2   2   3  am  
  3   2   4  1   
  4   3   5  1   
  5   3   6  1   
  6   4   7  1   
  7   4  19  1   
  8   4  20  1   
  9   5   7  1   
 10   5  21  1   
 11   5  22  1   
 12   6   8  1   
 13   6  23  1   
 14   6  24  1   
 15   7  25  1   
 16   7  26  1   
 17   8   9  1   
 18   8  27  1   
 19   8  28  1   
 20   9  10  am  
 21   9  29  1   
 22  10  11  2   
 23  10  12  am  
 24  12  13  1   
 25  12  30  1   
 26  13  14  ar  
 27  13  15  ar  
 28  14  16  ar  
 29  14  31  1   
 30  15  17  ar  
 31  15  32  1   
 32  16  18  ar  
 33  16  33  1   
 34  17  18  ar  
 35  17  34  1   
 36  18  35  1   
@<TRIPOS>SUBSTRUCTURE
  1 ****  10 GROUP 4 **** **** 0

# MOE 2024.06 (io_trps.svl 2023.06)
