@<TRIPOS>MOLECULE
NONAME
40 40 1 0 0 
SMALL
USER_CHARGES


@<TRIPOS>ATOM
  1 O        1.0820    -5.7610     0.4490 O.3   1 <1>  -0.3630 
  2 C       -0.1340    -5.1760     0.3130 C.ar  1 <1>   0.0830 
  3 C        2.2480    -5.1390    -0.0240 C.3   1 <1>   0.1200 
  4 C       -1.2210    -5.8700     0.8120 C.ar  1 <1>  -0.1500 
  5 C       -0.3390    -3.9410    -0.2910 C.ar  1 <1>  -0.1500 
  6 C        3.4140    -6.0740     0.2980 C.3   1 <1>   0.3430 
  7 C       -2.5070    -5.3600     0.7230 C.ar  1 <1>  -0.1440 
  8 C       -1.6190    -3.4280    -0.3820 C.ar  1 <1>  -0.1500 
  9 N        4.7210    -5.5150    -0.1620 N.4   1 <1>  -0.9060 
 10 C       -2.7160    -4.1190     0.1180 C.ar  1 <1>  -0.1430 
 11 C       -3.6440    -6.1940     1.3010 C.3   1 <1>  -0.0970 
 12 C        5.8500    -6.4180     0.1480 C.3   1 <1>   0.3430 
 13 C       -4.1090    -3.4870    -0.0190 C.3   1 <1>   0.0630 
 14 C        7.1290    -5.7670    -0.3550 C.3   1 <1>  -0.2400 
 15 C       -4.4830    -3.2950    -1.4930 C.3   1 <1>  -0.2400 
 16 C       -4.1850    -2.1560     0.7380 C.3   1 <1>  -0.2400 
 17 H        2.3510    -4.1960     0.4850 H     1 <1>   0.0800 
 18 H        2.1420    -4.9980    -1.0860 H     1 <1>   0.0800 
 19 H       -1.0480    -6.8240     1.2760 H     1 <1>   0.1500 
 20 H        0.4680    -3.3630    -0.6940 H     1 <1>   0.1500 
 21 H        3.2360    -7.0220    -0.1840 H     1 <1>   0.0800 
 22 H        3.4430    -6.2330     1.3640 H     1 <1>   0.0800 
 23 H       -1.7590    -2.4710    -0.8520 H     1 <1>   0.1500 
 24 H        4.8940    -4.6050     0.2860 H     1 <1>   0.4500 
 25 H        4.6980    -5.3520    -1.1770 H     1 <1>   0.4500 
 26 H       -3.2780    -7.1130     1.7210 H     1 <1>   0.0800 
 27 H       -4.3500    -6.4380     0.5280 H     1 <1>   0.0800 
 28 H       -4.1430    -5.6460     2.0790 H     1 <1>   0.0800 
 29 H        5.7100    -7.3720    -0.3370 H     1 <1>   0.0800 
 30 H        5.9170    -6.5820     1.2130 H     1 <1>   0.0800 
 31 H       -4.8540    -4.1310     0.4090 H     1 <1>   0.0800 
 32 H        7.0960    -5.6210    -1.4200 H     1 <1>   0.0800 
 33 H        7.9630    -6.4120    -0.1370 H     1 <1>   0.0800 
 34 H        7.3040    -4.8270     0.1370 H     1 <1>   0.0800 
 35 H       -3.8260    -2.5920    -1.9720 H     1 <1>   0.0800 
 36 H       -5.4910    -2.9330    -1.5770 H     1 <1>   0.0800 
 37 H       -4.4130    -4.2360    -2.0110 H     1 <1>   0.0800 
 38 H       -3.5220    -1.4280     0.3090 H     1 <1>   0.0800 
 39 H       -3.9090    -2.3070     1.7660 H     1 <1>   0.0800 
 40 H       -5.1870    -1.7670     0.7060 H     1 <1>   0.0800 
@<TRIPOS>BOND
  1   1   2  1   
  2   1   3  1   
  3   2   4  ar  
  4   2   5  ar  
  5   3   6  1   
  6   3  17  1   
  7   3  18  1   
  8   4   7  ar  
  9   4  19  1   
 10   5   8  ar  
 11   5  20  1   
 12   6   9  1   
 13   6  21  1   
 14   6  22  1   
 15   7  10  ar  
 16   7  11  1   
 17   8  10  ar  
 18   8  23  1   
 19   9  12  1   
 20   9  24  1   
 21   9  25  1   
 22  10  13  1   
 23  11  26  1   
 24  11  27  1   
 25  11  28  1   
 26  12  14  1   
 27  12  29  1   
 28  12  30  1   
 29  13  15  1   
 30  13  16  1   
 31  13  31  1   
 32  14  32  1   
 33  14  33  1   
 34  14  34  1   
 35  15  35  1   
 36  15  36  1   
 37  15  37  1   
 38  16  38  1   
 39  16  39  1   
 40  16  40  1   
@<TRIPOS>SUBSTRUCTURE
  1 ****   2 GROUP 4 **** **** 0

# MOE 2024.06 (io_trps.svl 2023.06)
