@<TRIPOS>MOLECULE
NONAME
40 41 1 0 0 
SMALL
USER_CHARGES


@<TRIPOS>ATOM
  1 F       -0.9020    -0.1700     0.0160 F     1 <1>  -0.1900 
  2 C       -2.1270    -0.6280     0.0130 C.ar  1 <1>   0.1900 
  3 C       -2.3270    -1.9950     0.0290 C.ar  1 <1>  -0.1500 
  4 C       -3.1740     0.2740    -0.0040 C.ar  1 <1>  -0.1500 
  5 C       -3.6270    -2.4710     0.0260 C.ar  1 <1>  -0.1500 
  6 C       -4.4720    -0.2120    -0.0060 C.ar  1 <1>  -0.1500 
  7 C       -4.7010    -1.5890     0.0090 C.ar  1 <1>   0.0830 
  8 O       -5.9380    -2.1460     0.0070 O.3   1 <1>  -0.3630 
  9 C       -7.1010    -1.3520    -0.0100 C.3   1 <1>   0.1200 
 10 C       -8.3120    -2.2850    -0.0070 C.3   1 <1>  -0.1600 
 11 C       -9.6260    -1.4920    -0.0250 C.3   1 <1>  -0.1600 
 12 C      -10.8360    -2.4270    -0.0220 C.3   1 <1>   0.1200 
 13 O      -12.0000    -1.6350    -0.0390 O.3   1 <1>  -0.3630 
 14 C      -13.2360    -2.1980    -0.0420 C.ar  1 <1>   0.0830 
 15 C      -14.3130    -1.3270    -0.0590 C.ar  1 <1>  -0.1500 
 16 C      -13.4600    -3.5730    -0.0280 C.ar  1 <1>  -0.1500 
 17 C      -15.6150    -1.8180    -0.0630 C.ar  1 <1>   0.0830 
 18 C      -14.7540    -4.0620    -0.0310 C.ar  1 <1>  -0.1500 
 19 O      -16.7190    -1.0290    -0.0800 O.3   1 <1>  -0.3630 
 20 C      -15.8260    -3.1870    -0.0490 C.ar  1 <1>  -0.1500 
 21 C      -16.6090     0.3760    -0.0950 C.3   1 <1>   0.0400 
 22 H       -1.4860    -2.6650     0.0420 H     1 <1>   0.1500 
 23 H       -2.9730     1.3300    -0.0150 H     1 <1>   0.1500 
 24 H       -3.8190    -3.5290     0.0370 H     1 <1>   0.1500 
 25 H       -5.2830     0.4900    -0.0200 H     1 <1>   0.1500 
 26 H       -7.0870    -0.7480    -0.9010 H     1 <1>   0.0800 
 27 H       -7.0990    -0.7270     0.8670 H     1 <1>   0.0800 
 28 H       -8.2750    -2.9000     0.8760 H     1 <1>   0.0800 
 29 H       -8.2630    -2.9210    -0.8740 H     1 <1>   0.0800 
 30 H       -9.6630    -0.8770    -0.9070 H     1 <1>   0.0800 
 31 H       -9.6750    -0.8570     0.8430 H     1 <1>   0.0800 
 32 H      -10.8490    -3.0310     0.8690 H     1 <1>   0.0800 
 33 H      -10.8370    -3.0520    -0.8990 H     1 <1>   0.0800 
 34 H      -14.1070    -0.2760    -0.0700 H     1 <1>   0.1500 
 35 H      -12.6470    -4.2730    -0.0140 H     1 <1>   0.1500 
 36 H      -14.9310    -5.1240    -0.0200 H     1 <1>   0.1500 
 37 H      -16.8340    -3.5600    -0.0520 H     1 <1>   0.1500 
 38 H      -17.6020     0.7890    -0.1060 H     1 <1>   0.0800 
 39 H      -16.0780     0.6750    -0.9810 H     1 <1>   0.0800 
 40 H      -16.0910     0.6950     0.7920 H     1 <1>   0.0800 
@<TRIPOS>BOND
  1   1   2  1   
  2   2   3  ar  
  3   2   4  ar  
  4   3   5  ar  
  5   3  22  1   
  6   4   6  ar  
  7   4  23  1   
  8   5   7  ar  
  9   5  24  1   
 10   6   7  ar  
 11   6  25  1   
 12   7   8  1   
 13   8   9  1   
 14   9  10  1   
 15   9  26  1   
 16   9  27  1   
 17  10  11  1   
 18  10  28  1   
 19  10  29  1   
 20  11  12  1   
 21  11  30  1   
 22  11  31  1   
 23  12  13  1   
 24  12  32  1   
 25  12  33  1   
 26  13  14  1   
 27  14  15  ar  
 28  14  16  ar  
 29  15  17  ar  
 30  15  34  1   
 31  16  18  ar  
 32  16  35  1   
 33  17  19  1   
 34  17  20  ar  
 35  18  20  ar  
 36  18  36  1   
 37  19  21  1   
 38  20  37  1   
 39  21  38  1   
 40  21  39  1   
 41  21  40  1   
@<TRIPOS>SUBSTRUCTURE
  1 ****  11 GROUP 4 **** **** 0

# MOE 2024.06 (io_trps.svl 2023.06)
