@<TRIPOS>MOLECULE
NONAME
52 54 1 0 0 
SMALL
USER_CHARGES


@<TRIPOS>ATOM
  1 S       -0.1870    -0.2000     0.2290 S.o2  1 <1>   1.4470 
  2 O       -0.4460    -0.7140    -1.0950 O.2   1 <1>  -0.6500 
  3 O       -0.4600    -1.0160     1.3900 O.2   1 <1>  -0.6500 
  4 N       -1.2020     1.1230     0.3380 N.am  1 <1>  -0.9140 
  5 C        1.4670     0.5310     0.3400 C.ar  1 <1>  -0.0090 
  6 C       -2.5590     0.7230     0.6360 C.3   1 <1>   0.3390 
  7 C        1.9130     1.1130     1.5210 C.ar  1 <1>  -0.1500 
  8 C        2.3310     0.5430    -0.7490 C.ar  1 <1>  -0.1500 
  9 C       -3.4800     1.8660     0.2530 C.ar  1 <1>  -0.1440 
 10 C        3.1720     1.6790     1.6140 C.ar  1 <1>  -0.1500 
 11 C        3.5900     1.1100    -0.6600 C.ar  1 <1>  -0.1500 
 12 C       -4.2970     1.7680    -0.8630 C.ar  1 <1>  -0.1500 
 13 C       -3.5120     3.0240     1.0150 C.ar  1 <1>  -0.1500 
 14 C        4.0340     1.6840     0.5250 C.ar  1 <1>   0.1170 
 15 C       -5.1370     2.8130    -1.2090 C.ar  1 <1>  -0.1500 
 16 C       -4.3520     4.0680     0.6680 C.ar  1 <1>  -0.1500 
 17 N        5.2940     2.2790     0.6580 N.am  1 <1>  -0.5470 
 18 C       -5.1710     3.9670    -0.4450 C.ar  1 <1>  -0.1430 
 19 C        6.4640     2.0760    -0.0190 C.2   1 <1>   0.6900 
 20 C       -6.0910     5.1130    -0.8250 C.3   1 <1>  -0.0970 
 21 O        6.5700     1.1590    -0.8120 O.2   1 <1>  -0.5700 
 22 N        7.5310     2.9030     0.2370 N.am  1 <1>  -0.6600 
 23 C        8.8960     2.5660    -0.2590 C.3   1 <1>   0.1400 
 24 C        7.4240     4.2620     0.8410 C.3   1 <1>   0.1400 
 25 C        9.3450     3.6060    -1.2900 C.3   1 <1>  -0.1600 
 26 C        7.8670     5.3180    -0.1790 C.3   1 <1>  -0.1600 
 27 C        9.2720     5.0310    -0.7240 C.3   1 <1>  -0.1600 
 28 H       -1.2390     1.4950    -0.6080 H     1 <1>   0.4200 
 29 H       -2.6520     0.5010     1.6870 H     1 <1>   0.0800 
 30 H       -2.8260    -0.1600     0.0770 H     1 <1>   0.0800 
 31 H        1.2610     1.1180     2.3790 H     1 <1>   0.1500 
 32 H        2.0190     0.1010    -1.6810 H     1 <1>   0.1500 
 33 H        3.4870     2.1160     2.5440 H     1 <1>   0.1500 
 34 H        4.2320     1.1050    -1.5230 H     1 <1>   0.1500 
 35 H       -4.2870     0.8800    -1.4710 H     1 <1>   0.1500 
 36 H       -2.8770     3.1150     1.8790 H     1 <1>   0.1500 
 37 H       -5.7650     2.7230    -2.0780 H     1 <1>   0.1500 
 38 H       -4.3640     4.9600     1.2690 H     1 <1>   0.1500 
 39 H        5.4190     2.8770     1.4650 H     1 <1>   0.3700 
 40 H       -6.9650     4.7420    -1.3300 H     1 <1>   0.0800 
 41 H       -5.5740     5.7930    -1.4770 H     1 <1>   0.0800 
 42 H       -6.4090     5.6470     0.0530 H     1 <1>   0.0800 
 43 H        8.9120     1.5860    -0.7030 H     1 <1>   0.0800 
 44 H        9.5770     2.5610     0.5740 H     1 <1>   0.0800 
 45 H        8.0580     4.3080     1.7100 H     1 <1>   0.0800 
 46 H        6.4160     4.4750     1.1470 H     1 <1>   0.0800 
 47 H        8.7120     3.5240    -2.1570 H     1 <1>   0.0800 
 48 H       10.3520     3.3890    -1.5980 H     1 <1>   0.0800 
 49 H        7.8510     6.2890     0.2840 H     1 <1>   0.0800 
 50 H        7.1610     5.3310    -0.9910 H     1 <1>   0.0800 
 51 H        9.5170     5.7410    -1.4950 H     1 <1>   0.0800 
 52 H        9.9930     5.1370     0.0690 H     1 <1>   0.0800 
@<TRIPOS>BOND
  1   1   2  2   
  2   1   3  2   
  3   1   4  am  
  4   1   5  1   
  5   4   6  1   
  6   4  28  1   
  7   5   7  ar  
  8   5   8  ar  
  9   6   9  1   
 10   6  29  1   
 11   6  30  1   
 12   7  10  ar  
 13   7  31  1   
 14   8  11  ar  
 15   8  32  1   
 16   9  12  ar  
 17   9  13  ar  
 18  10  14  ar  
 19  10  33  1   
 20  11  14  ar  
 21  11  34  1   
 22  12  15  ar  
 23  12  35  1   
 24  13  16  ar  
 25  13  36  1   
 26  14  17  1   
 27  15  18  ar  
 28  15  37  1   
 29  16  18  ar  
 30  16  38  1   
 31  17  19  am  
 32  17  39  1   
 33  18  20  1   
 34  19  21  2   
 35  19  22  am  
 36  20  40  1   
 37  20  41  1   
 38  20  42  1   
 39  22  23  1   
 40  22  24  1   
 41  23  25  1   
 42  23  43  1   
 43  23  44  1   
 44  24  26  1   
 45  24  45  1   
 46  24  46  1   
 47  25  27  1   
 48  25  47  1   
 49  25  48  1   
 50  26  27  1   
 51  26  49  1   
 52  26  50  1   
 53  27  51  1   
 54  27  52  1   
@<TRIPOS>SUBSTRUCTURE
  1 ****   5 GROUP 4 **** **** 0

# MOE 2024.06 (io_trps.svl 2023.06)
