@<TRIPOS>MOLECULE
NONAME
37 37 1 0 0 
SMALL
USER_CHARGES


@<TRIPOS>ATOM
  1 BR      -0.7190     0.1800     0.8250 Br    1 <1>  -0.1110 
  2 C       -0.3880    -1.6520     0.3150 C.ar  1 <1>   0.1110 
  3 C       -1.4610    -2.4940     0.0480 C.ar  1 <1>   0.0830 
  4 C        0.9260    -2.0720     0.2320 C.ar  1 <1>  -0.1500 
  5 O       -2.7190    -1.9890     0.1570 O.3   1 <1>  -0.3630 
  6 C       -1.1840    -3.8090    -0.3170 C.ar  1 <1>  -0.1500 
  7 C        1.1820    -3.3830    -0.1320 C.ar  1 <1>  -0.1500 
  8 C       -3.8570    -2.7710    -0.0930 C.3   1 <1>   0.1200 
  9 C        0.1300    -4.2450    -0.4040 C.ar  1 <1>  -0.1500 
 10 C       -5.0690    -1.8680     0.1320 C.3   1 <1>  -0.1600 
 11 C       -6.3710    -2.6180    -0.1140 C.3   1 <1>   0.3430 
 12 N       -7.5050    -1.6920     0.1250 N.4   1 <1>  -0.9060 
 13 C       -8.8330    -2.2830    -0.1140 C.3   1 <1>   0.4230 
 14 C       -9.8430    -1.1310    -0.2140 C.3   1 <1>  -0.1600 
 15 C       -9.1570    -3.2420     1.0330 C.3   1 <1>  -0.2400 
 16 C      -11.2460    -1.5880    -0.6410 C.3   1 <1>  -0.2400 
 17 H        1.7280    -1.3890     0.4470 H     1 <1>   0.1500 
 18 H       -1.9680    -4.5090    -0.5360 H     1 <1>   0.1500 
 19 H        2.1980    -3.7330    -0.2040 H     1 <1>   0.1500 
 20 H       -3.8510    -3.6020     0.5930 H     1 <1>   0.0800 
 21 H       -3.8080    -3.1200    -1.1110 H     1 <1>   0.0800 
 22 H        0.3380    -5.2630    -0.6870 H     1 <1>   0.1500 
 23 H       -4.9970    -1.0320    -0.5430 H     1 <1>   0.0800 
 24 H       -5.0400    -1.5110     1.1470 H     1 <1>   0.0800 
 25 H       -6.4330    -3.4630     0.5540 H     1 <1>   0.0800 
 26 H       -6.3980    -2.9800    -1.1300 H     1 <1>   0.0800 
 27 H       -7.4000    -0.8720    -0.4830 H     1 <1>   0.4500 
 28 H       -7.4740    -1.3440     1.0910 H     1 <1>   0.4500 
 29 H       -8.8280    -2.8230    -1.0490 H     1 <1>   0.0800 
 30 H       -9.5000    -0.4240    -0.9500 H     1 <1>   0.0800 
 31 H       -9.9200    -0.6220     0.7320 H     1 <1>   0.0800 
 32 H       -9.2030    -2.7220     1.9730 H     1 <1>   0.0800 
 33 H       -8.4360    -4.0360     1.0970 H     1 <1>   0.0800 
 34 H      -10.1140    -3.7040     0.8640 H     1 <1>   0.0800 
 35 H      -11.2090    -2.1340    -1.5680 H     1 <1>   0.0800 
 36 H      -11.8810    -0.7290    -0.7860 H     1 <1>   0.0800 
 37 H      -11.7050    -2.2080     0.1100 H     1 <1>   0.0800 
@<TRIPOS>BOND
  1   1   2  1   
  2   2   3  ar  
  3   2   4  ar  
  4   3   5  1   
  5   3   6  ar  
  6   4   7  ar  
  7   4  17  1   
  8   5   8  1   
  9   6   9  ar  
 10   6  18  1   
 11   7   9  ar  
 12   7  19  1   
 13   8  10  1   
 14   8  20  1   
 15   8  21  1   
 16   9  22  1   
 17  10  11  1   
 18  10  23  1   
 19  10  24  1   
 20  11  12  1   
 21  11  25  1   
 22  11  26  1   
 23  12  13  1   
 24  12  27  1   
 25  12  28  1   
 26  13  14  1   
 27  13  15  1   
 28  13  29  1   
 29  14  16  1   
 30  14  30  1   
 31  14  31  1   
 32  15  32  1   
 33  15  33  1   
 34  15  34  1   
 35  16  35  1   
 36  16  36  1   
 37  16  37  1   
@<TRIPOS>SUBSTRUCTURE
  1 ****   8 GROUP 4 **** **** 0

# MOE 2024.06 (io_trps.svl 2023.06)
