@<TRIPOS>MOLECULE
NONAME
26 27 1 0 0 
SMALL
USER_CHARGES


@<TRIPOS>ATOM
  1 S       -0.0900     0.5690     0.0800 S.3   1 <1>  -0.2860 
  2 C       -1.7470    -0.1100    -0.0500 C.2   1 <1>   0.2420 
  3 C        0.9540    -0.9570     0.2860 C.3   1 <1>   0.1310 
  4 N       -2.0040    -1.3690    -0.0390 N.2   1 <1>  -0.3380 
  5 N       -2.8300     0.6570    -0.1640 N.pl3 1 <1>   0.0480 
  6 C        2.4340    -0.6150     0.3760 C.2   1 <1>   0.5690 
  7 N       -3.3330    -1.4660    -0.1500 N.2   1 <1>  -0.3380 
  8 C       -3.8040    -0.2630    -0.2190 C.2   1 <1>   0.1010 
  9 C       -2.9130     2.1310    -0.2020 C.3   1 <1>   0.0160 
 10 O        3.1920    -1.4010     0.8830 O.2   1 <1>  -0.5700 
 11 N        2.9090     0.5490    -0.1130 N.am  1 <1>  -0.8000 
 12 C       -5.2790     0.0810    -0.3480 C.3   1 <1>  -0.0150 
 13 C       -5.9990     0.7410     0.7890 C.3   1 <1>  -0.2000 
 14 C       -6.3010    -0.6830     0.4370 C.3   1 <1>  -0.2000 
 15 H        0.7680    -1.5910    -0.5600 H     1 <1>   0.0800 
 16 H        0.6280    -1.4460     1.1850 H     1 <1>   0.0800 
 17 H       -2.1490     2.5150    -0.8530 H     1 <1>   0.0800 
 18 H       -2.7660     2.5180     0.7900 H     1 <1>   0.0800 
 19 H       -3.8760     2.4360    -0.5680 H     1 <1>   0.0800 
 20 H        3.9030     0.7640    -0.0350 H     1 <1>   0.3700 
 21 H        2.3030     1.2690    -0.5080 H     1 <1>   0.3700 
 22 H       -5.5490     0.3560    -1.3530 H     1 <1>   0.1000 
 23 H       -6.7400     1.4910     0.5720 H     1 <1>   0.1000 
 24 H       -5.4710     0.9300     1.7070 H     1 <1>   0.1000 
 25 H       -5.9570    -1.4690     1.0880 H     1 <1>   0.1000 
 26 H       -7.2360    -0.9220    -0.0380 H     1 <1>   0.1000 
@<TRIPOS>BOND
  1   1   2  1   
  2   1   3  1   
  3   2   4  2   
  4   2   5  1   
  5   3   6  1   
  6   3  15  1   
  7   3  16  1   
  8   4   7  1   
  9   5   8  1   
 10   5   9  1   
 11   6  10  2   
 12   6  11  am  
 13   7   8  2   
 14   8  12  1   
 15   9  17  1   
 16   9  18  1   
 17   9  19  1   
 18  11  20  1   
 19  11  21  1   
 20  12  13  1   
 21  12  14  1   
 22  12  22  1   
 23  13  14  1   
 24  13  23  1   
 25  13  24  1   
 26  14  25  1   
 27  14  26  1   
@<TRIPOS>SUBSTRUCTURE
  1 ****   2 GROUP 4 **** **** 0

# MOE 2024.06 (io_trps.svl 2023.06)
