@<TRIPOS>MOLECULE
NONAME
49 50 1 0 0 
SMALL
USER_CHARGES


@<TRIPOS>ATOM
  1 O        7.4290    -3.0170     2.4340 O.3   1 <1>  -0.3630 
  2 C        8.1500    -2.1440     1.6890 C.ar  1 <1>   0.0820 
  3 C        7.2010    -4.2870     1.8700 C.3   1 <1>   0.1200 
  4 C        7.5220    -1.2200     0.8510 C.ar  1 <1>   0.0820 
  5 C        9.5300    -2.1710     1.7870 C.ar  1 <1>  -0.1500 
  6 C        6.1270    -4.1570     0.7810 C.3   1 <1>   0.3430 
  7 O        6.1620    -1.2140     0.7780 O.3   1 <1>  -0.3630 
  8 C        8.3000    -0.3420     0.1040 C.ar  1 <1>  -0.1500 
  9 C       10.2930    -1.2900     1.0410 C.ar  1 <1>  -0.1500 
 10 N        5.7260    -5.4770     0.1970 N.4   1 <1>  -0.9590 
 11 C        5.4930     0.0240     0.6460 C.3   1 <1>   0.0400 
 12 C        9.6850    -0.3730     0.1980 C.ar  1 <1>  -0.1430 
 13 C        4.9510    -5.2600    -1.0540 C.3   1 <1>   0.3430 
 14 C        4.9340    -6.2950     1.1520 C.3   1 <1>   0.3430 
 15 C       10.5410     0.5910    -0.6110 C.3   1 <1>   0.1220 
 16 C        5.0550    -6.4710    -1.9860 C.3   1 <1>  -0.1600 
 17 C        5.3730    -7.7590     1.0890 C.3   1 <1>  -0.1600 
 18 C       11.2320    -0.1410    -1.7490 C.2   1 <1>  -0.2880 
 19 C        4.6370    -7.8280    -1.3880 C.3   1 <1>  -0.1600 
 20 C        5.6130    -8.3400    -0.3170 C.3   1 <1>  -0.1600 
 21 C       12.5540    -0.2100    -1.9340 C.2   1 <1>  -0.3000 
 22 H        6.8720    -4.9260     2.6670 H     1 <1>   0.0800 
 23 H        8.1300    -4.6520     1.4660 H     1 <1>   0.0800 
 24 H       10.0070    -2.8710     2.4480 H     1 <1>   0.1500 
 25 H        6.5230    -3.5290     0.0000 H     1 <1>   0.0800 
 26 H        5.2640    -3.6650     1.1990 H     1 <1>   0.0800 
 27 H        7.8370     0.3640    -0.5580 H     1 <1>   0.1500 
 28 H       11.3670    -1.3180     1.1170 H     1 <1>   0.1500 
 29 H        6.5690    -6.0100    -0.0560 H     1 <1>   0.4500 
 30 H        4.4520    -0.1300     0.8640 H     1 <1>   0.0800 
 31 H        5.6040     0.3810    -0.3620 H     1 <1>   0.0800 
 32 H        5.9110     0.7250     1.3480 H     1 <1>   0.0800 
 33 H        5.3350    -4.3970    -1.5750 H     1 <1>   0.0800 
 34 H        3.9170    -5.0690    -0.8160 H     1 <1>   0.0800 
 35 H        3.8860    -6.2250     0.9080 H     1 <1>   0.0800 
 36 H        5.0610    -5.9340     2.1600 H     1 <1>   0.0800 
 37 H       11.2740     1.0430     0.0340 H     1 <1>   0.0800 
 38 H        9.9340     1.3810    -1.0160 H     1 <1>   0.0800 
 39 H        6.0590    -6.5370    -2.3670 H     1 <1>   0.0800 
 40 H        4.4220    -6.2750    -2.8340 H     1 <1>   0.0800 
 41 H        4.6050    -8.3400     1.5700 H     1 <1>   0.0800 
 42 H        6.2640    -7.8870     1.6780 H     1 <1>   0.0800 
 43 H       10.5310    -0.6170    -2.4140 H     1 <1>   0.1500 
 44 H        4.6300    -8.5460    -2.1930 H     1 <1>   0.0800 
 45 H        3.6330    -7.7870    -1.0020 H     1 <1>   0.0800 
 46 H        5.5160    -9.4110    -0.2510 H     1 <1>   0.0800 
 47 H        6.6250    -8.1460    -0.6310 H     1 <1>   0.0800 
 48 H       13.0180    -0.7370    -2.7500 H     1 <1>   0.1500 
 49 H       13.2830     0.2510    -1.2900 H     1 <1>   0.1500 
@<TRIPOS>BOND
  1   1   2  1   
  2   1   3  1   
  3   2   4  ar  
  4   2   5  ar  
  5   3   6  1   
  6   3  22  1   
  7   3  23  1   
  8   4   7  1   
  9   4   8  ar  
 10   5   9  ar  
 11   5  24  1   
 12   6  10  1   
 13   6  25  1   
 14   6  26  1   
 15   7  11  1   
 16   8  12  ar  
 17   8  27  1   
 18   9  12  ar  
 19   9  28  1   
 20  10  13  1   
 21  10  14  1   
 22  10  29  1   
 23  11  30  1   
 24  11  31  1   
 25  11  32  1   
 26  12  15  1   
 27  13  16  1   
 28  13  33  1   
 29  13  34  1   
 30  14  17  1   
 31  14  35  1   
 32  14  36  1   
 33  15  18  1   
 34  15  37  1   
 35  15  38  1   
 36  16  19  1   
 37  16  39  1   
 38  16  40  1   
 39  17  20  1   
 40  17  41  1   
 41  17  42  1   
 42  18  21  2   
 43  18  43  1   
 44  19  20  1   
 45  19  44  1   
 46  19  45  1   
 47  20  46  1   
 48  20  47  1   
 49  21  48  1   
 50  21  49  1   
@<TRIPOS>SUBSTRUCTURE
  1 ****   6 GROUP 4 **** **** 0

# MOE 2024.06 (io_trps.svl 2023.06)
