@<TRIPOS>MOLECULE
NONAME
30 31 1 0 0 
SMALL
USER_CHARGES


@<TRIPOS>ATOM
  1 N       -0.3420     0.0370     0.9620 N.ar  1 <1>  -0.6200 
  2 C       -1.4520     0.6790     0.7690 C.ar  1 <1>   0.4100 
  3 C       -0.3210    -1.2370     0.5540 C.ar  1 <1>   0.4700 
  4 N       -1.3920     1.9940     1.1140 N.pl3 1 <1>  -0.8690 
  5 C       -2.6110     0.0580     0.2370 C.ar  1 <1>   0.0000 
  6 N       -1.2750    -1.9110    -0.0040 N.ar  1 <1>  -0.6200 
  7 C       -1.6680     3.0900     0.1790 C.3   1 <1>   0.2890 
  8 C       -2.4500    -1.2700    -0.1710 C.ar  1 <1>   0.3100 
  9 C       -3.8850     0.6490     0.1100 C.ar  1 <1>  -0.1500 
 10 C       -0.3300     3.5610    -0.4070 C.3   1 <1>  -0.1600 
 11 C       -2.3910     4.1830     0.9600 C.3   1 <1>  -0.2400 
 12 C       -3.5340    -1.9490    -0.7460 C.ar  1 <1>  -0.1500 
 13 C       -4.9350    -0.0350    -0.4470 C.ar  1 <1>  -0.1500 
 14 C       -0.4830     4.6230    -1.5060 C.3   1 <1>  -0.2400 
 15 C       -4.7570    -1.3470    -0.8880 C.ar  1 <1>  -0.1500 
 16 H        0.6140    -1.7490     0.7110 H     1 <1>   0.1500 
 17 H       -0.5820     2.1980     1.7000 H     1 <1>   0.4000 
 18 H       -2.2960     2.7360    -0.6220 H     1 <1>   0.0800 
 19 H       -4.0280     1.6520     0.4680 H     1 <1>   0.1500 
 20 H        0.1710     2.7080    -0.8330 H     1 <1>   0.0800 
 21 H        0.2910     3.9530     0.3790 H     1 <1>   0.0800 
 22 H       -1.7500     4.5900     1.7200 H     1 <1>   0.0800 
 23 H       -3.2730     3.7810     1.4240 H     1 <1>   0.0800 
 24 H       -2.6930     4.9760     0.3010 H     1 <1>   0.0800 
 25 H       -3.3750    -2.9620    -1.0680 H     1 <1>   0.1500 
 26 H       -5.9030     0.4270    -0.5450 H     1 <1>   0.1500 
 27 H       -1.1240     4.2620    -2.2910 H     1 <1>   0.0800 
 28 H        0.4790     4.8490    -1.9300 H     1 <1>   0.0800 
 29 H       -0.8950     5.5330    -1.1080 H     1 <1>   0.0800 
 30 H       -5.5850    -1.8750    -1.3290 H     1 <1>   0.1500 
@<TRIPOS>BOND
  1   1   2  ar  
  2   1   3  ar  
  3   2   4  1   
  4   2   5  ar  
  5   3   6  ar  
  6   3  16  1   
  7   4   7  1   
  8   4  17  1   
  9   5   8  ar  
 10   5   9  ar  
 11   6   8  ar  
 12   7  10  1   
 13   7  11  1   
 14   7  18  1   
 15   8  12  ar  
 16   9  13  ar  
 17   9  19  1   
 18  10  14  1   
 19  10  20  1   
 20  10  21  1   
 21  11  22  1   
 22  11  23  1   
 23  11  24  1   
 24  12  15  ar  
 25  12  25  1   
 26  13  15  ar  
 27  13  26  1   
 28  14  27  1   
 29  14  28  1   
 30  14  29  1   
 31  15  30  1   
@<TRIPOS>SUBSTRUCTURE
  1 ****   5 GROUP 4 **** **** 0

# MOE 2024.06 (io_trps.svl 2023.06)
