@<TRIPOS>MOLECULE
NONAME
47 48 1 0 0 
SMALL
USER_CHARGES


@<TRIPOS>ATOM
  1 O       -2.5400    -7.8680    -0.0040 O.3   1 <1>  -0.3630 
  2 C       -3.3380    -6.7890     0.1940 C.ar  1 <1>   0.0830 
  3 C       -1.1560    -7.8030     0.2260 C.3   1 <1>   0.1200 
  4 C       -4.6800    -6.9480    -0.1100 C.ar  1 <1>  -0.1500 
  5 C       -2.8840    -5.5650     0.6750 C.ar  1 <1>  -0.1500 
  6 C       -0.5790    -9.1780    -0.1180 C.3   1 <1>   0.3430 
  7 C       -5.5770    -5.9050     0.0550 C.ar  1 <1>  -0.1440 
  8 C       -3.7690    -4.5150     0.8460 C.ar  1 <1>  -0.1440 
  9 N        0.9020    -9.2660     0.1080 N.4   1 <1>  -0.9590 
 10 C       -5.1080    -4.6900     0.5340 C.ar  1 <1>  -0.1500 
 11 C       -7.0510    -6.1060    -0.2900 C.3   1 <1>   0.0630 
 12 C       -3.2910    -3.1720     1.3690 C.3   1 <1>  -0.0970 
 13 C        1.6730    -8.4080    -0.8450 C.3   1 <1>   0.3430 
 14 C        1.3440   -10.6890     0.0300 C.3   1 <1>   0.3430 
 15 C       -7.4840    -5.1610    -1.4150 C.3   1 <1>  -0.2400 
 16 C       -7.9330    -5.9190     0.9490 C.3   1 <1>  -0.2400 
 17 C        3.1610    -8.4580    -0.4950 C.3   1 <1>  -0.1600 
 18 C        2.8260   -10.7910     0.4000 C.3   1 <1>  -0.1600 
 19 C        3.6960    -9.8960    -0.4910 C.3   1 <1>  -0.1600 
 20 H       -1.0020    -7.5680     1.2650 H     1 <1>   0.0800 
 21 H       -0.7530    -7.0350    -0.4100 H     1 <1>   0.0800 
 22 H       -5.0160    -7.8990    -0.4790 H     1 <1>   0.1500 
 23 H       -1.8530    -5.4080     0.9220 H     1 <1>   0.1500 
 24 H       -0.8010    -9.4010    -1.1490 H     1 <1>   0.0800 
 25 H       -1.0760    -9.9090     0.4990 H     1 <1>   0.0800 
 26 H        1.1150    -8.9430     1.0620 H     1 <1>   0.4500 
 27 H       -5.7910    -3.8710     0.6660 H     1 <1>   0.1500 
 28 H       -7.1890    -7.1150    -0.6400 H     1 <1>   0.0800 
 29 H       -2.3520    -3.2710     1.8830 H     1 <1>   0.0800 
 30 H       -4.0100    -2.7640     2.0570 H     1 <1>   0.0800 
 31 H       -3.1680    -2.4860     0.5500 H     1 <1>   0.0800 
 32 H        1.3310    -7.3870    -0.7920 H     1 <1>   0.0800 
 33 H        1.5290    -8.7620    -1.8530 H     1 <1>   0.0800 
 34 H        1.1980   -11.0630    -0.9710 H     1 <1>   0.0800 
 35 H        0.7650   -11.2960     0.7070 H     1 <1>   0.0800 
 36 H       -7.4150    -4.1350    -1.1010 H     1 <1>   0.0800 
 37 H       -8.4990    -5.3650    -1.7030 H     1 <1>   0.0800 
 38 H       -6.8500    -5.3000    -2.2720 H     1 <1>   0.0800 
 39 H       -7.8730    -4.9100     1.3130 H     1 <1>   0.0800 
 40 H       -7.6090    -6.5840     1.7300 H     1 <1>   0.0800 
 41 H       -8.9580    -6.1400     0.7130 H     1 <1>   0.0800 
 42 H        3.3190    -8.0050     0.4680 H     1 <1>   0.0800 
 43 H        3.7110    -7.8780    -1.2160 H     1 <1>   0.0800 
 44 H        3.1450   -11.8140     0.2940 H     1 <1>   0.0800 
 45 H        2.9570   -10.5210     1.4330 H     1 <1>   0.0800 
 46 H        4.7150    -9.9080    -0.1390 H     1 <1>   0.0800 
 47 H        3.6950   -10.2820    -1.4980 H     1 <1>   0.0800 
@<TRIPOS>BOND
  1   1   2  1   
  2   1   3  1   
  3   2   4  ar  
  4   2   5  ar  
  5   3   6  1   
  6   3  20  1   
  7   3  21  1   
  8   4   7  ar  
  9   4  22  1   
 10   5   8  ar  
 11   5  23  1   
 12   6   9  1   
 13   6  24  1   
 14   6  25  1   
 15   7  10  ar  
 16   7  11  1   
 17   8  10  ar  
 18   8  12  1   
 19   9  13  1   
 20   9  14  1   
 21   9  26  1   
 22  10  27  1   
 23  11  15  1   
 24  11  16  1   
 25  11  28  1   
 26  12  29  1   
 27  12  30  1   
 28  12  31  1   
 29  13  17  1   
 30  13  32  1   
 31  13  33  1   
 32  14  18  1   
 33  14  34  1   
 34  14  35  1   
 35  15  36  1   
 36  15  37  1   
 37  15  38  1   
 38  16  39  1   
 39  16  40  1   
 40  16  41  1   
 41  17  19  1   
 42  17  42  1   
 43  17  43  1   
 44  18  19  1   
 45  18  44  1   
 46  18  45  1   
 47  19  46  1   
 48  19  47  1   
@<TRIPOS>SUBSTRUCTURE
  1 ****   1 GROUP 4 **** **** 0

# MOE 2024.06 (io_trps.svl 2023.06)
