@<TRIPOS>MOLECULE
NONAME
38 38 1 0 0 
SMALL
USER_CHARGES


@<TRIPOS>ATOM
  1 O        0.2340     0.0300     0.9390 O.2   1 <1>  -0.5700 
  2 C        0.2860    -0.8440     0.0970 C.2   1 <1>   0.6900 
  3 N        1.4510    -1.4760    -0.2200 N.am  1 <1>  -0.5470 
  4 N       -0.8260    -1.2410    -0.5630 N.am  1 <1>  -0.7300 
  5 C        2.7720    -1.2410     0.1880 C.ar  1 <1>   0.1170 
  6 C       -2.1920    -0.7310    -0.4250 C.3   1 <1>   0.5000 
  7 C        3.6900    -2.2820     0.1110 C.ar  1 <1>  -0.1500 
  8 C        3.2150    -0.0040     0.6470 C.ar  1 <1>  -0.1500 
  9 C       -2.9440    -1.4760    -1.4830 C.1   1 <1>  -0.2000 
 10 C       -2.7180    -1.1340     0.9740 C.3   1 <1>  -0.1600 
 11 C       -2.2000     0.7980    -0.6980 C.3   1 <1>  -0.1600 
 12 C        5.0130    -2.1070     0.4840 C.ar  1 <1>  -0.1430 
 13 C        4.5320     0.1810     1.0220 C.ar  1 <1>  -0.1500 
 14 C       -3.5370    -2.0770    -2.3220 C.1   1 <1>  -0.1770 
 15 C       -4.1790    -0.7730     1.2950 C.3   1 <1>  -0.2400 
 16 C       -3.4910     1.4120    -1.2790 C.3   1 <1>  -0.2400 
 17 C        5.4310    -0.8680     0.9400 C.ar  1 <1>  -0.1500 
 18 C        6.0060    -3.2510     0.3980 C.3   1 <1>  -0.0970 
 19 H        1.3220    -2.3140    -0.7740 H     1 <1>   0.3700 
 20 H       -0.7430    -1.8700    -1.3540 H     1 <1>   0.3700 
 21 H        3.3640    -3.2420    -0.2420 H     1 <1>   0.1500 
 22 H        2.5300     0.8210     0.7120 H     1 <1>   0.1500 
 23 H       -2.0980    -0.6770     1.7250 H     1 <1>   0.0800 
 24 H       -2.6110    -2.1990     1.0760 H     1 <1>   0.0800 
 25 H       -1.4100     1.0230    -1.3930 H     1 <1>   0.0800 
 26 H       -1.9650     1.3060     0.2200 H     1 <1>   0.0800 
 27 H        4.8580     1.1430     1.3770 H     1 <1>   0.1500 
 28 H       -4.0810    -2.6160    -3.0790 H     1 <1>   0.1770 
 29 H       -4.2930     0.2920     1.3900 H     1 <1>   0.0800 
 30 H       -4.4640    -1.2190     2.2310 H     1 <1>   0.0800 
 31 H       -4.8450    -1.1350     0.5320 H     1 <1>   0.0800 
 32 H       -3.6770     1.0400    -2.2710 H     1 <1>   0.0800 
 33 H       -3.3850     2.4810    -1.3420 H     1 <1>   0.0800 
 34 H       -4.3460     1.1960    -0.6680 H     1 <1>   0.0800 
 35 H        6.4550    -0.7150     1.2340 H     1 <1>   0.1500 
 36 H        5.5040    -4.1840     0.2180 H     1 <1>   0.0800 
 37 H        6.5530    -3.3320     1.3200 H     1 <1>   0.0800 
 38 H        6.7000    -3.0720    -0.4030 H     1 <1>   0.0800 
@<TRIPOS>BOND
  1   1   2  2   
  2   2   3  am  
  3   2   4  am  
  4   3   5  1   
  5   3  19  1   
  6   4   6  1   
  7   4  20  1   
  8   5   7  ar  
  9   5   8  ar  
 10   6   9  1   
 11   6  10  1   
 12   6  11  1   
 13   7  12  ar  
 14   7  21  1   
 15   8  13  ar  
 16   8  22  1   
 17   9  14  3   
 18  10  15  1   
 19  10  23  1   
 20  10  24  1   
 21  11  16  1   
 22  11  25  1   
 23  11  26  1   
 24  12  17  ar  
 25  12  18  1   
 26  13  17  ar  
 27  13  27  1   
 28  14  28  1   
 29  15  29  1   
 30  15  30  1   
 31  15  31  1   
 32  16  32  1   
 33  16  33  1   
 34  16  34  1   
 35  17  35  1   
 36  18  36  1   
 37  18  37  1   
 38  18  38  1   
@<TRIPOS>SUBSTRUCTURE
  1 ****   2 GROUP 4 **** **** 0

# MOE 2024.06 (io_trps.svl 2023.06)
