@<TRIPOS>MOLECULE
NONAME
37 37 1 0 0 
SMALL
USER_CHARGES


@<TRIPOS>ATOM
  1 O       -8.2560     1.2980     0.0360 O.3   1 <1>  -0.3630 
  2 C       -8.3530    -0.0590     0.0120 C.ar  1 <1>   0.0820 
  3 C       -7.0190     1.9610     0.0100 C.3   1 <1>   0.1200 
  4 C       -9.6280    -0.6270     0.0080 C.ar  1 <1>  -0.1440 
  5 C       -7.2280    -0.8810    -0.0130 C.ar  1 <1>  -0.1500 
  6 C       -7.3170     3.4600     0.0260 C.3   1 <1>  -0.1600 
  7 C       -9.7600    -2.0120    -0.0380 C.ar  1 <1>  -0.1440 
  8 C      -10.8740     0.2600     0.0450 C.3   1 <1>  -0.0960 
  9 C       -7.3620    -2.2560    -0.0510 C.ar  1 <1>  -0.1440 
 10 C       -6.0290     4.2730    -0.0030 C.3   1 <1>   0.3430 
 11 C       -8.6280    -2.8120    -0.0620 C.ar  1 <1>  -0.1500 
 12 C      -11.1220    -2.6930    -0.0640 C.3   1 <1>  -0.0970 
 13 C       -6.1380    -3.1540    -0.0750 C.3   1 <1>  -0.0970 
 14 N       -6.3750     5.7160     0.0140 N.4   1 <1>  -0.9060 
 15 C       -5.1700     6.5980    -0.0130 C.3   1 <1>   0.2630 
 16 H       -6.5040     1.6720    -0.8910 H     1 <1>   0.0800 
 17 H       -6.4590     1.6610     0.8790 H     1 <1>   0.0800 
 18 H       -6.2380    -0.4720    -0.0040 H     1 <1>   0.1500 
 19 H       -7.8710     3.6840     0.9220 H     1 <1>   0.0800 
 20 H       -7.9180     3.6940    -0.8360 H     1 <1>   0.0800 
 21 H      -10.6530     1.2500     0.3980 H     1 <1>   0.0800 
 22 H      -11.6130    -0.1510     0.7070 H     1 <1>   0.0800 
 23 H      -11.2910     0.3360    -0.9420 H     1 <1>   0.0800 
 24 H       -5.4710     4.0370    -0.8960 H     1 <1>   0.0800 
 25 H       -5.4240     4.0270     0.8560 H     1 <1>   0.0800 
 26 H       -8.7310    -3.8820    -0.0910 H     1 <1>   0.1500 
 27 H      -11.7380    -2.2650    -0.8340 H     1 <1>   0.0800 
 28 H      -11.6100    -2.5730     0.8870 H     1 <1>   0.0800 
 29 H      -11.0250    -3.7450    -0.2640 H     1 <1>   0.0800 
 30 H       -5.3000    -2.6420    -0.5130 H     1 <1>   0.0800 
 31 H       -6.3340    -4.0370    -0.6560 H     1 <1>   0.0800 
 32 H       -5.8830    -3.4470     0.9270 H     1 <1>   0.0800 
 33 H       -6.9360     5.9170     0.8540 H     1 <1>   0.4500 
 34 H       -6.9800     5.9260    -0.7920 H     1 <1>   0.4500 
 35 H       -4.5460     6.4090     0.8460 H     1 <1>   0.0800 
 36 H       -5.4660     7.6360     0.0010 H     1 <1>   0.0800 
 37 H       -4.5930     6.4190    -0.9060 H     1 <1>   0.0800 
@<TRIPOS>BOND
  1   1   2  1   
  2   1   3  1   
  3   2   4  ar  
  4   2   5  ar  
  5   3   6  1   
  6   3  16  1   
  7   3  17  1   
  8   4   7  ar  
  9   4   8  1   
 10   5   9  ar  
 11   5  18  1   
 12   6  10  1   
 13   6  19  1   
 14   6  20  1   
 15   7  11  ar  
 16   7  12  1   
 17   8  21  1   
 18   8  22  1   
 19   8  23  1   
 20   9  11  ar  
 21   9  13  1   
 22  10  14  1   
 23  10  24  1   
 24  10  25  1   
 25  11  26  1   
 26  12  27  1   
 27  12  28  1   
 28  12  29  1   
 29  13  30  1   
 30  13  31  1   
 31  13  32  1   
 32  14  15  1   
 33  14  33  1   
 34  14  34  1   
 35  15  35  1   
 36  15  36  1   
 37  15  37  1   
@<TRIPOS>SUBSTRUCTURE
  1 ****   1 GROUP 4 **** **** 0

# MOE 2024.06 (io_trps.svl 2023.06)
