@<TRIPOS>MOLECULE
NONAME
33 33 1 0 0 
SMALL
USER_CHARGES


@<TRIPOS>ATOM
  1 S       -0.2290    -0.8160     1.0220 S.o2  1 <1>   1.4470 
  2 O       -0.2750    -1.6620    -0.1490 O.2   1 <1>  -0.6500 
  3 O       -0.1800    -1.4390     2.3230 O.2   1 <1>  -0.6500 
  4 N       -1.6280     0.1120     1.0890 N.am  1 <1>  -0.9140 
  5 C        1.1120     0.4010     0.8870 C.ar  1 <1>  -0.0090 
  6 C       -2.3000     0.5760    -0.0970 C.3   1 <1>   0.3560 
  7 C        2.0960     0.2830    -0.0910 C.ar  1 <1>  -0.1500 
  8 C        1.1870     1.4800     1.7630 C.ar  1 <1>  -0.1500 
  9 C       -1.3370     1.2300    -1.0900 C.3   1 <1>  -0.2400 
 10 C       -3.2810     1.6350     0.3990 C.3   1 <1>  -0.2400 
 11 C       -3.0980    -0.5590    -0.7410 C.3   1 <1>  -0.2400 
 12 C        3.1180     1.2120    -0.2020 C.ar  1 <1>  -0.1500 
 13 C        2.2020     2.4150     1.6640 C.ar  1 <1>  -0.1500 
 14 C        3.1630     2.2780     0.6810 C.ar  1 <1>   0.1010 
 15 S        4.4510     3.5330     0.6090 S.3   1 <1>  -0.3310 
 16 C        5.5730     3.0700    -0.7830 C.3   1 <1>  -0.0100 
 17 H       -2.2820    -0.4740     1.5970 H     1 <1>   0.4200 
 18 H        2.0590    -0.5470    -0.7760 H     1 <1>   0.1500 
 19 H        0.4380     1.5860     2.5300 H     1 <1>   0.1500 
 20 H       -1.8940     1.6820    -1.8910 H     1 <1>   0.0800 
 21 H       -0.7610     2.0000    -0.6100 H     1 <1>   0.0800 
 22 H       -0.6770     0.5070    -1.5330 H     1 <1>   0.0800 
 23 H       -3.9810     1.2130     1.0970 H     1 <1>   0.0800 
 24 H       -2.7520     2.4390     0.8790 H     1 <1>   0.0800 
 25 H       -3.8370     2.0460    -0.4250 H     1 <1>   0.0800 
 26 H       -2.4560    -1.2940    -1.1870 H     1 <1>   0.0800 
 27 H       -3.7190    -0.1660    -1.5250 H     1 <1>   0.0800 
 28 H       -3.7340    -1.0400    -0.0200 H     1 <1>   0.0800 
 29 H        3.8580     1.0910    -0.9690 H     1 <1>   0.1500 
 30 H        2.2520     3.2470     2.3440 H     1 <1>   0.1500 
 31 H        6.3480     3.8130    -0.8350 H     1 <1>   0.0800 
 32 H        4.9930     3.0600    -1.6880 H     1 <1>   0.0800 
 33 H        5.9870     2.1010    -0.5670 H     1 <1>   0.0800 
@<TRIPOS>BOND
  1   1   2  2   
  2   1   3  2   
  3   1   4  am  
  4   1   5  1   
  5   4   6  1   
  6   4  17  1   
  7   5   7  ar  
  8   5   8  ar  
  9   6   9  1   
 10   6  10  1   
 11   6  11  1   
 12   7  12  ar  
 13   7  18  1   
 14   8  13  ar  
 15   8  19  1   
 16   9  20  1   
 17   9  21  1   
 18   9  22  1   
 19  10  23  1   
 20  10  24  1   
 21  10  25  1   
 22  11  26  1   
 23  11  27  1   
 24  11  28  1   
 25  12  14  ar  
 26  12  29  1   
 27  13  14  ar  
 28  13  30  1   
 29  14  15  1   
 30  15  16  1   
 31  16  31  1   
 32  16  32  1   
 33  16  33  1   
@<TRIPOS>SUBSTRUCTURE
  1 ****   5 GROUP 4 **** **** 0

# MOE 2024.06 (io_trps.svl 2023.06)
