@<TRIPOS>MOLECULE
NONAME
38 40 1 0 0 
SMALL
USER_CHARGES


@<TRIPOS>ATOM
  1 S        0.0950    -0.8470     2.8980 S.3   1 <1>  -0.0800 
  2 C        0.3510    -1.6070     1.3300 C.2   1 <1>   0.3250 
  3 C       -1.5850    -1.2750     2.8420 C.2   1 <1>  -0.1100 
  4 N       -0.7370    -2.1130     0.8550 N.2   1 <1>  -0.5650 
  5 C        1.6750    -1.6050     0.7460 C.ar  1 <1>   0.0530 
  6 C       -1.8210    -1.9270     1.6940 C.2   1 <1>   0.0460 
  7 C        2.6860    -0.7320     1.1550 C.ar  1 <1>  -0.1500 
  8 C        1.9880    -2.4980    -0.2800 C.ar  1 <1>  -0.1500 
  9 C       -3.1720    -2.4820     1.2540 C.3   1 <1>   0.5240 
 10 C        3.9390    -0.7520     0.5700 C.ar  1 <1>  -0.1500 
 11 C        3.2390    -2.5220    -0.8670 C.ar  1 <1>  -0.1500 
 12 N       -3.7770    -1.6610     0.1570 N.4   1 <1>  -0.9590 
 13 C        4.2250    -1.6470    -0.4460 C.ar  1 <1>  -0.1430 
 14 C       -5.1960    -2.0350    -0.1530 C.3   1 <1>   0.3430 
 15 C       -2.9450    -1.6360    -1.0990 C.3   1 <1>   0.3430 
 16 C        5.6010    -1.6710    -1.0850 C.3   1 <1>  -0.0970 
 17 C       -5.7800    -1.1630    -1.2900 C.3   1 <1>   0.1200 
 18 C       -3.6460    -0.8610    -2.2360 C.3   1 <1>   0.1200 
 19 O       -4.8290    -0.2590    -1.7830 O.3   1 <1>  -0.5600 
 20 H       -2.1970    -0.9870     3.6790 H     1 <1>   0.1500 
 21 H        2.5040    -0.0170     1.9370 H     1 <1>   0.1500 
 22 H        1.2390    -3.1900    -0.6200 H     1 <1>   0.1500 
 23 H       -3.8340    -2.4850     2.1040 H     1 <1>   0.0800 
 24 H       -3.0410    -3.4990     0.9260 H     1 <1>   0.0800 
 25 H        4.6960    -0.0670     0.9110 H     1 <1>   0.1500 
 26 H        3.4460    -3.2280    -1.6530 H     1 <1>   0.1500 
 27 H       -3.7980    -0.6780     0.4610 H     1 <1>   0.4500 
 28 H       -5.8110    -1.9200     0.7250 H     1 <1>   0.0800 
 29 H       -5.2470    -3.0690    -0.4510 H     1 <1>   0.0800 
 30 H       -2.7360    -2.6400    -1.4300 H     1 <1>   0.0800 
 31 H       -1.9970    -1.1630    -0.9010 H     1 <1>   0.0800 
 32 H        6.0330    -0.6860    -1.0840 H     1 <1>   0.0800 
 33 H        5.5390    -2.0110    -2.1030 H     1 <1>   0.0800 
 34 H        6.2450    -2.3340    -0.5360 H     1 <1>   0.0800 
 35 H       -6.6160    -0.5910    -0.9270 H     1 <1>   0.0800 
 36 H       -6.1240    -1.7780    -2.1040 H     1 <1>   0.0800 
 37 H       -3.8840    -1.5160    -3.0560 H     1 <1>   0.0800 
 38 H       -3.0000    -0.0830    -2.6060 H     1 <1>   0.0800 
@<TRIPOS>BOND
  1   1   2  1   
  2   1   3  1   
  3   2   4  2   
  4   2   5  1   
  5   3   6  2   
  6   3  20  1   
  7   4   6  1   
  8   5   7  ar  
  9   5   8  ar  
 10   6   9  1   
 11   7  10  ar  
 12   7  21  1   
 13   8  11  ar  
 14   8  22  1   
 15   9  12  1   
 16   9  23  1   
 17   9  24  1   
 18  10  13  ar  
 19  10  25  1   
 20  11  13  ar  
 21  11  26  1   
 22  12  14  1   
 23  12  15  1   
 24  12  27  1   
 25  13  16  1   
 26  14  17  1   
 27  14  28  1   
 28  14  29  1   
 29  15  18  1   
 30  15  30  1   
 31  15  31  1   
 32  16  32  1   
 33  16  33  1   
 34  16  34  1   
 35  17  19  1   
 36  17  35  1   
 37  17  36  1   
 38  18  19  1   
 39  18  37  1   
 40  18  38  1   
@<TRIPOS>SUBSTRUCTURE
  1 ****   4 GROUP 4 **** **** 0

# MOE 2024.06 (io_trps.svl 2023.06)
