@<TRIPOS>MOLECULE
NONAME
33 33 1 0 0 
SMALL
USER_CHARGES


@<TRIPOS>ATOM
  1 S       -0.1500    -0.1070     0.3320 S.o2  1 <1>   1.4470 
  2 O       -0.7260     0.1980     1.6210 O.2   1 <1>  -0.6500 
  3 O        0.0820    -1.4760    -0.0650 O.2   1 <1>  -0.6500 
  4 N       -1.1270     0.5060    -0.8910 N.am  1 <1>  -0.9140 
  5 C        1.3730     0.8580     0.1270 C.ar  1 <1>  -0.0090 
  6 C       -2.5720     0.4680    -0.7450 C.3   1 <1>   0.2760 
  7 C        2.5510     0.2680    -0.3170 C.ar  1 <1>  -0.1500 
  8 C        1.3930     2.2230     0.4020 C.ar  1 <1>  -0.1500 
  9 C       -3.0650     1.5750     0.2020 C.3   1 <1>  -0.1600 
 10 C       -3.0680    -0.9310    -0.3720 C.3   1 <1>  -0.2400 
 11 C        3.6890     1.0340    -0.4720 C.ar  1 <1>   0.1900 
 12 C        2.5390     2.9890     0.2450 C.ar  1 <1>  -0.1500 
 13 C       -4.5620     1.8760     0.0390 C.3   1 <1>  -0.2400 
 14 F        4.7730     0.4340    -0.8940 F     1 <1>  -0.1900 
 15 C        3.7180     2.3970    -0.1990 C.ar  1 <1>   0.0830 
 16 O        4.8800     3.0820    -0.3780 O.3   1 <1>  -0.3630 
 17 C        4.9750     4.4630    -0.1070 C.3   1 <1>   0.0400 
 18 H       -0.9080    -0.1100    -1.6700 H     1 <1>   0.4200 
 19 H       -2.9750     0.6970    -1.7180 H     1 <1>   0.0800 
 20 H        2.5860    -0.7840    -0.5420 H     1 <1>   0.1500 
 21 H        0.4870     2.6950     0.7470 H     1 <1>   0.1500 
 22 H       -2.5160     2.4770    -0.0050 H     1 <1>   0.0800 
 23 H       -2.8870     1.3010     1.2260 H     1 <1>   0.0800 
 24 H       -2.8250    -1.1720     0.6470 H     1 <1>   0.0800 
 25 H       -2.6420    -1.6720    -1.0250 H     1 <1>   0.0800 
 26 H       -4.1370    -0.9780    -0.4730 H     1 <1>   0.0800 
 27 H        2.4930     4.0370     0.4740 H     1 <1>   0.1500 
 28 H       -4.7850     2.1560    -0.9750 H     1 <1>   0.0800 
 29 H       -4.8410     2.6900     0.6850 H     1 <1>   0.0800 
 30 H       -5.1570     1.0200     0.3050 H     1 <1>   0.0800 
 31 H        5.9830     4.7740    -0.3170 H     1 <1>   0.0800 
 32 H        4.7500     4.6320     0.9310 H     1 <1>   0.0800 
 33 H        4.2900     4.9930    -0.7440 H     1 <1>   0.0800 
@<TRIPOS>BOND
  1   1   2  2   
  2   1   3  2   
  3   1   4  am  
  4   1   5  1   
  5   4   6  1   
  6   4  18  1   
  7   5   7  ar  
  8   5   8  ar  
  9   6   9  1   
 10   6  10  1   
 11   6  19  1   
 12   7  11  ar  
 13   7  20  1   
 14   8  12  ar  
 15   8  21  1   
 16   9  13  1   
 17   9  22  1   
 18   9  23  1   
 19  10  24  1   
 20  10  25  1   
 21  10  26  1   
 22  11  14  1   
 23  11  15  ar  
 24  12  15  ar  
 25  12  27  1   
 26  13  28  1   
 27  13  29  1   
 28  13  30  1   
 29  15  16  1   
 30  16  17  1   
 31  17  31  1   
 32  17  32  1   
 33  17  33  1   
@<TRIPOS>SUBSTRUCTURE
  1 ****   5 GROUP 4 **** **** 0

# MOE 2024.06 (io_trps.svl 2023.06)
