@<TRIPOS>MOLECULE
NONAME
42 44 1 0 0 
SMALL
USER_CHARGES


@<TRIPOS>ATOM
  1 BR      -2.1390    -2.6380    -0.7930 Br    1 <1>  -0.1110 
  2 C       -2.9340    -0.9920    -0.1390 C.ar  1 <1>   0.1110 
  3 C       -4.3130    -0.8150    -0.1940 C.ar  1 <1>  -0.1710 
  4 C       -2.0650    -0.0400     0.3390 C.ar  1 <1>  -0.1500 
  5 O       -5.0230    -1.7130    -0.7240 O.3   1 <1>  -0.8290 
  6 C       -4.8600     0.4010     0.3440 C.ar  1 <1>   0.3100 
  7 C       -2.5650     1.1560     0.8040 C.ar  1 <1>  -0.1440 
  8 N       -6.2000     0.6080     0.3430 N.ar  1 <1>  -0.6200 
  9 C       -3.9620     1.3800     0.8650 C.ar  1 <1>   0.0000 
 10 C       -1.5680     2.2280     1.1760 C.3   1 <1>   0.4870 
 11 C       -6.6720     1.7030     0.8510 C.ar  1 <1>   0.1600 
 12 C       -4.5260     2.5540     1.4170 C.ar  1 <1>  -0.1500 
 13 N       -1.0250     2.8140    -0.0930 N.4   1 <1>  -0.9590 
 14 C       -5.8790     2.7060     1.4040 C.ar  1 <1>  -0.1500 
 15 C        0.1210     3.7520     0.1190 C.3   1 <1>   0.4230 
 16 C       -2.1470     3.4010    -0.9080 C.3   1 <1>   0.2630 
 17 C        0.6500     4.2560    -1.2390 C.3   1 <1>  -0.1600 
 18 C        1.2500     3.0510     0.9000 C.3   1 <1>  -0.1600 
 19 C        1.8970     5.1390    -1.0880 C.3   1 <1>  -0.1600 
 20 C        2.4960     3.9370     1.0440 C.3   1 <1>  -0.1600 
 21 C        3.0030     4.4110    -0.3200 C.3   1 <1>  -0.1600 
 22 H       -1.0150    -0.2630     0.3160 H     1 <1>   0.1500 
 23 H       -0.7790     1.7660     1.7440 H     1 <1>   0.0800 
 24 H       -2.0180     2.9920     1.7840 H     1 <1>   0.0800 
 25 H       -7.7400     1.8330     0.8420 H     1 <1>   0.1500 
 26 H       -3.9220     3.3220     1.8540 H     1 <1>   0.1500 
 27 H       -0.6730     2.0100    -0.6290 H     1 <1>   0.4500 
 28 H       -6.3570     3.5770     1.8130 H     1 <1>   0.1500 
 29 H       -0.2120     4.6040     0.6900 H     1 <1>   0.0800 
 30 H       -2.5790     4.2480    -0.4020 H     1 <1>   0.0800 
 31 H       -2.9220     2.6670    -1.0700 H     1 <1>   0.0800 
 32 H       -1.7920     3.7150    -1.8750 H     1 <1>   0.0800 
 33 H       -0.0940     4.8480    -1.7390 H     1 <1>   0.0800 
 34 H        0.9000     3.4170    -1.8640 H     1 <1>   0.0800 
 35 H        1.5340     2.1450     0.3920 H     1 <1>   0.0800 
 36 H        0.9300     2.8030     1.8950 H     1 <1>   0.0800 
 37 H        1.6410     6.0470    -0.5680 H     1 <1>   0.0800 
 38 H        2.2650     5.4170    -2.0620 H     1 <1>   0.0800 
 39 H        3.2780     3.3860     1.5410 H     1 <1>   0.0800 
 40 H        2.2660     4.7940     1.6550 H     1 <1>   0.0800 
 41 H        3.8410     5.0740    -0.1820 H     1 <1>   0.0800 
 42 H        3.3480     3.5670    -0.8930 H     1 <1>   0.0800 
@<TRIPOS>BOND
  1   1   2  1   
  2   2   3  ar  
  3   2   4  ar  
  4   3   5  1   
  5   3   6  ar  
  6   4   7  ar  
  7   4  22  1   
  8   6   8  ar  
  9   6   9  ar  
 10   7   9  ar  
 11   7  10  1   
 12   8  11  ar  
 13   9  12  ar  
 14  10  13  1   
 15  10  23  1   
 16  10  24  1   
 17  11  14  ar  
 18  11  25  1   
 19  12  14  ar  
 20  12  26  1   
 21  13  15  1   
 22  13  16  1   
 23  13  27  1   
 24  14  28  1   
 25  15  17  1   
 26  15  18  1   
 27  15  29  1   
 28  16  30  1   
 29  16  31  1   
 30  16  32  1   
 31  17  19  1   
 32  17  33  1   
 33  17  34  1   
 34  18  20  1   
 35  18  35  1   
 36  18  36  1   
 37  19  21  1   
 38  19  37  1   
 39  19  38  1   
 40  20  21  1   
 41  20  39  1   
 42  20  40  1   
 43  21  41  1   
 44  21  42  1   
@<TRIPOS>SUBSTRUCTURE
  1 ****   7 GROUP 4 **** **** 0

# MOE 2024.06 (io_trps.svl 2023.06)
