@<TRIPOS>MOLECULE
NONAME
44 45 1 0 0 
SMALL
USER_CHARGES


@<TRIPOS>ATOM
  1 O        0.6060     2.2440     2.4500 O.2   1 <1>  -0.5700 
  2 C        0.1610     2.1740     1.3190 C.2   1 <1>   0.5440 
  3 N        0.9720     1.6750     0.3410 N.am  1 <1>  -0.7300 
  4 C       -1.1900     2.6300     1.0280 C.ar  1 <1>   0.0860 
  5 C        2.3600     1.1840     0.5060 C.3   1 <1>   0.1400 
  6 C       -1.9580     2.1660    -0.0530 C.ar  1 <1>   0.0830 
  7 C       -1.7770     3.5860     1.8620 C.ar  1 <1>  -0.1500 
  8 C        3.2730     1.8500    -0.5270 C.3   1 <1>  -0.0220 
  9 O       -1.4500     1.2230    -0.8850 O.3   1 <1>  -0.3630 
 10 C       -3.2420     2.6680    -0.2970 C.ar  1 <1>   0.0830 
 11 C       -3.0480     4.0740     1.6370 C.ar  1 <1>  -0.1500 
 12 C        4.7250     1.3720    -0.4810 C.2   1 <1>  -0.2760 
 13 C       -1.9310    -0.0930    -0.7200 C.3   1 <1>   0.0400 
 14 O       -3.9240     2.1980    -1.3830 O.3   1 <1>  -0.3630 
 15 C       -3.7830     3.6200     0.5580 C.ar  1 <1>  -0.1500 
 16 C        5.2160     0.4530     0.3600 C.2   1 <1>  -0.2880 
 17 C        5.6010     2.0730    -1.5160 C.3   1 <1>  -0.0220 
 18 C       -5.1510     2.7620    -1.7910 C.3   1 <1>   0.0400 
 19 C        6.6720     0.0160     0.4060 C.3   1 <1>  -0.0220 
 20 C        6.9480     1.3620    -1.7140 C.3   1 <1>  -0.1600 
 21 C        7.5760     0.9860    -0.3670 C.3   1 <1>  -0.1600 
 22 H        0.5330     1.5120    -0.5720 H     1 <1>   0.3700 
 23 H        2.3720     0.1170     0.3700 H     1 <1>   0.0800 
 24 H        2.7160     1.4070     1.4980 H     1 <1>   0.0800 
 25 H       -1.2160     3.9530     2.7050 H     1 <1>   0.1500 
 26 H        3.2540     2.9130    -0.3560 H     1 <1>   0.0800 
 27 H        2.8780     1.6560    -1.5080 H     1 <1>   0.0800 
 28 H       -3.4670     4.8110     2.3020 H     1 <1>   0.1500 
 29 H       -1.4170    -0.7290    -1.4180 H     1 <1>   0.0800 
 30 H       -2.9880    -0.1110    -0.9180 H     1 <1>   0.0800 
 31 H       -1.7320    -0.4120     0.2880 H     1 <1>   0.0800 
 32 H       -4.7670     4.0210     0.4080 H     1 <1>   0.1500 
 33 H        4.6240    -0.0690     1.0910 H     1 <1>   0.1500 
 34 H        5.7730     3.0850    -1.1930 H     1 <1>   0.0800 
 35 H        5.0940     2.1100    -2.4650 H     1 <1>   0.0800 
 36 H       -5.4550     2.2740    -2.7000 H     1 <1>   0.0800 
 37 H       -5.0100     3.8130    -1.9710 H     1 <1>   0.0800 
 38 H       -5.8860     2.5940    -1.0240 H     1 <1>   0.0800 
 39 H        6.7500    -0.9700    -0.0170 H     1 <1>   0.0800 
 40 H        7.0030    -0.0310     1.4280 H     1 <1>   0.0800 
 41 H        7.6150     2.0010    -2.2660 H     1 <1>   0.0800 
 42 H        6.7910     0.4660    -2.2900 H     1 <1>   0.0800 
 43 H        8.5410     0.5360    -0.5200 H     1 <1>   0.0800 
 44 H        7.7120     1.8800     0.2170 H     1 <1>   0.0800 
@<TRIPOS>BOND
  1   1   2  2   
  2   2   3  am  
  3   2   4  1   
  4   3   5  1   
  5   3  22  1   
  6   4   6  ar  
  7   4   7  ar  
  8   5   8  1   
  9   5  23  1   
 10   5  24  1   
 11   6   9  1   
 12   6  10  ar  
 13   7  11  ar  
 14   7  25  1   
 15   8  12  1   
 16   8  26  1   
 17   8  27  1   
 18   9  13  1   
 19  10  14  1   
 20  10  15  ar  
 21  11  15  ar  
 22  11  28  1   
 23  12  16  2   
 24  12  17  1   
 25  13  29  1   
 26  13  30  1   
 27  13  31  1   
 28  14  18  1   
 29  15  32  1   
 30  16  19  1   
 31  16  33  1   
 32  17  20  1   
 33  17  34  1   
 34  17  35  1   
 35  18  36  1   
 36  18  37  1   
 37  18  38  1   
 38  19  21  1   
 39  19  39  1   
 40  19  40  1   
 41  20  21  1   
 42  20  41  1   
 43  20  42  1   
 44  21  43  1   
 45  21  44  1   
@<TRIPOS>SUBSTRUCTURE
  1 ****   3 GROUP 4 **** **** 0

# MOE 2024.06 (io_trps.svl 2023.06)
