@<TRIPOS>MOLECULE
NONAME
34 34 1 0 0 
SMALL
USER_CHARGES


@<TRIPOS>ATOM
  1 O        0.7190     1.1780     1.3510 O.2   1 <1>  -0.5700 
  2 C        1.3030     1.6830     0.4130 C.2   1 <1>   0.6340 
  3 O        0.5960     2.3900    -0.4760 O.3   1 <1>  -0.4300 
  4 C        2.7330     1.5590     0.2090 C.ar  1 <1>   0.0860 
  5 C       -0.8020     2.5590    -0.3510 C.3   1 <1>   0.0400 
  6 C        3.3870     2.1510    -0.8750 C.ar  1 <1>  -0.1500 
  7 C        3.5290     0.8340     1.0980 C.ar  1 <1>  -0.1500 
  8 C        4.7510     2.0260    -1.0580 C.ar  1 <1>  -0.1500 
  9 C        4.8930     0.7070     0.9170 C.ar  1 <1>  -0.1500 
 10 C        5.5330     1.2980    -0.1650 C.ar  1 <1>   0.1170 
 11 N        6.9170     1.1430    -0.2910 N.am  1 <1>  -0.5470 
 12 C        7.7780     1.4080    -1.3220 C.2   1 <1>   0.5690 
 13 O        7.4350     1.8200    -2.4010 O.2   1 <1>  -0.5700 
 14 C        9.2560     1.1470    -1.0880 C.3   1 <1>  -0.0990 
 15 C       10.0230     2.3820    -0.5830 C.3   1 <1>  -0.1600 
 16 C        9.5710     2.8440     0.8100 C.3   1 <1>  -0.1600 
 17 C       10.4200     4.0210     1.2960 C.3   1 <1>  -0.2400 
 18 H       -1.1480     3.1570    -1.1740 H     1 <1>   0.0800 
 19 H       -1.0100     3.0530     0.5820 H     1 <1>   0.0800 
 20 H       -1.2730     1.5910    -0.3710 H     1 <1>   0.0800 
 21 H        2.8190     2.7210    -1.5900 H     1 <1>   0.1500 
 22 H        3.0620     0.3620     1.9470 H     1 <1>   0.1500 
 23 H        5.2050     2.5060    -1.9050 H     1 <1>   0.1500 
 24 H        5.4650     0.1370     1.6270 H     1 <1>   0.1500 
 25 H        7.3740     0.7700     0.5380 H     1 <1>   0.3700 
 26 H        9.6850     0.8380    -2.0250 H     1 <1>   0.0800 
 27 H        9.3760     0.3320    -0.3990 H     1 <1>   0.0800 
 28 H        9.8920     3.1870    -1.2880 H     1 <1>   0.0800 
 29 H       11.0730     2.1440    -0.5520 H     1 <1>   0.0800 
 30 H        9.6620     2.0330     1.5120 H     1 <1>   0.0800 
 31 H        8.5400     3.1540     0.7800 H     1 <1>   0.0800 
 32 H       11.4560     3.7380     1.3630 H     1 <1>   0.0800 
 33 H       10.0890     4.3370     2.2700 H     1 <1>   0.0800 
 34 H       10.3310     4.8530     0.6200 H     1 <1>   0.0800 
@<TRIPOS>BOND
  1   1   2  2   
  2   2   3  1   
  3   2   4  1   
  4   3   5  1   
  5   4   6  ar  
  6   4   7  ar  
  7   5  18  1   
  8   5  19  1   
  9   5  20  1   
 10   6   8  ar  
 11   6  21  1   
 12   7   9  ar  
 13   7  22  1   
 14   8  10  ar  
 15   8  23  1   
 16   9  10  ar  
 17   9  24  1   
 18  10  11  1   
 19  11  12  am  
 20  11  25  1   
 21  12  13  2   
 22  12  14  1   
 23  14  15  1   
 24  14  26  1   
 25  14  27  1   
 26  15  16  1   
 27  15  28  1   
 28  15  29  1   
 29  16  17  1   
 30  16  30  1   
 31  16  31  1   
 32  17  32  1   
 33  17  33  1   
 34  17  34  1   
@<TRIPOS>SUBSTRUCTURE
  1 ****  10 GROUP 4 **** **** 0

# MOE 2024.06 (io_trps.svl 2023.06)
