@<TRIPOS>MOLECULE
NONAME
39 40 1 0 0 
SMALL
USER_CHARGES


@<TRIPOS>ATOM
  1 N        1.0030    -0.6800     0.7690 N.ar  1 <1>  -0.6200 
  2 C        1.5530    -1.1260    -0.3490 C.ar  1 <1>   0.1660 
  3 C       -0.1190    -1.2830     1.1360 C.ar  1 <1>   0.1600 
  4 C        1.0320    -2.1580    -1.1170 C.ar  1 <1>  -0.1500 
  5 C        2.8300    -0.4300    -0.7720 C.3   1 <1>  -0.0160 
  6 C       -0.7170    -2.3200     0.4410 C.ar  1 <1>  -0.1500 
  7 C       -0.1330    -2.7790    -0.7190 C.ar  1 <1>  -0.1500 
  8 C        3.7410    -0.2770     0.4490 C.3   1 <1>   0.3430 
  9 N        5.0430     0.3820     0.1190 N.4   1 <1>  -0.9590 
 10 C        6.0000     0.2370     1.2510 C.3   1 <1>   0.4860 
 11 C        4.8800     1.8220    -0.2610 C.3   1 <1>   0.2630 
 12 C        7.3890     0.5720     0.7420 C.ar  1 <1>  -0.1430 
 13 C        8.1320    -0.3350    -0.0110 C.ar  1 <1>  -0.1430 
 14 C        7.9220     1.8200     1.0370 C.ar  1 <1>  -0.1500 
 15 C        9.3850     0.0360    -0.4740 C.ar  1 <1>  -0.1500 
 16 C        7.6300    -1.7360    -0.3420 C.3   1 <1>  -0.0970 
 17 C        9.1740     2.1770     0.5730 C.ar  1 <1>  -0.1500 
 18 C        9.9040     1.2850    -0.1870 C.ar  1 <1>  -0.1500 
 19 H       -0.5900    -0.9340     2.0400 H     1 <1>   0.1500 
 20 H        1.5190    -2.4780    -2.0200 H     1 <1>   0.1500 
 21 H        2.5620     0.5330    -1.1650 H     1 <1>   0.0800 
 22 H        3.3250    -1.0020    -1.5350 H     1 <1>   0.0800 
 23 H       -1.6290    -2.7590     0.8050 H     1 <1>   0.1500 
 24 H       -0.5690    -3.5820    -1.2890 H     1 <1>   0.1500 
 25 H        3.9230    -1.2590     0.8560 H     1 <1>   0.0800 
 26 H        3.2220     0.2950     1.2030 H     1 <1>   0.0800 
 27 H        5.4920    -0.1030    -0.6690 H     1 <1>   0.4500 
 28 H        5.9930    -0.7760     1.6190 H     1 <1>   0.0800 
 29 H        5.7290     0.8950     2.0600 H     1 <1>   0.0800 
 30 H        4.4440     2.3790     0.5520 H     1 <1>   0.0800 
 31 H        4.2410     1.9160    -1.1240 H     1 <1>   0.0800 
 32 H        5.8380     2.2560    -0.5030 H     1 <1>   0.0800 
 33 H        7.3740     2.5310     1.6330 H     1 <1>   0.1500 
 34 H        9.9770    -0.6460    -1.0610 H     1 <1>   0.1500 
 35 H        6.8720    -1.6970    -1.1030 H     1 <1>   0.0800 
 36 H        7.2370    -2.2200     0.5340 H     1 <1>   0.0800 
 37 H        8.4360    -2.3470    -0.7110 H     1 <1>   0.0800 
 38 H        9.5850     3.1460     0.8020 H     1 <1>   0.1500 
 39 H       10.8800     1.5590    -0.5510 H     1 <1>   0.1500 
@<TRIPOS>BOND
  1   1   2  ar  
  2   1   3  ar  
  3   2   4  ar  
  4   2   5  1   
  5   3   6  ar  
  6   3  19  1   
  7   4   7  ar  
  8   4  20  1   
  9   5   8  1   
 10   5  21  1   
 11   5  22  1   
 12   6   7  ar  
 13   6  23  1   
 14   7  24  1   
 15   8   9  1   
 16   8  25  1   
 17   8  26  1   
 18   9  10  1   
 19   9  11  1   
 20   9  27  1   
 21  10  12  1   
 22  10  28  1   
 23  10  29  1   
 24  11  30  1   
 25  11  31  1   
 26  11  32  1   
 27  12  13  ar  
 28  12  14  ar  
 29  13  15  ar  
 30  13  16  1   
 31  14  17  ar  
 32  14  33  1   
 33  15  18  ar  
 34  15  34  1   
 35  16  35  1   
 36  16  36  1   
 37  16  37  1   
 38  17  18  ar  
 39  17  38  1   
 40  18  39  1   
@<TRIPOS>SUBSTRUCTURE
  1 ****   9 GROUP 4 **** **** 0

# MOE 2024.06 (io_trps.svl 2023.06)
