@<TRIPOS>MOLECULE
NONAME
26 26 1 0 0 
SMALL
USER_CHARGES


@<TRIPOS>ATOM
  1 CL      -0.1900     0.3690     1.2470 Cl    1 <1>  -0.1770 
  2 C       -1.8010     0.2090     0.6020 C.ar  1 <1>   0.1770 
  3 C       -2.0140    -0.5950    -0.5020 C.ar  1 <1>  -0.1500 
  4 C       -2.8450     0.8870     1.2000 C.ar  1 <1>  -0.1500 
  5 C       -3.2970    -0.7220    -1.0080 C.ar  1 <1>  -0.1500 
  6 C       -4.1230     0.7510     0.6850 C.ar  1 <1>  -0.1500 
  7 C       -4.3800    -0.0610    -0.4210 C.ar  1 <1>   0.0860 
  8 C       -5.7290    -0.2000    -0.9390 C.2   1 <1>   0.5440 
  9 O       -6.4470     0.7680    -1.0660 O.2   1 <1>  -0.5700 
 10 N       -6.2720    -1.3970    -1.2890 N.am  1 <1>  -0.7300 
 11 C       -5.8630    -2.7450    -0.8440 C.3   1 <1>   0.1400 
 12 C       -7.0510    -3.4230    -0.1670 C.3   1 <1>  -0.1600 
 13 C       -6.6560    -4.8030     0.3560 C.3   1 <1>   0.1200 
 14 O       -7.7780    -5.4000     0.8940 O.3   1 <1>  -0.6800 
 15 H       -1.1850    -1.1070    -0.9560 H     1 <1>   0.1500 
 16 H       -2.6560     1.5140     2.0540 H     1 <1>   0.1500 
 17 H       -3.4670    -1.3370    -1.8750 H     1 <1>   0.1500 
 18 H       -4.9430     1.2820     1.1390 H     1 <1>   0.1500 
 19 H       -7.2140    -1.3290    -1.6830 H     1 <1>   0.3700 
 20 H       -5.0420    -2.6730    -0.1500 H     1 <1>   0.0800 
 21 H       -5.5450    -3.3190    -1.6980 H     1 <1>   0.0800 
 22 H       -7.8480    -3.5340    -0.8820 H     1 <1>   0.0800 
 23 H       -7.3850    -2.8130     0.6530 H     1 <1>   0.0800 
 24 H       -5.9050    -4.7350     1.1250 H     1 <1>   0.0800 
 25 H       -6.3000    -5.4330    -0.4410 H     1 <1>   0.0800 
 26 H       -8.1410    -4.8660     1.6270 H     1 <1>   0.4000 
@<TRIPOS>BOND
  1   1   2  1   
  2   2   3  ar  
  3   2   4  ar  
  4   3   5  ar  
  5   3  15  1   
  6   4   6  ar  
  7   4  16  1   
  8   5   7  ar  
  9   5  17  1   
 10   6   7  ar  
 11   6  18  1   
 12   7   8  1   
 13   8   9  2   
 14   8  10  am  
 15  10  11  1   
 16  10  19  1   
 17  11  12  1   
 18  11  20  1   
 19  11  21  1   
 20  12  13  1   
 21  12  22  1   
 22  12  23  1   
 23  13  14  1   
 24  13  24  1   
 25  13  25  1   
 26  14  26  1   
@<TRIPOS>SUBSTRUCTURE
  1 ****   7 GROUP 4 **** **** 0

# MOE 2024.06 (io_trps.svl 2023.06)
