@<TRIPOS>MOLECULE
Structure1759
53 56 1 0 0 
SMALL
USER_CHARGES


@<TRIPOS>ATOM
  1 O       -0.5040     1.0340    -0.2410 O.2   1 <1>  -0.5700 
  2 C        0.4640     1.1910     0.4800 C.2   1 <1>   0.7800 
  3 O        0.5870     2.3030     1.1970 O.3   1 <1>  -0.4300 
  4 N        1.4610     0.2940     0.6070 N.am  1 <1>  -0.7300 
  5 C       -0.3190     3.3820     1.0610 C.3   1 <1>   0.1200 
  6 C        1.7920    -0.7320    -0.4000 C.3   1 <1>   0.2200 
  7 C       -0.0940     4.1460    -0.2540 C.3   1 <1>   0.2070 
  8 C        1.1770    -2.1020    -0.0060 C.3   1 <1>  -0.0800 
  9 C        3.3190    -0.8110    -0.5010 C.3   1 <1>  -0.2660 
 10 C        1.2360     4.8920    -0.2810 C.ar  1 <1>  -0.1440 
 11 C       -1.0710     5.3130    -0.3520 C.ar  1 <1>  -0.1440 
 12 C        1.5190    -3.2120    -1.0210 C.3   1 <1>  -0.1600 
 13 C       -0.3560    -2.0490     0.1450 C.3   1 <1>  -0.1600 
 14 C        3.9520     0.5410    -0.6490 C.2   1 <1>   0.9060 
 15 C        1.0240     6.2580    -0.3420 C.ar  1 <1>   0.0000 
 16 C        2.5160     4.3690    -0.2620 C.ar  1 <1>  -0.1500 
 17 C       -0.3860     6.5150    -0.3850 C.ar  1 <1>   0.0000 
 18 C       -2.4520     5.2750    -0.4060 C.ar  1 <1>  -0.1500 
 19 C        0.8110    -4.5270    -0.6790 C.3   1 <1>   0.1200 
 20 C       -0.9510    -3.4340     0.4100 C.3   1 <1>   0.1200 
 21 O        4.0880     1.2250     0.3720 O.co2 1 <1>  -0.9000 
 22 O        4.2960     0.9210    -1.7690 O.co2 1 <1>  -0.9000 
 23 C        2.1110     7.1230    -0.3680 C.ar  1 <1>  -0.1500 
 24 C        3.5970     5.2340    -0.2910 C.ar  1 <1>  -0.1500 
 25 C       -1.0930     7.7080    -0.4590 C.ar  1 <1>  -0.1500 
 26 C       -3.1550     6.4670    -0.4820 C.ar  1 <1>  -0.1500 
 27 O       -0.5620    -4.3140    -0.5990 O.3   1 <1>  -0.5600 
 28 C        3.3960     6.6060    -0.3410 C.ar  1 <1>  -0.1500 
 29 C       -2.4770     7.6790    -0.5060 C.ar  1 <1>  -0.1500 
 30 H        2.3300     0.7220     0.9770 H     1 <1>   0.3700 
 31 H       -0.1600     4.0420     1.8940 H     1 <1>   0.0800 
 32 H       -1.3210     2.9930     1.1100 H     1 <1>   0.0800 
 33 H        1.3970    -0.4190    -1.3540 H     1 <1>   0.0800 
 34 H       -0.1970     3.5070    -1.1120 H     1 <1>   0.0800 
 35 H        1.5940    -2.3860     0.9440 H     1 <1>   0.0800 
 36 H        3.6060    -1.3890    -1.3560 H     1 <1>   0.0800 
 37 H        3.7290    -1.2730     0.3760 H     1 <1>   0.0800 
 38 H        2.5770    -3.3960    -1.0330 H     1 <1>   0.0800 
 39 H        1.2240    -2.9080    -2.0100 H     1 <1>   0.0800 
 40 H       -0.7990    -1.6470    -0.7500 H     1 <1>   0.0800 
 41 H       -0.6230    -1.4020     0.9610 H     1 <1>   0.0800 
 42 H        2.6880     3.3040    -0.2270 H     1 <1>   0.1500 
 43 H       -2.9740     4.3340    -0.3900 H     1 <1>   0.1500 
 44 H        1.1540    -4.9200     0.2630 H     1 <1>   0.0800 
 45 H        0.9840    -5.2590    -1.4490 H     1 <1>   0.0800 
 46 H       -2.0260    -3.3870     0.4080 H     1 <1>   0.0800 
 47 H       -0.6180    -3.8260     1.3560 H     1 <1>   0.0800 
 48 H        1.9500     8.1840    -0.4120 H     1 <1>   0.1500 
 49 H        4.5910     4.8190    -0.2760 H     1 <1>   0.1500 
 50 H       -0.5630     8.6410    -0.4820 H     1 <1>   0.1500 
 51 H       -4.2300     6.4540    -0.5230 H     1 <1>   0.1500 
 52 H        4.2450     7.2650    -0.3620 H     1 <1>   0.1500 
 53 H       -3.0310     8.6000    -0.5650 H     1 <1>   0.1500 
@<TRIPOS>BOND
  1   1   2  2   
  2   2   3  1   
  3   2   4  am  
  4   3   5  1   
  5   4   6  1   
  6   4  30  1   
  7   5   7  1   
  8   5  31  1   
  9   5  32  1   
 10   6   8  1   
 11   6   9  1   
 12   6  33  1   
 13   7  10  1   
 14   7  11  1   
 15   7  34  1   
 16   8  12  1   
 17   8  13  1   
 18   8  35  1   
 19   9  14  1   
 20   9  36  1   
 21   9  37  1   
 22  10  15  ar  
 23  10  16  ar  
 24  11  17  ar  
 25  11  18  ar  
 26  12  19  1   
 27  12  38  1   
 28  12  39  1   
 29  13  20  1   
 30  13  40  1   
 31  13  41  1   
 32  14  21  ar  
 33  14  22  ar  
 34  15  17  1   
 35  15  23  ar  
 36  16  24  ar  
 37  16  42  1   
 38  17  25  ar  
 39  18  26  ar  
 40  18  43  1   
 41  19  27  1   
 42  19  44  1   
 43  19  45  1   
 44  20  27  1   
 45  20  46  1   
 46  20  47  1   
 47  23  28  ar  
 48  23  48  1   
 49  24  28  ar  
 50  24  49  1   
 51  25  29  ar  
 52  25  50  1   
 53  26  29  ar  
 54  26  51  1   
 55  28  52  1   
 56  29  53  1   
@<TRIPOS>SUBSTRUCTURE
  1 ****   2 GROUP 4 **** **** 0

# MOE 2024.06 (io_trps.svl 2023.06)
