@<TRIPOS>MOLECULE
NONAME
42 44 1 0 0 
SMALL
USER_CHARGES


@<TRIPOS>ATOM
  1 O       -1.8830    -0.6390     1.2570 O.2   1 <1>  -0.5760 
  2 C       -2.2660     0.4960     1.2080 C.2   1 <1>   0.8490 
  3 N       -3.5660     0.8080     0.9850 N.pl3 1 <1>  -0.7340 
  4 C       -1.2950     1.6320     1.3990 C.3   1 <1>  -0.1880 
  5 C       -4.6230     0.0090     0.8550 C.cat 1 <1>   1.0680 
  6 N       -5.8000     0.3910     1.3170 N.pl3 1 <1>  -0.7050 
  7 N       -4.7230    -1.1940     0.2630 N.pl3 1 <1>  -0.7680 
  8 C       -6.7290    -0.5870     1.0380 C.ar  1 <1>   0.3010 
  9 C       -6.0560    -1.5900     0.3670 C.ar  1 <1>   0.3010 
 10 C       -3.7180    -1.9910    -0.5040 C.3   1 <1>   0.3470 
 11 C       -8.0890    -0.6820     1.3090 C.ar  1 <1>  -0.1180 
 12 C       -6.7390    -2.7260    -0.0630 C.ar  1 <1>  -0.1180 
 13 C       -3.1700    -3.1740     0.3370 C.3   1 <1>   0.3360 
 14 C       -8.7630    -1.8110     0.8870 C.ar  1 <1>  -0.1590 
 15 C       -8.0910    -2.8260     0.2040 C.ar  1 <1>  -0.1590 
 16 N       -2.0280    -3.9190    -0.2940 N.4   1 <1>  -0.9620 
 17 C       -1.6750    -5.1410     0.4720 C.3   1 <1>   0.3360 
 18 C       -0.7640    -3.1390    -0.3570 C.3   1 <1>   0.3360 
 19 C       -0.2730    -5.4930    -0.0010 C.3   1 <1>  -0.1690 
 20 C        0.3230    -4.1890    -0.5330 C.3   1 <1>  -0.1690 
 21 H       -3.7750     1.7950     1.0690 H     1 <1>   0.4430 
 22 H       -1.2990     2.2750     0.5390 H     1 <1>   0.0700 
 23 H       -0.3010     1.2430     1.5310 H     1 <1>   0.0700 
 24 H       -1.5560     2.1990     2.2730 H     1 <1>   0.0700 
 25 H       -6.0210     1.2420     1.8300 H     1 <1>   0.4430 
 26 H       -2.9130    -1.3510    -0.8190 H     1 <1>   0.0700 
 27 H       -4.1860    -2.3780    -1.3930 H     1 <1>   0.0700 
 28 H       -8.6030     0.1050     1.8340 H     1 <1>   0.1410 
 29 H       -6.2360    -3.5120    -0.5940 H     1 <1>   0.1410 
 30 H       -3.9780    -3.8630     0.5160 H     1 <1>   0.0700 
 31 H       -2.8430    -2.7940     1.2910 H     1 <1>   0.0700 
 32 H       -9.8190    -1.9160     1.0820 H     1 <1>   0.1410 
 33 H       -8.6460    -3.6950    -0.1170 H     1 <1>   0.1410 
 34 H       -2.2490    -4.2350    -1.2490 H     1 <1>   0.4430 
 35 H       -2.3700    -5.9450     0.2910 H     1 <1>   0.0700 
 36 H       -1.6500    -4.9160     1.5270 H     1 <1>   0.0700 
 37 H       -0.6100    -2.6200     0.5760 H     1 <1>   0.0700 
 38 H       -0.7650    -2.4300    -1.1690 H     1 <1>   0.0700 
 39 H       -0.3250    -6.2300    -0.7840 H     1 <1>   0.0700 
 40 H        0.3070    -5.8970     0.8100 H     1 <1>   0.0700 
 41 H        1.2090    -3.9050     0.0090 H     1 <1>   0.0700 
 42 H        0.5750    -4.2870    -1.5750 H     1 <1>   0.0700 
@<TRIPOS>BOND
  1   1   2  2   
  2   2   3  1   
  3   2   4  1   
  4   3   5  ar  
  5   3  21  1   
  6   4  22  1   
  7   4  23  1   
  8   4  24  1   
  9   5   6  ar  
 10   5   7  ar  
 11   6   8  1   
 12   6  25  1   
 13   7   9  1   
 14   7  10  1   
 15   8   9  ar  
 16   8  11  ar  
 17   9  12  ar  
 18  10  13  1   
 19  10  26  1   
 20  10  27  1   
 21  11  14  ar  
 22  11  28  1   
 23  12  15  ar  
 24  12  29  1   
 25  13  16  1   
 26  13  30  1   
 27  13  31  1   
 28  14  15  ar  
 29  14  32  1   
 30  15  33  1   
 31  16  17  1   
 32  16  18  1   
 33  16  34  1   
 34  17  19  1   
 35  17  35  1   
 36  17  36  1   
 37  18  20  1   
 38  18  37  1   
 39  18  38  1   
 40  19  20  1   
 41  19  39  1   
 42  19  40  1   
 43  20  41  1   
 44  20  42  1   
@<TRIPOS>SUBSTRUCTURE
  1 ****   7 GROUP 4 **** **** 0

# MOE 2024.06 (io_trps.svl 2023.06)
