@<TRIPOS>MOLECULE
NONAME
47 50 1 0 0 
SMALL
USER_CHARGES


@<TRIPOS>ATOM
  1 O        1.1510     4.2590     1.8550 O.2   1 <1>  -0.5700 
  2 C        0.5230     3.4430     1.2250 C.2   1 <1>   0.5690 
  3 N        1.1000     2.3380     0.6940 N.am  1 <1>  -0.7300 
  4 C       -0.9680     3.6610     1.0200 C.3   1 <1>   0.0440 
  5 C        2.5150     1.9370     0.7890 C.3   1 <1>   0.2200 
  6 C       -1.6350     2.5040     0.2770 C.ar  1 <1>  -0.1440 
  7 C        3.1160     1.7910    -0.6260 C.3   1 <1>  -0.0800 
  8 C        2.6290     0.5900     1.5360 C.3   1 <1>  -0.0800 
  9 C       -1.7200     2.5200    -1.1070 C.ar  1 <1>  -0.1500 
 10 C       -2.1310     1.4150     0.9770 C.ar  1 <1>  -0.1500 
 11 C        4.6090     1.4290    -0.4880 C.3   1 <1>  -0.1600 
 12 C        2.4060     0.6640    -1.4110 C.3   1 <1>  -0.1600 
 13 C        4.1230     0.2300     1.6700 C.3   1 <1>  -0.1600 
 14 C        1.9190    -0.5360     0.7490 C.3   1 <1>  -0.1600 
 15 C       -2.2910     1.4550    -1.7810 C.ar  1 <1>  -0.1500 
 16 C       -2.7030     0.3490     0.3050 C.ar  1 <1>  -0.1500 
 17 C        4.7620     0.0970     0.2730 C.3   1 <1>  -0.0800 
 18 C        2.5420    -0.6720    -0.6540 C.3   1 <1>  -0.0800 
 19 C       -2.7840     0.3640    -1.0840 C.ar  1 <1>   0.0830 
 20 C        4.0370    -1.0150    -0.5080 C.3   1 <1>  -0.1600 
 21 O       -3.3240    -0.6380    -1.8210 O.3   1 <1>  -0.3630 
 22 C       -3.8770    -1.7820    -1.2090 C.3   1 <1>   0.0400 
 23 H        0.5080     1.6820     0.1790 H     1 <1>   0.3700 
 24 H       -1.1030     4.5750     0.4730 H     1 <1>   0.0800 
 25 H       -1.4260     3.7880     1.9830 H     1 <1>   0.0800 
 26 H        3.0560     2.6940     1.3320 H     1 <1>   0.0800 
 27 H        3.0240     2.7260    -1.1500 H     1 <1>   0.0800 
 28 H        2.1980     0.6900     2.5170 H     1 <1>   0.0800 
 29 H       -1.3380     3.3560    -1.6680 H     1 <1>   0.1500 
 30 H       -2.0680     1.3900     2.0520 H     1 <1>   0.1500 
 31 H        5.1270     2.2120     0.0400 H     1 <1>   0.0800 
 32 H        5.0560     1.3450    -1.4630 H     1 <1>   0.0800 
 33 H        2.8480     0.5710    -2.3880 H     1 <1>   0.0800 
 34 H        1.3670     0.9000    -1.5540 H     1 <1>   0.0800 
 35 H        4.2280    -0.6950     2.2090 H     1 <1>   0.0800 
 36 H        4.6320     0.9940     2.2330 H     1 <1>   0.0800 
 37 H        0.8660    -0.3310     0.6640 H     1 <1>   0.0800 
 38 H        2.0200    -1.4660     1.2810 H     1 <1>   0.0800 
 39 H       -2.3590     1.4630    -2.8540 H     1 <1>   0.1500 
 40 H       -3.0770    -0.4790     0.8760 H     1 <1>   0.1500 
 41 H        5.8060    -0.1490     0.3720 H     1 <1>   0.0800 
 42 H        2.0410    -1.4530    -1.2010 H     1 <1>   0.0800 
 43 H        4.1460    -1.9530     0.0080 H     1 <1>   0.0800 
 44 H        4.4820    -1.1260    -1.4810 H     1 <1>   0.0800 
 45 H       -4.2510    -2.4270    -1.9840 H     1 <1>   0.0800 
 46 H       -4.6830    -1.4780    -0.5660 H     1 <1>   0.0800 
 47 H       -3.1070    -2.2870    -0.6530 H     1 <1>   0.0800 
@<TRIPOS>BOND
  1   1   2  2   
  2   2   3  am  
  3   2   4  1   
  4   3   5  1   
  5   3  23  1   
  6   4   6  1   
  7   4  24  1   
  8   4  25  1   
  9   5   7  1   
 10   5   8  1   
 11   5  26  1   
 12   6   9  ar  
 13   6  10  ar  
 14   7  11  1   
 15   7  12  1   
 16   7  27  1   
 17   8  13  1   
 18   8  14  1   
 19   8  28  1   
 20   9  15  ar  
 21   9  29  1   
 22  10  16  ar  
 23  10  30  1   
 24  11  17  1   
 25  11  31  1   
 26  11  32  1   
 27  12  18  1   
 28  12  33  1   
 29  12  34  1   
 30  13  17  1   
 31  13  35  1   
 32  13  36  1   
 33  14  18  1   
 34  14  37  1   
 35  14  38  1   
 36  15  19  ar  
 37  15  39  1   
 38  16  19  ar  
 39  16  40  1   
 40  17  20  1   
 41  17  41  1   
 42  18  20  1   
 43  18  42  1   
 44  19  21  1   
 45  20  43  1   
 46  20  44  1   
 47  21  22  1   
 48  22  45  1   
 49  22  46  1   
 50  22  47  1   
@<TRIPOS>SUBSTRUCTURE
  1 ****   3 GROUP 4 **** **** 0

# MOE 2024.06 (io_trps.svl 2023.06)
