@<TRIPOS>MOLECULE
NONAME
24 25 1 0 0 
SMALL
USER_CHARGES


@<TRIPOS>ATOM
  1 S       -0.1330    -0.2320     0.2380 S.o2  1 <1>   1.4470 
  2 O       -0.5140    -0.3620     1.6250 O.2   1 <1>  -0.6500 
  3 O       -0.0020    -1.4150    -0.5840 O.2   1 <1>  -0.6500 
  4 N       -1.3070     0.7470    -0.4560 N.am  1 <1>  -0.7890 
  5 C        1.3790     0.7450     0.0980 C.ar  1 <1>  -0.0090 
  6 C       -2.4960     0.0320    -0.8420 C.3   1 <1>   0.1310 
  7 C        1.4540     2.0230     0.6360 C.ar  1 <1>   0.1900 
  8 C        2.5150     0.2600    -0.5430 C.ar  1 <1>  -0.1500 
  9 C       -3.7720     0.7910    -0.9360 C.3   1 <1>  -0.2000 
 10 C       -3.5580    -0.2090     0.1720 C.3   1 <1>  -0.2000 
 11 F        0.4110     2.5230     1.2420 F     1 <1>  -0.1900 
 12 C        2.5890     2.8170     0.5660 C.ar  1 <1>  -0.1500 
 13 C        3.6490     1.0490    -0.6160 C.ar  1 <1>   0.1900 
 14 C        3.7120     2.3200    -0.0740 C.ar  1 <1>  -0.1500 
 15 F        4.7040     0.5750    -1.2200 F     1 <1>  -0.1900 
 16 H       -1.5800     1.3660     0.3040 H     1 <1>   0.4200 
 17 H       -2.3080    -0.7290    -1.5850 H     1 <1>   0.1000 
 18 H        2.5210    -0.7240    -0.9820 H     1 <1>   0.1500 
 19 H       -4.4650     0.5410    -1.7190 H     1 <1>   0.1000 
 20 H       -3.7720     1.8410    -0.7010 H     1 <1>   0.1000 
 21 H       -3.4060     0.1390     1.1780 H     1 <1>   0.1000 
 22 H       -4.0990    -1.1380     0.1340 H     1 <1>   0.1000 
 23 H        2.5880     3.8000     1.0030 H     1 <1>   0.1500 
 24 H        4.6150     2.9000    -0.1540 H     1 <1>   0.1500 
@<TRIPOS>BOND
  1   1   2  2   
  2   1   3  2   
  3   1   4  am  
  4   1   5  1   
  5   4   6  1   
  6   4  16  1   
  7   5   7  ar  
  8   5   8  ar  
  9   6   9  1   
 10   6  10  1   
 11   6  17  1   
 12   7  11  1   
 13   7  12  ar  
 14   8  13  ar  
 15   8  18  1   
 16   9  10  1   
 17   9  19  1   
 18   9  20  1   
 19  10  21  1   
 20  10  22  1   
 21  12  14  ar  
 22  12  23  1   
 23  13  14  ar  
 24  13  15  1   
 25  14  24  1   
@<TRIPOS>SUBSTRUCTURE
  1 ****   5 GROUP 4 **** **** 0

# MOE 2024.06 (io_trps.svl 2023.06)
