@<TRIPOS>MOLECULE
NONAME
47 50 1 0 0 
SMALL
USER_CHARGES


@<TRIPOS>ATOM
  1 O       -1.9190     5.0420     2.0620 O.2   1 <1>  -0.5700 
  2 C       -0.9860     5.4280     1.4050 C.2   1 <1>   0.6590 
  3 O       -0.2000     4.6030     0.7120 O.3   1 <1>  -0.2330 
  4 C       -0.6030     6.9120     1.3580 C.3   1 <1>  -0.0190 
  5 C       -0.3100     3.2590     0.5120 C.ar  1 <1>   0.0820 
  6 C        0.1890     7.3200     0.0840 C.3   1 <1>  -0.0800 
  7 C       -1.8320     7.8490     1.4970 C.3   1 <1>  -0.0800 
  8 C        0.8450     2.5200     0.2500 C.ar  1 <1>   0.1660 
  9 C       -1.5300     2.6040     0.5300 C.ar  1 <1>  -0.1500 
 10 C       -0.7140     7.2090    -1.1640 C.3   1 <1>  -0.1600 
 11 C        0.6610     8.7820     0.2240 C.3   1 <1>  -0.1600 
 12 C       -2.7300     7.7350     0.2460 C.3   1 <1>  -0.1600 
 13 C       -1.3510     9.3080     1.6300 C.3   1 <1>  -0.1600 
 14 N        0.8570     1.2140     0.0220 N.ar  1 <1>  -0.6200 
 15 C        2.2080     3.2020     0.2060 C.3   1 <1>  -0.0170 
 16 C       -1.5180     1.2470     0.2970 C.ar  1 <1>  -0.1500 
 17 C       -1.9370     8.1340    -1.0130 C.3   1 <1>  -0.0800 
 18 C       -0.5510     9.7190     0.3800 C.3   1 <1>  -0.0800 
 19 C       -0.3150     0.6040     0.0520 C.ar  1 <1>   0.1670 
 20 C        2.4960     3.7900    -1.1810 C.3   1 <1>  -0.2400 
 21 C       -1.4530     9.5880    -0.8620 C.3   1 <1>  -0.1600 
 22 C       -0.2860    -0.8870    -0.2060 C.3   1 <1>  -0.0970 
 23 H        0.0330     7.0700     2.2100 H     1 <1>   0.0800 
 24 H        1.0550     6.6920    -0.0370 H     1 <1>   0.0800 
 25 H       -2.4000     7.5850     2.3740 H     1 <1>   0.0800 
 26 H       -2.4570     3.1160     0.7100 H     1 <1>   0.1500 
 27 H       -1.0420     6.1950    -1.3060 H     1 <1>   0.0800 
 28 H       -0.1570     7.4900    -2.0400 H     1 <1>   0.0800 
 29 H        1.3070     8.8790     1.0790 H     1 <1>   0.0800 
 30 H        1.2280     9.0660    -0.6450 H     1 <1>   0.0800 
 31 H       -3.1000     6.7290     0.1430 H     1 <1>   0.0800 
 32 H       -3.5850     8.3790     0.3550 H     1 <1>   0.0800 
 33 H       -0.7370     9.4130     2.5080 H     1 <1>   0.0800 
 34 H       -2.1990     9.9610     1.7480 H     1 <1>   0.0800 
 35 H        2.9690     2.4800     0.4490 H     1 <1>   0.0800 
 36 H        2.2570     3.9770     0.9480 H     1 <1>   0.0800 
 37 H       -2.4390     0.6950     0.3050 H     1 <1>   0.1500 
 38 H       -2.5680     8.0490    -1.8820 H     1 <1>   0.0800 
 39 H       -0.2160    10.7370     0.4800 H     1 <1>   0.0800 
 40 H        2.4740     3.0080    -1.9190 H     1 <1>   0.0800 
 41 H        3.4660     4.2530    -1.1940 H     1 <1>   0.0800 
 42 H        1.7540     4.5260    -1.4370 H     1 <1>   0.0800 
 43 H       -2.3000    10.2460    -0.7680 H     1 <1>   0.0800 
 44 H       -0.9080     9.8840    -1.7410 H     1 <1>   0.0800 
 45 H        0.1340    -1.0740    -1.1770 H     1 <1>   0.0800 
 46 H       -1.2730    -1.3080    -0.1660 H     1 <1>   0.0800 
 47 H        0.3280    -1.3660     0.5350 H     1 <1>   0.0800 
@<TRIPOS>BOND
  1   1   2  2   
  2   2   3  1   
  3   2   4  1   
  4   3   5  1   
  5   4   6  1   
  6   4   7  1   
  7   4  23  1   
  8   5   8  ar  
  9   5   9  ar  
 10   6  10  1   
 11   6  11  1   
 12   6  24  1   
 13   7  12  1   
 14   7  13  1   
 15   7  25  1   
 16   8  14  ar  
 17   8  15  1   
 18   9  16  ar  
 19   9  26  1   
 20  10  17  1   
 21  10  27  1   
 22  10  28  1   
 23  11  18  1   
 24  11  29  1   
 25  11  30  1   
 26  12  17  1   
 27  12  31  1   
 28  12  32  1   
 29  13  18  1   
 30  13  33  1   
 31  13  34  1   
 32  14  19  ar  
 33  15  20  1   
 34  15  35  1   
 35  15  36  1   
 36  16  19  ar  
 37  16  37  1   
 38  17  21  1   
 39  17  38  1   
 40  18  21  1   
 41  18  39  1   
 42  19  22  1   
 43  20  40  1   
 44  20  41  1   
 45  20  42  1   
 46  21  43  1   
 47  21  44  1   
 48  22  45  1   
 49  22  46  1   
 50  22  47  1   
@<TRIPOS>SUBSTRUCTURE
  1 ****   3 GROUP 4 **** **** 0

# MOE 2024.06 (io_trps.svl 2023.06)
