@<TRIPOS>MOLECULE
NONAME
30 31 1 0 0 
SMALL
USER_CHARGES


@<TRIPOS>ATOM
  1 S        0.3780     0.2810    -0.6890 S.3   1 <1>  -0.3710 
  2 C       -1.1740     1.1210    -0.5190 C.2   1 <1>   0.6410 
  3 C        1.2250     0.4650     0.9560 C.3   1 <1>   0.1310 
  4 N       -1.6720     1.6780    -1.5570 N.2   1 <1>  -0.6610 
  5 N       -1.7280     1.1170     0.7270 N.pl3 1 <1>  -0.5500 
  6 C        2.6640    -0.0330     0.9030 C.2   1 <1>   0.5690 
  7 C       -2.8570     2.3340    -1.3820 C.2   1 <1>   0.7670 
  8 C       -2.9180     1.7590     0.9510 C.2   1 <1>  -0.0500 
  9 O        2.9370    -0.9610     1.6280 O.2   1 <1>  -0.5700 
 10 N        3.6110     0.5610     0.1040 N.am  1 <1>  -0.6600 
 11 O       -3.3650     2.8940    -2.3390 O.2   1 <1>  -0.5700 
 12 C       -3.4880     2.3750    -0.1080 C.2   1 <1>  -0.1360 
 13 C        3.3740     1.7090    -0.8260 C.3   1 <1>   0.1400 
 14 C        5.0030     0.0220     0.0190 C.3   1 <1>   0.1400 
 15 C        4.5060     2.7460    -0.7210 C.3   1 <1>   0.1200 
 16 C        6.0350     1.1590     0.0840 C.3   1 <1>   0.1200 
 17 O        5.7550     2.1370    -0.8780 O.3   1 <1>  -0.5600 
 18 H        0.6700    -0.1160     1.6680 H     1 <1>   0.0800 
 19 H        1.1980     1.5040     1.2240 H     1 <1>   0.0800 
 20 H       -1.2780     0.5580     1.4520 H     1 <1>   0.4000 
 21 H       -3.3470     1.7440     1.9420 H     1 <1>   0.1500 
 22 H       -4.4170     2.9070    -0.0480 H     1 <1>   0.1500 
 23 H        2.4420     2.1970    -0.6110 H     1 <1>   0.0800 
 24 H        3.3290     1.3390    -1.8360 H     1 <1>   0.0800 
 25 H        5.1190    -0.5090    -0.9090 H     1 <1>   0.0800 
 26 H        5.1920    -0.6700     0.8220 H     1 <1>   0.0800 
 27 H        4.4820     3.2390     0.2340 H     1 <1>   0.0800 
 28 H        4.4030     3.4850    -1.4950 H     1 <1>   0.0800 
 29 H        7.0200     0.7760    -0.1150 H     1 <1>   0.0800 
 30 H        6.0320     1.6180     1.0570 H     1 <1>   0.0800 
@<TRIPOS>BOND
  1   1   2  1   
  2   1   3  1   
  3   2   4  2   
  4   2   5  1   
  5   3   6  1   
  6   3  18  1   
  7   3  19  1   
  8   4   7  1   
  9   5   8  1   
 10   5  20  1   
 11   6   9  2   
 12   6  10  am  
 13   7  11  2   
 14   7  12  1   
 15   8  12  2   
 16   8  21  1   
 17  10  13  1   
 18  10  14  1   
 19  12  22  1   
 20  13  15  1   
 21  13  23  1   
 22  13  24  1   
 23  14  16  1   
 24  14  25  1   
 25  14  26  1   
 26  15  17  1   
 27  15  27  1   
 28  15  28  1   
 29  16  17  1   
 30  16  29  1   
 31  16  30  1   
@<TRIPOS>SUBSTRUCTURE
  1 ****   1 GROUP 4 **** **** 0

# MOE 2024.06 (io_trps.svl 2023.06)
