@<TRIPOS>MOLECULE
NONAME
58 61 1 0 0 
SMALL
USER_CHARGES


@<TRIPOS>ATOM
  1 O        3.6360     1.4440    -2.1800 O.3   1 <1>  -0.3630 
  2 C        3.6040     0.5230    -1.2130 C.ar  1 <1>   0.0830 
  3 C        2.4380     1.2820    -2.9390 C.3   1 <1>   0.4000 
  4 C        2.4710    -0.2270    -1.3150 C.ar  1 <1>   0.0830 
  5 C        4.5360     0.2950    -0.2220 C.ar  1 <1>  -0.1500 
  6 O        1.7370     0.1870    -2.3520 O.3   1 <1>  -0.3630 
  7 C        2.2020    -1.2490    -0.4270 C.ar  1 <1>  -0.1500 
  8 C        4.2940    -0.7350     0.6830 C.ar  1 <1>  -0.1440 
  9 C        3.1280    -1.4970     0.5790 C.ar  1 <1>  -0.1500 
 10 C        5.3020    -1.0360     1.7760 C.3   1 <1>   0.4870 
 11 N        6.5210    -1.6150     1.1590 N.4   1 <1>  -0.9590 
 12 C        6.2750    -2.8400     0.3260 C.3   1 <1>   0.3430 
 13 C        7.6540    -1.8330     2.1120 C.3   1 <1>   0.3430 
 14 C        7.5750    -3.3150    -0.3680 C.3   1 <1>   0.1100 
 15 C        8.9360    -2.2570     1.3560 C.3   1 <1>   0.1100 
 16 N        8.7150    -2.4070    -0.1060 N.3   1 <1>  -0.8100 
 17 C        9.9380    -2.8790    -0.7880 C.3   1 <1>   0.2530 
 18 C       11.0740    -1.8770    -0.6240 C.ar  1 <1>  -0.1430 
 19 C       12.1190    -2.1010     0.2700 C.ar  1 <1>   0.0830 
 20 C       11.0610    -0.7200    -1.3880 C.ar  1 <1>  -0.1500 
 21 O       12.0810    -3.2370     1.0220 O.3   1 <1>  -0.3620 
 22 C       13.1510    -1.1720     0.3710 C.ar  1 <1>  -0.1500 
 23 C       12.0780     0.2130    -1.2790 C.ar  1 <1>   0.0830 
 24 C       13.2100    -3.6570     1.7600 C.3   1 <1>   0.0400 
 25 C       13.1460    -0.0290    -0.4090 C.ar  1 <1>   0.0830 
 26 O       11.9800     1.3340    -2.0390 O.3   1 <1>  -0.3620 
 27 O       14.2020     0.8120    -0.2880 O.3   1 <1>  -0.3620 
 28 C       11.8340     2.5530    -1.3420 C.3   1 <1>   0.0400 
 29 C       15.0350     0.9360    -1.4200 C.3   1 <1>   0.0400 
 30 H        2.6840     1.0480    -3.9600 H     1 <1>   0.0800 
 31 H        1.8410     2.1740    -2.8670 H     1 <1>   0.0800 
 32 H        5.4140     0.9160    -0.1780 H     1 <1>   0.1500 
 33 H        1.2970    -1.8220    -0.5250 H     1 <1>   0.1500 
 34 H        2.9230    -2.2900     1.2780 H     1 <1>   0.1500 
 35 H        4.8790    -1.7300     2.4840 H     1 <1>   0.0800 
 36 H        5.5470    -0.1230     2.2950 H     1 <1>   0.0800 
 37 H        6.8980    -0.9450     0.4700 H     1 <1>   0.4500 
 38 H        5.5390    -2.6250    -0.4320 H     1 <1>   0.0800 
 39 H        5.8880    -3.6360     0.9400 H     1 <1>   0.0800 
 40 H        7.3960    -2.5970     2.8260 H     1 <1>   0.0800 
 41 H        7.8600    -0.9270     2.6580 H     1 <1>   0.0800 
 42 H        7.3990    -3.3700    -1.4290 H     1 <1>   0.0800 
 43 H        7.8130    -4.3090    -0.0270 H     1 <1>   0.0800 
 44 H        9.3050    -3.1810     1.7700 H     1 <1>   0.0800 
 45 H        9.6900    -1.5080     1.5310 H     1 <1>   0.0800 
 46 H        9.7360    -2.9900    -1.8400 H     1 <1>   0.0800 
 47 H       10.2250    -3.8460    -0.4100 H     1 <1>   0.0800 
 48 H       10.2550    -0.5300    -2.0730 H     1 <1>   0.1500 
 49 H       13.9750    -1.3090     1.0430 H     1 <1>   0.1500 
 50 H       14.0520    -3.7370     1.0950 H     1 <1>   0.0800 
 51 H       12.9920    -4.6190     2.1880 H     1 <1>   0.0800 
 52 H       13.4030    -2.9450     2.5420 H     1 <1>   0.0800 
 53 H       11.6420     3.3290    -2.0610 H     1 <1>   0.0800 
 54 H       12.7400     2.7690    -0.8060 H     1 <1>   0.0800 
 55 H       11.0070     2.4670    -0.6610 H     1 <1>   0.0800 
 56 H       15.8750     1.5510    -1.1540 H     1 <1>   0.0800 
 57 H       14.4840     1.3950    -2.2210 H     1 <1>   0.0800 
 58 H       15.3720    -0.0430    -1.7120 H     1 <1>   0.0800 
@<TRIPOS>BOND
  1   1   2  1   
  2   1   3  1   
  3   2   4  ar  
  4   2   5  ar  
  5   3   6  1   
  6   3  30  1   
  7   3  31  1   
  8   4   6  1   
  9   4   7  ar  
 10   5   8  ar  
 11   5  32  1   
 12   7   9  ar  
 13   7  33  1   
 14   8   9  ar  
 15   8  10  1   
 16   9  34  1   
 17  10  11  1   
 18  10  35  1   
 19  10  36  1   
 20  11  12  1   
 21  11  13  1   
 22  11  37  1   
 23  12  14  1   
 24  12  38  1   
 25  12  39  1   
 26  13  15  1   
 27  13  40  1   
 28  13  41  1   
 29  14  16  1   
 30  14  42  1   
 31  14  43  1   
 32  15  16  1   
 33  15  44  1   
 34  15  45  1   
 35  16  17  1   
 36  17  18  1   
 37  17  46  1   
 38  17  47  1   
 39  18  19  ar  
 40  18  20  ar  
 41  19  21  1   
 42  19  22  ar  
 43  20  23  ar  
 44  20  48  1   
 45  21  24  1   
 46  22  25  ar  
 47  22  49  1   
 48  23  25  ar  
 49  23  26  1   
 50  24  50  1   
 51  24  51  1   
 52  24  52  1   
 53  25  27  1   
 54  26  28  1   
 55  27  29  1   
 56  28  53  1   
 57  28  54  1   
 58  28  55  1   
 59  29  56  1   
 60  29  57  1   
 61  29  58  1   
@<TRIPOS>SUBSTRUCTURE
  1 ****  16 GROUP 4 **** **** 0

# MOE 2024.06 (io_trps.svl 2023.06)
