@<TRIPOS>MOLECULE
NONAME
36 37 1 0 0 
SMALL
USER_CHARGES


@<TRIPOS>ATOM
  1 S        0.3550    -1.3310    -1.3720 S.3   1 <1>  -0.4600 
  2 C        2.0250    -0.7150    -1.7150 C.3   1 <1>   0.0700 
  3 C        0.6520    -2.6010    -0.1130 C.3   1 <1>   0.0700 
  4 C        2.6930    -0.3130    -0.3940 C.3   1 <1>   0.3430 
  5 C        1.4730    -1.9920     1.0320 C.3   1 <1>   0.3430 
  6 N        2.7960    -1.4670     0.5630 N.4   1 <1>  -0.9590 
  7 C        3.7020    -1.1570     1.6990 C.3   1 <1>   0.4860 
  8 C        5.1020    -0.9580     1.1510 C.ar  1 <1>  -0.1430 
  9 C        5.7270    -1.9740     0.4300 C.ar  1 <1>   0.0830 
 10 C        5.7580     0.2450     1.3650 C.ar  1 <1>  -0.1500 
 11 O        5.0300    -3.1320     0.2500 O.3   1 <1>  -0.3630 
 12 C        7.0080    -1.7640    -0.0730 C.ar  1 <1>  -0.1500 
 13 C        7.0300     0.4430     0.8610 C.ar  1 <1>  -0.1500 
 14 C        5.5600    -4.2520    -0.4350 C.3   1 <1>   0.1200 
 15 C        7.6530    -0.5600     0.1430 C.ar  1 <1>  -0.1500 
 16 C        5.3540    -4.0640    -1.9390 C.3   1 <1>  -0.2400 
 17 H        1.9200     0.1320    -2.3710 H     1 <1>   0.0800 
 18 H        2.5710    -1.4930    -2.2180 H     1 <1>   0.0800 
 19 H        1.1670    -3.4200    -0.5830 H     1 <1>   0.0800 
 20 H       -0.3120    -2.9320     0.2330 H     1 <1>   0.0800 
 21 H        2.1250     0.4850     0.0560 H     1 <1>   0.0800 
 22 H        3.6790     0.0640    -0.6150 H     1 <1>   0.0800 
 23 H        1.6310    -2.7520     1.7800 H     1 <1>   0.0800 
 24 H        0.9040    -1.1950     1.4820 H     1 <1>   0.0800 
 25 H        3.3030    -2.2270     0.0730 H     1 <1>   0.4500 
 26 H        3.7180    -1.9800     2.3950 H     1 <1>   0.0800 
 27 H        3.3700    -0.2720     2.2160 H     1 <1>   0.0800 
 28 H        5.2950     1.0400     1.9260 H     1 <1>   0.1500 
 29 H        7.5270    -2.5180    -0.6360 H     1 <1>   0.1500 
 30 H        7.5420     1.3770     1.0290 H     1 <1>   0.1500 
 31 H        5.0180    -5.1200    -0.0990 H     1 <1>   0.0800 
 32 H        6.5950    -4.3830    -0.1720 H     1 <1>   0.0800 
 33 H        8.6450    -0.4030    -0.2470 H     1 <1>   0.1500 
 34 H        4.3070    -3.9810    -2.1670 H     1 <1>   0.0800 
 35 H        5.7440    -4.9200    -2.4620 H     1 <1>   0.0800 
 36 H        5.8720    -3.1920    -2.2940 H     1 <1>   0.0800 
@<TRIPOS>BOND
  1   1   2  1   
  2   1   3  1   
  3   2   4  1   
  4   2  17  1   
  5   2  18  1   
  6   3   5  1   
  7   3  19  1   
  8   3  20  1   
  9   4   6  1   
 10   4  21  1   
 11   4  22  1   
 12   5   6  1   
 13   5  23  1   
 14   5  24  1   
 15   6   7  1   
 16   6  25  1   
 17   7   8  1   
 18   7  26  1   
 19   7  27  1   
 20   8   9  ar  
 21   8  10  ar  
 22   9  11  1   
 23   9  12  ar  
 24  10  13  ar  
 25  10  28  1   
 26  11  14  1   
 27  12  15  ar  
 28  12  29  1   
 29  13  15  ar  
 30  13  30  1   
 31  14  16  1   
 32  14  31  1   
 33  14  32  1   
 34  15  33  1   
 35  16  34  1   
 36  16  35  1   
 37  16  36  1   
@<TRIPOS>SUBSTRUCTURE
  1 ****   8 GROUP 4 **** **** 0

# MOE 2024.06 (io_trps.svl 2023.06)
