@<TRIPOS>MOLECULE
NONAME
42 43 1 0 0 
SMALL
USER_CHARGES


@<TRIPOS>ATOM
  1 O        0.1040     0.4380    -0.5440 O.2   1 <1>  -0.5700 
  2 C        0.3780     1.5940    -0.3370 C.2   1 <1>   0.5690 
  3 N       -0.4880     2.6430    -0.2090 N.am  1 <1>  -0.4770 
  4 C        1.8050     2.0390    -0.1780 C.3   1 <1>  -0.0990 
  5 C       -1.8970     2.6330    -0.2530 C.ar  1 <1>   0.1170 
  6 C        0.2580     3.8950     0.0380 C.3   1 <1>   0.1400 
  7 C        1.6660     3.4370     0.4440 C.3   1 <1>  -0.0190 
  8 C       -2.6270     1.5510     0.2280 C.ar  1 <1>  -0.1500 
  9 C       -2.6040     3.7160    -0.7700 C.ar  1 <1>  -0.1500 
 10 C        2.7640     4.4110     0.0460 C.2   1 <1>   0.5690 
 11 C       -4.0090     1.5500     0.1990 C.ar  1 <1>  -0.1500 
 12 C       -3.9870     3.7190    -0.7980 C.ar  1 <1>  -0.1500 
 13 O        2.4580     5.5310    -0.2850 O.2   1 <1>  -0.5700 
 14 N        4.0530     3.9780     0.0970 N.am  1 <1>  -0.7300 
 15 C       -4.7000     2.6350    -0.3140 C.ar  1 <1>  -0.1430 
 16 C        5.2810     4.7050    -0.2400 C.3   1 <1>   0.3000 
 17 C       -6.2170     2.6350    -0.3440 C.3   1 <1>  -0.0970 
 18 C        6.4360     3.7310    -0.0160 C.3   1 <1>  -0.2400 
 19 C        5.2460     5.1280    -1.7080 C.3   1 <1>  -0.2400 
 20 C        5.4390     5.9110     0.6870 C.3   1 <1>  -0.2400 
 21 H        2.2570     2.0830    -1.1530 H     1 <1>   0.0800 
 22 H        2.3480     1.3640     0.4560 H     1 <1>   0.0800 
 23 H       -0.2060     4.4750     0.8180 H     1 <1>   0.0800 
 24 H        0.2850     4.4670    -0.8740 H     1 <1>   0.0800 
 25 H        1.6790     3.3440     1.5150 H     1 <1>   0.0800 
 26 H       -2.1090     0.6990     0.6300 H     1 <1>   0.1500 
 27 H       -2.0750     4.5640    -1.1610 H     1 <1>   0.1500 
 28 H       -4.5450     0.6980     0.5790 H     1 <1>   0.1500 
 29 H       -4.5070     4.5700    -1.2020 H     1 <1>   0.1500 
 30 H        4.2360     3.0250     0.4050 H     1 <1>   0.3700 
 31 H       -6.5890     1.6340    -0.4740 H     1 <1>   0.0800 
 32 H       -6.5780     3.2390    -1.1560 H     1 <1>   0.0800 
 33 H       -6.5980     3.0300     0.5810 H     1 <1>   0.0800 
 34 H        6.4720     3.4140     1.0110 H     1 <1>   0.0800 
 35 H        7.3700     4.2100    -0.2480 H     1 <1>   0.0800 
 36 H        6.3360     2.8700    -0.6520 H     1 <1>   0.0800 
 37 H        5.0890     4.2760    -2.3440 H     1 <1>   0.0800 
 38 H        6.1760     5.5920    -1.9820 H     1 <1>   0.0800 
 39 H        4.4600     5.8420    -1.8800 H     1 <1>   0.0800 
 40 H        5.4190     5.6020     1.7160 H     1 <1>   0.0800 
 41 H        4.6530     6.6240     0.5200 H     1 <1>   0.0800 
 42 H        6.3750     6.4030     0.4960 H     1 <1>   0.0800 
@<TRIPOS>BOND
  1   1   2  2   
  2   2   3  am  
  3   2   4  1   
  4   3   5  1   
  5   3   6  1   
  6   4   7  1   
  7   4  21  1   
  8   4  22  1   
  9   5   8  ar  
 10   5   9  ar  
 11   6   7  1   
 12   6  23  1   
 13   6  24  1   
 14   7  10  1   
 15   7  25  1   
 16   8  11  ar  
 17   8  26  1   
 18   9  12  ar  
 19   9  27  1   
 20  10  13  2   
 21  10  14  am  
 22  11  15  ar  
 23  11  28  1   
 24  12  15  ar  
 25  12  29  1   
 26  14  16  1   
 27  14  30  1   
 28  15  17  1   
 29  16  18  1   
 30  16  19  1   
 31  16  20  1   
 32  17  31  1   
 33  17  32  1   
 34  17  33  1   
 35  18  34  1   
 36  18  35  1   
 37  18  36  1   
 38  19  37  1   
 39  19  38  1   
 40  19  39  1   
 41  20  40  1   
 42  20  41  1   
 43  20  42  1   
@<TRIPOS>SUBSTRUCTURE
  1 ****   6 GROUP 4 **** **** 0

# MOE 2024.06 (io_trps.svl 2023.06)
