@<TRIPOS>MOLECULE
NONAME
49 51 1 0 0 
SMALL
USER_CHARGES


@<TRIPOS>ATOM
  1 S        0.4360    -0.7670     0.5770 S.o2  1 <1>   1.4470 
  2 O        0.8510    -1.0320     1.9380 O.2   1 <1>  -0.6500 
  3 O        0.3700     0.5990     0.1080 O.2   1 <1>  -0.6500 
  4 N        1.5310    -1.5780    -0.4290 N.am  1 <1>  -0.8490 
  5 C       -1.1370    -1.6010     0.2280 C.ar  1 <1>  -0.0090 
  6 C        1.7960    -2.9580     0.0280 C.3   1 <1>   0.1960 
  7 C        2.8060    -0.8420    -0.5260 C.3   1 <1>   0.1960 
  8 C       -1.5960    -1.7360    -1.0780 C.ar  1 <1>  -0.1500 
  9 C       -1.9190    -2.1260     1.2540 C.ar  1 <1>  -0.1500 
 10 C        2.7460    -3.7200    -0.9150 C.3   1 <1>   0.2090 
 11 C        3.8230    -1.5210    -1.4670 C.3   1 <1>   0.2090 
 12 C       -2.7900    -2.3790    -1.3560 C.ar  1 <1>  -0.1500 
 13 C       -3.1160    -2.7720     0.9910 C.ar  1 <1>  -0.1500 
 14 N        4.0120    -2.9710    -1.1630 N.pl3 1 <1>  -0.8380 
 15 C       -3.5440    -2.8950    -0.3200 C.ar  1 <1>   0.1010 
 16 C        5.1540    -3.3660    -0.4630 C.ar  1 <1>   0.1000 
 17 S       -5.0820    -3.7220    -0.7570 S.3   1 <1>  -0.3310 
 18 C        6.1570    -4.1180    -1.0830 C.ar  1 <1>  -0.1430 
 19 C        5.2960    -3.0150     0.8740 C.ar  1 <1>  -0.1500 
 20 C       -5.8810    -4.2380     0.8270 C.3   1 <1>  -0.0100 
 21 C        7.2770    -4.5150    -0.3540 C.ar  1 <1>  -0.1430 
 22 C        5.9800    -4.4860    -2.5570 C.3   1 <1>  -0.0970 
 23 C        6.4080    -3.4010     1.5930 C.ar  1 <1>  -0.1500 
 24 C        7.3940    -4.1510     0.9800 C.ar  1 <1>  -0.1500 
 25 C        8.3950    -5.3490    -0.9640 C.3   1 <1>  -0.0970 
 26 H        0.8700    -3.5030     0.0870 H     1 <1>   0.0800 
 27 H        2.2310    -2.9450     1.0130 H     1 <1>   0.0800 
 28 H        3.2450    -0.7430     0.4520 H     1 <1>   0.0800 
 29 H        2.6200     0.1510    -0.8990 H     1 <1>   0.0800 
 30 H       -1.0090    -1.3310    -1.8860 H     1 <1>   0.1500 
 31 H       -1.5850    -2.0270     2.2740 H     1 <1>   0.1500 
 32 H        2.2520    -3.8870    -1.8560 H     1 <1>   0.0800 
 33 H        2.9790    -4.6810    -0.4900 H     1 <1>   0.0800 
 34 H        4.7700    -1.0150    -1.3930 H     1 <1>   0.0800 
 35 H        3.4780    -1.4240    -2.4810 H     1 <1>   0.0800 
 36 H       -3.1390    -2.4800    -2.3690 H     1 <1>   0.1500 
 37 H       -3.6930    -3.1650     1.8050 H     1 <1>   0.1500 
 38 H        4.5310    -2.4380     1.3540 H     1 <1>   0.1500 
 39 H       -6.8120    -4.7150     0.5790 H     1 <1>   0.0800 
 40 H       -6.0500    -3.3550     1.4170 H     1 <1>   0.0800 
 41 H       -5.2210    -4.9260     1.3240 H     1 <1>   0.0800 
 42 H        5.6830    -3.6160    -3.1140 H     1 <1>   0.0800 
 43 H        5.2080    -5.2270    -2.6480 H     1 <1>   0.0800 
 44 H        6.8770    -4.8650    -3.0050 H     1 <1>   0.0800 
 45 H        6.5070    -3.1230     2.6270 H     1 <1>   0.1500 
 46 H        8.2550    -4.4480     1.5510 H     1 <1>   0.1500 
 47 H        7.9920    -6.2480    -1.3930 H     1 <1>   0.0800 
 48 H        9.1210    -5.6290    -0.2220 H     1 <1>   0.0800 
 49 H        8.8960    -4.7840    -1.7300 H     1 <1>   0.0800 
@<TRIPOS>BOND
  1   1   2  2   
  2   1   3  2   
  3   1   4  am  
  4   1   5  1   
  5   4   6  1   
  6   4   7  1   
  7   5   8  ar  
  8   5   9  ar  
  9   6  10  1   
 10   6  26  1   
 11   6  27  1   
 12   7  11  1   
 13   7  28  1   
 14   7  29  1   
 15   8  12  ar  
 16   8  30  1   
 17   9  13  ar  
 18   9  31  1   
 19  10  14  1   
 20  10  32  1   
 21  10  33  1   
 22  11  14  1   
 23  11  34  1   
 24  11  35  1   
 25  12  15  ar  
 26  12  36  1   
 27  13  15  ar  
 28  13  37  1   
 29  14  16  1   
 30  15  17  1   
 31  16  18  ar  
 32  16  19  ar  
 33  17  20  1   
 34  18  21  ar  
 35  18  22  1   
 36  19  23  ar  
 37  19  38  1   
 38  20  39  1   
 39  20  40  1   
 40  20  41  1   
 41  21  24  ar  
 42  21  25  1   
 43  22  42  1   
 44  22  43  1   
 45  22  44  1   
 46  23  24  ar  
 47  23  45  1   
 48  24  46  1   
 49  25  47  1   
 50  25  48  1   
 51  25  49  1   
@<TRIPOS>SUBSTRUCTURE
  1 ****   6 GROUP 4 **** **** 0

# MOE 2024.06 (io_trps.svl 2023.06)
