@<TRIPOS>MOLECULE
NONAME
43 45 1 0 0 
SMALL
USER_CHARGES


@<TRIPOS>ATOM
  1 O       -0.6490     0.0940    -0.9380 O.3   1 <1>  -0.5600 
  2 C       -0.6100     1.2120    -0.0930 C.3   1 <1>   0.1200 
  3 C       -1.8980    -0.5410    -0.9620 C.3   1 <1>   0.1200 
  4 C       -1.6260     2.2810    -0.5330 C.3   1 <1>   0.2090 
  5 C       -2.9980     0.4120    -1.4630 C.3   1 <1>   0.2090 
  6 N       -2.9920     1.6910    -0.6840 N.pl3 1 <1>  -0.8380 
  7 C       -4.1410     2.3630    -0.3340 C.ar  1 <1>   0.7200 
  8 N       -5.2660     1.6980    -0.4000 N.ar  1 <1>  -0.6200 
  9 N       -4.0260     3.6080     0.0420 N.ar  1 <1>  -0.6200 
 10 C       -6.3420     2.3780    -0.0690 C.ar  1 <1>   0.5970 
 11 C       -5.1480     4.1970     0.3540 C.ar  1 <1>   0.7200 
 12 N       -6.3300     3.6330     0.3260 N.ar  1 <1>  -0.6200 
 13 N       -7.6100     1.6990    -0.1100 N.pl3 1 <1>   0.5930 
 14 N       -5.0890     5.5170     0.7520 N.pl3 1 <1>  -0.8380 
 15 N       -8.2340     1.2680    -1.2550 N.2   1 <1>  -0.7070 
 16 C       -8.3920     1.3690     0.9680 C.2   1 <1>  -0.3320 
 17 C       -3.8780     6.3590     0.5350 C.3   1 <1>   0.1290 
 18 C       -6.2630     6.2330     1.3280 C.3   1 <1>   0.1290 
 19 C       -9.3350     0.7120    -0.8740 C.2   1 <1>   0.1080 
 20 C       -9.4920     0.7420     0.5050 C.2   1 <1>  -0.1500 
 21 C       -8.0270     1.6790     2.4120 C.3   1 <1>  -0.0600 
 22 C      -10.3150     0.1060    -1.8510 C.3   1 <1>  -0.0590 
 23 H        0.3860     1.6130    -0.1260 H     1 <1>   0.0800 
 24 H       -0.8210     0.8900     0.9120 H     1 <1>   0.0800 
 25 H       -2.1300    -0.8860     0.0310 H     1 <1>   0.0800 
 26 H       -1.8220    -1.3910    -1.6150 H     1 <1>   0.0800 
 27 H       -1.3170     2.7000    -1.4750 H     1 <1>   0.0800 
 28 H       -1.6290     3.0700     0.1970 H     1 <1>   0.0800 
 29 H       -3.9460    -0.0890    -1.3870 H     1 <1>   0.0800 
 30 H       -2.8260     0.6330    -2.5020 H     1 <1>   0.0800 
 31 H       -3.2940     5.9830    -0.2880 H     1 <1>   0.0800 
 32 H       -3.2730     6.3540     1.4240 H     1 <1>   0.0800 
 33 H       -4.1660     7.3700     0.3060 H     1 <1>   0.0800 
 34 H       -6.9000     5.5490     1.8640 H     1 <1>   0.0800 
 35 H       -6.8300     6.6900     0.5360 H     1 <1>   0.0800 
 36 H       -5.9340     6.9930     2.0140 H     1 <1>   0.0800 
 37 H      -10.3250     0.3410     1.0550 H     1 <1>   0.1500 
 38 H       -7.9470     2.7420     2.5550 H     1 <1>   0.0800 
 39 H       -7.0860     1.2230     2.6650 H     1 <1>   0.0800 
 40 H       -8.7830     1.3000     3.0770 H     1 <1>   0.0800 
 41 H      -10.6700     0.8690    -2.5190 H     1 <1>   0.0800 
 42 H      -11.1490    -0.3240    -1.3290 H     1 <1>   0.0800 
 43 H       -9.8230    -0.6580    -2.4240 H     1 <1>   0.0800 
@<TRIPOS>BOND
  1   1   2  1   
  2   1   3  1   
  3   2   4  1   
  4   2  23  1   
  5   2  24  1   
  6   3   5  1   
  7   3  25  1   
  8   3  26  1   
  9   4   6  1   
 10   4  27  1   
 11   4  28  1   
 12   5   6  1   
 13   5  29  1   
 14   5  30  1   
 15   6   7  1   
 16   7   8  ar  
 17   7   9  ar  
 18   8  10  ar  
 19   9  11  ar  
 20  10  12  ar  
 21  10  13  1   
 22  11  12  ar  
 23  11  14  1   
 24  13  15  1   
 25  13  16  1   
 26  14  17  1   
 27  14  18  1   
 28  15  19  2   
 29  16  20  2   
 30  16  21  1   
 31  17  31  1   
 32  17  32  1   
 33  17  33  1   
 34  18  34  1   
 35  18  35  1   
 36  18  36  1   
 37  19  20  1   
 38  19  22  1   
 39  20  37  1   
 40  21  38  1   
 41  21  39  1   
 42  21  40  1   
 43  22  41  1   
 44  22  42  1   
 45  22  43  1   
@<TRIPOS>SUBSTRUCTURE
  1 ****   8 GROUP 4 **** **** 0

# MOE 2024.06 (io_trps.svl 2023.06)
