@<TRIPOS>MOLECULE
NONAME
54 55 1 0 0 
SMALL
USER_CHARGES


@<TRIPOS>ATOM
  1 O        0.4610     4.2590     0.7000 O.3   1 <1>  -0.5600 
  2 C       -0.9010     4.5570     0.6780 C.3   1 <1>   0.2000 
  3 C        1.3030     5.3240     1.0250 C.3   1 <1>   0.1200 
  4 C       -1.6490     3.2520     0.9460 C.3   1 <1>  -0.1600 
  5 C       -1.2730     5.1240    -0.6960 C.3   1 <1>  -0.1600 
  6 C        2.7390     4.7910     1.0540 C.3   1 <1>   0.2000 
  7 C       -3.1670     3.4460     0.8270 C.3   1 <1>  -0.1600 
  8 C       -2.7910     5.3170    -0.8230 C.3   1 <1>  -0.1600 
  9 O        3.6390     5.8420     1.1830 O.3   1 <1>  -0.6800 
 10 C        3.0890     3.9720    -0.2070 C.3   1 <1>   0.3430 
 11 C       -3.5740     4.0080    -0.5570 C.3   1 <1>  -0.0800 
 12 N        3.3520     2.5260     0.0950 N.4   1 <1>  -0.9590 
 13 C       -5.1230     4.1440    -0.7540 C.3   1 <1>   0.0000 
 14 C        3.8490     1.7700    -1.0760 C.3   1 <1>   0.3430 
 15 C        2.1370     1.8060     0.5570 C.3   1 <1>   0.3430 
 16 C       -5.7670     5.1390     0.2280 C.3   1 <1>  -0.2400 
 17 C       -5.4480     4.6130    -2.1850 C.3   1 <1>  -0.2400 
 18 C       -5.8160     2.7810    -0.5690 C.3   1 <1>  -0.2400 
 19 C        3.5770     0.3140    -0.7240 C.3   1 <1>  -0.1600 
 20 C        2.4470     0.3360     0.3100 C.3   1 <1>  -0.1600 
 21 H       -1.1290     5.2660     1.4590 H     1 <1>   0.0800 
 22 H        1.0260     5.7030     1.9950 H     1 <1>   0.0800 
 23 H        1.1920     6.0890     0.2770 H     1 <1>   0.0800 
 24 H       -1.4150     2.9040     1.9370 H     1 <1>   0.0800 
 25 H       -1.3370     2.5070     0.2360 H     1 <1>   0.0800 
 26 H       -0.9430     4.4460    -1.4630 H     1 <1>   0.0800 
 27 H       -0.7940     6.0750    -0.8460 H     1 <1>   0.0800 
 28 H        2.8640     4.1830     1.9320 H     1 <1>   0.0800 
 29 H       -3.4920     4.1140     1.6040 H     1 <1>   0.0800 
 30 H       -3.6310     2.4920     0.9980 H     1 <1>   0.0800 
 31 H       -2.9910     5.6790    -1.8150 H     1 <1>   0.0800 
 32 H       -3.1020     6.0760    -0.1270 H     1 <1>   0.0800 
 33 H        3.3960     6.6160     0.6350 H     1 <1>   0.4000 
 34 H        3.9650     4.4060    -0.6610 H     1 <1>   0.0800 
 35 H        2.2730     4.0440    -0.9080 H     1 <1>   0.0800 
 36 H       -3.2380     3.2940    -1.2900 H     1 <1>   0.0800 
 37 H        4.0620     2.4630     0.8370 H     1 <1>   0.4500 
 38 H        4.8970     1.9510    -1.2570 H     1 <1>   0.0800 
 39 H        3.2800     2.0390    -1.9520 H     1 <1>   0.0800 
 40 H        1.2890     2.1020    -0.0420 H     1 <1>   0.0800 
 41 H        1.9200     2.0070     1.5940 H     1 <1>   0.0800 
 42 H       -5.3620     6.1260     0.1040 H     1 <1>   0.0800 
 43 H       -5.6190     4.8320     1.2460 H     1 <1>   0.0800 
 44 H       -6.8270     5.1970     0.0550 H     1 <1>   0.0800 
 45 H       -4.9640     3.9830    -2.9100 H     1 <1>   0.0800 
 46 H       -5.1340     5.6280    -2.3470 H     1 <1>   0.0800 
 47 H       -6.5080     4.5780    -2.3650 H     1 <1>   0.0800 
 48 H       -5.3560     2.0340    -1.1920 H     1 <1>   0.0800 
 49 H       -6.8560     2.8440    -0.8350 H     1 <1>   0.0800 
 50 H       -5.7690     2.4520     0.4530 H     1 <1>   0.0800 
 51 H        4.4630    -0.1280    -0.3010 H     1 <1>   0.0800 
 52 H        3.3050    -0.2430    -1.6040 H     1 <1>   0.0800 
 53 H        1.5690    -0.1740    -0.0460 H     1 <1>   0.0800 
 54 H        2.7650    -0.1300     1.2270 H     1 <1>   0.0800 
@<TRIPOS>BOND
  1   1   2  1   
  2   1   3  1   
  3   2   4  1   
  4   2   5  1   
  5   2  21  1   
  6   3   6  1   
  7   3  22  1   
  8   3  23  1   
  9   4   7  1   
 10   4  24  1   
 11   4  25  1   
 12   5   8  1   
 13   5  26  1   
 14   5  27  1   
 15   6   9  1   
 16   6  10  1   
 17   6  28  1   
 18   7  11  1   
 19   7  29  1   
 20   7  30  1   
 21   8  11  1   
 22   8  31  1   
 23   8  32  1   
 24   9  33  1   
 25  10  12  1   
 26  10  34  1   
 27  10  35  1   
 28  11  13  1   
 29  11  36  1   
 30  12  14  1   
 31  12  15  1   
 32  12  37  1   
 33  13  16  1   
 34  13  17  1   
 35  13  18  1   
 36  14  19  1   
 37  14  38  1   
 38  14  39  1   
 39  15  20  1   
 40  15  40  1   
 41  15  41  1   
 42  16  42  1   
 43  16  43  1   
 44  16  44  1   
 45  17  45  1   
 46  17  46  1   
 47  17  47  1   
 48  18  48  1   
 49  18  49  1   
 50  18  50  1   
 51  19  20  1   
 52  19  51  1   
 53  19  52  1   
 54  20  53  1   
 55  20  54  1   
@<TRIPOS>SUBSTRUCTURE
  1 ****   2 GROUP 4 **** **** 0

# MOE 2024.06 (io_trps.svl 2023.06)
