@<TRIPOS>MOLECULE
NONAME
49 50 1 0 0 
SMALL
USER_CHARGES


@<TRIPOS>ATOM
  1 O       -0.3780     0.8590     1.9320 O.2   1 <1>  -0.5700 
  2 C       -0.8150     1.4390     0.9570 C.2   1 <1>   0.5440 
  3 N        0.0330     2.1090     0.1100 N.am  1 <1>  -0.5470 
  4 C       -2.2360     1.4040     0.6590 C.ar  1 <1>   0.0860 
  5 C        1.4130     2.3920     0.1450 C.ar  1 <1>   0.1170 
  6 C       -2.8810     2.4430    -0.0100 C.ar  1 <1>  -0.1500 
  7 C       -3.0220     0.3170     1.0340 C.ar  1 <1>  -0.1500 
  8 C        2.0220     2.8640    -1.0210 C.ar  1 <1>   0.0830 
  9 C        2.2040     2.2430     1.2770 C.ar  1 <1>  -0.1500 
 10 C       -4.2320     2.3870    -0.3000 C.ar  1 <1>  -0.1500 
 11 C       -4.3730     0.2590     0.7460 C.ar  1 <1>  -0.1500 
 12 O        1.2810     3.0420    -2.1400 O.3   1 <1>  -0.5320 
 13 C        3.3740     3.1590    -1.0560 C.ar  1 <1>  -0.1500 
 14 C        3.5550     2.5410     1.2420 C.ar  1 <1>  -0.1500 
 15 C       -5.0090     1.2940     0.0680 C.ar  1 <1>  -0.1430 
 16 C        4.1600     3.0020     0.0780 C.ar  1 <1>   0.1170 
 17 C       -6.5140     1.2770    -0.2790 C.3   1 <1>   0.1440 
 18 N        5.5330     3.2940     0.0020 N.am  1 <1>  -0.5470 
 19 C       -7.2290    -0.0020     0.1880 C.3   1 <1>  -0.2400 
 20 C       -6.6920     1.3760    -1.8020 C.3   1 <1>  -0.2400 
 21 C       -7.2100     2.4700     0.3940 C.3   1 <1>  -0.2400 
 22 C        6.4040     3.7050     0.9720 C.2   1 <1>   0.5690 
 23 O        6.0840     3.9270     2.1120 O.2   1 <1>  -0.5700 
 24 C        7.8570     3.8960     0.5750 C.3   1 <1>  -0.0990 
 25 C        8.0700     5.0940    -0.3650 C.3   1 <1>  -0.2400 
 26 H       -0.3750     2.3810    -0.7850 H     1 <1>   0.3700 
 27 H       -2.3250     3.3160    -0.3020 H     1 <1>   0.1500 
 28 H       -2.5580    -0.4990     1.5620 H     1 <1>   0.1500 
 29 H        1.7730     1.8950     2.1970 H     1 <1>   0.1500 
 30 H       -4.6780     3.2160    -0.8190 H     1 <1>   0.1500 
 31 H       -4.9100    -0.6140     1.0660 H     1 <1>   0.1500 
 32 H        1.8050     3.3680    -2.8940 H     1 <1>   0.4500 
 33 H        3.8230     3.5190    -1.9610 H     1 <1>   0.1500 
 34 H        4.1400     2.4100     2.1350 H     1 <1>   0.1500 
 35 H        5.9380     3.2270    -0.9290 H     1 <1>   0.3700 
 36 H       -6.7930    -0.8690    -0.2750 H     1 <1>   0.0800 
 37 H       -8.2710     0.0280    -0.0770 H     1 <1>   0.0800 
 38 H       -7.1610    -0.1030     1.2570 H     1 <1>   0.0800 
 39 H       -6.1790     0.5640    -2.2850 H     1 <1>   0.0800 
 40 H       -6.2940     2.2990    -2.1810 H     1 <1>   0.0800 
 41 H       -7.7330     1.3290    -2.0670 H     1 <1>   0.0800 
 42 H       -7.0630     2.4270     1.4590 H     1 <1>   0.0800 
 43 H       -8.2670     2.4560     0.1940 H     1 <1>   0.0800 
 44 H       -6.8160     3.4030     0.0370 H     1 <1>   0.0800 
 45 H        8.2120     2.9960     0.1080 H     1 <1>   0.0800 
 46 H        8.4340     4.0460     1.4700 H     1 <1>   0.0800 
 47 H        7.5400     4.9570    -1.2900 H     1 <1>   0.0800 
 48 H        9.1170     5.2100    -0.5830 H     1 <1>   0.0800 
 49 H        7.7170     5.9960     0.1050 H     1 <1>   0.0800 
@<TRIPOS>BOND
  1   1   2  2   
  2   2   3  am  
  3   2   4  1   
  4   3   5  1   
  5   3  26  1   
  6   4   6  ar  
  7   4   7  ar  
  8   5   8  ar  
  9   5   9  ar  
 10   6  10  ar  
 11   6  27  1   
 12   7  11  ar  
 13   7  28  1   
 14   8  12  1   
 15   8  13  ar  
 16   9  14  ar  
 17   9  29  1   
 18  10  15  ar  
 19  10  30  1   
 20  11  15  ar  
 21  11  31  1   
 22  12  32  1   
 23  13  16  ar  
 24  13  33  1   
 25  14  16  ar  
 26  14  34  1   
 27  15  17  1   
 28  16  18  1   
 29  17  19  1   
 30  17  20  1   
 31  17  21  1   
 32  18  22  am  
 33  18  35  1   
 34  19  36  1   
 35  19  37  1   
 36  19  38  1   
 37  20  39  1   
 38  20  40  1   
 39  20  41  1   
 40  21  42  1   
 41  21  43  1   
 42  21  44  1   
 43  22  23  2   
 44  22  24  1   
 45  24  25  1   
 46  24  45  1   
 47  24  46  1   
 48  25  47  1   
 49  25  48  1   
 50  25  49  1   
@<TRIPOS>SUBSTRUCTURE
  1 ****   3 GROUP 4 **** **** 0

# MOE 2024.06 (io_trps.svl 2023.06)
