@<TRIPOS>MOLECULE
NONAME
41 42 1 0 0 
SMALL
USER_CHARGES


@<TRIPOS>ATOM
  1 S       -0.0310     0.6420    -1.7520 S.o2  1 <1>   1.4470 
  2 O       -0.7390     1.3240    -2.8110 O.2   1 <1>  -0.6500 
  3 O        0.2990    -0.7570    -1.8830 O.2   1 <1>  -0.6500 
  4 N       -1.0470     0.7570    -0.3960 N.am  1 <1>  -0.8490 
  5 C        1.4290     1.5910    -1.2350 C.ar  1 <1>  -0.0090 
  6 C       -1.6610     2.0920    -0.2350 C.3   1 <1>   0.1960 
  7 C       -2.0860    -0.2940    -0.3810 C.3   1 <1>   0.1960 
  8 C        1.7460     1.7230     0.1070 C.ar  1 <1>  -0.1500 
  9 C        2.2620     2.2150    -2.1520 C.ar  1 <1>  -0.1500 
 10 C       -2.4200     2.2170     1.1110 C.3   1 <1>   0.3430 
 11 C       -3.0280    -0.1780     0.8460 C.3   1 <1>   0.3430 
 12 C        2.8060     2.4950     0.5820 C.ar  1 <1>   0.0860 
 13 C        3.3500     2.9580    -1.7310 C.ar  1 <1>  -0.1500 
 14 N       -2.5690     0.8880     1.8080 N.4   1 <1>  -0.9590 
 15 C        3.6310     3.1100    -0.3740 C.ar  1 <1>   0.0830 
 16 C        2.9550     2.6250     2.0230 C.2   1 <1>   0.5440 
 17 C       -3.3980     0.9700     3.0460 C.3   1 <1>   0.2630 
 18 O        4.6840     3.8520     0.0510 O.3   1 <1>  -0.3630 
 19 O        2.0050     2.4520     2.7620 O.2   1 <1>  -0.5700 
 20 N        4.1250     2.9350     2.6220 N.am  1 <1>  -0.8000 
 21 C        5.5440     4.5460    -0.8280 C.3   1 <1>   0.0400 
 22 H       -2.3460     2.2800    -1.0470 H     1 <1>   0.0800 
 23 H       -0.9040     2.8570    -0.2750 H     1 <1>   0.0800 
 24 H       -1.6130    -1.2620    -0.3580 H     1 <1>   0.0800 
 25 H       -2.6690    -0.2470    -1.2870 H     1 <1>   0.0800 
 26 H        1.1410     1.2110     0.8340 H     1 <1>   0.1500 
 27 H        2.0550     2.1210    -3.2060 H     1 <1>   0.1500 
 28 H       -3.3890     2.6500     0.9260 H     1 <1>   0.0800 
 29 H       -1.8790     2.8970     1.7500 H     1 <1>   0.0800 
 30 H       -3.0670    -1.1330     1.3450 H     1 <1>   0.0800 
 31 H       -4.0230     0.0480     0.5000 H     1 <1>   0.0800 
 32 H        3.9660     3.4150    -2.4830 H     1 <1>   0.1500 
 33 H       -1.6020     0.6190     2.0600 H     1 <1>   0.4500 
 34 H       -4.4090     1.2570     2.8040 H     1 <1>   0.0800 
 35 H       -2.9850     1.7000     3.7240 H     1 <1>   0.0800 
 36 H       -3.4200     0.0150     3.5460 H     1 <1>   0.0800 
 37 H        4.1620     3.0740     3.6310 H     1 <1>   0.3700 
 38 H        4.9230     3.2620     2.0710 H     1 <1>   0.3700 
 39 H        6.2770     5.0670    -0.2390 H     1 <1>   0.0800 
 40 H        4.9680     5.2540    -1.3980 H     1 <1>   0.0800 
 41 H        6.0330     3.8380    -1.4740 H     1 <1>   0.0800 
@<TRIPOS>BOND
  1   1   2  2   
  2   1   3  2   
  3   1   4  am  
  4   1   5  1   
  5   4   6  1   
  6   4   7  1   
  7   5   8  ar  
  8   5   9  ar  
  9   6  10  1   
 10   6  22  1   
 11   6  23  1   
 12   7  11  1   
 13   7  24  1   
 14   7  25  1   
 15   8  12  ar  
 16   8  26  1   
 17   9  13  ar  
 18   9  27  1   
 19  10  14  1   
 20  10  28  1   
 21  10  29  1   
 22  11  14  1   
 23  11  30  1   
 24  11  31  1   
 25  12  15  ar  
 26  12  16  1   
 27  13  15  ar  
 28  13  32  1   
 29  14  17  1   
 30  14  33  1   
 31  15  18  1   
 32  16  19  2   
 33  16  20  am  
 34  17  34  1   
 35  17  35  1   
 36  17  36  1   
 37  18  21  1   
 38  20  37  1   
 39  20  38  1   
 40  21  39  1   
 41  21  40  1   
 42  21  41  1   
@<TRIPOS>SUBSTRUCTURE
  1 ****   8 GROUP 4 **** **** 0

# MOE 2024.06 (io_trps.svl 2023.06)
