@<TRIPOS>MOLECULE
NONAME
46 48 1 0 0 
SMALL
USER_CHARGES


@<TRIPOS>ATOM
  1 CL      -1.3890     1.8460     2.2060 Cl    1 <1>  -0.1770 
  2 C       -2.4860     1.5310     0.8880 C.ar  1 <1>   0.1770 
  3 C       -3.7620     1.0810     1.1710 C.ar  1 <1>  -0.1500 
  4 C       -2.0680     1.7380    -0.4110 C.ar  1 <1>  -0.1500 
  5 C       -4.6490     0.8360     0.1310 C.ar  1 <1>  -0.1440 
  6 C       -2.9470     1.4860    -1.4500 C.ar  1 <1>  -0.1500 
  7 C       -4.2300     1.0370    -1.1800 C.ar  1 <1>  -0.1500 
  8 C       -6.0600     0.3600     0.4210 C.3   1 <1>   0.4870 
  9 N       -6.8450     1.5000     0.9660 N.4   1 <1>  -0.9590 
 10 C       -8.2060     1.0670     1.4500 C.3   1 <1>   0.3430 
 11 C       -6.9640     2.6320    -0.0300 C.3   1 <1>   0.3430 
 12 C       -9.0250     2.2320     2.0440 C.3   1 <1>   0.2090 
 13 C       -7.7560     3.8330     0.5240 C.3   1 <1>   0.2090 
 14 N       -9.0510     3.4090     1.1300 N.pl3 1 <1>  -0.8380 
 15 C      -10.2130     3.6220     0.3880 C.ar  1 <1>   0.1000 
 16 C      -11.1110     4.6280     0.7430 C.ar  1 <1>  -0.1430 
 17 C      -10.4920     2.8280    -0.7210 C.ar  1 <1>  -0.1500 
 18 C      -12.2590     4.8190    -0.0070 C.ar  1 <1>  -0.1500 
 19 C      -10.8450     5.5220     1.9460 C.3   1 <1>  -0.0970 
 20 C      -11.6400     3.0200    -1.4690 C.ar  1 <1>  -0.1430 
 21 C      -12.5230     4.0210    -1.1070 C.ar  1 <1>  -0.1500 
 22 C      -11.9470     2.1550    -2.6790 C.3   1 <1>  -0.0970 
 23 H       -4.0330     0.9270     2.2010 H     1 <1>   0.1500 
 24 H       -1.0680     2.0870    -0.6040 H     1 <1>   0.1500 
 25 H       -2.6280     1.6380    -2.4690 H     1 <1>   0.1500 
 26 H       -4.8920     0.8430    -2.0080 H     1 <1>   0.1500 
 27 H       -6.0230    -0.4430     1.1400 H     1 <1>   0.0800 
 28 H       -6.5170    -0.0110    -0.4820 H     1 <1>   0.0800 
 29 H       -6.3250     1.8740     1.7690 H     1 <1>   0.4500 
 30 H       -8.1050     0.2980     2.1980 H     1 <1>   0.0800 
 31 H       -8.7670     0.6550     0.6280 H     1 <1>   0.0800 
 32 H       -7.4670     2.2820    -0.9160 H     1 <1>   0.0800 
 33 H       -5.9830     2.9710    -0.3230 H     1 <1>   0.0800 
 34 H       -8.6050     2.5320     2.9880 H     1 <1>   0.0800 
 35 H      -10.0340     1.9020     2.2280 H     1 <1>   0.0800 
 36 H       -7.9470     4.5340    -0.2720 H     1 <1>   0.0800 
 37 H       -7.1710     4.3440     1.2700 H     1 <1>   0.0800 
 38 H       -9.8070     2.0550    -0.9990 H     1 <1>   0.1500 
 39 H      -12.9580     5.5920     0.2580 H     1 <1>   0.1500 
 40 H      -10.7860     4.9240     2.8370 H     1 <1>   0.0800 
 41 H      -11.6280     6.2480     2.0720 H     1 <1>   0.0800 
 42 H       -9.9140     6.0410     1.8140 H     1 <1>   0.0800 
 43 H      -13.4210     4.1850    -1.6770 H     1 <1>   0.1500 
 44 H      -11.1880     1.4090    -2.8270 H     1 <1>   0.0800 
 45 H      -12.0020     2.7680    -3.5610 H     1 <1>   0.0800 
 46 H      -12.8920     1.6600    -2.5430 H     1 <1>   0.0800 
@<TRIPOS>BOND
  1   1   2  1   
  2   2   3  ar  
  3   2   4  ar  
  4   3   5  ar  
  5   3  23  1   
  6   4   6  ar  
  7   4  24  1   
  8   5   7  ar  
  9   5   8  1   
 10   6   7  ar  
 11   6  25  1   
 12   7  26  1   
 13   8   9  1   
 14   8  27  1   
 15   8  28  1   
 16   9  10  1   
 17   9  11  1   
 18   9  29  1   
 19  10  12  1   
 20  10  30  1   
 21  10  31  1   
 22  11  13  1   
 23  11  32  1   
 24  11  33  1   
 25  12  14  1   
 26  12  34  1   
 27  12  35  1   
 28  13  14  1   
 29  13  36  1   
 30  13  37  1   
 31  14  15  1   
 32  15  16  ar  
 33  15  17  ar  
 34  16  18  ar  
 35  16  19  1   
 36  17  20  ar  
 37  17  38  1   
 38  18  21  ar  
 39  18  39  1   
 40  19  40  1   
 41  19  41  1   
 42  19  42  1   
 43  20  21  ar  
 44  20  22  1   
 45  21  43  1   
 46  22  44  1   
 47  22  45  1   
 48  22  46  1   
@<TRIPOS>SUBSTRUCTURE
  1 ****  11 GROUP 4 **** **** 0

# MOE 2024.06 (io_trps.svl 2023.06)
