@<TRIPOS>MOLECULE
NONAME
49 51 1 0 0 
SMALL
USER_CHARGES


@<TRIPOS>ATOM
  1 O        0.4690     0.6050    -0.3820 O.2   1 <1>  -0.5700 
  2 C        0.3340     1.7510     0.0030 C.2   1 <1>   0.5440 
  3 N        1.4300     2.4240     0.5120 N.am  1 <1>  -0.6600 
  4 C       -0.9730     2.3720    -0.0890 C.ar  1 <1>   0.0860 
  5 C        2.7220     1.7280     0.7660 C.3   1 <1>   0.1400 
  6 C        1.4710     3.9000     0.7070 C.3   1 <1>   0.1400 
  7 C       -1.6200     2.4980    -1.3180 C.ar  1 <1>  -0.1500 
  8 C       -1.6300     2.8600     1.0410 C.ar  1 <1>  -0.1500 
  9 C        3.8130     2.3210    -0.1290 C.3   1 <1>  -0.1600 
 10 C        2.5610     4.5070    -0.1800 C.3   1 <1>  -0.1600 
 11 C       -2.8620     3.0990    -1.4190 C.ar  1 <1>  -0.1500 
 12 C       -2.8710     3.4630     0.9470 C.ar  1 <1>  -0.1500 
 13 C        3.9330     3.8450     0.0590 C.3   1 <1>  -0.0190 
 14 C       -3.4880     3.5850    -0.2850 C.ar  1 <1>  -0.1500 
 15 C        5.0360     4.4200    -0.8290 C.2   1 <1>   0.5690 
 16 O        4.7660     4.9640    -1.8730 O.2   1 <1>  -0.5700 
 17 N        6.3190     4.2950    -0.4140 N.am  1 <1>  -0.7300 
 18 C        7.4910     4.7040    -1.2020 C.3   1 <1>   0.2840 
 19 C        8.6720     3.8820    -0.7240 C.ar  1 <1>  -0.1430 
 20 C        9.5430     4.3870     0.2300 C.ar  1 <1>  -0.1500 
 21 C        8.8850     2.6090    -1.2300 C.ar  1 <1>  -0.1500 
 22 C       10.6140     3.6280     0.6690 C.ar  1 <1>  -0.1500 
 23 C        9.9570     1.8520    -0.7900 C.ar  1 <1>  -0.1500 
 24 C       10.8280     2.3580     0.1610 C.ar  1 <1>  -0.1430 
 25 C       12.0040     1.5280     0.6450 C.3   1 <1>  -0.0970 
 26 H        2.6340     0.6720     0.5730 H     1 <1>   0.0800 
 27 H        2.9870     1.8510     1.8010 H     1 <1>   0.0800 
 28 H        1.6790     4.1100     1.7420 H     1 <1>   0.0800 
 29 H        0.5280     4.3520     0.4570 H     1 <1>   0.0800 
 30 H       -1.1350     2.1120    -2.1980 H     1 <1>   0.1500 
 31 H       -1.1550     2.7590     2.0010 H     1 <1>   0.1500 
 32 H        3.5780     2.0990    -1.1560 H     1 <1>   0.0800 
 33 H        4.7510     1.8480     0.1000 H     1 <1>   0.0800 
 34 H        2.6310     5.5630     0.0130 H     1 <1>   0.0800 
 35 H        2.2720     4.3850    -1.2100 H     1 <1>   0.0800 
 36 H       -3.3410     3.1860    -2.3790 H     1 <1>   0.1500 
 37 H       -3.3610     3.8340     1.8320 H     1 <1>   0.1500 
 38 H        4.2130     4.0370     1.0790 H     1 <1>   0.0800 
 39 H       -4.4550     4.0530    -0.3620 H     1 <1>   0.1500 
 40 H        6.5530     3.7860     0.4380 H     1 <1>   0.3700 
 41 H        7.6740     5.7540    -1.0540 H     1 <1>   0.0800 
 42 H        7.3090     4.5310    -2.2490 H     1 <1>   0.0800 
 43 H        9.3910     5.3720     0.6360 H     1 <1>   0.1500 
 44 H        8.2150     2.2030    -1.9680 H     1 <1>   0.1500 
 45 H       11.2820     4.0320     1.4100 H     1 <1>   0.1500 
 46 H       10.1090     0.8660    -1.1920 H     1 <1>   0.1500 
 47 H       12.8350     2.1630     0.8900 H     1 <1>   0.0800 
 48 H       12.3180     0.8390    -0.1180 H     1 <1>   0.0800 
 49 H       11.7200     0.9720     1.5200 H     1 <1>   0.0800 
@<TRIPOS>BOND
  1   1   2  2   
  2   2   3  am  
  3   2   4  1   
  4   3   5  1   
  5   3   6  1   
  6   4   7  ar  
  7   4   8  ar  
  8   5   9  1   
  9   5  26  1   
 10   5  27  1   
 11   6  10  1   
 12   6  28  1   
 13   6  29  1   
 14   7  11  ar  
 15   7  30  1   
 16   8  12  ar  
 17   8  31  1   
 18   9  13  1   
 19   9  32  1   
 20   9  33  1   
 21  10  13  1   
 22  10  34  1   
 23  10  35  1   
 24  11  14  ar  
 25  11  36  1   
 26  12  14  ar  
 27  12  37  1   
 28  13  15  1   
 29  13  38  1   
 30  14  39  1   
 31  15  16  2   
 32  15  17  am  
 33  17  18  1   
 34  17  40  1   
 35  18  19  1   
 36  18  41  1   
 37  18  42  1   
 38  19  20  ar  
 39  19  21  ar  
 40  20  22  ar  
 41  20  43  1   
 42  21  23  ar  
 43  21  44  1   
 44  22  24  ar  
 45  22  45  1   
 46  23  24  ar  
 47  23  46  1   
 48  24  25  1   
 49  25  47  1   
 50  25  48  1   
 51  25  49  1   
@<TRIPOS>SUBSTRUCTURE
  1 ****  13 GROUP 4 **** **** 0

# MOE 2024.06 (io_trps.svl 2023.06)
