@<TRIPOS>MOLECULE
NONAME
36 37 1 0 0 
SMALL
USER_CHARGES


@<TRIPOS>ATOM
  1 BR       2.4490    -4.9000     1.2910 Br    1 <1>  -0.1110 
  2 C        3.5210    -3.4840     0.5480 C.ar  1 <1>   0.1110 
  3 C        3.8190    -2.3900     1.3370 C.ar  1 <1>  -0.1500 
  4 C        3.9650    -3.6000    -0.7560 C.ar  1 <1>  -0.1500 
  5 C        4.5960    -1.3800     0.7970 C.ar  1 <1>  -0.1500 
  6 C        4.7410    -2.5830    -1.2880 C.ar  1 <1>  -0.1500 
  7 C        5.0650    -1.4720    -0.5070 C.ar  1 <1>   0.0830 
  8 O        5.8450    -0.4470    -0.9390 O.3   1 <1>  -0.3630 
  9 C        6.5890    -0.5130    -2.1520 C.3   1 <1>   0.2610 
 10 C        7.6400    -1.6360    -2.1160 C.2   1 <1>   0.5690 
 11 C        7.2280     0.8630    -2.3550 C.3   1 <1>  -0.2400 
 12 O        8.0130    -2.1210    -3.1590 O.2   1 <1>  -0.5700 
 13 N        8.1000    -2.0780    -0.9160 N.am  1 <1>  -0.7300 
 14 C        8.9410    -3.2610    -0.6980 C.3   1 <1>   0.2200 
 15 C        8.0420    -4.4270    -0.3030 C.3   1 <1>  -0.1600 
 16 C        9.7810    -3.0330     0.5520 C.3   1 <1>  -0.1600 
 17 C        7.7230    -4.2160     1.1810 C.3   1 <1>  -0.1600 
 18 C        8.8590    -3.3480     1.7390 C.3   1 <1>  -0.1600 
 19 H        3.4520    -2.3320     2.3460 H     1 <1>   0.1500 
 20 H        3.7090    -4.4660    -1.3390 H     1 <1>   0.1500 
 21 H        4.8450    -0.5140     1.3850 H     1 <1>   0.1500 
 22 H        5.0820    -2.6790    -2.3020 H     1 <1>   0.1500 
 23 H        5.8980    -0.7010    -2.9540 H     1 <1>   0.0800 
 24 H        7.9100     1.0780    -1.5520 H     1 <1>   0.0800 
 25 H        6.4680     1.6220    -2.3980 H     1 <1>   0.0800 
 26 H        7.7760     0.8730    -3.2810 H     1 <1>   0.0800 
 27 H        7.6480    -1.7200    -0.0730 H     1 <1>   0.3700 
 28 H        9.5360    -3.4720    -1.5710 H     1 <1>   0.0800 
 29 H        8.5990    -5.3400    -0.4160 H     1 <1>   0.0800 
 30 H        7.1590    -4.4860    -0.9150 H     1 <1>   0.0800 
 31 H       10.1890    -2.0380     0.5930 H     1 <1>   0.0800 
 32 H       10.5950    -3.7370     0.5470 H     1 <1>   0.0800 
 33 H        7.6500    -5.1570     1.6980 H     1 <1>   0.0800 
 34 H        6.7860    -3.6940     1.2790 H     1 <1>   0.0800 
 35 H        8.4530    -2.4370     2.1440 H     1 <1>   0.0800 
 36 H        9.4000    -3.8620     2.5150 H     1 <1>   0.0800 
@<TRIPOS>BOND
  1   1   2  1   
  2   2   3  ar  
  3   2   4  ar  
  4   3   5  ar  
  5   3  19  1   
  6   4   6  ar  
  7   4  20  1   
  8   5   7  ar  
  9   5  21  1   
 10   6   7  ar  
 11   6  22  1   
 12   7   8  1   
 13   8   9  1   
 14   9  10  1   
 15   9  11  1   
 16   9  23  1   
 17  10  12  2   
 18  10  13  am  
 19  11  24  1   
 20  11  25  1   
 21  11  26  1   
 22  13  14  1   
 23  13  27  1   
 24  14  15  1   
 25  14  16  1   
 26  14  28  1   
 27  15  17  1   
 28  15  29  1   
 29  15  30  1   
 30  16  18  1   
 31  16  31  1   
 32  16  32  1   
 33  17  18  1   
 34  17  33  1   
 35  17  34  1   
 36  18  35  1   
 37  18  36  1   
@<TRIPOS>SUBSTRUCTURE
  1 ****   7 GROUP 4 **** **** 0

# MOE 2024.06 (io_trps.svl 2023.06)
