@<TRIPOS>MOLECULE
NONAME
43 44 1 0 0 
SMALL
USER_CHARGES


@<TRIPOS>ATOM
  1 O        0.8090    -0.3180    -0.0090 O.3   1 <1>  -0.3630 
  2 C       -0.4390    -0.8690    -0.0190 C.ar  1 <1>   0.0830 
  3 C        1.9720    -1.1100    -0.0110 C.3   1 <1>   0.1200 
  4 C       -1.5380    -0.0040    -0.0150 C.ar  1 <1>   0.0830 
  5 C       -0.6490    -2.2460    -0.0320 C.ar  1 <1>  -0.1500 
  6 C        3.1780    -0.1730     0.0030 C.3   1 <1>  -0.1600 
  7 O       -1.2970     1.3400    -0.0020 O.3   1 <1>  -0.3630 
  8 C       -2.8270    -0.5320    -0.0250 C.ar  1 <1>  -0.1500 
  9 C       -1.9350    -2.7570    -0.0410 C.ar  1 <1>  -0.1500 
 10 C        4.4960    -0.9590     0.0030 C.3   1 <1>  -0.1600 
 11 C       -2.3460     2.2820     0.0030 C.3   1 <1>   0.0400 
 12 C       -3.0220    -1.9020    -0.0380 C.ar  1 <1>  -0.1500 
 13 C        5.6990    -0.0160     0.0160 C.3   1 <1>   0.1200 
 14 O        6.8700    -0.7980     0.0160 O.3   1 <1>  -0.3630 
 15 C        8.0990    -0.2240     0.0270 C.ar  1 <1>   0.0830 
 16 C        8.3140     1.1520     0.0390 C.ar  1 <1>  -0.1500 
 17 C        9.1860    -1.0830     0.0270 C.ar  1 <1>  -0.1500 
 18 C        9.6030     1.6600     0.0520 C.ar  1 <1>  -0.1430 
 19 C       10.4740    -0.5800     0.0370 C.ar  1 <1>  -0.1500 
 20 C       10.6810     0.7880     0.0490 C.ar  1 <1>  -0.1500 
 21 C        9.8410     3.1590     0.0630 C.3   1 <1>  -0.0970 
 22 H        1.9690    -1.7160    -0.9000 H     1 <1>   0.0800 
 23 H        1.9610    -1.7310     0.8690 H     1 <1>   0.0800 
 24 H        0.1710    -2.9370    -0.0350 H     1 <1>   0.1500 
 25 H        3.1270     0.4460     0.8830 H     1 <1>   0.0800 
 26 H        3.1360     0.4600    -0.8670 H     1 <1>   0.0800 
 27 H       -3.6910     0.1040    -0.0220 H     1 <1>   0.1500 
 28 H       -2.0910    -3.8220    -0.0520 H     1 <1>   0.1500 
 29 H        4.5470    -1.5760    -0.8780 H     1 <1>   0.0800 
 30 H        4.5390    -1.5910     0.8730 H     1 <1>   0.0800 
 31 H       -1.9090     3.2640     0.0130 H     1 <1>   0.0800 
 32 H       -2.9410     2.1370     0.8860 H     1 <1>   0.0800 
 33 H       -2.9340     2.1530    -0.8880 H     1 <1>   0.0800 
 34 H       -4.0200    -2.3030    -0.0450 H     1 <1>   0.1500 
 35 H        5.6970     0.5910     0.9050 H     1 <1>   0.0800 
 36 H        5.7050     0.6060    -0.8630 H     1 <1>   0.0800 
 37 H        7.4890     1.8380     0.0380 H     1 <1>   0.1500 
 38 H        9.0150    -2.1440     0.0170 H     1 <1>   0.1500 
 39 H       11.3140    -1.2530     0.0360 H     1 <1>   0.1500 
 40 H       11.6860     1.1720     0.0560 H     1 <1>   0.1500 
 41 H        9.0000     3.6730     0.4930 H     1 <1>   0.0800 
 42 H        9.9860     3.5110    -0.9420 H     1 <1>   0.0800 
 43 H       10.7140     3.3940     0.6440 H     1 <1>   0.0800 
@<TRIPOS>BOND
  1   1   2  1   
  2   1   3  1   
  3   2   4  ar  
  4   2   5  ar  
  5   3   6  1   
  6   3  22  1   
  7   3  23  1   
  8   4   7  1   
  9   4   8  ar  
 10   5   9  ar  
 11   5  24  1   
 12   6  10  1   
 13   6  25  1   
 14   6  26  1   
 15   7  11  1   
 16   8  12  ar  
 17   8  27  1   
 18   9  12  ar  
 19   9  28  1   
 20  10  13  1   
 21  10  29  1   
 22  10  30  1   
 23  11  31  1   
 24  11  32  1   
 25  11  33  1   
 26  12  34  1   
 27  13  14  1   
 28  13  35  1   
 29  13  36  1   
 30  14  15  1   
 31  15  16  ar  
 32  15  17  ar  
 33  16  18  ar  
 34  16  37  1   
 35  17  19  ar  
 36  17  38  1   
 37  18  20  ar  
 38  18  21  1   
 39  19  20  ar  
 40  19  39  1   
 41  20  40  1   
 42  21  41  1   
 43  21  42  1   
 44  21  43  1   
@<TRIPOS>SUBSTRUCTURE
  1 ****   6 GROUP 4 **** **** 0

# MOE 2024.06 (io_trps.svl 2023.06)
