@<TRIPOS>MOLECULE
NONAME
42 44 1 0 0 
SMALL
USER_CHARGES


@<TRIPOS>ATOM
  1 S       -0.5260    -3.2780    -0.1300 S.3   1 <1>  -0.0800 
  2 C        0.3640    -4.7210    -0.5160 C.2   1 <1>  -0.1120 
  3 C       -1.8270    -4.3260     0.4650 C.2   1 <1>   0.1980 
  4 N        1.5800    -5.0140    -1.0360 N.pl3 1 <1>   0.0480 
  5 C       -0.3460    -5.8060    -0.1720 C.2   1 <1>   0.2270 
  6 N       -1.5950    -5.5780     0.3870 N.2   1 <1>  -0.5650 
  7 C       -3.0640    -3.6440     1.0000 C.3   1 <1>  -0.0600 
  8 C        1.6650    -6.3970    -1.0070 C.ar  1 <1>  -0.1520 
  9 C        2.6770    -4.0590    -1.2160 C.3   1 <1>   0.0960 
 10 C        0.4740    -6.9180    -0.4770 C.ar  1 <1>   0.0000 
 11 C        2.6950    -7.2580    -1.3980 C.ar  1 <1>  -0.1500 
 12 C        3.3490    -3.8660     0.1480 C.3   1 <1>   0.3430 
 13 C        0.3160    -8.2980    -0.3380 C.ar  1 <1>  -0.1500 
 14 C        2.5240    -8.6160    -1.2530 C.ar  1 <1>  -0.1500 
 15 N        4.4700    -2.8650     0.1280 N.4   1 <1>  -0.9590 
 16 C        1.3370    -9.1360    -0.7240 C.ar  1 <1>  -0.1500 
 17 C        5.2210    -2.9410     1.4120 C.3   1 <1>   0.3430 
 18 C        3.9860    -1.4800    -0.1350 C.3   1 <1>   0.3430 
 19 C        6.5880    -2.2880     1.2450 C.3   1 <1>  -0.2400 
 20 C        4.4730    -1.0530    -1.5120 C.3   1 <1>  -0.2400 
 21 H       -2.8050    -3.0140     1.8310 H     1 <1>   0.0800 
 22 H       -3.7710    -4.3840     1.3290 H     1 <1>   0.0800 
 23 H       -3.5160    -3.0490     0.2280 H     1 <1>   0.0800 
 24 H        2.2600    -3.1370    -1.5780 H     1 <1>   0.0800 
 25 H        3.3690    -4.4530    -1.9360 H     1 <1>   0.0800 
 26 H        3.6070    -6.8730    -1.8170 H     1 <1>   0.1500 
 27 H        3.7310    -4.8230     0.4680 H     1 <1>   0.0800 
 28 H        2.6030    -3.5530     0.8610 H     1 <1>   0.0800 
 29 H       -0.6040    -8.6780     0.0690 H     1 <1>   0.1500 
 30 H        3.3020    -9.2980    -1.5500 H     1 <1>   0.1500 
 31 H        5.1340    -3.1140    -0.6180 H     1 <1>   0.4500 
 32 H        1.2290   -10.2020    -0.6230 H     1 <1>   0.1500 
 33 H        5.3640    -3.9730     1.6910 H     1 <1>   0.0800 
 34 H        4.6680    -2.4530     2.2000 H     1 <1>   0.0800 
 35 H        4.3750    -0.7990     0.6060 H     1 <1>   0.0800 
 36 H        2.9080    -1.4390    -0.0920 H     1 <1>   0.0800 
 37 H        7.1500    -2.7690     0.4640 H     1 <1>   0.0800 
 38 H        7.1420    -2.3940     2.1610 H     1 <1>   0.0800 
 39 H        6.5040    -1.2370     1.0370 H     1 <1>   0.0800 
 40 H        5.5480    -1.0440    -1.5510 H     1 <1>   0.0800 
 41 H        4.1300    -0.0530    -1.7120 H     1 <1>   0.0800 
 42 H        4.0870    -1.6930    -2.2840 H     1 <1>   0.0800 
@<TRIPOS>BOND
  1   1   2  1   
  2   1   3  1   
  3   2   4  1   
  4   2   5  2   
  5   3   6  2   
  6   3   7  1   
  7   4   8  1   
  8   4   9  1   
  9   5   6  1   
 10   5  10  1   
 11   7  21  1   
 12   7  22  1   
 13   7  23  1   
 14   8  10  ar  
 15   8  11  ar  
 16   9  12  1   
 17   9  24  1   
 18   9  25  1   
 19  10  13  ar  
 20  11  14  ar  
 21  11  26  1   
 22  12  15  1   
 23  12  27  1   
 24  12  28  1   
 25  13  16  ar  
 26  13  29  1   
 27  14  16  ar  
 28  14  30  1   
 29  15  17  1   
 30  15  18  1   
 31  15  31  1   
 32  16  32  1   
 33  17  19  1   
 34  17  33  1   
 35  17  34  1   
 36  18  20  1   
 37  18  35  1   
 38  18  36  1   
 39  19  37  1   
 40  19  38  1   
 41  19  39  1   
 42  20  40  1   
 43  20  41  1   
 44  20  42  1   
@<TRIPOS>SUBSTRUCTURE
  1 ****   4 GROUP 4 **** **** 0

# MOE 2024.06 (io_trps.svl 2023.06)
