@<TRIPOS>MOLECULE
NONAME
40 41 1 0 0 
SMALL
USER_CHARGES


@<TRIPOS>ATOM
  1 S        0.6990    -0.4450     0.2400 S.o2  1 <1>   1.3330 
  2 O        0.8190    -1.8690     0.0640 O.2   1 <1>  -0.6500 
  3 O       -0.4260     0.2880    -0.2820 O.2   1 <1>  -0.6500 
  4 N        2.1390     0.2090    -0.4260 N.am  1 <1>  -0.7570 
  5 C        0.9050    -0.0780     1.9690 C.3   1 <1>  -0.1350 
  6 C        2.5170     1.5140    -0.7280 C.ar  1 <1>   0.1990 
  7 C        3.7870     1.7540    -1.2800 C.ar  1 <1>   0.0860 
  8 C        1.6670     2.5960    -0.4980 C.ar  1 <1>  -0.1500 
  9 C        4.7210     0.6700    -1.4950 C.2   1 <1>   0.5440 
 10 C        4.1370     3.0640    -1.6170 C.ar  1 <1>  -0.1500 
 11 C        2.0410     3.8840    -0.8200 C.ar  1 <1>  -0.1500 
 12 O        4.3590    -0.3030    -2.1350 O.2   1 <1>  -0.5700 
 13 N        6.0050     0.6830    -0.9800 N.am  1 <1>  -0.6600 
 14 C        3.2810     4.1210    -1.3880 C.ar  1 <1>  -0.1500 
 15 C        7.0150    -0.3050    -1.4530 C.3   1 <1>   0.1400 
 16 C        6.4320     1.5770     0.1330 C.3   1 <1>   0.1400 
 17 C        7.0170    -1.5320    -0.5360 C.3   1 <1>  -0.1600 
 18 C        6.7430     0.7920     1.4140 C.3   1 <1>  -0.1600 
 19 C        7.9000    -1.4160     0.7190 C.3   1 <1>  -0.1600 
 20 C        8.0490    -0.0140     1.3310 C.3   1 <1>  -0.1600 
 21 H        2.6730    -0.5290    -0.9020 H     1 <1>   0.4200 
 22 H        1.8070    -0.5260     2.3360 H     1 <1>   0.0800 
 23 H        0.0750    -0.4660     2.5260 H     1 <1>   0.0800 
 24 H        0.9570     0.9820     2.1200 H     1 <1>   0.0800 
 25 H        0.6940     2.4410    -0.0720 H     1 <1>   0.1500 
 26 H        5.0990     3.2460    -2.0650 H     1 <1>   0.1500 
 27 H        1.3680     4.7050    -0.6390 H     1 <1>   0.1500 
 28 H        3.5690     5.1250    -1.6510 H     1 <1>   0.1500 
 29 H        7.9910     0.1450    -1.4960 H     1 <1>   0.0800 
 30 H        6.7590    -0.6170    -2.4520 H     1 <1>   0.0800 
 31 H        5.6560     2.2830     0.3630 H     1 <1>   0.0800 
 32 H        7.2980     2.1370    -0.1760 H     1 <1>   0.0800 
 33 H        7.3610    -2.3780    -1.1050 H     1 <1>   0.0800 
 34 H        6.0020    -1.7480    -0.2500 H     1 <1>   0.0800 
 35 H        5.9140     0.1560     1.6730 H     1 <1>   0.0800 
 36 H        6.8540     1.5110     2.2060 H     1 <1>   0.0800 
 37 H        8.8870    -1.7740     0.4790 H     1 <1>   0.0800 
 38 H        7.5010    -2.0800     1.4660 H     1 <1>   0.0800 
 39 H        8.4420    -0.1340     2.3260 H     1 <1>   0.0800 
 40 H        8.7820     0.5470     0.7760 H     1 <1>   0.0800 
@<TRIPOS>BOND
  1   1   2  2   
  2   1   3  2   
  3   1   4  am  
  4   1   5  1   
  5   4   6  1   
  6   4  21  1   
  7   5  22  1   
  8   5  23  1   
  9   5  24  1   
 10   6   7  ar  
 11   6   8  ar  
 12   7   9  1   
 13   7  10  ar  
 14   8  11  ar  
 15   8  25  1   
 16   9  12  2   
 17   9  13  am  
 18  10  14  ar  
 19  10  26  1   
 20  11  14  ar  
 21  11  27  1   
 22  13  15  1   
 23  13  16  1   
 24  14  28  1   
 25  15  17  1   
 26  15  29  1   
 27  15  30  1   
 28  16  18  1   
 29  16  31  1   
 30  16  32  1   
 31  17  19  1   
 32  17  33  1   
 33  17  34  1   
 34  18  20  1   
 35  18  35  1   
 36  18  36  1   
 37  19  20  1   
 38  19  37  1   
 39  19  38  1   
 40  20  39  1   
 41  20  40  1   
@<TRIPOS>SUBSTRUCTURE
  1 ****   9 GROUP 4 **** **** 0

# MOE 2024.06 (io_trps.svl 2023.06)
