@<TRIPOS>MOLECULE
NONAME
44 45 1 0 0 
SMALL
USER_CHARGES


@<TRIPOS>ATOM
  1 CL      -0.8230     0.0540     0.9240 Cl    1 <1>  -0.1770 
  2 C       -0.5090     1.7070     0.4380 C.ar  1 <1>   0.1770 
  3 C       -1.5660     2.5400     0.0850 C.ar  1 <1>   0.0830 
  4 C        0.7990     2.1520     0.4180 C.ar  1 <1>  -0.1500 
  5 O       -2.8250     2.0280     0.1320 O.3   1 <1>  -0.3630 
  6 C       -1.2840     3.8510    -0.2970 C.ar  1 <1>  -0.1500 
  7 C        1.0670     3.4560     0.0380 C.ar  1 <1>  -0.1500 
  8 C       -3.9610     2.8040    -0.1510 C.3   1 <1>   0.1200 
  9 C        0.0270     4.3000    -0.3180 C.ar  1 <1>  -0.1500 
 10 C       -5.1750     1.8850     0.0250 C.3   1 <1>   0.3430 
 11 N       -6.4800     2.5710    -0.2590 N.4   1 <1>  -0.9590 
 12 C       -6.8070     3.6130     0.7600 C.3   1 <1>   0.3430 
 13 C       -7.5710     1.5590    -0.3640 C.3   1 <1>   0.3430 
 14 C       -8.0780     4.3510     0.3460 C.3   1 <1>  -0.1600 
 15 C       -8.8630     2.2420    -0.8080 C.3   1 <1>  -0.1600 
 16 C       -9.2650     3.3900     0.1370 C.3   1 <1>  -0.0190 
 17 C      -10.4840     4.1330    -0.4010 C.2   1 <1>   0.6590 
 18 O      -10.4270     4.7630    -1.4240 O.2   1 <1>  -0.5700 
 19 O      -11.5900     4.0340     0.3210 O.3   1 <1>  -0.4300 
 20 C      -12.7830     4.6720    -0.0730 C.3   1 <1>   0.1200 
 21 C      -13.8540     4.3570     0.9660 C.3   1 <1>  -0.2400 
 22 H        1.5950     1.4840     0.6970 H     1 <1>   0.1500 
 23 H       -2.0590     4.5360    -0.5820 H     1 <1>   0.1500 
 24 H        2.0830     3.8130     0.0180 H     1 <1>   0.1500 
 25 H       -3.8840     3.1520    -1.1660 H     1 <1>   0.0800 
 26 H       -3.9820     3.6250     0.5430 H     1 <1>   0.0800 
 27 H        0.2440     5.3130    -0.6140 H     1 <1>   0.1500 
 28 H       -5.1790     1.5040     1.0330 H     1 <1>   0.0800 
 29 H       -5.0570     1.0520    -0.6490 H     1 <1>   0.0800 
 30 H       -6.4170     3.0350    -1.1770 H     1 <1>   0.4500 
 31 H       -5.9980     4.3210     0.8450 H     1 <1>   0.0800 
 32 H       -6.9530     3.1500     1.7240 H     1 <1>   0.0800 
 33 H       -7.7220     1.0820     0.5920 H     1 <1>   0.0800 
 34 H       -7.3040     0.7990    -1.0830 H     1 <1>   0.0800 
 35 H       -7.8860     4.9040    -0.5580 H     1 <1>   0.0800 
 36 H       -8.3330     5.0680     1.1080 H     1 <1>   0.0800 
 37 H       -9.6540     1.5130    -0.8370 H     1 <1>   0.0800 
 38 H       -8.7390     2.6160    -1.8110 H     1 <1>   0.0800 
 39 H       -9.5330     2.9690     1.0910 H     1 <1>   0.0800 
 40 H      -13.0660     4.3000    -1.0440 H     1 <1>   0.0800 
 41 H      -12.6010     5.7320    -0.1330 H     1 <1>   0.0800 
 42 H      -14.0200     3.2960     1.0210 H     1 <1>   0.0800 
 43 H      -14.7770     4.8330     0.6900 H     1 <1>   0.0800 
 44 H      -13.5550     4.7260     1.9310 H     1 <1>   0.0800 
@<TRIPOS>BOND
  1   1   2  1   
  2   2   3  ar  
  3   2   4  ar  
  4   3   5  1   
  5   3   6  ar  
  6   4   7  ar  
  7   4  22  1   
  8   5   8  1   
  9   6   9  ar  
 10   6  23  1   
 11   7   9  ar  
 12   7  24  1   
 13   8  10  1   
 14   8  25  1   
 15   8  26  1   
 16   9  27  1   
 17  10  11  1   
 18  10  28  1   
 19  10  29  1   
 20  11  12  1   
 21  11  13  1   
 22  11  30  1   
 23  12  14  1   
 24  12  31  1   
 25  12  32  1   
 26  13  15  1   
 27  13  33  1   
 28  13  34  1   
 29  14  16  1   
 30  14  35  1   
 31  14  36  1   
 32  15  16  1   
 33  15  37  1   
 34  15  38  1   
 35  16  17  1   
 36  16  39  1   
 37  17  18  2   
 38  17  19  1   
 39  19  20  1   
 40  20  21  1   
 41  20  40  1   
 42  20  41  1   
 43  21  42  1   
 44  21  43  1   
 45  21  44  1   
@<TRIPOS>SUBSTRUCTURE
  1 ****  11 GROUP 4 **** **** 0

# MOE 2024.06 (io_trps.svl 2023.06)
