@<TRIPOS>MOLECULE
NONAME
38 38 1 0 0 
SMALL
USER_CHARGES


@<TRIPOS>ATOM
  1 CL       0.1510     0.8570     1.5360 Cl    1 <1>  -0.1770 
  2 C        1.6830     1.3210     0.8410 C.ar  1 <1>   0.1770 
  3 C        2.4770     0.3570     0.2500 C.ar  1 <1>  -0.1500 
  4 C        2.0740     2.6450     0.8880 C.ar  1 <1>  -0.1500 
  5 C        3.6970     0.7150    -0.3010 C.ar  1 <1>  -0.1440 
  6 C        3.2900     3.0230     0.3430 C.ar  1 <1>  -0.1440 
  7 C        4.1060     2.0470    -0.2320 C.ar  1 <1>   0.0830 
  8 C        4.5440    -0.3560    -0.9750 C.3   1 <1>  -0.0960 
  9 C        3.6900     4.4920     0.3780 C.3   1 <1>  -0.0960 
 10 O        5.3090     2.4000    -0.7380 O.3   1 <1>  -0.3630 
 11 C        6.3870     2.3400     0.1600 C.3   1 <1>   0.1200 
 12 C        7.6390     2.7740    -0.6040 C.3   1 <1>   0.3430 
 13 N        8.8580     2.7470     0.2620 N.4   1 <1>  -0.9060 
 14 C       10.0720     3.1730    -0.4990 C.3   1 <1>   0.3430 
 15 C       11.3320     3.1520     0.3720 C.3   1 <1>   0.1200 
 16 O       12.3810     3.5620    -0.4340 O.3   1 <1>  -0.5600 
 17 C       13.6200     3.6020     0.2030 C.3   1 <1>   0.0400 
 18 H        2.1290    -0.6600     0.2240 H     1 <1>   0.1500 
 19 H        1.4200     3.3650     1.3470 H     1 <1>   0.1500 
 20 H        3.9350    -1.1960    -1.2580 H     1 <1>   0.0800 
 21 H        5.3090    -0.7000    -0.3040 H     1 <1>   0.0800 
 22 H        5.0020     0.0350    -1.8660 H     1 <1>   0.0800 
 23 H        2.8230     5.1160     0.5030 H     1 <1>   0.0800 
 24 H        4.1680     4.7710    -0.5440 H     1 <1>   0.0800 
 25 H        4.3620     4.6730     1.1950 H     1 <1>   0.0800 
 26 H        6.4720     1.3270     0.5110 H     1 <1>   0.0800 
 27 H        6.1770     3.0040     0.9790 H     1 <1>   0.0800 
 28 H        7.4840     3.7720    -0.9800 H     1 <1>   0.0800 
 29 H        7.7770     2.1110    -1.4440 H     1 <1>   0.0800 
 30 H        9.0030     1.7960     0.6280 H     1 <1>   0.4500 
 31 H        8.7250     3.3730     1.0680 H     1 <1>   0.4500 
 32 H        9.9340     4.1740    -0.8740 H     1 <1>   0.0800 
 33 H       10.2270     2.5140    -1.3380 H     1 <1>   0.0800 
 34 H       11.5440     2.1570     0.7250 H     1 <1>   0.0800 
 35 H       11.2480     3.8410     1.1950 H     1 <1>   0.0800 
 36 H       14.3550     3.9310    -0.5120 H     1 <1>   0.0800 
 37 H       13.8780     2.6170     0.5540 H     1 <1>   0.0800 
 38 H       13.5820     4.2990     1.0230 H     1 <1>   0.0800 
@<TRIPOS>BOND
  1   1   2  1   
  2   2   3  ar  
  3   2   4  ar  
  4   3   5  ar  
  5   3  18  1   
  6   4   6  ar  
  7   4  19  1   
  8   5   7  ar  
  9   5   8  1   
 10   6   7  ar  
 11   6   9  1   
 12   7  10  1   
 13   8  20  1   
 14   8  21  1   
 15   8  22  1   
 16   9  23  1   
 17   9  24  1   
 18   9  25  1   
 19  10  11  1   
 20  11  12  1   
 21  11  26  1   
 22  11  27  1   
 23  12  13  1   
 24  12  28  1   
 25  12  29  1   
 26  13  14  1   
 27  13  30  1   
 28  13  31  1   
 29  14  15  1   
 30  14  32  1   
 31  14  33  1   
 32  15  16  1   
 33  15  34  1   
 34  15  35  1   
 35  16  17  1   
 36  17  36  1   
 37  17  37  1   
 38  17  38  1   
@<TRIPOS>SUBSTRUCTURE
  1 ****  11 GROUP 4 **** **** 0

# MOE 2024.06 (io_trps.svl 2023.06)
