@<TRIPOS>MOLECULE
NONAME
38 41 1 0 0 
SMALL
USER_CHARGES


@<TRIPOS>ATOM
  1 F        0.3900     0.1940    -0.2510 F     1 <1>  -0.3400 
  2 C        1.7040     0.3750    -0.1730 C.3   1 <1>   1.1580 
  3 F        1.9070     1.0110     0.9720 F     1 <1>  -0.3400 
  4 F        2.0060     1.2120    -1.1550 F     1 <1>  -0.3400 
  5 C        2.4360    -0.9450    -0.2640 C.2   1 <1>  -0.1690 
  6 N        3.8080    -0.8760    -0.1940 N.pl3 1 <1>   0.6010 
  7 C        1.8700    -2.1790    -0.4070 C.2   1 <1>  -0.1360 
  8 N        4.6120     0.1900    -0.0600 N.2   1 <1>  -0.7070 
  9 C        4.5370    -2.0390    -0.2720 C.2   1 <1>  -0.0260 
 10 C        2.6870    -3.3430    -0.4780 C.2   1 <1>   0.4360 
 11 C        5.8510    -0.2860    -0.0460 C.2   1 <1>   0.2030 
 12 N        3.9750    -3.2890    -0.4180 N.2   1 <1>  -0.5760 
 13 C        5.8350    -1.6760    -0.1770 C.2   1 <1>  -0.1500 
 14 C        2.0000    -4.6910    -0.6380 C.3   1 <1>  -0.1000 
 15 C        7.0780     0.4980     0.0820 C.2   1 <1>   0.7160 
 16 C        1.0040    -5.1720     0.3780 C.3   1 <1>  -0.2000 
 17 C        2.3380    -5.8390     0.2670 C.3   1 <1>  -0.2000 
 18 O        7.0890     1.6270     0.5410 O.2   1 <1>  -0.5700 
 19 N        8.2760    -0.0250    -0.3150 N.am  1 <1>  -0.7300 
 20 C        9.5800     0.6440    -0.1810 C.3   1 <1>   0.3200 
 21 C       10.6520    -0.4200    -0.0420 C.2   1 <1>  -0.0400 
 22 O       10.7900    -1.3180    -1.0010 O.3   1 <1>  -0.2800 
 23 C       11.5470    -0.6430     0.9450 C.2   1 <1>  -0.1500 
 24 C       11.7710    -2.1260    -0.6520 C.2   1 <1>  -0.0100 
 25 C       12.2840    -1.7640     0.5430 C.2   1 <1>  -0.1500 
 26 H        0.8050    -2.3230    -0.4700 H     1 <1>   0.1500 
 27 H        6.6820    -2.3370    -0.1920 H     1 <1>   0.1500 
 28 H        1.8230    -4.9290    -1.6720 H     1 <1>   0.1000 
 29 H        0.1330    -5.7080     0.0400 H     1 <1>   0.1000 
 30 H        0.8090    -4.5840     1.2590 H     1 <1>   0.1000 
 31 H        3.0710    -5.6800     1.0410 H     1 <1>   0.1000 
 32 H        2.3960    -6.8270    -0.1560 H     1 <1>   0.1000 
 33 H        8.3290    -0.9440    -0.7530 H     1 <1>   0.3700 
 34 H        9.5830     1.2880     0.6820 H     1 <1>   0.0800 
 35 H        9.7700     1.2380    -1.0590 H     1 <1>   0.0800 
 36 H       11.6920    -0.0980     1.8610 H     1 <1>   0.1500 
 37 H       12.0400    -2.9330    -1.3120 H     1 <1>   0.1500 
 38 H       13.0860    -2.2180     1.0980 H     1 <1>   0.1500 
@<TRIPOS>BOND
  1   1   2  1   
  2   2   3  1   
  3   2   4  1   
  4   2   5  1   
  5   5   6  1   
  6   5   7  2   
  7   6   8  1   
  8   6   9  1   
  9   7  10  1   
 10   7  26  1   
 11   8  11  2   
 12   9  12  1   
 13   9  13  2   
 14  10  12  2   
 15  10  14  1   
 16  11  13  1   
 17  11  15  1   
 18  13  27  1   
 19  14  16  1   
 20  14  17  1   
 21  14  28  1   
 22  15  18  2   
 23  15  19  am  
 24  16  17  1   
 25  16  29  1   
 26  16  30  1   
 27  17  31  1   
 28  17  32  1   
 29  19  20  1   
 30  19  33  1   
 31  20  21  1   
 32  20  34  1   
 33  20  35  1   
 34  21  22  1   
 35  21  23  2   
 36  22  24  1   
 37  23  25  1   
 38  23  36  1   
 39  24  25  2   
 40  24  37  1   
 41  25  38  1   
@<TRIPOS>SUBSTRUCTURE
  1 ****  13 GROUP 4 **** **** 0

# MOE 2024.06 (io_trps.svl 2023.06)
