@<TRIPOS>MOLECULE
NONAME
50 53 1 0 0 
SMALL
USER_CHARGES


@<TRIPOS>ATOM
  1 O        0.3600    -1.4440    -2.4690 O.2   1 <1>  -0.5700 
  2 C        0.5380    -1.7920    -1.3280 C.2   1 <1>   0.5690 
  3 N        1.3620    -1.1310    -0.4530 N.am  1 <1>  -0.5470 
  4 C       -0.2010    -3.0390    -0.8210 C.3   1 <1>   0.1710 
  5 C        2.0560     0.0820    -0.5870 C.ar  1 <1>   0.1170 
  6 N       -1.6420    -2.8150    -0.5040 N.3   1 <1>  -0.8100 
  7 C        1.7020     1.0620    -1.5100 C.ar  1 <1>  -0.1500 
  8 C        3.1350     0.3290     0.2550 C.ar  1 <1>  -0.1500 
  9 C       -2.3690    -4.0630    -0.1840 C.3   1 <1>   0.1100 
 10 C       -1.8830    -1.7660     0.5190 C.3   1 <1>   0.1100 
 11 C        2.4040     2.2510    -1.5880 C.ar  1 <1>  -0.1500 
 12 C        3.8390     1.5170     0.1810 C.ar  1 <1>  -0.1500 
 13 C       -3.8960    -3.8210    -0.0700 C.3   1 <1>   0.3430 
 14 C       -3.3920    -1.5610     0.8060 C.3   1 <1>   0.3430 
 15 C        3.4740     2.4820    -0.7420 C.ar  1 <1>  -0.1500 
 16 N       -4.2260    -2.3600    -0.1540 N.4   1 <1>  -0.9590 
 17 C       -5.6800    -2.0610    -0.1050 C.3   1 <1>   0.4860 
 18 C       -5.8880    -0.5730    -0.3070 C.ar  1 <1>  -0.1440 
 19 C       -6.2660     0.2200     0.7740 C.ar  1 <1>  -0.1500 
 20 C       -5.6930     0.0050    -1.5630 C.ar  1 <1>  -0.1500 
 21 C       -6.4250     1.5740     0.5620 C.ar  1 <1>   0.0820 
 22 C       -5.8630     1.3710    -1.7530 C.ar  1 <1>  -0.1500 
 23 O       -6.7710     2.5120     1.4490 O.3   1 <1>  -0.3620 
 24 C       -6.2300     2.1350    -0.6650 C.ar  1 <1>   0.0820 
 25 C       -6.8150     3.7500     0.7380 C.3   1 <1>   0.4000 
 26 O       -6.4470     3.4520    -0.6080 O.3   1 <1>  -0.3620 
 27 H        1.5450    -1.6090     0.4260 H     1 <1>   0.3700 
 28 H        0.3050    -3.4250     0.0450 H     1 <1>   0.0800 
 29 H       -0.1290    -3.7800    -1.5980 H     1 <1>   0.0800 
 30 H        0.8720     0.9060    -2.1750 H     1 <1>   0.1500 
 31 H        3.4340    -0.4100     0.9750 H     1 <1>   0.1500 
 32 H       -2.0010    -4.4740     0.7400 H     1 <1>   0.0800 
 33 H       -2.1930    -4.7920    -0.9580 H     1 <1>   0.0800 
 34 H       -1.4790    -0.8290     0.1710 H     1 <1>   0.0800 
 35 H       -1.3790    -2.0170     1.4360 H     1 <1>   0.0800 
 36 H        2.1160     2.9970    -2.3090 H     1 <1>   0.1500 
 37 H        4.6730     1.6940     0.8380 H     1 <1>   0.1500 
 38 H       -4.2490    -4.2290     0.8620 H     1 <1>   0.0800 
 39 H       -4.3900    -4.3510    -0.8680 H     1 <1>   0.0800 
 40 H       -3.6200    -0.5110     0.7150 H     1 <1>   0.0800 
 41 H       -3.6080    -1.8580     1.8180 H     1 <1>   0.0800 
 42 H        4.0210     3.4070    -0.8040 H     1 <1>   0.1500 
 43 H       -3.8580    -2.0640    -1.0720 H     1 <1>   0.4500 
 44 H       -6.0880    -2.3590     0.8460 H     1 <1>   0.0800 
 45 H       -6.1960    -2.6020    -0.8830 H     1 <1>   0.0800 
 46 H       -6.4370    -0.1780     1.7580 H     1 <1>   0.1500 
 47 H       -5.4090    -0.5970    -2.4100 H     1 <1>   0.1500 
 48 H       -5.7180     1.8350    -2.7130 H     1 <1>   0.1500 
 49 H       -6.1060     4.4380     1.1640 H     1 <1>   0.0800 
 50 H       -7.8160     4.1440     0.7600 H     1 <1>   0.0800 
@<TRIPOS>BOND
  1   1   2  2   
  2   2   3  am  
  3   2   4  1   
  4   3   5  1   
  5   3  27  1   
  6   4   6  1   
  7   4  28  1   
  8   4  29  1   
  9   5   7  ar  
 10   5   8  ar  
 11   6   9  1   
 12   6  10  1   
 13   7  11  ar  
 14   7  30  1   
 15   8  12  ar  
 16   8  31  1   
 17   9  13  1   
 18   9  32  1   
 19   9  33  1   
 20  10  14  1   
 21  10  34  1   
 22  10  35  1   
 23  11  15  ar  
 24  11  36  1   
 25  12  15  ar  
 26  12  37  1   
 27  13  16  1   
 28  13  38  1   
 29  13  39  1   
 30  14  16  1   
 31  14  40  1   
 32  14  41  1   
 33  15  42  1   
 34  16  17  1   
 35  16  43  1   
 36  17  18  1   
 37  17  44  1   
 38  17  45  1   
 39  18  19  ar  
 40  18  20  ar  
 41  19  21  ar  
 42  19  46  1   
 43  20  22  ar  
 44  20  47  1   
 45  21  23  1   
 46  21  24  ar  
 47  22  24  ar  
 48  22  48  1   
 49  23  25  1   
 50  24  26  1   
 51  25  26  1   
 52  25  49  1   
 53  25  50  1   
@<TRIPOS>SUBSTRUCTURE
  1 ****  10 GROUP 4 **** **** 0

# MOE 2024.06 (io_trps.svl 2023.06)
