@<TRIPOS>MOLECULE
NONAME
44 46 1 0 0 
SMALL
USER_CHARGES


@<TRIPOS>ATOM
  1 CL       0.1850    -0.9270     1.5440 Cl    1 <1>  -0.1770 
  2 C        1.7070    -1.5270     0.9320 C.ar  1 <1>   0.1770 
  3 C        2.0640    -1.2640    -0.3780 C.ar  1 <1>  -0.1500 
  4 C        2.5340    -2.2570     1.7670 C.ar  1 <1>  -0.1500 
  5 C        3.2710    -1.7420    -0.8570 C.ar  1 <1>  -0.1500 
  6 C        3.7390    -2.7310     1.2790 C.ar  1 <1>  -0.1500 
  7 C        4.1180    -2.4780    -0.0370 C.ar  1 <1>   0.1000 
  8 N        5.3230    -2.9460    -0.5470 N.pl3 1 <1>  -0.8380 
  9 C        5.4150    -4.4180    -0.7750 C.3   1 <1>   0.2090 
 10 C        6.5640    -2.3350     0.0180 C.3   1 <1>   0.2090 
 11 C        6.6490    -4.7670    -1.6350 C.3   1 <1>   0.3430 
 12 C        7.7930    -2.6910    -0.8430 C.3   1 <1>   0.3430 
 13 N        7.9180    -4.1760    -1.0810 N.4   1 <1>  -0.9590 
 14 C        9.1120    -4.5150    -1.8910 C.3   1 <1>   0.4860 
 15 C       10.3460    -4.1130    -1.1090 C.ar  1 <1>  -0.1430 
 16 C       10.5970    -4.6740     0.1410 C.ar  1 <1>   0.0830 
 17 C       11.2260    -3.1810    -1.6390 C.ar  1 <1>  -0.1500 
 18 O        9.7000    -5.5780     0.6200 O.3   1 <1>  -0.3630 
 19 C       11.7330    -4.2900     0.8490 C.ar  1 <1>  -0.1500 
 20 C       12.3510    -2.8050    -0.9280 C.ar  1 <1>  -0.1500 
 21 C       10.0080    -6.3800     1.7450 C.3   1 <1>   0.0400 
 22 C       12.6030    -3.3580     0.3140 C.ar  1 <1>  -0.1500 
 23 H        1.4040    -0.6930    -1.0070 H     1 <1>   0.1500 
 24 H        2.2310    -2.4460     2.7810 H     1 <1>   0.1500 
 25 H        3.5650    -1.5460    -1.8720 H     1 <1>   0.1500 
 26 H        4.3860    -3.2990     1.9200 H     1 <1>   0.1500 
 27 H        4.5230    -4.7530    -1.2780 H     1 <1>   0.0800 
 28 H        5.4730    -4.9280     0.1710 H     1 <1>   0.0800 
 29 H        6.7140    -2.6820     1.0260 H     1 <1>   0.0800 
 30 H        6.4480    -1.2650     0.0510 H     1 <1>   0.0800 
 31 H        6.4790    -4.3860    -2.6280 H     1 <1>   0.0800 
 32 H        6.7400    -5.8380    -1.7000 H     1 <1>   0.0800 
 33 H        8.6810    -2.3210    -0.3560 H     1 <1>   0.0800 
 34 H        7.6980    -2.1820    -1.7870 H     1 <1>   0.0800 
 35 H        8.1180    -4.6140    -0.1660 H     1 <1>   0.4500 
 36 H        9.0830    -4.0020    -2.8380 H     1 <1>   0.0800 
 37 H        9.1460    -5.5780    -2.0720 H     1 <1>   0.0800 
 38 H       11.0540    -2.7400    -2.6060 H     1 <1>   0.1500 
 39 H       11.9600    -4.6980     1.8170 H     1 <1>   0.1500 
 40 H       13.0370    -2.0820    -1.3400 H     1 <1>   0.1500 
 41 H       10.0850    -5.7530     2.6160 H     1 <1>   0.0800 
 42 H       10.9350    -6.8970     1.5650 H     1 <1>   0.0800 
 43 H        9.2160    -7.0950     1.8810 H     1 <1>   0.0800 
 44 H       13.4820    -3.0630     0.8630 H     1 <1>   0.1500 
@<TRIPOS>BOND
  1   1   2  1   
  2   2   3  ar  
  3   2   4  ar  
  4   3   5  ar  
  5   3  23  1   
  6   4   6  ar  
  7   4  24  1   
  8   5   7  ar  
  9   5  25  1   
 10   6   7  ar  
 11   6  26  1   
 12   7   8  1   
 13   8   9  1   
 14   8  10  1   
 15   9  11  1   
 16   9  27  1   
 17   9  28  1   
 18  10  12  1   
 19  10  29  1   
 20  10  30  1   
 21  11  13  1   
 22  11  31  1   
 23  11  32  1   
 24  12  13  1   
 25  12  33  1   
 26  12  34  1   
 27  13  14  1   
 28  13  35  1   
 29  14  15  1   
 30  14  36  1   
 31  14  37  1   
 32  15  16  ar  
 33  15  17  ar  
 34  16  18  1   
 35  16  19  ar  
 36  17  20  ar  
 37  17  38  1   
 38  18  21  1   
 39  19  22  ar  
 40  19  39  1   
 41  20  22  ar  
 42  20  40  1   
 43  21  41  1   
 44  21  42  1   
 45  21  43  1   
 46  22  44  1   
@<TRIPOS>SUBSTRUCTURE
  1 ****  10 GROUP 4 **** **** 0

# MOE 2024.06 (io_trps.svl 2023.06)
