@<TRIPOS>MOLECULE
NONAME
34 34 1 0 0 
SMALL
USER_CHARGES


@<TRIPOS>ATOM
  1 S        0.5740    -0.9420    -0.5900 S.o2  1 <1>   1.4470 
  2 O        1.0140     0.4380    -0.5940 O.2   1 <1>  -0.6500 
  3 O        0.9210    -1.8110    -1.6870 O.2   1 <1>  -0.6500 
  4 N        1.2730    -1.6760     0.7440 N.am  1 <1>  -0.9140 
  5 C       -1.2010    -1.0370    -0.2360 C.ar  1 <1>  -0.0090 
  6 C        2.5810    -1.1240     1.1080 C.3   1 <1>   0.3370 
  7 C       -1.7490    -0.3550     0.8440 C.ar  1 <1>  -0.1500 
  8 C       -2.0570    -1.7960    -1.0280 C.ar  1 <1>  -0.1500 
  9 C        3.6640    -1.2640     0.0030 C.2   1 <1>   0.5690 
 10 C        2.9860    -1.8030     2.4190 C.3   1 <1>  -0.2400 
 11 C       -3.1020    -0.4270     1.1250 C.ar  1 <1>  -0.1500 
 12 C       -3.4120    -1.8740    -0.7560 C.ar  1 <1>  -0.1500 
 13 O        4.3570    -2.2550    -0.0300 O.2   1 <1>  -0.5700 
 14 N        3.7950    -0.2710    -0.9220 N.am  1 <1>  -0.7300 
 15 C       -3.9430    -1.1850     0.3300 C.ar  1 <1>   0.0830 
 16 C        4.7250    -0.2920    -2.0770 C.3   1 <1>   0.0600 
 17 O       -5.2540    -1.2040     0.6700 O.3   1 <1>  -0.3630 
 18 C       -6.1980    -1.9380    -0.0780 C.3   1 <1>   0.0400 
 19 H        1.4610    -2.6250     0.4190 H     1 <1>   0.4200 
 20 H        2.4680    -0.0740     1.3210 H     1 <1>   0.0800 
 21 H       -1.1080     0.2390     1.4740 H     1 <1>   0.1500 
 22 H       -1.6580    -2.3350    -1.8710 H     1 <1>   0.1500 
 23 H        3.1020    -2.8630     2.2760 H     1 <1>   0.0800 
 24 H        2.2450    -1.6230     3.1770 H     1 <1>   0.0800 
 25 H        3.9260    -1.4040     2.7570 H     1 <1>   0.0800 
 26 H       -3.5150     0.1050     1.9630 H     1 <1>   0.1500 
 27 H       -4.0340    -2.4720    -1.3940 H     1 <1>   0.1500 
 28 H        3.0650     0.4550    -0.9550 H     1 <1>   0.3700 
 29 H        5.4310    -1.1000    -1.9760 H     1 <1>   0.0800 
 30 H        5.2650     0.6370    -2.1270 H     1 <1>   0.0800 
 31 H        4.1670    -0.4310    -2.9870 H     1 <1>   0.0800 
 32 H       -7.1630    -1.8000     0.3760 H     1 <1>   0.0800 
 33 H       -5.9290    -2.9790    -0.0550 H     1 <1>   0.0800 
 34 H       -6.2120    -1.5640    -1.0860 H     1 <1>   0.0800 
@<TRIPOS>BOND
  1   1   2  2   
  2   1   3  2   
  3   1   4  am  
  4   1   5  1   
  5   4   6  1   
  6   4  19  1   
  7   5   7  ar  
  8   5   8  ar  
  9   6   9  1   
 10   6  10  1   
 11   6  20  1   
 12   7  11  ar  
 13   7  21  1   
 14   8  12  ar  
 15   8  22  1   
 16   9  13  2   
 17   9  14  am  
 18  10  23  1   
 19  10  24  1   
 20  10  25  1   
 21  11  15  ar  
 22  11  26  1   
 23  12  15  ar  
 24  12  27  1   
 25  14  16  1   
 26  14  28  1   
 27  15  17  1   
 28  16  29  1   
 29  16  30  1   
 30  16  31  1   
 31  17  18  1   
 32  18  32  1   
 33  18  33  1   
 34  18  34  1   
@<TRIPOS>SUBSTRUCTURE
  1 ****   1 GROUP 4 **** **** 0

# MOE 2024.06 (io_trps.svl 2023.06)
