@<TRIPOS>MOLECULE
NONAME
51 53 1 0 0 
SMALL
USER_CHARGES


@<TRIPOS>ATOM
  1 O        0.5340    -0.9110     1.2680 O.2   1 <1>  -0.5700 
  2 C        0.2820    -1.9830     0.7820 C.2   1 <1>   0.5690 
  3 N       -0.7960    -2.2780     0.0090 N.am  1 <1>  -0.4200 
  4 C        1.1650    -3.1980     0.9570 C.3   1 <1>  -0.0990 
  5 C       -0.7580    -3.5660    -0.4250 C.2   1 <1>   0.5690 
  6 C       -1.8540    -1.3080    -0.3470 C.3   1 <1>   0.1400 
  7 C        0.4470    -4.2850     0.1350 C.3   1 <1>  -0.0990 
  8 O       -1.5470    -4.0880    -1.1690 O.2   1 <1>  -0.5700 
  9 C       -2.7560    -1.0390     0.8700 C.3   1 <1>  -0.1600 
 10 C       -3.9750    -0.1040     0.6160 C.3   1 <1>   0.0000 
 11 C       -4.9510    -0.6790    -0.4410 C.3   1 <1>  -0.1600 
 12 C       -4.7710     0.0160     1.9400 C.3   1 <1>  -0.1600 
 13 C       -3.4290     1.2870     0.1720 C.3   1 <1>  -0.0170 
 14 C       -5.6650    -1.9920    -0.0270 C.3   1 <1>   0.2800 
 15 C       -5.7910    -1.1110     2.1860 C.3   1 <1>   0.1200 
 16 C       -4.4530     2.4030    -0.0340 C.ar  1 <1>  -0.1440 
 17 O       -5.5680    -2.2030     1.3490 O.3   1 <1>  -0.5600 
 18 C       -5.0190    -3.2180    -0.6750 C.3   1 <1>  -0.2400 
 19 C       -7.1510    -1.9730    -0.4070 C.3   1 <1>  -0.2400 
 20 C       -5.0910     2.5590    -1.2560 C.ar  1 <1>  -0.1500 
 21 C       -4.7350     3.2960     0.9890 C.ar  1 <1>  -0.1500 
 22 C       -6.0110     3.5760    -1.4460 C.ar  1 <1>  -0.1500 
 23 C       -5.6540     4.3150     0.8020 C.ar  1 <1>  -0.1500 
 24 C       -6.2940     4.4540    -0.4160 C.ar  1 <1>  -0.1500 
 25 H        1.2220    -3.4610     1.9980 H     1 <1>   0.0800 
 26 H        2.1470    -2.9930     0.5720 H     1 <1>   0.0800 
 27 H       -2.4310    -1.7020    -1.1650 H     1 <1>   0.0800 
 28 H       -1.3800    -0.3990    -0.6720 H     1 <1>   0.0800 
 29 H        0.1270    -5.1030     0.7550 H     1 <1>   0.0800 
 30 H        1.0630    -4.6480    -0.6670 H     1 <1>   0.0800 
 31 H       -2.1470    -0.5980     1.6390 H     1 <1>   0.0800 
 32 H       -3.0960    -1.9830     1.2540 H     1 <1>   0.0800 
 33 H       -4.4650    -0.8060    -1.3890 H     1 <1>   0.0800 
 34 H       -5.7180     0.0540    -0.6060 H     1 <1>   0.0800 
 35 H       -5.3400     0.9250     1.9540 H     1 <1>   0.0800 
 36 H       -4.0990     0.0720     2.7770 H     1 <1>   0.0800 
 37 H       -2.8950     1.1820    -0.7540 H     1 <1>   0.0800 
 38 H       -2.7110     1.6250     0.9000 H     1 <1>   0.0800 
 39 H       -6.7940    -0.7580     2.0240 H     1 <1>   0.0800 
 40 H       -5.7190    -1.4620     3.2010 H     1 <1>   0.0800 
 41 H       -3.9960    -3.3200    -0.3730 H     1 <1>   0.0800 
 42 H       -5.0490    -3.1390    -1.7460 H     1 <1>   0.0800 
 43 H       -5.5460    -4.1090    -0.3870 H     1 <1>   0.0800 
 44 H       -7.6510    -1.1190     0.0090 H     1 <1>   0.0800 
 45 H       -7.6340    -2.8670    -0.0550 H     1 <1>   0.0800 
 46 H       -7.2550    -1.9290    -1.4750 H     1 <1>   0.0800 
 47 H       -4.8750     1.8880    -2.0680 H     1 <1>   0.1500 
 48 H       -4.2390     3.2020     1.9390 H     1 <1>   0.1500 
 49 H       -6.5030     3.6850    -2.3960 H     1 <1>   0.1500 
 50 H       -5.8680     4.9990     1.6040 H     1 <1>   0.1500 
 51 H       -7.0090     5.2450    -0.5620 H     1 <1>   0.1500 
@<TRIPOS>BOND
  1   1   2  2   
  2   2   3  am  
  3   2   4  1   
  4   3   5  am  
  5   3   6  1   
  6   4   7  1   
  7   4  25  1   
  8   4  26  1   
  9   5   7  1   
 10   5   8  2   
 11   6   9  1   
 12   6  27  1   
 13   6  28  1   
 14   7  29  1   
 15   7  30  1   
 16   9  10  1   
 17   9  31  1   
 18   9  32  1   
 19  10  11  1   
 20  10  12  1   
 21  10  13  1   
 22  11  14  1   
 23  11  33  1   
 24  11  34  1   
 25  12  15  1   
 26  12  35  1   
 27  12  36  1   
 28  13  16  1   
 29  13  37  1   
 30  13  38  1   
 31  14  17  1   
 32  14  18  1   
 33  14  19  1   
 34  15  17  1   
 35  15  39  1   
 36  15  40  1   
 37  16  20  ar  
 38  16  21  ar  
 39  18  41  1   
 40  18  42  1   
 41  18  43  1   
 42  19  44  1   
 43  19  45  1   
 44  19  46  1   
 45  20  22  ar  
 46  20  47  1   
 47  21  23  ar  
 48  21  48  1   
 49  22  24  ar  
 50  22  49  1   
 51  23  24  ar  
 52  23  50  1   
 53  24  51  1   
@<TRIPOS>SUBSTRUCTURE
  1 ****  10 GROUP 4 **** **** 0

# MOE 2024.06 (io_trps.svl 2023.06)
