@<TRIPOS>MOLECULE
NONAME
54 57 1 0 0 
SMALL
USER_CHARGES


@<TRIPOS>ATOM
  1 O       -0.0770     2.5760    -1.0570 O.2   1 <1>  -0.5700 
  2 C       -0.0860     1.3770    -0.9690 C.2   1 <1>   0.4950 
  3 C        1.0750     0.5450    -0.8060 C.2   1 <1>  -0.1240 
  4 C       -1.4440     0.6990    -1.0630 C.3   1 <1>  -0.0990 
  5 C        0.9660    -0.7920    -0.6550 C.2   1 <1>  -0.0620 
  6 C        2.4680     1.1940    -0.8240 C.3   1 <1>   0.4810 
  7 C       -1.5300    -0.5920    -0.2250 C.3   1 <1>   0.0000 
  8 O        2.0130    -1.6070    -0.5440 O.3   1 <1>  -0.1530 
  9 C       -0.3640    -1.5290    -0.6040 C.3   1 <1>  -0.0220 
 10 C        3.6000     0.1610    -0.6520 C.2   1 <1>  -0.1240 
 11 C        2.6300     2.0900    -2.0690 C.2   1 <1>   0.5690 
 12 C        2.5800     2.2580     0.2720 C.ar  1 <1>  -0.1440 
 13 C       -2.8690    -1.2950    -0.5000 C.3   1 <1>  -0.2400 
 14 C       -1.4650    -0.2480     1.2760 C.3   1 <1>  -0.2400 
 15 C        3.2730    -1.1620    -0.5270 C.2   1 <1>   0.1770 
 16 C        4.9420     0.6410    -0.5850 C.2   1 <1>   0.7060 
 17 O        2.6230     1.7070    -3.2160 O.2   1 <1>  -0.5700 
 18 N        2.7820     3.3850    -1.6910 N.am  1 <1>  -0.5470 
 19 C        2.7570     3.5010    -0.3090 C.ar  1 <1>   0.1170 
 20 C        2.5410     2.1190     1.6480 C.ar  1 <1>  -0.1500 
 21 N        4.1660    -2.1770    -0.3640 N.pl3 1 <1>  -0.9000 
 22 O        5.8780    -0.0130    -0.1450 O.2   1 <1>  -0.5700 
 23 O        5.2260     1.8840    -0.9930 O.3   1 <1>  -0.4300 
 24 C        2.8950     4.6340     0.4740 C.ar  1 <1>  -0.1500 
 25 C        2.6820     3.2520     2.4360 C.ar  1 <1>  -0.1500 
 26 C        6.4810     2.5040    -0.7830 C.3   1 <1>   0.1200 
 27 C        2.8580     4.5010     1.8520 C.ar  1 <1>  -0.1500 
 28 C        6.5650     2.9880     0.6680 C.3   1 <1>   0.1200 
 29 O        7.7780     3.6450     0.8790 O.3   1 <1>  -0.5600 
 30 C        8.8450     2.8090     1.2050 C.3   1 <1>   0.0400 
 31 H       -1.6230     0.4760    -2.0990 H     1 <1>   0.0800 
 32 H       -2.2020     1.3920    -0.7450 H     1 <1>   0.0800 
 33 H       -0.3040    -2.3320     0.1110 H     1 <1>   0.0800 
 34 H       -0.5370    -1.9690    -1.5710 H     1 <1>   0.0800 
 35 H       -2.9620    -1.5460    -1.5420 H     1 <1>   0.0800 
 36 H       -3.6930    -0.6560    -0.2330 H     1 <1>   0.0800 
 37 H       -2.9460    -2.2020     0.0740 H     1 <1>   0.0800 
 38 H       -0.5370     0.2300     1.5330 H     1 <1>   0.0800 
 39 H       -1.5550    -1.1400     1.8720 H     1 <1>   0.0800 
 40 H       -2.2680     0.4150     1.5460 H     1 <1>   0.0800 
 41 H        2.8090     4.1520    -2.3620 H     1 <1>   0.3700 
 42 H        2.4040     1.1520     2.1020 H     1 <1>   0.1500 
 43 H        5.1710    -1.9780    -0.2450 H     1 <1>   0.4000 
 44 H        3.8880    -3.1560    -0.2600 H     1 <1>   0.4000 
 45 H        3.0280     5.5960     0.0140 H     1 <1>   0.1500 
 46 H        2.6540     3.1640     3.5090 H     1 <1>   0.1500 
 47 H        6.5400     3.3450    -1.4510 H     1 <1>   0.0800 
 48 H        7.2620     1.8030    -1.0180 H     1 <1>   0.0800 
 49 H        2.9640     5.3720     2.4770 H     1 <1>   0.1500 
 50 H        6.4750     2.1710     1.3640 H     1 <1>   0.0800 
 51 H        5.7810     3.7010     0.8550 H     1 <1>   0.0800 
 52 H        9.7200     3.4210     1.3360 H     1 <1>   0.0800 
 53 H        9.0120     2.1050     0.4090 H     1 <1>   0.0800 
 54 H        8.6240     2.2940     2.1240 H     1 <1>   0.0800 
@<TRIPOS>BOND
  1   1   2  2   
  2   2   3  1   
  3   2   4  1   
  4   3   5  2   
  5   3   6  1   
  6   4   7  1   
  7   4  31  1   
  8   4  32  1   
  9   5   8  1   
 10   5   9  1   
 11   6  10  1   
 12   6  11  1   
 13   6  12  1   
 14   7   9  1   
 15   7  13  1   
 16   7  14  1   
 17   8  15  1   
 18   9  33  1   
 19   9  34  1   
 20  10  15  2   
 21  10  16  1   
 22  11  17  2   
 23  11  18  am  
 24  12  19  ar  
 25  12  20  ar  
 26  13  35  1   
 27  13  36  1   
 28  13  37  1   
 29  14  38  1   
 30  14  39  1   
 31  14  40  1   
 32  15  21  1   
 33  16  22  2   
 34  16  23  1   
 35  18  19  1   
 36  18  41  1   
 37  19  24  ar  
 38  20  25  ar  
 39  20  42  1   
 40  21  43  1   
 41  21  44  1   
 42  23  26  1   
 43  24  27  ar  
 44  24  45  1   
 45  25  27  ar  
 46  25  46  1   
 47  26  28  1   
 48  26  47  1   
 49  26  48  1   
 50  27  49  1   
 51  28  29  1   
 52  28  50  1   
 53  28  51  1   
 54  29  30  1   
 55  30  52  1   
 56  30  53  1   
 57  30  54  1   
@<TRIPOS>SUBSTRUCTURE
  1 ****   6 GROUP 4 **** **** 0

# MOE 2024.06 (io_trps.svl 2023.06)
