@<TRIPOS>MOLECULE
NONAME
40 43 1 0 0 
SMALL
USER_CHARGES


@<TRIPOS>ATOM
  1 F       -0.8820     0.7330    -0.1730 F     1 <1>  -0.1900 
  2 C       -2.1400     1.0530    -0.3120 C.ar  1 <1>   0.1900 
  3 C       -3.1000     0.2470     0.2630 C.ar  1 <1>  -0.1500 
  4 C       -2.4580     2.1880    -1.0310 C.ar  1 <1>  -0.1500 
  5 C       -4.4510     0.5640     0.1240 C.ar  1 <1>   0.0860 
  6 C       -3.7930     2.5220    -1.1710 C.ar  1 <1>  -0.1500 
  7 C       -5.4750    -0.2820     0.7120 C.2   1 <1>   0.5440 
  8 C       -4.7690     1.7210    -0.5980 C.ar  1 <1>  -0.1500 
  9 O       -5.2370    -0.9440     1.7020 O.2   1 <1>  -0.5700 
 10 N       -6.7160    -0.3590     0.1500 N.am  1 <1>  -0.7300 
 11 C       -7.8430    -1.1800     0.6420 C.3   1 <1>   0.2200 
 12 C       -8.1330    -2.3320    -0.3450 C.3   1 <1>  -0.0800 
 13 C       -9.1080    -0.3090     0.8000 C.3   1 <1>  -0.0800 
 14 C       -8.6000    -1.7830    -1.7120 C.3   1 <1>  -0.1600 
 15 C       -9.2600    -3.2060     0.2440 C.3   1 <1>  -0.1600 
 16 C       -9.5750     0.2390    -0.5690 C.3   1 <1>  -0.1600 
 17 C      -10.2340    -1.1860     1.3870 C.3   1 <1>  -0.1600 
 18 C       -9.8700    -0.9270    -1.5320 C.3   1 <1>  -0.0800 
 19 C      -10.5360    -2.3620     0.4370 C.3   1 <1>  -0.0800 
 20 C      -10.9830    -1.8050    -0.9280 C.3   1 <1>  -0.1600 
 21 H       -2.8060    -0.6270     0.8170 H     1 <1>   0.1500 
 22 H       -1.6790     2.7910    -1.4640 H     1 <1>   0.1500 
 23 H       -4.0710     3.4060    -1.7210 H     1 <1>   0.1500 
 24 H       -5.8000     2.0060    -0.7070 H     1 <1>   0.1500 
 25 H       -6.8950     0.0850    -0.7480 H     1 <1>   0.3700 
 26 H       -7.5820    -1.5960     1.6010 H     1 <1>   0.0800 
 27 H       -7.2460    -2.9300    -0.4640 H     1 <1>   0.0800 
 28 H       -8.9000     0.5010     1.4770 H     1 <1>   0.0800 
 29 H       -8.8090    -2.6030    -2.3770 H     1 <1>   0.0800 
 30 H       -7.8220    -1.1960    -2.1660 H     1 <1>   0.0800 
 31 H       -8.9470    -3.6150     1.1890 H     1 <1>   0.0800 
 32 H       -9.4650    -4.0310    -0.4160 H     1 <1>   0.0800 
 33 H       -8.8260     0.8840    -0.9910 H     1 <1>   0.0800 
 34 H      -10.4650     0.8300    -0.4350 H     1 <1>   0.0800 
 35 H      -11.1210    -0.5940     1.5290 H     1 <1>   0.0800 
 36 H       -9.9370    -1.5630     2.3500 H     1 <1>   0.0800 
 37 H      -10.1890    -0.5420    -2.4850 H     1 <1>   0.0800 
 38 H      -11.3180    -2.9750     0.8530 H     1 <1>   0.0800 
 39 H      -11.2080    -2.6180    -1.5960 H     1 <1>   0.0800 
 40 H      -11.8810    -1.2240    -0.8080 H     1 <1>   0.0800 
@<TRIPOS>BOND
  1   1   2  1   
  2   2   3  ar  
  3   2   4  ar  
  4   3   5  ar  
  5   3  21  1   
  6   4   6  ar  
  7   4  22  1   
  8   5   7  1   
  9   5   8  ar  
 10   6   8  ar  
 11   6  23  1   
 12   7   9  2   
 13   7  10  am  
 14   8  24  1   
 15  10  11  1   
 16  10  25  1   
 17  11  12  1   
 18  11  13  1   
 19  11  26  1   
 20  12  14  1   
 21  12  15  1   
 22  12  27  1   
 23  13  16  1   
 24  13  17  1   
 25  13  28  1   
 26  14  18  1   
 27  14  29  1   
 28  14  30  1   
 29  15  19  1   
 30  15  31  1   
 31  15  32  1   
 32  16  18  1   
 33  16  33  1   
 34  16  34  1   
 35  17  19  1   
 36  17  35  1   
 37  17  36  1   
 38  18  20  1   
 39  18  37  1   
 40  19  20  1   
 41  19  38  1   
 42  20  39  1   
 43  20  40  1   
@<TRIPOS>SUBSTRUCTURE
  1 ****  10 GROUP 4 **** **** 0

# MOE 2024.06 (io_trps.svl 2023.06)
