@<TRIPOS>MOLECULE
NONAME
56 58 1 0 0 
SMALL
USER_CHARGES


@<TRIPOS>ATOM
  1 O       -1.3250    -1.7400     3.5150 O.2   1 <1>  -0.5700 
  2 C       -1.7480    -2.6280     2.8130 C.2   1 <1>   0.6900 
  3 N       -0.9180    -3.5990     2.3630 N.am  1 <1>  -0.5390 
  4 N       -3.0340    -2.6580     2.4280 N.am  1 <1>  -0.7300 
  5 C       -1.2620    -4.5470     1.4180 C.2   1 <1>  -0.0290 
  6 C       -3.6000    -3.6600     1.5070 C.3   1 <1>   0.5020 
  7 C       -2.5310    -4.5930     0.9250 C.2   1 <1>  -0.1240 
  8 C       -0.1230    -5.4990     1.0350 C.3   1 <1>   0.2480 
  9 C       -4.4690    -2.9250     0.4790 C.ar  1 <1>  -0.1430 
 10 C       -3.0180    -5.4570    -0.1020 C.2   1 <1>   0.7060 
 11 N        1.0300    -4.7690     0.4660 N.3   1 <1>  -0.8100 
 12 C       -3.9720    -2.1440    -0.5670 C.ar  1 <1>  -0.1440 
 13 C       -5.8470    -3.0590     0.6150 C.ar  1 <1>  -0.1500 
 14 O       -2.3270    -5.8290    -1.0320 O.2   1 <1>  -0.5700 
 15 O       -4.2850    -5.8770    -0.0310 O.3   1 <1>  -0.4300 
 16 C        2.1750    -5.6850     0.2520 C.3   1 <1>   0.1100 
 17 C        0.6540    -4.1100    -0.8120 C.3   1 <1>   0.1100 
 18 C       -4.8570    -1.5330    -1.4420 C.ar  1 <1>  -0.1500 
 19 C       -2.4880    -1.9260    -0.8160 C.3   1 <1>  -0.0970 
 20 C       -6.7260    -2.4440    -0.2580 C.ar  1 <1>  -0.1430 
 21 C       -4.8710    -6.6520    -1.0580 C.3   1 <1>   0.0400 
 22 C        3.4200    -4.9510    -0.3080 C.3   1 <1>   0.3430 
 23 C        1.8650    -3.5250    -1.5790 C.3   1 <1>   0.3430 
 24 C       -6.2230    -1.6790    -1.2920 C.ar  1 <1>  -0.1500 
 25 C       -8.2240    -2.6130    -0.0830 C.3   1 <1>  -0.0970 
 26 N        3.0950    -3.5440    -0.7220 N.4   1 <1>  -0.9590 
 27 C        4.2520    -2.8220    -1.3240 C.3   1 <1>   0.2630 
 28 H        0.0460    -3.5110     2.6850 H     1 <1>   0.3700 
 29 H       -3.6130    -1.8450     2.6300 H     1 <1>   0.3700 
 30 H       -4.2490    -4.2840     2.0990 H     1 <1>   0.0800 
 31 H       -0.4520    -6.2580     0.3480 H     1 <1>   0.0800 
 32 H        0.1930    -6.0040     1.9320 H     1 <1>   0.0800 
 33 H       -6.2540    -3.6550     1.4130 H     1 <1>   0.1500 
 34 H        1.8920    -6.4660    -0.4340 H     1 <1>   0.0800 
 35 H        2.4430    -6.1560     1.1830 H     1 <1>   0.0800 
 36 H       -0.0240    -3.3040    -0.5960 H     1 <1>   0.0800 
 37 H        0.1360    -4.8030    -1.4540 H     1 <1>   0.0800 
 38 H       -4.4890    -0.9330    -2.2560 H     1 <1>   0.1500 
 39 H       -1.9530    -1.8000     0.1050 H     1 <1>   0.0800 
 40 H       -2.3300    -1.0410    -1.4060 H     1 <1>   0.0800 
 41 H       -2.0930    -2.7680    -1.3530 H     1 <1>   0.0800 
 42 H       -5.8910    -6.8610    -0.7880 H     1 <1>   0.0800 
 43 H       -4.3190    -7.5700    -1.1640 H     1 <1>   0.0800 
 44 H       -4.8410    -6.0910    -1.9760 H     1 <1>   0.0800 
 45 H        3.8070    -5.5050    -1.1460 H     1 <1>   0.0800 
 46 H        4.1840    -4.9340     0.4520 H     1 <1>   0.0800 
 47 H        1.6350    -2.5170    -1.8820 H     1 <1>   0.0800 
 48 H        2.0320    -4.1060    -2.4700 H     1 <1>   0.0800 
 49 H       -6.8880    -1.1950    -1.9850 H     1 <1>   0.1500 
 50 H       -8.5420    -3.5320    -0.5400 H     1 <1>   0.0800 
 51 H       -8.7520    -1.7960    -0.5430 H     1 <1>   0.0800 
 52 H       -8.4790    -2.6350     0.9610 H     1 <1>   0.0800 
 53 H        2.7930    -3.0870     0.1540 H     1 <1>   0.4500 
 54 H        4.5600    -3.3030    -2.2380 H     1 <1>   0.0800 
 55 H        5.0850    -2.8150    -0.6390 H     1 <1>   0.0800 
 56 H        3.9830    -1.8020    -1.5440 H     1 <1>   0.0800 
@<TRIPOS>BOND
  1   1   2  2   
  2   2   3  am  
  3   2   4  am  
  4   3   5  1   
  5   3  28  1   
  6   4   6  1   
  7   4  29  1   
  8   5   7  2   
  9   5   8  1   
 10   6   7  1   
 11   6   9  1   
 12   6  30  1   
 13   7  10  1   
 14   8  11  1   
 15   8  31  1   
 16   8  32  1   
 17   9  12  ar  
 18   9  13  ar  
 19  10  14  2   
 20  10  15  1   
 21  11  16  1   
 22  11  17  1   
 23  12  18  ar  
 24  12  19  1   
 25  13  20  ar  
 26  13  33  1   
 27  15  21  1   
 28  16  22  1   
 29  16  34  1   
 30  16  35  1   
 31  17  23  1   
 32  17  36  1   
 33  17  37  1   
 34  18  24  ar  
 35  18  38  1   
 36  19  39  1   
 37  19  40  1   
 38  19  41  1   
 39  20  24  ar  
 40  20  25  1   
 41  21  42  1   
 42  21  43  1   
 43  21  44  1   
 44  22  26  1   
 45  22  45  1   
 46  22  46  1   
 47  23  26  1   
 48  23  47  1   
 49  23  48  1   
 50  24  49  1   
 51  25  50  1   
 52  25  51  1   
 53  25  52  1   
 54  26  27  1   
 55  26  53  1   
 56  27  54  1   
 57  27  55  1   
 58  27  56  1   
@<TRIPOS>SUBSTRUCTURE
  1 ****   7 GROUP 4 **** **** 0

# MOE 2024.06 (io_trps.svl 2023.06)
