@<TRIPOS>MOLECULE
NONAME
36 38 1 0 0 
SMALL
USER_CHARGES


@<TRIPOS>ATOM
  1 S       -0.1430     0.6120     0.5340 S.3   1 <1>  -0.3710 
  2 C        1.5220     1.2540     0.7240 C.2   1 <1>   0.6510 
  3 C       -0.9240     1.5710    -0.8150 C.3   1 <1>   0.0700 
  4 N        2.1920     0.7390     1.6840 N.2   1 <1>  -0.6210 
  5 N        1.9590     2.2380    -0.1440 N.am  1 <1>  -0.4200 
  6 C        0.1470     1.8260    -1.8620 C.3   1 <1>  -0.1600 
  7 C        3.4640     1.1940     1.8980 C.2   1 <1>   0.0210 
  8 C        3.2190     2.7680     0.1100 C.2   1 <1>   0.6160 
  9 C        1.2140     2.7710    -1.3180 C.3   1 <1>   0.1400 
 10 O        4.0960     0.6560     2.8130 O.3   1 <1>  -0.8500 
 11 C        3.9920     2.2150     1.1210 C.2   1 <1>  -0.1240 
 12 O        3.5930     3.7420    -0.5770 O.2   1 <1>  -0.5700 
 13 C        5.4050     2.7170     1.3700 C.3   1 <1>   0.1220 
 14 C        6.3810     2.0930     0.3790 C.ar  1 <1>  -0.1440 
 15 C        6.9850     2.8440    -0.6170 C.ar  1 <1>  -0.1500 
 16 C        6.6610     0.7400     0.4760 C.ar  1 <1>  -0.1500 
 17 C        7.8700     2.2460    -1.4980 C.ar  1 <1>  -0.1500 
 18 C        7.5430     0.1380    -0.4040 C.ar  1 <1>  -0.1500 
 19 C        8.1580     0.8940    -1.3990 C.ar  1 <1>   0.0820 
 20 O        9.0350     0.3840    -2.3010 O.3   1 <1>  -0.3630 
 21 C        9.3520    -0.9890    -2.3030 C.3   1 <1>   0.0400 
 22 H       -1.3040     2.4820    -0.3870 H     1 <1>   0.0800 
 23 H       -1.7290     0.9730    -1.2000 H     1 <1>   0.0800 
 24 H       -0.3100     2.2800    -2.7230 H     1 <1>   0.0800 
 25 H        0.5960     0.8990    -2.1760 H     1 <1>   0.0800 
 26 H        1.9130     2.9670    -2.1130 H     1 <1>   0.0800 
 27 H        0.7680     3.7100    -1.0370 H     1 <1>   0.0800 
 28 H        5.7100     2.4640     2.3700 H     1 <1>   0.0800 
 29 H        5.4270     3.7880     1.2940 H     1 <1>   0.0800 
 30 H        6.7600     3.8910    -0.7090 H     1 <1>   0.1500 
 31 H        6.1690     0.1600     1.2450 H     1 <1>   0.1500 
 32 H        8.3400     2.8260    -2.2700 H     1 <1>   0.1500 
 33 H        7.7280    -0.9120    -0.2920 H     1 <1>   0.1500 
 34 H       10.0470    -1.1710    -3.1020 H     1 <1>   0.0800 
 35 H        8.4500    -1.5540    -2.4660 H     1 <1>   0.0800 
 36 H        9.8010    -1.2440    -1.3600 H     1 <1>   0.0800 
@<TRIPOS>BOND
  1   1   2  1   
  2   1   3  1   
  3   2   4  2   
  4   2   5  1   
  5   3   6  1   
  6   3  22  1   
  7   3  23  1   
  8   4   7  1   
  9   5   8  am  
 10   5   9  1   
 11   6   9  1   
 12   6  24  1   
 13   6  25  1   
 14   7  10  1   
 15   7  11  2   
 16   8  11  1   
 17   8  12  2   
 18   9  26  1   
 19   9  27  1   
 20  11  13  1   
 21  13  14  1   
 22  13  28  1   
 23  13  29  1   
 24  14  15  ar  
 25  14  16  ar  
 26  15  17  ar  
 27  15  30  1   
 28  16  18  ar  
 29  16  31  1   
 30  17  19  ar  
 31  17  32  1   
 32  18  19  ar  
 33  18  33  1   
 34  19  20  1   
 35  20  21  1   
 36  21  34  1   
 37  21  35  1   
 38  21  36  1   
@<TRIPOS>SUBSTRUCTURE
  1 ****  11 GROUP 4 **** **** 0

# MOE 2024.06 (io_trps.svl 2023.06)
