@<TRIPOS>MOLECULE
NONAME
45 46 1 0 0 
SMALL
USER_CHARGES


@<TRIPOS>ATOM
  1 O       -1.3420     0.8290     0.7050 O.3   1 <1>  -0.3630 
  2 C       -0.7630     2.0070     0.3430 C.ar  1 <1>   0.0830 
  3 C       -0.7560    -0.0130     1.6730 C.3   1 <1>   0.0400 
  4 C       -1.3650     2.7400    -0.6780 C.ar  1 <1>  -0.1440 
  5 C        0.3960     2.4940     0.9450 C.ar  1 <1>  -0.1500 
  6 C       -0.7920     3.9330    -1.0910 C.ar  1 <1>  -0.1500 
  7 C       -2.6400     2.2500    -1.3500 C.3   1 <1>   0.2540 
  8 C        0.9510     3.6930     0.5340 C.ar  1 <1>  -0.1500 
  9 C        0.3560     4.4200    -0.4910 C.ar  1 <1>   0.0830 
 10 N       -3.8370     2.5860    -0.5480 N.3   1 <1>  -0.8100 
 11 O        0.8300     5.6040    -0.9570 O.3   1 <1>  -0.3630 
 12 C       -5.0540     1.9690    -1.0970 C.3   1 <1>   0.1100 
 13 C       -3.9990     4.0340    -0.3120 C.3   1 <1>   0.1100 
 14 C        2.0240     6.1580    -0.4520 C.3   1 <1>   0.0400 
 15 C       -6.2660     2.2330    -0.1810 C.3   1 <1>   0.3430 
 16 C       -5.2050     4.3130     0.6030 C.3   1 <1>   0.3430 
 17 N       -6.4730     3.7060     0.0650 N.4   1 <1>  -0.9590 
 18 C       -7.6060     3.9760     1.0070 C.3   1 <1>   0.3430 
 19 C       -8.9750     3.6010     0.4200 C.3   1 <1>   0.1200 
 20 O       -9.9400     3.9650     1.3410 O.3   1 <1>  -0.6800 
 21 H       -0.7190     0.5080     2.6130 H     1 <1>   0.0800 
 22 H        0.2300    -0.2900     1.3450 H     1 <1>   0.0800 
 23 H       -1.3690    -0.8910     1.7670 H     1 <1>   0.0800 
 24 H        0.8800     1.9560     1.7370 H     1 <1>   0.1500 
 25 H       -1.2320     4.5070    -1.8860 H     1 <1>   0.1500 
 26 H       -2.5770     1.1810    -1.4700 H     1 <1>   0.0800 
 27 H       -2.7230     2.6840    -2.3320 H     1 <1>   0.0800 
 28 H        1.8420     4.0420     1.0200 H     1 <1>   0.1500 
 29 H       -4.9050     0.9050    -1.1720 H     1 <1>   0.0800 
 30 H       -5.2490     2.3490    -2.0850 H     1 <1>   0.0800 
 31 H       -4.1140     4.5530    -1.2480 H     1 <1>   0.0800 
 32 H       -3.1210     4.4210     0.1770 H     1 <1>   0.0800 
 33 H        2.2150     7.0760    -0.9780 H     1 <1>   0.0800 
 34 H        2.8300     5.4660    -0.6220 H     1 <1>   0.0800 
 35 H        1.9000     6.3570     0.5980 H     1 <1>   0.0800 
 36 H       -6.0930     1.7310     0.7570 H     1 <1>   0.0800 
 37 H       -7.1450     1.8040    -0.6310 H     1 <1>   0.0800 
 38 H       -5.3230     5.3780     0.7160 H     1 <1>   0.0800 
 39 H       -4.9880     3.8990     1.5740 H     1 <1>   0.0800 
 40 H       -6.6610     4.1590    -0.8380 H     1 <1>   0.4500 
 41 H       -7.6260     5.0270     1.2470 H     1 <1>   0.0800 
 42 H       -7.4560     3.4260     1.9210 H     1 <1>   0.0800 
 43 H       -9.0570     2.5400     0.2580 H     1 <1>   0.0800 
 44 H       -9.1670     4.1400    -0.4920 H     1 <1>   0.0800 
 45 H      -10.8470     3.7620     1.0240 H     1 <1>   0.4000 
@<TRIPOS>BOND
  1   1   2  1   
  2   1   3  1   
  3   2   4  ar  
  4   2   5  ar  
  5   3  21  1   
  6   3  22  1   
  7   3  23  1   
  8   4   6  ar  
  9   4   7  1   
 10   5   8  ar  
 11   5  24  1   
 12   6   9  ar  
 13   6  25  1   
 14   7  10  1   
 15   7  26  1   
 16   7  27  1   
 17   8   9  ar  
 18   8  28  1   
 19   9  11  1   
 20  10  12  1   
 21  10  13  1   
 22  11  14  1   
 23  12  15  1   
 24  12  29  1   
 25  12  30  1   
 26  13  16  1   
 27  13  31  1   
 28  13  32  1   
 29  14  33  1   
 30  14  34  1   
 31  14  35  1   
 32  15  17  1   
 33  15  36  1   
 34  15  37  1   
 35  16  17  1   
 36  16  38  1   
 37  16  39  1   
 38  17  18  1   
 39  17  40  1   
 40  18  19  1   
 41  18  41  1   
 42  18  42  1   
 43  19  20  1   
 44  19  43  1   
 45  19  44  1   
 46  20  45  1   
@<TRIPOS>SUBSTRUCTURE
  1 ****  10 GROUP 4 **** **** 0

# MOE 2024.06 (io_trps.svl 2023.06)
