@<TRIPOS>MOLECULE
NONAME
44 46 1 0 0 
SMALL
USER_CHARGES


@<TRIPOS>ATOM
  1 O       -0.6840    -0.6120     2.0460 O.2   1 <1>  -0.5700 
  2 C       -1.0680    -1.5790     1.4360 C.2   1 <1>   0.6300 
  3 N       -0.2640    -2.3850     0.6830 N.am  1 <1>  -0.5470 
  4 C       -2.5370    -1.9560     1.5100 C.3   1 <1>  -0.1000 
  5 C        1.1100    -2.3320     0.3910 C.ar  1 <1>   0.1170 
  6 C       -3.3320    -2.2500     0.2650 C.3   1 <1>  -0.0600 
  7 C       -3.6000    -1.0070     1.0450 C.3   1 <1>  -0.1950 
  8 C        1.7200    -3.4670    -0.1290 C.ar  1 <1>  -0.1500 
  9 C        1.8890    -1.1950     0.5850 C.ar  1 <1>  -0.1500 
 10 C       -4.5340    -3.1530     0.1250 C.2   1 <1>  -0.1900 
 11 C       -3.4260     0.3060     0.2900 C.3   1 <1>  -0.0650 
 12 C        3.0670    -3.4700    -0.4420 C.ar  1 <1>  -0.1500 
 13 C        3.2380    -1.1910     0.2750 C.ar  1 <1>  -0.1500 
 14 C       -5.7680    -2.7670    -0.2210 C.2   1 <1>  -0.2880 
 15 C       -4.7270     0.6940    -0.4320 C.3   1 <1>  -0.1600 
 16 C        3.8370    -2.3360    -0.2430 C.ar  1 <1>   0.0830 
 17 C       -6.3100    -1.3840    -0.5970 C.3   1 <1>  -0.0220 
 18 C       -5.3510    -0.4080    -1.3200 C.3   1 <1>  -0.1600 
 19 O        5.1510    -2.4230    -0.5760 O.3   1 <1>  -0.3620 
 20 C        6.0210    -1.3330    -0.3800 C.3   1 <1>   0.1200 
 21 C        7.4150    -1.7550    -0.8320 C.3   1 <1>  -0.2400 
 22 H       -0.7490    -3.1830     0.2810 H     1 <1>   0.3700 
 23 H       -2.7520    -2.5390     2.3870 H     1 <1>   0.1000 
 24 H       -2.7900    -2.1730    -0.6620 H     1 <1>   0.1000 
 25 H       -4.4610    -0.9750     1.6910 H     1 <1>   0.1000 
 26 H        1.1440    -4.3590    -0.2890 H     1 <1>   0.1500 
 27 H        1.4470    -0.2980     0.9780 H     1 <1>   0.1500 
 28 H       -4.2980    -4.1810     0.3390 H     1 <1>   0.1500 
 29 H       -2.6270     0.2190    -0.4260 H     1 <1>   0.0800 
 30 H       -3.1560     1.0810     0.9860 H     1 <1>   0.0800 
 31 H        3.5350    -4.3510    -0.8430 H     1 <1>   0.1500 
 32 H        3.7990    -0.2920     0.4420 H     1 <1>   0.1500 
 33 H       -6.5590    -3.4970    -0.2590 H     1 <1>   0.1500 
 34 H       -4.5050     1.5440    -1.0540 H     1 <1>   0.0800 
 35 H       -5.4510     1.0230     0.2940 H     1 <1>   0.0800 
 36 H       -6.7360    -0.9210     0.2760 H     1 <1>   0.0800 
 37 H       -7.1280    -1.5600    -1.2730 H     1 <1>   0.0800 
 38 H       -4.5920    -0.9490    -1.8570 H     1 <1>   0.0800 
 39 H       -5.9380     0.1010    -2.0650 H     1 <1>   0.0800 
 40 H        6.0200    -1.0790     0.6660 H     1 <1>   0.0800 
 41 H        5.6660    -0.5040    -0.9680 H     1 <1>   0.0800 
 42 H        7.7530    -2.5940    -0.2510 H     1 <1>   0.0800 
 43 H        8.1040    -0.9420    -0.6960 H     1 <1>   0.0800 
 44 H        7.4010    -2.0220    -1.8740 H     1 <1>   0.0800 
@<TRIPOS>BOND
  1   1   2  2   
  2   2   3  am  
  3   2   4  1   
  4   3   5  1   
  5   3  22  1   
  6   4   6  1   
  7   4   7  1   
  8   4  23  1   
  9   5   8  ar  
 10   5   9  ar  
 11   6   7  1   
 12   6  10  1   
 13   6  24  1   
 14   7  11  1   
 15   7  25  1   
 16   8  12  ar  
 17   8  26  1   
 18   9  13  ar  
 19   9  27  1   
 20  10  14  2   
 21  10  28  1   
 22  11  15  1   
 23  11  29  1   
 24  11  30  1   
 25  12  16  ar  
 26  12  31  1   
 27  13  16  ar  
 28  13  32  1   
 29  14  17  1   
 30  14  33  1   
 31  15  18  1   
 32  15  34  1   
 33  15  35  1   
 34  16  19  1   
 35  17  18  1   
 36  17  36  1   
 37  17  37  1   
 38  18  38  1   
 39  18  39  1   
 40  19  20  1   
 41  20  21  1   
 42  20  40  1   
 43  20  41  1   
 44  21  42  1   
 45  21  43  1   
 46  21  44  1   
@<TRIPOS>SUBSTRUCTURE
  1 ****   3 GROUP 4 **** **** 0

# MOE 2024.06 (io_trps.svl 2023.06)
