@<TRIPOS>MOLECULE
NONAME
32 33 1 0 0 
SMALL
USER_CHARGES


@<TRIPOS>ATOM
  1 CL       1.5910     1.1150     0.2180 Cl    1 <1>  -0.1770 
  2 C        1.8490    -0.5660    -0.1950 C.ar  1 <1>   0.1770 
  3 C        0.8180    -1.3440    -0.6930 C.ar  1 <1>   0.1900 
  4 C        3.1040    -1.1170    -0.0180 C.ar  1 <1>  -0.1500 
  5 F       -0.3720    -0.8270    -0.8630 F     1 <1>  -0.1900 
  6 C        1.0160    -2.6720    -1.0200 C.ar  1 <1>  -0.1500 
  7 C        3.3330    -2.4530    -0.3400 C.ar  1 <1>   0.1170 
  8 C        2.2770    -3.2180    -0.8390 C.ar  1 <1>  -0.1500 
  9 N        4.6160    -3.0230    -0.1640 N.am  1 <1>  -0.2370 
 10 C        5.7880    -2.4770    -0.6100 C.2   1 <1>   0.5690 
 11 C        4.8710    -4.2160     0.4640 C.2   1 <1>   0.5690 
 12 O        5.9120    -1.4440    -1.2230 O.2   1 <1>  -0.5700 
 13 C        6.9740    -3.3590    -0.2470 C.3   1 <1>   0.2110 
 14 O        4.0530    -4.9570     0.9400 O.2   1 <1>  -0.5700 
 15 C        6.3450    -4.5460     0.4880 C.3   1 <1>  -0.0990 
 16 S        8.1400    -2.5050     0.8830 S.3   1 <1>  -0.4600 
 17 C        8.6830    -1.0380    -0.0380 C.3   1 <1>   0.0700 
 18 C        9.8240    -0.3940     0.7550 C.3   1 <1>   0.3430 
 19 N       10.2870     0.8660     0.1070 N.4   1 <1>  -0.8530 
 20 H        3.8950    -0.5010     0.3670 H     1 <1>   0.1500 
 21 H        0.2020    -3.2610    -1.4030 H     1 <1>   0.1500 
 22 H        2.4390    -4.2540    -1.0850 H     1 <1>   0.1500 
 23 H        7.5170    -3.6630    -1.1240 H     1 <1>   0.0800 
 24 H        6.5180    -5.4670    -0.0370 H     1 <1>   0.0800 
 25 H        6.6840    -4.6320     1.5050 H     1 <1>   0.0800 
 26 H        7.8370    -0.3780    -0.1100 H     1 <1>   0.0800 
 27 H        8.9990    -1.3700    -1.0110 H     1 <1>   0.0800 
 28 H       10.6420    -1.0950     0.8250 H     1 <1>   0.0800 
 29 H        9.4760    -0.1840     1.7540 H     1 <1>   0.0800 
 30 H       10.6450     0.6930    -0.8390 H     1 <1>   0.4500 
 31 H       11.0430     1.2990     0.6530 H     1 <1>   0.4500 
 32 H        9.5220     1.5490     0.0390 H     1 <1>   0.4500 
@<TRIPOS>BOND
  1   1   2  1   
  2   2   3  ar  
  3   2   4  ar  
  4   3   5  1   
  5   3   6  ar  
  6   4   7  ar  
  7   4  20  1   
  8   6   8  ar  
  9   6  21  1   
 10   7   8  ar  
 11   7   9  1   
 12   8  22  1   
 13   9  10  am  
 14   9  11  am  
 15  10  12  2   
 16  10  13  1   
 17  11  14  2   
 18  11  15  1   
 19  13  15  1   
 20  13  16  1   
 21  13  23  1   
 22  15  24  1   
 23  15  25  1   
 24  16  17  1   
 25  17  18  1   
 26  17  26  1   
 27  17  27  1   
 28  18  19  1   
 29  18  28  1   
 30  18  29  1   
 31  19  30  1   
 32  19  31  1   
 33  19  32  1   
@<TRIPOS>SUBSTRUCTURE
  1 ****   9 GROUP 4 **** **** 0

# MOE 2024.06 (io_trps.svl 2023.06)
