@<TRIPOS>MOLECULE
NONAME
39 40 1 0 0 
SMALL
USER_CHARGES


@<TRIPOS>ATOM
  1 S       -0.1960     0.8720    -1.4430 S.o2  1 <1>   1.4470 
  2 O       -0.6700     1.9960    -2.2150 O.2   1 <1>  -0.6500 
  3 O       -0.2700    -0.4660    -1.9830 O.2   1 <1>  -0.6500 
  4 N       -1.1390     0.9260    -0.0590 N.am  1 <1>  -0.9140 
  5 C        1.4740     1.1950    -0.8140 C.ar  1 <1>  -0.0090 
  6 C       -2.4160     0.2610    -0.2090 C.3   1 <1>   0.2760 
  7 C        2.0050     0.4200     0.2160 C.ar  1 <1>  -0.1500 
  8 C        2.2600     2.2140    -1.3470 C.ar  1 <1>  -0.1500 
  9 C       -3.5140     1.1100     0.4690 C.3   1 <1>  -0.0800 
 10 C       -2.3200    -1.1300     0.4300 C.3   1 <1>  -0.1600 
 11 C        3.2800     0.6420     0.7150 C.ar  1 <1>  -0.1430 
 12 C        3.5360     2.4580    -0.8680 C.ar  1 <1>  -0.1500 
 13 C       -4.8650     0.3720     0.4260 C.3   1 <1>  -0.1600 
 14 C       -3.6700     2.4960    -0.1840 C.3   1 <1>  -0.2400 
 15 C       -3.6700    -1.8600     0.3920 C.3   1 <1>  -0.1600 
 16 C        4.0230     1.6690     0.1550 C.ar  1 <1>   0.1900 
 17 C        3.8360    -0.2170     1.8400 C.3   1 <1>  -0.0970 
 18 C       -4.7680    -1.0230     1.0580 C.3   1 <1>  -0.1600 
 19 F        5.2280     1.9090     0.5990 F     1 <1>  -0.1900 
 20 H       -1.3680     1.9140     0.0050 H     1 <1>   0.4200 
 21 H       -2.6710     0.1560    -1.2530 H     1 <1>   0.0800 
 22 H        1.3990    -0.3710     0.6270 H     1 <1>   0.1500 
 23 H        1.8690     2.8230    -2.1460 H     1 <1>   0.1500 
 24 H       -3.2480     1.2440     1.5040 H     1 <1>   0.0800 
 25 H       -2.0020    -1.0300     1.4530 H     1 <1>   0.0800 
 26 H       -1.5900    -1.7210    -0.0940 H     1 <1>   0.0800 
 27 H        4.1450     3.2450    -1.2770 H     1 <1>   0.1500 
 28 H       -5.1900     0.2740    -0.5970 H     1 <1>   0.0800 
 29 H       -5.6090     0.9450     0.9530 H     1 <1>   0.0800 
 30 H       -3.8730     2.3970    -1.2370 H     1 <1>   0.0800 
 31 H       -2.7830     3.0910    -0.0630 H     1 <1>   0.0800 
 32 H       -4.4850     3.0310     0.2700 H     1 <1>   0.0800 
 33 H       -3.5820    -2.8070     0.8960 H     1 <1>   0.0800 
 34 H       -3.9390    -2.0560    -0.6320 H     1 <1>   0.0800 
 35 H        3.1270    -0.9660     2.1440 H     1 <1>   0.0800 
 36 H        4.0700     0.3990     2.6900 H     1 <1>   0.0800 
 37 H        4.7350    -0.7100     1.5140 H     1 <1>   0.0800 
 38 H       -5.7140    -1.5280     0.9620 H     1 <1>   0.0800 
 39 H       -4.5530    -0.9240     2.1090 H     1 <1>   0.0800 
@<TRIPOS>BOND
  1   1   2  2   
  2   1   3  2   
  3   1   4  am  
  4   1   5  1   
  5   4   6  1   
  6   4  20  1   
  7   5   7  ar  
  8   5   8  ar  
  9   6   9  1   
 10   6  10  1   
 11   6  21  1   
 12   7  11  ar  
 13   7  22  1   
 14   8  12  ar  
 15   8  23  1   
 16   9  13  1   
 17   9  14  1   
 18   9  24  1   
 19  10  15  1   
 20  10  25  1   
 21  10  26  1   
 22  11  16  ar  
 23  11  17  1   
 24  12  16  ar  
 25  12  27  1   
 26  13  18  1   
 27  13  28  1   
 28  13  29  1   
 29  14  30  1   
 30  14  31  1   
 31  14  32  1   
 32  15  18  1   
 33  15  33  1   
 34  15  34  1   
 35  16  19  1   
 36  17  35  1   
 37  17  36  1   
 38  17  37  1   
 39  18  38  1   
 40  18  39  1   
@<TRIPOS>SUBSTRUCTURE
  1 ****   4 GROUP 4 **** **** 0

# MOE 2024.06 (io_trps.svl 2023.06)
