@<TRIPOS>MOLECULE
NONAME
53 54 1 0 0 
SMALL
USER_CHARGES


@<TRIPOS>ATOM
  1 O       -2.0170     3.3290     0.1790 O.2   1 <1>  -0.5700 
  2 C       -1.5410     2.5720    -0.6280 C.2   1 <1>   0.5690 
  3 N       -2.0700     1.3470    -0.9160 N.am  1 <1>  -0.5470 
  4 C       -0.3040     2.9940    -1.3800 C.3   1 <1>  -0.1790 
  5 C       -3.1810     0.7160    -0.3410 C.ar  1 <1>   0.1170 
  6 C       -3.9950    -0.0940    -1.1220 C.ar  1 <1>  -0.1500 
  7 C       -3.4950     0.8650     1.0040 C.ar  1 <1>  -0.1500 
  8 C       -5.1070    -0.7150    -0.5830 C.ar  1 <1>  -0.1500 
  9 C       -4.6010     0.2450     1.5510 C.ar  1 <1>  -0.1500 
 10 C       -5.4270    -0.5360     0.7560 C.ar  1 <1>  -0.1430 
 11 C       -6.6680    -1.1720     1.3460 C.3   1 <1>   0.4860 
 12 N       -7.8480    -0.3530     0.9250 N.4   1 <1>  -0.9590 
 13 C       -7.7810     0.9940     1.5810 C.3   1 <1>   0.4860 
 14 C       -9.1500    -1.0900     1.1590 C.3   1 <1>   0.3430 
 15 C       -8.8230     1.8880     0.9440 C.ar  1 <1>  -0.1430 
 16 C      -10.0720    -1.2210    -0.0930 C.3   1 <1>   0.3430 
 17 C       -8.6530     2.3350    -0.3600 C.ar  1 <1>  -0.1500 
 18 C       -9.9450     2.2770     1.6620 C.ar  1 <1>  -0.1500 
 19 N      -10.8290     0.0250    -0.4830 N.4   1 <1>  -0.9590 
 20 C       -9.6140     3.1370    -0.9490 C.ar  1 <1>  -0.1500 
 21 C      -10.9010     3.0850     1.0710 C.ar  1 <1>  -0.1500 
 22 C      -12.1250     0.1490     0.2620 C.3   1 <1>   0.2630 
 23 C      -11.1210     0.0490    -1.9540 C.3   1 <1>   0.2630 
 24 C      -10.7400     3.5070    -0.2360 C.ar  1 <1>  -0.1500 
 25 H       -1.6180     0.8440    -1.6780 H     1 <1>   0.3700 
 26 H       -0.5230     3.0740    -2.4280 H     1 <1>   0.0800 
 27 H        0.4810     2.2770    -1.2270 H     1 <1>   0.0800 
 28 H        0.0280     3.9510    -1.0210 H     1 <1>   0.0800 
 29 H       -3.7540    -0.2330    -2.1620 H     1 <1>   0.1500 
 30 H       -2.8630     1.4750     1.6280 H     1 <1>   0.1500 
 31 H       -5.7070    -1.3380    -1.2250 H     1 <1>   0.1500 
 32 H       -4.7970     0.3870     2.6010 H     1 <1>   0.1500 
 33 H       -6.5920    -1.2090     2.4220 H     1 <1>   0.0800 
 34 H       -6.7540    -2.1800     0.9740 H     1 <1>   0.0800 
 35 H       -7.6980    -0.1690    -0.0740 H     1 <1>   0.4500 
 36 H       -6.8100     1.4400     1.4320 H     1 <1>   0.0800 
 37 H       -7.9560     0.9110     2.6420 H     1 <1>   0.0800 
 38 H       -9.7020    -0.6230     1.9580 H     1 <1>   0.0800 
 39 H       -8.9190    -2.0910     1.4860 H     1 <1>   0.0800 
 40 H      -10.7880    -2.0050     0.0950 H     1 <1>   0.0800 
 41 H       -9.4660    -1.5480    -0.9220 H     1 <1>   0.0800 
 42 H       -7.7680     2.0860    -0.9250 H     1 <1>   0.1500 
 43 H      -10.0830     1.9770     2.6890 H     1 <1>   0.1500 
 44 H      -10.2790     0.8860    -0.2720 H     1 <1>   0.4500 
 45 H       -9.4780     3.4970    -1.9580 H     1 <1>   0.1500 
 46 H      -11.7660     3.4040     1.6320 H     1 <1>   0.1500 
 47 H      -12.7680    -0.6900     0.0480 H     1 <1>   0.0800 
 48 H      -12.6360     1.0530    -0.0320 H     1 <1>   0.0800 
 49 H      -11.9510     0.1920     1.3240 H     1 <1>   0.0800 
 50 H      -11.7330    -0.7940    -2.2340 H     1 <1>   0.0800 
 51 H      -10.2060     0.0170    -2.5230 H     1 <1>   0.0800 
 52 H      -11.6470     0.9540    -2.2140 H     1 <1>   0.0800 
 53 H      -11.4790     4.1480    -0.6910 H     1 <1>   0.1500 
@<TRIPOS>BOND
  1   1   2  2   
  2   2   3  am  
  3   2   4  1   
  4   3   5  1   
  5   3  25  1   
  6   4  26  1   
  7   4  27  1   
  8   4  28  1   
  9   5   6  ar  
 10   5   7  ar  
 11   6   8  ar  
 12   6  29  1   
 13   7   9  ar  
 14   7  30  1   
 15   8  10  ar  
 16   8  31  1   
 17   9  10  ar  
 18   9  32  1   
 19  10  11  1   
 20  11  12  1   
 21  11  33  1   
 22  11  34  1   
 23  12  13  1   
 24  12  14  1   
 25  12  35  1   
 26  13  15  1   
 27  13  36  1   
 28  13  37  1   
 29  14  16  1   
 30  14  38  1   
 31  14  39  1   
 32  15  17  ar  
 33  15  18  ar  
 34  16  19  1   
 35  16  40  1   
 36  16  41  1   
 37  17  20  ar  
 38  17  42  1   
 39  18  21  ar  
 40  18  43  1   
 41  19  22  1   
 42  19  23  1   
 43  19  44  1   
 44  20  24  ar  
 45  20  45  1   
 46  21  24  ar  
 47  21  46  1   
 48  22  47  1   
 49  22  48  1   
 50  22  49  1   
 51  23  50  1   
 52  23  51  1   
 53  23  52  1   
 54  24  53  1   
@<TRIPOS>SUBSTRUCTURE
  1 ****  13 GROUP 4 **** **** 0

# MOE 2024.06 (io_trps.svl 2023.06)
