@<TRIPOS>MOLECULE
NONAME
46 48 1 0 0 
SMALL
USER_CHARGES


@<TRIPOS>ATOM
  1 F       -1.0050     1.1150    -0.6300 F     1 <1>  -0.1900 
  2 C       -2.1080     1.2180     0.0630 C.ar  1 <1>   0.1900 
  3 C       -3.3000     0.8600    -0.5330 C.ar  1 <1>  -0.1500 
  4 C       -2.0340     1.6810     1.3620 C.ar  1 <1>  -0.1500 
  5 C       -4.4820     0.9630     0.1920 C.ar  1 <1>   0.1170 
  6 C       -3.2090     1.7880     2.0870 C.ar  1 <1>  -0.1500 
  7 N       -5.6860     0.6050    -0.4350 N.am  1 <1>  -0.5470 
  8 C       -4.4160     1.4340     1.5040 C.ar  1 <1>  -0.1500 
  9 C       -6.8930     0.2280     0.0910 C.2   1 <1>   0.5690 
 10 O       -7.0940     0.1130     1.2750 O.2   1 <1>  -0.5700 
 11 C       -8.0260    -0.0800    -0.8880 C.3   1 <1>  -0.0190 
 12 C       -9.3380     0.6240    -0.4870 C.3   1 <1>  -0.1600 
 13 C       -8.2530    -1.5980    -1.0060 C.3   1 <1>  -0.1600 
 14 C      -10.4880     0.2720    -1.4340 C.3   1 <1>   0.1400 
 15 C       -9.4040    -1.9270    -1.9610 C.3   1 <1>   0.1400 
 16 N      -10.6300    -1.2070    -1.5240 N.am  1 <1>  -0.6600 
 17 C      -11.7910    -1.8820    -1.1980 C.2   1 <1>   0.5440 
 18 O      -11.8480    -3.0860    -1.3640 O.2   1 <1>  -0.5700 
 19 C      -12.9460    -1.1850    -0.6650 C.ar  1 <1>   0.0860 
 20 C      -13.1420    -1.0120     0.7100 C.ar  1 <1>  -0.1430 
 21 C      -13.8920    -0.6500    -1.5370 C.ar  1 <1>  -0.1500 
 22 C      -14.2420    -0.3100     1.1760 C.ar  1 <1>  -0.1500 
 23 C      -12.1510    -1.6020     1.7070 C.3   1 <1>  -0.0970 
 24 C      -14.9890     0.0490    -1.0690 C.ar  1 <1>  -0.1500 
 25 C      -15.1630     0.2220     0.2910 C.ar  1 <1>  -0.1500 
 26 H       -3.2970     0.5050    -1.5450 H     1 <1>   0.1500 
 27 H       -1.0850     1.9480     1.7910 H     1 <1>   0.1500 
 28 H       -3.1870     2.1450     3.1020 H     1 <1>   0.1500 
 29 H       -5.6350     0.5770    -1.4510 H     1 <1>   0.3700 
 30 H       -5.3150     1.5310     2.0840 H     1 <1>   0.1500 
 31 H       -7.7440     0.2900    -1.8580 H     1 <1>   0.0800 
 32 H       -9.1910     1.6890    -0.4860 H     1 <1>   0.0800 
 33 H       -9.6140     0.3360     0.5120 H     1 <1>   0.0800 
 34 H       -8.4840    -2.0070    -0.0370 H     1 <1>   0.0800 
 35 H       -7.3560    -2.0780    -1.3550 H     1 <1>   0.0800 
 36 H      -10.2840     0.6610    -2.4170 H     1 <1>   0.0800 
 37 H      -11.3940     0.7310    -1.0790 H     1 <1>   0.0800 
 38 H       -9.5660    -2.9920    -1.9700 H     1 <1>   0.0800 
 39 H       -9.1560    -1.6220    -2.9630 H     1 <1>   0.0800 
 40 H      -13.7580    -0.7900    -2.5950 H     1 <1>   0.1500 
 41 H      -14.3920    -0.1750     2.2330 H     1 <1>   0.1500 
 42 H      -11.1730    -1.1840     1.5520 H     1 <1>   0.0800 
 43 H      -12.0930    -2.6680     1.5750 H     1 <1>   0.0800 
 44 H      -12.4510    -1.4010     2.7190 H     1 <1>   0.0800 
 45 H      -15.7080     0.4550    -1.7600 H     1 <1>   0.1500 
 46 H      -16.0150     0.7650     0.6620 H     1 <1>   0.1500 
@<TRIPOS>BOND
  1   1   2  1   
  2   2   3  ar  
  3   2   4  ar  
  4   3   5  ar  
  5   3  26  1   
  6   4   6  ar  
  7   4  27  1   
  8   5   7  1   
  9   5   8  ar  
 10   6   8  ar  
 11   6  28  1   
 12   7   9  am  
 13   7  29  1   
 14   8  30  1   
 15   9  10  2   
 16   9  11  1   
 17  11  12  1   
 18  11  13  1   
 19  11  31  1   
 20  12  14  1   
 21  12  32  1   
 22  12  33  1   
 23  13  15  1   
 24  13  34  1   
 25  13  35  1   
 26  14  16  1   
 27  14  36  1   
 28  14  37  1   
 29  15  16  1   
 30  15  38  1   
 31  15  39  1   
 32  16  17  am  
 33  17  18  2   
 34  17  19  1   
 35  19  20  ar  
 36  19  21  ar  
 37  20  22  ar  
 38  20  23  1   
 39  21  24  ar  
 40  21  40  1   
 41  22  25  ar  
 42  22  41  1   
 43  23  42  1   
 44  23  43  1   
 45  23  44  1   
 46  24  25  ar  
 47  24  45  1   
 48  25  46  1   
@<TRIPOS>SUBSTRUCTURE
  1 ****  11 GROUP 4 **** **** 0

# MOE 2024.06 (io_trps.svl 2023.06)
