@<TRIPOS>MOLECULE
NONAME
39 40 1 0 0 
SMALL
USER_CHARGES


@<TRIPOS>ATOM
  1 O        0.2550    -0.3840    -0.0730 O.3   1 <1>  -0.3630 
  2 C       -1.0170    -0.8600     0.0230 C.ar  1 <1>   0.0830 
  3 C        1.3720    -1.2330     0.0530 C.3   1 <1>   0.1200 
  4 C       -2.0740    -0.0160    -0.3260 C.ar  1 <1>   0.0830 
  5 C       -1.3120    -2.1520     0.4450 C.ar  1 <1>  -0.1500 
  6 C        2.6260    -0.4430    -0.3260 C.3   1 <1>  -0.1600 
  7 O       -1.8550     1.2570    -0.7350 O.3   1 <1>  -0.3630 
  8 C       -3.3800    -0.4670    -0.2760 C.ar  1 <1>  -0.1500 
  9 C       -2.6250    -2.5860     0.5010 C.ar  1 <1>  -0.1500 
 10 C        2.7500     0.8560     0.4850 C.3   1 <1>   0.0960 
 11 C       -1.5830     2.1880     0.2870 C.3   1 <1>   0.0400 
 12 C       -3.6870    -1.7600     0.1400 C.ar  1 <1>   0.0280 
 13 N        3.9900     1.5720     0.1340 N.pl3 1 <1>   0.3140 
 14 C       -5.0450    -2.2550     0.2080 C.2   1 <1>  -0.1780 
 15 N        5.1510     1.3400     0.7320 N.2   1 <1>  -0.7070 
 16 C        4.1680     2.5190    -0.7910 C.2   1 <1>   0.0370 
 17 C       -6.1830    -1.6240    -0.1290 C.2   1 <1>  -0.2880 
 18 C        5.9420     2.1640     0.1260 C.2   1 <1>   0.3660 
 19 N        5.3870     2.9210    -0.8280 N.2   1 <1>  -0.5650 
 20 C       -7.5690    -2.2320    -0.0210 C.3   1 <1>  -0.1020 
 21 H        1.4250    -1.5740     1.0730 H     1 <1>   0.0800 
 22 H        1.2440    -2.0710    -0.6120 H     1 <1>   0.0800 
 23 H       -0.5370    -2.8350     0.7360 H     1 <1>   0.1500 
 24 H        3.4890    -1.0600    -0.1460 H     1 <1>   0.0800 
 25 H        2.5870    -0.2160    -1.3770 H     1 <1>   0.0800 
 26 H       -4.1610     0.2070    -0.5680 H     1 <1>   0.1500 
 27 H       -2.8310    -3.5890     0.8300 H     1 <1>   0.1500 
 28 H        2.7760     0.6360     1.5370 H     1 <1>   0.0800 
 29 H        1.9150     1.5030     0.2890 H     1 <1>   0.0800 
 30 H       -1.4530     3.1540    -0.1650 H     1 <1>   0.0800 
 31 H       -0.6850     1.8940     0.7990 H     1 <1>   0.0800 
 32 H       -2.4150     2.2060     0.9680 H     1 <1>   0.0800 
 33 H       -5.1100    -3.2620     0.5810 H     1 <1>   0.1500 
 34 H        3.3730     2.8830    -1.4170 H     1 <1>   0.1500 
 35 H       -6.2070    -0.6190    -0.5120 H     1 <1>   0.1500 
 36 H        6.9920     2.2540     0.3590 H     1 <1>   0.1500 
 37 H       -8.0350    -2.2580    -0.9900 H     1 <1>   0.0800 
 38 H       -8.1780    -1.6410     0.6410 H     1 <1>   0.0800 
 39 H       -7.5190    -3.2350     0.3630 H     1 <1>   0.0800 
@<TRIPOS>BOND
  1   1   2  1   
  2   1   3  1   
  3   2   4  ar  
  4   2   5  ar  
  5   3   6  1   
  6   3  21  1   
  7   3  22  1   
  8   4   7  1   
  9   4   8  ar  
 10   5   9  ar  
 11   5  23  1   
 12   6  10  1   
 13   6  24  1   
 14   6  25  1   
 15   7  11  1   
 16   8  12  ar  
 17   8  26  1   
 18   9  12  ar  
 19   9  27  1   
 20  10  13  1   
 21  10  28  1   
 22  10  29  1   
 23  11  30  1   
 24  11  31  1   
 25  11  32  1   
 26  12  14  1   
 27  13  15  1   
 28  13  16  1   
 29  14  17  2   
 30  14  33  1   
 31  15  18  2   
 32  16  19  2   
 33  16  34  1   
 34  17  20  1   
 35  17  35  1   
 36  18  19  1   
 37  18  36  1   
 38  20  37  1   
 39  20  38  1   
 40  20  39  1   
@<TRIPOS>SUBSTRUCTURE
  1 ****   1 GROUP 4 **** **** 0

# MOE 2024.06 (io_trps.svl 2023.06)
