@<TRIPOS>MOLECULE
NONAME
57 59 1 0 0 
SMALL
USER_CHARGES


@<TRIPOS>ATOM
  1 S       -0.5290     0.1590    -0.1100 S.o2  1 <1>   1.4470 
  2 O       -0.3980    -0.2750    -1.4850 O.2   1 <1>  -0.6500 
  3 O       -0.5890    -0.8310     0.9430 O.2   1 <1>  -0.6500 
  4 N       -1.9820     1.0320    -0.0330 N.am  1 <1>  -0.8490 
  5 C        0.7280     1.4050     0.2890 C.ar  1 <1>  -0.0090 
  6 C       -2.1330     1.9750    -1.1390 C.3   1 <1>   0.1960 
  7 C       -3.1350     0.1290     0.0800 C.3   1 <1>   0.1960 
  8 C        0.6700     2.1210     1.4780 C.ar  1 <1>  -0.1500 
  9 C        1.7750     1.6800    -0.5820 C.ar  1 <1>  -0.1500 
 10 C       -3.2780     2.9550    -0.8390 C.3   1 <1>  -0.1600 
 11 C       -4.4780     0.8540    -0.1260 C.3   1 <1>  -0.1600 
 12 C        1.6170     3.0820     1.7860 C.ar  1 <1>  -0.1500 
 13 C        2.7260     2.6400    -0.2810 C.ar  1 <1>  -0.1500 
 14 C       -4.3540     2.3720     0.1030 C.3   1 <1>  -0.0190 
 15 C        2.6510     3.3490     0.9050 C.ar  1 <1>  -0.1430 
 16 C       -5.6800     3.1200    -0.0130 C.2   1 <1>   0.5690 
 17 C        3.6930     4.4010     1.2400 C.3   1 <1>  -0.0970 
 18 O       -6.0150     3.8700     0.8710 O.2   1 <1>  -0.5700 
 19 N       -6.4740     2.9270    -1.1030 N.am  1 <1>  -0.7300 
 20 C       -7.5760     3.8350    -1.5520 C.3   1 <1>   0.1400 
 21 C       -8.5590     4.3150    -0.4550 C.3   1 <1>   0.3430 
 22 N       -9.3610     3.2170     0.1800 N.4   1 <1>  -0.9590 
 23 C      -10.6560     3.7120     0.7540 C.3   1 <1>   0.3430 
 24 C       -8.5910     2.4750     1.2380 C.3   1 <1>   0.3430 
 25 C      -11.4760     2.5570     1.3780 C.3   1 <1>   0.1200 
 26 C       -9.4840     1.4850     2.0210 C.3   1 <1>   0.1200 
 27 O      -10.7430     1.3620     1.4170 O.3   1 <1>  -0.5600 
 28 H       -2.3370     1.4300    -2.0470 H     1 <1>   0.0800 
 29 H       -1.2220     2.5330    -1.2850 H     1 <1>   0.0800 
 30 H       -3.1190    -0.3140     1.0630 H     1 <1>   0.0800 
 31 H       -3.0480    -0.6710    -0.6390 H     1 <1>   0.0800 
 32 H       -0.1300     1.9220     2.1720 H     1 <1>   0.1500 
 33 H        1.8480     1.1370    -1.5100 H     1 <1>   0.1500 
 34 H       -3.7140     3.2540    -1.7760 H     1 <1>   0.0800 
 35 H       -2.8690     3.8410    -0.3860 H     1 <1>   0.0800 
 36 H       -5.2060     0.4330     0.5450 H     1 <1>   0.0800 
 37 H       -4.8140     0.6610    -1.1290 H     1 <1>   0.0800 
 38 H        1.5450     3.6200     2.7150 H     1 <1>   0.1500 
 39 H        3.5270     2.8310    -0.9750 H     1 <1>   0.1500 
 40 H       -4.0040     2.5080     1.1130 H     1 <1>   0.0800 
 41 H        4.5030     3.9490     1.7840 H     1 <1>   0.0800 
 42 H        3.2610     5.1800     1.8420 H     1 <1>   0.0800 
 43 H        4.0830     4.8440     0.3410 H     1 <1>   0.0800 
 44 H       -6.1080     2.3100    -1.8350 H     1 <1>   0.3700 
 45 H       -8.1380     3.3460    -2.3290 H     1 <1>   0.0800 
 46 H       -7.1220     4.7080    -1.9910 H     1 <1>   0.0800 
 47 H       -9.2360     5.0140    -0.9170 H     1 <1>   0.0800 
 48 H       -8.0130     4.8570     0.3010 H     1 <1>   0.0800 
 49 H       -9.6140     2.5030    -0.5180 H     1 <1>   0.4500 
 50 H      -11.2470     4.1900    -0.0100 H     1 <1>   0.0800 
 51 H      -10.4560     4.4460     1.5170 H     1 <1>   0.0800 
 52 H       -8.1440     3.1710     1.9300 H     1 <1>   0.0800 
 53 H       -7.7880     1.9240     0.7810 H     1 <1>   0.0800 
 54 H      -12.3620     2.3740     0.7940 H     1 <1>   0.0800 
 55 H      -11.7820     2.8070     2.3800 H     1 <1>   0.0800 
 56 H       -9.6180     1.8150     3.0370 H     1 <1>   0.0800 
 57 H       -9.0280     0.5100     2.0420 H     1 <1>   0.0800 
@<TRIPOS>BOND
  1   1   2  2   
  2   1   3  2   
  3   1   4  am  
  4   1   5  1   
  5   4   6  1   
  6   4   7  1   
  7   5   8  ar  
  8   5   9  ar  
  9   6  10  1   
 10   6  28  1   
 11   6  29  1   
 12   7  11  1   
 13   7  30  1   
 14   7  31  1   
 15   8  12  ar  
 16   8  32  1   
 17   9  13  ar  
 18   9  33  1   
 19  10  14  1   
 20  10  34  1   
 21  10  35  1   
 22  11  14  1   
 23  11  36  1   
 24  11  37  1   
 25  12  15  ar  
 26  12  38  1   
 27  13  15  ar  
 28  13  39  1   
 29  14  16  1   
 30  14  40  1   
 31  15  17  1   
 32  16  18  2   
 33  16  19  am  
 34  17  41  1   
 35  17  42  1   
 36  17  43  1   
 37  19  20  1   
 38  19  44  1   
 39  20  21  1   
 40  20  45  1   
 41  20  46  1   
 42  21  22  1   
 43  21  47  1   
 44  21  48  1   
 45  22  23  1   
 46  22  24  1   
 47  22  49  1   
 48  23  25  1   
 49  23  50  1   
 50  23  51  1   
 51  24  26  1   
 52  24  52  1   
 53  24  53  1   
 54  25  27  1   
 55  25  54  1   
 56  25  55  1   
 57  26  27  1   
 58  26  56  1   
 59  26  57  1   
@<TRIPOS>SUBSTRUCTURE
  1 ****  14 GROUP 4 **** **** 0

# MOE 2024.06 (io_trps.svl 2023.06)
