@<TRIPOS>MOLECULE
NONAME
38 39 1 0 0 
SMALL
USER_CHARGES


@<TRIPOS>ATOM
  1 CL       0.1300    -1.0650     0.8710 Cl    1 <1>  -0.1770 
  2 C       -0.9700     0.2170     0.4000 C.ar  1 <1>   0.1770 
  3 C       -0.6100     1.5680     0.4400 C.ar  1 <1>   0.0820 
  4 C       -2.2340    -0.1730     0.0010 C.ar  1 <1>  -0.1500 
  5 O        0.6240     2.0180     0.8020 O.3   1 <1>  -0.3630 
  6 C       -1.5630     2.5250     0.0980 C.ar  1 <1>  -0.1440 
  7 C       -3.1710     0.7810    -0.3570 C.ar  1 <1>  -0.1430 
  8 C        1.7770     1.4170     0.2630 C.3   1 <1>   0.1200 
  9 C       -2.8290     2.1230    -0.3000 C.ar  1 <1>  -0.1500 
 10 C       -1.2380     4.0120     0.1550 C.3   1 <1>  -0.0960 
 11 C       -4.5640     0.3670    -0.7960 C.3   1 <1>  -0.0970 
 12 C        2.8700     2.4860     0.1920 C.3   1 <1>   0.3430 
 13 N        4.1570     1.9500    -0.3600 N.4   1 <1>  -0.9590 
 14 C        4.8000     0.9150     0.4910 C.3   1 <1>   0.3430 
 15 C        5.1790     3.0090    -0.5430 C.3   1 <1>   0.3430 
 16 C        6.2530     0.8990     0.0370 C.3   1 <1>  -0.1600 
 17 C        6.4960     2.2510    -0.6400 C.3   1 <1>  -0.1600 
 18 H       -2.4800    -1.2190    -0.0210 H     1 <1>   0.1500 
 19 H        1.5420     1.0400    -0.7170 H     1 <1>   0.0800 
 20 H        2.0710     0.6230     0.9230 H     1 <1>   0.0800 
 21 H       -3.5650     2.8610    -0.5680 H     1 <1>   0.1500 
 22 H       -0.4770     4.2490    -0.5650 H     1 <1>   0.0800 
 23 H       -0.8850     4.2720     1.1370 H     1 <1>   0.0800 
 24 H       -2.1070     4.6070    -0.0590 H     1 <1>   0.0800 
 25 H       -4.5670    -0.6500    -1.1460 H     1 <1>   0.0800 
 26 H       -4.9080     1.0010    -1.5940 H     1 <1>   0.0800 
 27 H       -5.2460     0.4500     0.0310 H     1 <1>   0.0800 
 28 H        3.0370     2.8770     1.1830 H     1 <1>   0.0800 
 29 H        2.5180     3.2880    -0.4350 H     1 <1>   0.0800 
 30 H        3.9870     1.5310    -1.2850 H     1 <1>   0.4500 
 31 H        4.3340    -0.0510     0.3730 H     1 <1>   0.0800 
 32 H        4.7510     1.2120     1.5270 H     1 <1>   0.0800 
 33 H        5.1990     3.6520     0.3240 H     1 <1>   0.0800 
 34 H        4.9920     3.6020    -1.4250 H     1 <1>   0.0800 
 35 H        6.4090     0.0950    -0.6620 H     1 <1>   0.0800 
 36 H        6.9070     0.7500     0.8790 H     1 <1>   0.0800 
 37 H        7.2840     2.8040    -0.1600 H     1 <1>   0.0800 
 38 H        6.7600     2.1110    -1.6750 H     1 <1>   0.0800 
@<TRIPOS>BOND
  1   1   2  1   
  2   2   3  ar  
  3   2   4  ar  
  4   3   5  1   
  5   3   6  ar  
  6   4   7  ar  
  7   4  18  1   
  8   5   8  1   
  9   6   9  ar  
 10   6  10  1   
 11   7   9  ar  
 12   7  11  1   
 13   8  12  1   
 14   8  19  1   
 15   8  20  1   
 16   9  21  1   
 17  10  22  1   
 18  10  23  1   
 19  10  24  1   
 20  11  25  1   
 21  11  26  1   
 22  11  27  1   
 23  12  13  1   
 24  12  28  1   
 25  12  29  1   
 26  13  14  1   
 27  13  15  1   
 28  13  30  1   
 29  14  16  1   
 30  14  31  1   
 31  14  32  1   
 32  15  17  1   
 33  15  33  1   
 34  15  34  1   
 35  16  17  1   
 36  16  35  1   
 37  16  36  1   
 38  17  37  1   
 39  17  38  1   
@<TRIPOS>SUBSTRUCTURE
  1 ****   8 GROUP 4 **** **** 0

# MOE 2024.06 (io_trps.svl 2023.06)
