@<TRIPOS>MOLECULE
NONAME
46 48 1 0 0 
SMALL
USER_CHARGES


@<TRIPOS>ATOM
  1 O       -0.0950    -0.3570    -1.2280 O.2   1 <1>  -0.5700 
  2 C        0.0130    -1.4550    -0.7070 C.2   1 <1>   0.8410 
  3 N        1.2040    -1.9770    -0.4250 N.2   1 <1>  -0.6610 
  4 N       -1.1120    -2.1230    -0.4250 N.am  1 <1>  -0.4900 
  5 C        1.1910    -3.1450     0.1400 C.2   1 <1>   0.7110 
  6 C       -1.0630    -3.3220     0.1570 C.2   1 <1>   0.5600 
  7 N        0.0790    -3.8360     0.4610 N.2   1 <1>  -0.6610 
  8 N        2.3930    -3.7410     0.4440 N.pl3 1 <1>  -0.7880 
  9 N       -2.2340    -3.9780     0.4280 N.pl3 1 <1>  -0.7880 
 10 C        3.6760    -3.1800    -0.0750 C.3   1 <1>   0.2090 
 11 C        2.4760    -4.9090     1.3640 C.3   1 <1>   0.2090 
 12 C       -3.5590    -3.5550    -0.1180 C.3   1 <1>   0.2090 
 13 C       -2.2210    -5.1850     1.3050 C.3   1 <1>   0.2090 
 14 C        4.7770    -4.2240    -0.3110 C.3   1 <1>  -0.1600 
 15 C        2.4430    -6.2140     0.5610 C.3   1 <1>  -0.1600 
 16 C       -4.5070    -4.7140    -0.4590 C.3   1 <1>  -0.1600 
 17 C       -1.9990    -6.4480     0.4650 C.3   1 <1>  -0.1600 
 18 C        4.3100    -5.4810    -1.0660 C.3   1 <1>  -0.1600 
 19 C        3.7690    -6.5710    -0.1280 C.3   1 <1>  -0.1600 
 20 C       -3.8510    -5.8680    -1.2370 C.3   1 <1>  -0.1600 
 21 C       -3.2350    -6.9270    -0.3120 C.3   1 <1>  -0.1600 
 22 H       -1.9800    -1.6600    -0.6340 H     1 <1>   0.3700 
 23 H        4.0290    -2.4300     0.6120 H     1 <1>   0.0800 
 24 H        3.4890    -2.6910    -1.0170 H     1 <1>   0.0800 
 25 H        1.6420    -4.8920     2.0450 H     1 <1>   0.0800 
 26 H        3.3690    -4.8520     1.9610 H     1 <1>   0.0800 
 27 H       -3.4040    -2.9960    -1.0240 H     1 <1>   0.0800 
 28 H       -4.0370    -2.9040     0.5950 H     1 <1>   0.0800 
 29 H       -3.1370    -5.2550     1.8650 H     1 <1>   0.0800 
 30 H       -1.4200    -5.0960     2.0200 H     1 <1>   0.0800 
 31 H        5.2330    -4.4940     0.6240 H     1 <1>   0.0800 
 32 H        5.5420    -3.7440    -0.8960 H     1 <1>   0.0800 
 33 H        1.6540    -6.1540    -0.1680 H     1 <1>   0.0800 
 34 H        2.1930    -7.0130     1.2350 H     1 <1>   0.0800 
 35 H       -5.2980    -4.3070    -1.0630 H     1 <1>   0.0800 
 36 H       -4.9710    -5.0830     0.4380 H     1 <1>   0.0800 
 37 H       -1.6960    -7.2390     1.1280 H     1 <1>   0.0800 
 38 H       -1.1820    -6.2760    -0.2140 H     1 <1>   0.0800 
 39 H        5.1540    -5.8910    -1.5940 H     1 <1>   0.0800 
 40 H        3.5660    -5.2200    -1.8000 H     1 <1>   0.0800 
 41 H        3.6160    -7.4680    -0.7030 H     1 <1>   0.0800 
 42 H        4.5100    -6.7960     0.6190 H     1 <1>   0.0800 
 43 H       -3.1060    -5.4880    -1.9160 H     1 <1>   0.0800 
 44 H       -4.6100    -6.3510    -1.8280 H     1 <1>   0.0800 
 45 H       -3.9810    -7.2710     0.3830 H     1 <1>   0.0800 
 46 H       -2.9450    -7.7740    -0.9100 H     1 <1>   0.0800 
@<TRIPOS>BOND
  1   1   2  2   
  2   2   3  1   
  3   2   4  am  
  4   3   5  2   
  5   4   6  1   
  6   4  22  1   
  7   5   7  1   
  8   5   8  1   
  9   6   7  2   
 10   6   9  1   
 11   8  10  1   
 12   8  11  1   
 13   9  12  1   
 14   9  13  1   
 15  10  14  1   
 16  10  23  1   
 17  10  24  1   
 18  11  15  1   
 19  11  25  1   
 20  11  26  1   
 21  12  16  1   
 22  12  27  1   
 23  12  28  1   
 24  13  17  1   
 25  13  29  1   
 26  13  30  1   
 27  14  18  1   
 28  14  31  1   
 29  14  32  1   
 30  15  19  1   
 31  15  33  1   
 32  15  34  1   
 33  16  20  1   
 34  16  35  1   
 35  16  36  1   
 36  17  21  1   
 37  17  37  1   
 38  17  38  1   
 39  18  19  1   
 40  18  39  1   
 41  18  40  1   
 42  19  41  1   
 43  19  42  1   
 44  20  21  1   
 45  20  43  1   
 46  20  44  1   
 47  21  45  1   
 48  21  46  1   
@<TRIPOS>SUBSTRUCTURE
  1 ****   7 GROUP 4 **** **** 0

# MOE 2024.06 (io_trps.svl 2023.06)
