@<TRIPOS>MOLECULE
NONAME
47 48 1 0 0 
SMALL
USER_CHARGES


@<TRIPOS>ATOM
  1 CL      -1.0420     0.5910     0.1090 Cl    1 <1>  -0.1770 
  2 C       -0.5550     2.2660     0.0020 C.ar  1 <1>   0.1770 
  3 C       -1.3760     3.1810    -0.6460 C.ar  1 <1>  -0.1440 
  4 C        0.6420     2.6440     0.5790 C.ar  1 <1>  -0.1500 
  5 C       -0.9770     4.5110    -0.7130 C.ar  1 <1>  -0.1500 
  6 C       -2.6820     2.7330    -1.2770 C.3   1 <1>   0.4870 
  7 C        1.0160     3.9710     0.5020 C.ar  1 <1>   0.1770 
  8 C        0.2210     4.9060    -0.1360 C.ar  1 <1>  -0.1500 
  9 N       -3.6400     2.3220    -0.2150 N.4   1 <1>  -0.9590 
 10 CL       2.5190     4.4780     1.2250 Cl    1 <1>  -0.1770 
 11 C       -4.8590     1.6960    -0.8210 C.3   1 <1>   0.3430 
 12 C       -3.9870     3.4500     0.6990 C.3   1 <1>   0.3430 
 13 C       -5.8190     1.1710     0.2540 C.3   1 <1>  -0.0190 
 14 C       -4.8990     2.9430     1.8180 C.3   1 <1>  -0.1600 
 15 C       -7.0690     0.6450    -0.4430 C.2   1 <1>   0.5690 
 16 C       -6.1690     2.2830     1.2620 C.3   1 <1>  -0.1600 
 17 O       -7.3690     1.1880    -1.4820 O.2   1 <1>  -0.5700 
 18 N       -7.8080    -0.3890     0.0760 N.am  1 <1>  -0.6600 
 19 C       -7.5280    -1.0940     1.3570 C.3   1 <1>   0.1400 
 20 C       -9.0270    -0.8660    -0.6380 C.3   1 <1>   0.1400 
 21 C       -6.6800    -2.3340     1.0830 C.3   1 <1>  -0.2400 
 22 C      -10.2500    -0.1170    -0.1150 C.3   1 <1>  -0.2400 
 23 H        1.2720     1.9280     1.0760 H     1 <1>   0.1500 
 24 H       -1.5820     5.2500    -1.2130 H     1 <1>   0.1500 
 25 H       -2.4860     1.9010    -1.9350 H     1 <1>   0.0800 
 26 H       -3.1010     3.5340    -1.8640 H     1 <1>   0.0800 
 27 H        0.5450     5.9320    -0.1800 H     1 <1>   0.1500 
 28 H       -3.1570     1.6040     0.3450 H     1 <1>   0.4500 
 29 H       -4.5780     0.8800    -1.4670 H     1 <1>   0.0800 
 30 H       -5.3790     2.4270    -1.4200 H     1 <1>   0.0800 
 31 H       -4.4950     4.2250     0.1470 H     1 <1>   0.0800 
 32 H       -3.0920     3.8710     1.1300 H     1 <1>   0.0800 
 33 H       -5.3290     0.3600     0.7590 H     1 <1>   0.0800 
 34 H       -5.1770     3.7740     2.4440 H     1 <1>   0.0800 
 35 H       -4.3570     2.2460     2.4340 H     1 <1>   0.0800 
 36 H       -6.7550     1.8800     2.0700 H     1 <1>   0.0800 
 37 H       -6.7720     3.0300     0.7700 H     1 <1>   0.0800 
 38 H       -8.4560    -1.3850     1.8190 H     1 <1>   0.0800 
 39 H       -7.0190    -0.4430     2.0450 H     1 <1>   0.0800 
 40 H       -9.1500    -1.9250    -0.4900 H     1 <1>   0.0800 
 41 H       -8.9250    -0.6930    -1.6960 H     1 <1>   0.0800 
 42 H       -7.2100    -3.0170     0.4430 H     1 <1>   0.0800 
 43 H       -6.4700    -2.8380     2.0100 H     1 <1>   0.0800 
 44 H       -5.7480    -2.0680     0.6210 H     1 <1>   0.0800 
 45 H      -10.3930    -0.3000     0.9340 H     1 <1>   0.0800 
 46 H      -11.1270    -0.4500    -0.6410 H     1 <1>   0.0800 
 47 H      -10.1360     0.9390    -0.2840 H     1 <1>   0.0800 
@<TRIPOS>BOND
  1   1   2  1   
  2   2   3  ar  
  3   2   4  ar  
  4   3   5  ar  
  5   3   6  1   
  6   4   7  ar  
  7   4  23  1   
  8   5   8  ar  
  9   5  24  1   
 10   6   9  1   
 11   6  25  1   
 12   6  26  1   
 13   7   8  ar  
 14   7  10  1   
 15   8  27  1   
 16   9  11  1   
 17   9  12  1   
 18   9  28  1   
 19  11  13  1   
 20  11  29  1   
 21  11  30  1   
 22  12  14  1   
 23  12  31  1   
 24  12  32  1   
 25  13  15  1   
 26  13  16  1   
 27  13  33  1   
 28  14  16  1   
 29  14  34  1   
 30  14  35  1   
 31  15  17  2   
 32  15  18  am  
 33  16  36  1   
 34  16  37  1   
 35  18  19  1   
 36  18  20  1   
 37  19  21  1   
 38  19  38  1   
 39  19  39  1   
 40  20  22  1   
 41  20  40  1   
 42  20  41  1   
 43  21  42  1   
 44  21  43  1   
 45  21  44  1   
 46  22  45  1   
 47  22  46  1   
 48  22  47  1   
@<TRIPOS>SUBSTRUCTURE
  1 ****   9 GROUP 4 **** **** 0

# MOE 2024.06 (io_trps.svl 2023.06)
