@<TRIPOS>MOLECULE
NONAME
33 34 1 0 0 
SMALL
USER_CHARGES


@<TRIPOS>ATOM
  1 O       -0.3980     0.6180    -0.0990 O.2   1 <1>  -0.5700 
  2 C       -1.4570     1.2160    -0.0490 C.2   1 <1>   0.6900 
  3 N       -1.5540     2.5440     0.3250 N.am  1 <1>  -0.4690 
  4 N       -2.5820     0.5350    -0.3670 N.am  1 <1>  -0.5470 
  5 C       -2.8000     3.2420     0.2930 C.2   1 <1>   0.0810 
  6 C       -0.3160     3.2110     0.8180 C.3   1 <1>   0.1400 
  7 C       -3.8600     1.0690    -0.2470 C.ar  1 <1>   0.1170 
  8 C       -3.9960     2.4180     0.1070 C.ar  1 <1>   0.0280 
  9 C       -2.8520     4.5890     0.4040 C.2   1 <1>  -0.3000 
 10 C        0.4440     3.8430    -0.3500 C.3   1 <1>  -0.2400 
 11 C       -4.9730     0.2680    -0.4630 C.ar  1 <1>  -0.1500 
 12 C       -5.2940     2.9060     0.2610 C.ar  1 <1>  -0.1500 
 13 C       -6.2460     0.7810    -0.3170 C.ar  1 <1>  -0.1500 
 14 C       -6.4080     2.1130     0.0530 C.ar  1 <1>   0.0820 
 15 O       -7.6180     2.7050     0.2290 O.3   1 <1>  -0.3630 
 16 C       -8.8150     1.9850     0.0500 C.3   1 <1>   0.1200 
 17 C       -9.9800     2.9300     0.3260 C.3   1 <1>  -0.2400 
 18 H       -2.4350    -0.4380    -0.6200 H     1 <1>   0.3700 
 19 H        0.3160     2.4860     1.3040 H     1 <1>   0.0800 
 20 H       -0.5660     3.9520     1.5550 H     1 <1>   0.0800 
 21 H       -3.7540     5.1680     0.3690 H     1 <1>   0.1500 
 22 H       -2.0020     5.2290     0.5260 H     1 <1>   0.1500 
 23 H        0.7470     3.0800    -1.0450 H     1 <1>   0.0800 
 24 H        1.3250     4.3380     0.0160 H     1 <1>   0.0800 
 25 H       -0.1700     4.5620    -0.8600 H     1 <1>   0.0800 
 26 H       -4.8410    -0.7610    -0.7420 H     1 <1>   0.1500 
 27 H       -5.4670     3.9230     0.5530 H     1 <1>   0.1500 
 28 H       -7.0880     0.1390    -0.4900 H     1 <1>   0.1500 
 29 H       -8.8230     1.1590     0.7410 H     1 <1>   0.0800 
 30 H       -8.8490     1.6260    -0.9650 H     1 <1>   0.0800 
 31 H       -9.9280     3.2950     1.3360 H     1 <1>   0.0800 
 32 H      -10.9110     2.4080     0.1970 H     1 <1>   0.0800 
 33 H       -9.9530     3.7590    -0.3580 H     1 <1>   0.0800 
@<TRIPOS>BOND
  1   1   2  2   
  2   2   3  am  
  3   2   4  am  
  4   3   5  1   
  5   3   6  1   
  6   4   7  1   
  7   4  18  1   
  8   5   8  1   
  9   5   9  2   
 10   6  10  1   
 11   6  19  1   
 12   6  20  1   
 13   7   8  ar  
 14   7  11  ar  
 15   8  12  ar  
 16   9  21  1   
 17   9  22  1   
 18  10  23  1   
 19  10  24  1   
 20  10  25  1   
 21  11  13  ar  
 22  11  26  1   
 23  12  14  ar  
 24  12  27  1   
 25  13  14  ar  
 26  13  28  1   
 27  14  15  1   
 28  15  16  1   
 29  16  17  1   
 30  16  29  1   
 31  16  30  1   
 32  17  31  1   
 33  17  32  1   
 34  17  33  1   
@<TRIPOS>SUBSTRUCTURE
  1 ****   8 GROUP 4 **** **** 0

# MOE 2024.06 (io_trps.svl 2023.06)
