@<TRIPOS>MOLECULE
NONAME
48 49 1 0 0 
SMALL
USER_CHARGES


@<TRIPOS>ATOM
  1 CL       0.1470     0.5050     1.4540 Cl    1 <1>  -0.1770 
  2 C       -1.4630     1.1030     1.1050 C.ar  1 <1>   0.1770 
  3 C       -2.3560     0.3330     0.3710 C.ar  1 <1>   0.0830 
  4 C       -1.8060     2.3530     1.5800 C.ar  1 <1>  -0.1500 
  5 O       -1.9460    -0.8930    -0.0640 O.3   1 <1>  -0.3630 
  6 C       -3.6240     0.8460     0.1160 C.ar  1 <1>  -0.1500 
  7 C       -3.0750     2.8580     1.3210 C.ar  1 <1>   0.0830 
  8 C       -2.7970    -1.7230    -0.8240 C.3   1 <1>   0.0400 
  9 C       -3.9950     2.1040     0.5810 C.ar  1 <1>   0.1170 
 10 O       -3.4890     4.0860     1.7620 O.3   1 <1>  -0.3630 
 11 N       -5.2640     2.6690     0.3510 N.am  1 <1>  -0.5470 
 12 C       -2.6400     4.9030     2.5420 C.3   1 <1>   0.0400 
 13 C       -6.3640     2.2650    -0.3530 C.2   1 <1>   0.5690 
 14 O       -6.4200     1.2320    -0.9750 O.2   1 <1>  -0.5700 
 15 C       -7.5760     3.1850    -0.3530 C.3   1 <1>  -0.0190 
 16 C       -8.8310     2.3970     0.0470 C.3   1 <1>   0.1960 
 17 C       -7.7690     3.8670    -1.7200 C.3   1 <1>  -0.1600 
 18 N      -10.0070     3.2830     0.0730 N.am  1 <1>  -0.8490 
 19 C       -9.0690     4.6820    -1.7230 C.3   1 <1>  -0.1600 
 20 S      -11.3660     2.4970     0.7120 S.o2  1 <1>   1.3330 
 21 C      -10.2590     3.8310    -1.2670 C.3   1 <1>   0.1960 
 22 O      -10.9320     1.6810     1.8230 O.2   1 <1>  -0.6500 
 23 O      -12.0820     1.8940    -0.3900 O.2   1 <1>  -0.6500 
 24 C      -12.3350     3.8600     1.3770 C.3   1 <1>  -0.0550 
 25 C      -13.6540     3.4370     2.0480 C.3   1 <1>  -0.2400 
 26 H       -1.0720     2.8990     2.1400 H     1 <1>   0.1500 
 27 H       -4.3320     0.2710    -0.4450 H     1 <1>   0.1500 
 28 H       -2.2600    -2.6250    -1.0580 H     1 <1>   0.0800 
 29 H       -3.0670    -1.2120    -1.7310 H     1 <1>   0.0800 
 30 H       -3.6700    -1.9580    -0.2400 H     1 <1>   0.0800 
 31 H       -5.3430     3.5810     0.8060 H     1 <1>   0.3700 
 32 H       -3.1720     5.8060     2.7820 H     1 <1>   0.0800 
 33 H       -1.7600     5.1400     1.9710 H     1 <1>   0.0800 
 34 H       -2.3850     4.3800     3.4470 H     1 <1>   0.0800 
 35 H       -7.4270     3.9440     0.3930 H     1 <1>   0.0800 
 36 H       -8.6660     1.9760     1.0250 H     1 <1>   0.0800 
 37 H       -9.0000     1.5840    -0.6410 H     1 <1>   0.0800 
 38 H       -7.8210     3.1130    -2.4880 H     1 <1>   0.0800 
 39 H       -6.9300     4.5060    -1.9370 H     1 <1>   0.0800 
 40 H       -9.2570     5.0550    -2.7140 H     1 <1>   0.0800 
 41 H       -8.9740     5.5280    -1.0650 H     1 <1>   0.0800 
 42 H      -11.1440     4.4440    -1.2520 H     1 <1>   0.0800 
 43 H      -10.4220     3.0270    -1.9680 H     1 <1>   0.0800 
 44 H      -12.5620     4.5470     0.5860 H     1 <1>   0.0800 
 45 H      -11.7370     4.3840     2.0980 H     1 <1>   0.0800 
 46 H      -14.2830     2.9280     1.3380 H     1 <1>   0.0800 
 47 H      -14.1770     4.2990     2.4220 H     1 <1>   0.0800 
 48 H      -13.4520     2.7690     2.8680 H     1 <1>   0.0800 
@<TRIPOS>BOND
  1   1   2  1   
  2   2   3  ar  
  3   2   4  ar  
  4   3   5  1   
  5   3   6  ar  
  6   4   7  ar  
  7   4  26  1   
  8   5   8  1   
  9   6   9  ar  
 10   6  27  1   
 11   7   9  ar  
 12   7  10  1   
 13   8  28  1   
 14   8  29  1   
 15   8  30  1   
 16   9  11  1   
 17  10  12  1   
 18  11  13  am  
 19  11  31  1   
 20  12  32  1   
 21  12  33  1   
 22  12  34  1   
 23  13  14  2   
 24  13  15  1   
 25  15  16  1   
 26  15  17  1   
 27  15  35  1   
 28  16  18  1   
 29  16  36  1   
 30  16  37  1   
 31  17  19  1   
 32  17  38  1   
 33  17  39  1   
 34  18  20  am  
 35  18  21  1   
 36  19  21  1   
 37  19  40  1   
 38  19  41  1   
 39  20  22  2   
 40  20  23  2   
 41  20  24  1   
 42  21  42  1   
 43  21  43  1   
 44  24  25  1   
 45  24  44  1   
 46  24  45  1   
 47  25  46  1   
 48  25  47  1   
 49  25  48  1   
@<TRIPOS>SUBSTRUCTURE
  1 ****  13 GROUP 4 **** **** 0

# MOE 2024.06 (io_trps.svl 2023.06)
