@<TRIPOS>MOLECULE
NONAME
47 48 1 0 0 
SMALL
USER_CHARGES


@<TRIPOS>ATOM
  1 O      -13.3350     5.0850    -1.3530 O.2   1 <1>  -0.5700 
  2 C      -13.4050     4.3500    -0.4030 C.2   1 <1>   0.6590 
  3 O      -14.5210     4.1730     0.2870 O.3   1 <1>  -0.4300 
  4 C      -12.1910     3.5570     0.0720 C.3   1 <1>  -0.0190 
  5 C      -15.7110     4.8470    -0.0550 C.3   1 <1>   0.1200 
  6 C      -11.0110     4.4930     0.4000 C.3   1 <1>  -0.1600 
  7 C      -11.7700     2.5170    -0.9840 C.3   1 <1>  -0.1600 
  8 C      -16.7950     4.4220     0.9290 C.3   1 <1>  -0.2400 
  9 C       -9.7440     3.7180     0.7530 C.3   1 <1>   0.3430 
 10 C      -10.4830     1.7920    -0.5950 C.3   1 <1>   0.3430 
 11 N       -9.3980     2.7900    -0.3660 N.4   1 <1>  -0.9590 
 12 C       -8.0930     2.0840    -0.1370 C.3   1 <1>   0.3430 
 13 C       -6.8860     3.0250    -0.1960 C.3   1 <1>   0.1200 
 14 O       -5.7410     2.2400     0.0190 O.3   1 <1>  -0.3630 
 15 C       -4.4960     2.7850     0.0470 C.ar  1 <1>   0.0820 
 16 C       -3.4280     1.9350     0.3240 C.ar  1 <1>  -0.1440 
 17 C       -4.2570     4.1380    -0.1870 C.ar  1 <1>  -0.1500 
 18 C       -2.1400     2.4450     0.3660 C.ar  1 <1>  -0.1500 
 19 C       -3.6540     0.4510     0.5820 C.3   1 <1>  -0.0970 
 20 C       -2.9670     4.6350    -0.1420 C.ar  1 <1>  -0.1500 
 21 C       -1.9090     3.7890     0.1340 C.ar  1 <1>  -0.1500 
 22 H      -12.4720     3.0360     0.9710 H     1 <1>   0.0800 
 23 H      -15.9780     4.5800    -1.0640 H     1 <1>   0.0800 
 24 H      -15.5320     5.9080     0.0010 H     1 <1>   0.0800 
 25 H      -11.2800     5.1240     1.2290 H     1 <1>   0.0800 
 26 H      -10.8080     5.1390    -0.4380 H     1 <1>   0.0800 
 27 H      -11.6330     2.9960    -1.9390 H     1 <1>   0.0800 
 28 H      -12.5590     1.7930    -1.1020 H     1 <1>   0.0800 
 29 H      -16.9580     3.3610     0.8680 H     1 <1>   0.0800 
 30 H      -17.7160     4.9230     0.6900 H     1 <1>   0.0800 
 31 H      -16.5120     4.6870     1.9320 H     1 <1>   0.0800 
 32 H       -9.9030     3.1560     1.6600 H     1 <1>   0.0800 
 33 H       -8.9390     4.4150     0.9240 H     1 <1>   0.0800 
 34 H      -10.2030     1.1150    -1.3860 H     1 <1>   0.0800 
 35 H      -10.6480     1.2160     0.3020 H     1 <1>   0.0800 
 36 H       -9.3220     3.3500    -1.2280 H     1 <1>   0.4500 
 37 H       -7.9590     1.3290    -0.8950 H     1 <1>   0.0800 
 38 H       -8.1080     1.5980     0.8250 H     1 <1>   0.0800 
 39 H       -6.9250     3.7670     0.5810 H     1 <1>   0.0800 
 40 H       -6.8000     3.4810    -1.1660 H     1 <1>   0.0800 
 41 H       -5.0490     4.8250    -0.4070 H     1 <1>   0.1500 
 42 H       -1.3070     1.7990     0.5790 H     1 <1>   0.1500 
 43 H       -4.2920     0.3220     1.4370 H     1 <1>   0.0800 
 44 H       -2.7240    -0.0550     0.7700 H     1 <1>   0.0800 
 45 H       -4.1210    -0.0010    -0.2740 H     1 <1>   0.0800 
 46 H       -2.7810     5.6800    -0.3230 H     1 <1>   0.1500 
 47 H       -0.9050     4.1750     0.1700 H     1 <1>   0.1500 
@<TRIPOS>BOND
  1   1   2  2   
  2   2   3  1   
  3   2   4  1   
  4   3   5  1   
  5   4   6  1   
  6   4   7  1   
  7   4  22  1   
  8   5   8  1   
  9   5  23  1   
 10   5  24  1   
 11   6   9  1   
 12   6  25  1   
 13   6  26  1   
 14   7  10  1   
 15   7  27  1   
 16   7  28  1   
 17   8  29  1   
 18   8  30  1   
 19   8  31  1   
 20   9  11  1   
 21   9  32  1   
 22   9  33  1   
 23  10  11  1   
 24  10  34  1   
 25  10  35  1   
 26  11  12  1   
 27  11  36  1   
 28  12  13  1   
 29  12  37  1   
 30  12  38  1   
 31  13  14  1   
 32  13  39  1   
 33  13  40  1   
 34  14  15  1   
 35  15  16  ar  
 36  15  17  ar  
 37  16  18  ar  
 38  16  19  1   
 39  17  20  ar  
 40  17  41  1   
 41  18  21  ar  
 42  18  42  1   
 43  19  43  1   
 44  19  44  1   
 45  19  45  1   
 46  20  21  ar  
 47  20  46  1   
 48  21  47  1   
@<TRIPOS>SUBSTRUCTURE
  1 ****  11 GROUP 4 **** **** 0

# MOE 2024.06 (io_trps.svl 2023.06)
