@<TRIPOS>MOLECULE
NONAME
48 49 1 0 0 
SMALL
USER_CHARGES


@<TRIPOS>ATOM
  1 CL       0.2150     0.3260    -1.7050 Cl    1 <1>  -0.1770 
  2 C       -0.0510     1.9320    -1.0570 C.ar  1 <1>   0.1770 
  3 C        1.0160     2.6710    -0.5610 C.ar  1 <1>   0.0820 
  4 C       -1.3380     2.4300    -1.0590 C.ar  1 <1>  -0.1500 
  5 O        2.2580     2.1080    -0.5930 O.3   1 <1>  -0.3630 
  6 C        0.7670     3.9460    -0.0600 C.ar  1 <1>  -0.1500 
  7 C       -1.5960     3.6990    -0.5530 C.ar  1 <1>   0.1170 
  8 C        3.3920     2.7790    -0.0880 C.3   1 <1>   0.0400 
  9 C       -0.5280     4.4580    -0.0580 C.ar  1 <1>   0.0830 
 10 N       -2.8830     4.2720    -0.5260 N.am  1 <1>  -0.5470 
 11 O       -0.8270     5.7070     0.4150 O.3   1 <1>  -0.3630 
 12 C       -4.1480     3.7600    -0.6840 C.2   1 <1>   0.5440 
 13 C        0.1490     6.5180     1.0330 C.3   1 <1>   0.0400 
 14 O       -4.3100     2.5620    -0.8110 O.2   1 <1>  -0.5700 
 15 C       -5.2900     4.6540    -0.6650 C.ar  1 <1>   0.0860 
 16 C       -6.5370     4.2100    -0.2240 C.ar  1 <1>  -0.1500 
 17 C       -5.1980     5.9820    -1.0810 C.ar  1 <1>  -0.1500 
 18 C       -7.6540     5.0390    -0.1780 C.ar  1 <1>   0.0830 
 19 C       -6.2930     6.8220    -1.0380 C.ar  1 <1>  -0.1500 
 20 O       -8.8580     4.5640     0.2560 O.3   1 <1>  -0.3630 
 21 C       -7.5250     6.3780    -0.5890 C.ar  1 <1>   0.0830 
 22 C       -9.0900     3.1960     0.5030 C.3   1 <1>   0.1200 
 23 O       -8.4970     7.3310    -0.6040 O.3   1 <1>  -0.3620 
 24 C      -10.5670     3.0260     0.8460 C.3   1 <1>  -0.2400 
 25 C       -9.8160     7.1240    -0.1570 C.3   1 <1>   0.1200 
 26 C      -10.5770     8.4380    -0.3010 C.3   1 <1>  -0.2400 
 27 H       -2.1260     1.8220    -1.4590 H     1 <1>   0.1500 
 28 H        1.5770     4.5320     0.3210 H     1 <1>   0.1500 
 29 H        4.2420     2.1340    -0.2140 H     1 <1>   0.0800 
 30 H        3.2410     2.9840     0.9570 H     1 <1>   0.0800 
 31 H        3.5380     3.6870    -0.6460 H     1 <1>   0.0800 
 32 H       -2.8480     5.2440    -0.2150 H     1 <1>   0.3700 
 33 H       -0.3280     7.4250     1.3600 H     1 <1>   0.0800 
 34 H        0.9170     6.7500     0.3170 H     1 <1>   0.0800 
 35 H        0.5550     5.9940     1.8800 H     1 <1>   0.0800 
 36 H       -6.5970     3.1840     0.0880 H     1 <1>   0.1500 
 37 H       -4.2640     6.3670    -1.4510 H     1 <1>   0.1500 
 38 H       -6.2020     7.8450    -1.3600 H     1 <1>   0.1500 
 39 H       -8.8390     2.6400    -0.3840 H     1 <1>   0.0800 
 40 H       -8.4710     2.8880     1.3280 H     1 <1>   0.0800 
 41 H      -10.7770     1.9910     1.0410 H     1 <1>   0.0800 
 42 H      -11.1770     3.3520     0.0220 H     1 <1>   0.0800 
 43 H      -10.8110     3.5980     1.7230 H     1 <1>   0.0800 
 44 H      -10.2640     6.3560    -0.7650 H     1 <1>   0.0800 
 45 H       -9.7820     6.8130     0.8730 H     1 <1>   0.0800 
 46 H      -11.5900     8.3100     0.0340 H     1 <1>   0.0800 
 47 H      -10.5910     8.7450    -1.3310 H     1 <1>   0.0800 
 48 H      -10.1110     9.2010     0.2960 H     1 <1>   0.0800 
@<TRIPOS>BOND
  1   1   2  1   
  2   2   3  ar  
  3   2   4  ar  
  4   3   5  1   
  5   3   6  ar  
  6   4   7  ar  
  7   4  27  1   
  8   5   8  1   
  9   6   9  ar  
 10   6  28  1   
 11   7   9  ar  
 12   7  10  1   
 13   8  29  1   
 14   8  30  1   
 15   8  31  1   
 16   9  11  1   
 17  10  12  am  
 18  10  32  1   
 19  11  13  1   
 20  12  14  2   
 21  12  15  1   
 22  13  33  1   
 23  13  34  1   
 24  13  35  1   
 25  15  16  ar  
 26  15  17  ar  
 27  16  18  ar  
 28  16  36  1   
 29  17  19  ar  
 30  17  37  1   
 31  18  20  1   
 32  18  21  ar  
 33  19  21  ar  
 34  19  38  1   
 35  20  22  1   
 36  21  23  1   
 37  22  24  1   
 38  22  39  1   
 39  22  40  1   
 40  23  25  1   
 41  24  41  1   
 42  24  42  1   
 43  24  43  1   
 44  25  26  1   
 45  25  44  1   
 46  25  45  1   
 47  26  46  1   
 48  26  47  1   
 49  26  48  1   
@<TRIPOS>SUBSTRUCTURE
  1 ****  12 GROUP 4 **** **** 0

# MOE 2024.06 (io_trps.svl 2023.06)
