@<TRIPOS>MOLECULE
NONAME
38 41 1 0 0 
SMALL
USER_CHARGES


@<TRIPOS>ATOM
  1 S       -0.1040    -0.0130    -0.7170 S.3   1 <1>  -0.0800 
  2 C       -1.6760     0.6980    -0.3750 C.ar  1 <1>   0.2970 
  3 C        0.6400     1.5750    -0.9170 C.2   1 <1>   0.0600 
  4 N       -2.6960    -0.1020    -0.1260 N.ar  1 <1>  -0.5670 
  5 C       -1.6270     2.0960    -0.4230 C.ar  1 <1>   0.0000 
  6 C        2.0290     1.5980    -1.2290 C.1   1 <1>   0.5370 
  7 C       -0.2730     2.5590    -0.7250 C.2   1 <1>   0.0830 
  8 C       -3.7980     0.5710     0.1040 C.ar  1 <1>   0.1660 
  9 C       -2.8460     2.7640    -0.1880 C.ar  1 <1>  -0.1440 
 10 N        3.1390     1.6360    -1.4970 N.1   1 <1>  -0.5570 
 11 N        0.0880     3.9080    -0.7980 N.pl3 1 <1>  -0.8830 
 12 C       -3.9310     1.9450     0.0880 C.ar  1 <1>  -0.1430 
 13 C       -5.1000    -0.1190     0.4170 C.3   1 <1>  -0.0170 
 14 C       -3.0430     4.2860    -0.2240 C.3   1 <1>   0.0630 
 15 C       -5.3660     2.3290     0.3990 C.3   1 <1>  -0.0170 
 16 C       -6.0220     1.0220     0.8720 C.3   1 <1>  -0.1600 
 17 C       -2.7240     4.8620    -1.6230 C.3   1 <1>  -0.0220 
 18 C       -2.3550     4.9540     0.9860 C.3   1 <1>  -0.1600 
 19 C       -2.1640     6.2720    -1.5770 C.2   1 <1>  -0.2880 
 20 C       -2.3730     6.4860     0.9250 C.3   1 <1>  -0.0220 
 21 C       -2.0130     6.9870    -0.4600 C.2   1 <1>  -0.2880 
 22 H       -0.6670     4.6130    -0.8050 H     1 <1>   0.4000 
 23 H        0.8880     4.1850    -1.3780 H     1 <1>   0.4000 
 24 H       -4.9690    -0.8550     1.1890 H     1 <1>   0.0800 
 25 H       -5.4740    -0.5880    -0.4750 H     1 <1>   0.0800 
 26 H       -4.0840     4.5080    -0.0870 H     1 <1>   0.0800 
 27 H       -5.8440     2.6870    -0.4960 H     1 <1>   0.0800 
 28 H       -5.4200     3.0800     1.1680 H     1 <1>   0.0800 
 29 H       -6.0670     1.0240     1.9480 H     1 <1>   0.0800 
 30 H       -7.0180     0.9100     0.4800 H     1 <1>   0.0800 
 31 H       -3.6310     4.8720    -2.2010 H     1 <1>   0.0800 
 32 H       -2.0430     4.2280    -2.1580 H     1 <1>   0.0800 
 33 H       -1.3390     4.6300     1.0790 H     1 <1>   0.0800 
 34 H       -2.8510     4.6360     1.8860 H     1 <1>   0.0800 
 35 H       -1.9070     6.6570    -2.5510 H     1 <1>   0.1500 
 36 H       -1.6690     6.8700     1.6430 H     1 <1>   0.0800 
 37 H       -3.3490     6.8560     1.1850 H     1 <1>   0.0800 
 38 H       -1.6350     7.9960    -0.4590 H     1 <1>   0.1500 
@<TRIPOS>BOND
  1   1   2  1   
  2   1   3  1   
  3   2   4  ar  
  4   2   5  ar  
  5   3   6  1   
  6   3   7  2   
  7   4   8  ar  
  8   5   7  1   
  9   5   9  ar  
 10   6  10  3   
 11   7  11  1   
 12   8  12  ar  
 13   8  13  1   
 14   9  12  ar  
 15   9  14  1   
 16  11  22  1   
 17  11  23  1   
 18  12  15  1   
 19  13  16  1   
 20  13  24  1   
 21  13  25  1   
 22  14  17  1   
 23  14  18  1   
 24  14  26  1   
 25  15  16  1   
 26  15  27  1   
 27  15  28  1   
 28  16  29  1   
 29  16  30  1   
 30  17  19  1   
 31  17  31  1   
 32  17  32  1   
 33  18  20  1   
 34  18  33  1   
 35  18  34  1   
 36  19  21  2   
 37  19  35  1   
 38  20  21  1   
 39  20  36  1   
 40  20  37  1   
 41  21  38  1   
@<TRIPOS>SUBSTRUCTURE
  1 ****   5 GROUP 4 **** **** 0

# MOE 2024.06 (io_trps.svl 2023.06)
