@<TRIPOS>MOLECULE
NONAME
40 42 1 0 0 
SMALL
USER_CHARGES


@<TRIPOS>ATOM
  1 S        1.2100    -3.1090     0.1720 S.3   1 <1>  -0.0800 
  2 C        1.6800    -1.4660    -0.1250 C.2   1 <1>   0.4420 
  3 C       -0.4300    -2.5650     0.1390 C.2   1 <1>   0.2280 
  4 N        0.6670    -0.6830    -0.2220 N.2   1 <1>  -0.3380 
  5 N        3.0330    -1.2190    -0.2180 N.am  1 <1>  -0.4940 
  6 N       -0.5360    -1.3170    -0.0700 N.2   1 <1>  -0.3380 
  7 C        3.6970    -0.0390    -0.4080 C.2   1 <1>   0.5690 
  8 O        3.1440     1.0240    -0.5060 O.2   1 <1>  -0.5700 
  9 C        5.2150    -0.0630    -0.5090 C.3   1 <1>   0.1310 
 10 S        5.9220    -1.6750     0.0990 S.3   1 <1>  -0.2860 
 11 C        7.6800    -1.4630    -0.2100 C.2   1 <1>   0.2430 
 12 N        8.1720    -0.4150    -0.7640 N.2   1 <1>  -0.3380 
 13 N        8.5930    -2.3790     0.1120 N.pl3 1 <1>   0.0480 
 14 N        9.4890    -0.6250    -0.8240 N.2   1 <1>  -0.3380 
 15 C        9.7250    -1.7880    -0.3050 C.2   1 <1>   0.0060 
 16 C        8.3860    -3.6940     0.7600 C.3   1 <1>   0.0960 
 17 C       11.1090    -2.4220    -0.1680 C.3   1 <1>   0.1000 
 18 C        8.1230    -4.7780    -0.2900 C.3   1 <1>  -0.2400 
 19 C       11.7210    -2.2130     1.2170 C.3   1 <1>  -0.1600 
 20 C       12.1740    -1.8550    -1.1060 C.3   1 <1>  -0.1600 
 21 C       13.2310    -2.3950     1.0310 C.3   1 <1>  -0.1600 
 22 C       13.5040    -2.2640    -0.4720 C.3   1 <1>  -0.1600 
 23 H       -1.2090    -3.2900     0.2910 H     1 <1>   0.1500 
 24 H        3.6330    -2.0340    -0.1100 H     1 <1>   0.3700 
 25 H        5.6420     0.7190     0.0920 H     1 <1>   0.0800 
 26 H        5.5230     0.0590    -1.5310 H     1 <1>   0.0800 
 27 H        7.5500    -3.6230     1.4330 H     1 <1>   0.0800 
 28 H        9.2570    -3.9430     1.3370 H     1 <1>   0.0800 
 29 H       11.0390    -3.4790    -0.3600 H     1 <1>   0.0800 
 30 H        7.2360    -4.5470    -0.8540 H     1 <1>   0.0800 
 31 H        7.9780    -5.7270     0.1950 H     1 <1>   0.0800 
 32 H        8.9580    -4.8640    -0.9620 H     1 <1>   0.0800 
 33 H       11.3210    -2.8940     1.9460 H     1 <1>   0.0800 
 34 H       11.5250    -1.2020     1.5350 H     1 <1>   0.0800 
 35 H       12.1130    -0.7800    -1.1220 H     1 <1>   0.0800 
 36 H       12.0670    -2.2260    -2.1100 H     1 <1>   0.0800 
 37 H       13.5370    -3.3690     1.3740 H     1 <1>   0.0800 
 38 H       13.7700    -1.6470     1.5880 H     1 <1>   0.0800 
 39 H       14.2710    -1.5360    -0.6750 H     1 <1>   0.0800 
 40 H       13.8150    -3.2160    -0.8660 H     1 <1>   0.0800 
@<TRIPOS>BOND
  1   1   2  1   
  2   1   3  1   
  3   2   4  2   
  4   2   5  1   
  5   3   6  2   
  6   3  23  1   
  7   4   6  1   
  8   5   7  am  
  9   5  24  1   
 10   7   8  2   
 11   7   9  1   
 12   9  10  1   
 13   9  25  1   
 14   9  26  1   
 15  10  11  1   
 16  11  12  2   
 17  11  13  1   
 18  12  14  1   
 19  13  15  1   
 20  13  16  1   
 21  14  15  2   
 22  15  17  1   
 23  16  18  1   
 24  16  27  1   
 25  16  28  1   
 26  17  19  1   
 27  17  20  1   
 28  17  29  1   
 29  18  30  1   
 30  18  31  1   
 31  18  32  1   
 32  19  21  1   
 33  19  33  1   
 34  19  34  1   
 35  20  22  1   
 36  20  35  1   
 37  20  36  1   
 38  21  22  1   
 39  21  37  1   
 40  21  38  1   
 41  22  39  1   
 42  22  40  1   
@<TRIPOS>SUBSTRUCTURE
  1 ****  10 GROUP 4 **** **** 0

# MOE 2024.06 (io_trps.svl 2023.06)
