@<TRIPOS>MOLECULE
NONAME
30 30 1 0 0 
SMALL
USER_CHARGES


@<TRIPOS>ATOM
  1 S       -0.4880     0.2740    -0.8350 S.o2  1 <1>   1.3330 
  2 O       -0.4910     1.6740    -1.1780 O.2   1 <1>  -0.6500 
  3 O       -0.8600    -0.7360    -1.7970 O.2   1 <1>  -0.6500 
  4 N       -1.5170     0.1660     0.4780 N.am  1 <1>  -0.9140 
  5 C        1.0840    -0.1590    -0.1240 C.3   1 <1>  -0.1350 
  6 C       -2.8810    -0.1850     0.0990 C.3   1 <1>   0.1960 
  7 C       -3.7780    -0.1740     1.3370 C.3   1 <1>  -0.0160 
  8 C       -5.2180    -0.4910     0.9520 C.ar  1 <1>  -0.1430 
  9 C       -6.0270     0.4730     0.3530 C.ar  1 <1>   0.0830 
 10 C       -5.7280    -1.7570     1.1950 C.ar  1 <1>  -0.1500 
 11 O       -5.4850     1.6990     0.1240 O.3   1 <1>  -0.3630 
 12 C       -7.3400     0.1540     0.0120 C.ar  1 <1>  -0.1500 
 13 C       -7.0320    -2.0680     0.8530 C.ar  1 <1>  -0.1500 
 14 C       -6.1940     2.7090    -0.5590 C.3   1 <1>   0.0400 
 15 C       -7.8380    -1.1120     0.2610 C.ar  1 <1>  -0.1500 
 16 H       -1.5580     1.1280     0.8160 H     1 <1>   0.4200 
 17 H        1.3290     0.5130     0.6730 H     1 <1>   0.0800 
 18 H        1.8520    -0.1050    -0.8710 H     1 <1>   0.0800 
 19 H        1.0490    -1.1590     0.2620 H     1 <1>   0.0800 
 20 H       -2.8980    -1.1680    -0.3420 H     1 <1>   0.0800 
 21 H       -3.2510     0.5190    -0.6290 H     1 <1>   0.0800 
 22 H       -3.7420     0.7920     1.8060 H     1 <1>   0.0800 
 23 H       -3.4170    -0.9020     2.0410 H     1 <1>   0.0800 
 24 H       -5.1120    -2.5110     1.6540 H     1 <1>   0.1500 
 25 H       -7.9880     0.8750    -0.4470 H     1 <1>   0.1500 
 26 H       -7.4180    -3.0530     1.0460 H     1 <1>   0.1500 
 27 H       -5.5500     3.5640    -0.6530 H     1 <1>   0.0800 
 28 H       -7.0670     2.9690     0.0120 H     1 <1>   0.0800 
 29 H       -6.4630     2.3460    -1.5360 H     1 <1>   0.0800 
 30 H       -8.8520    -1.3550    -0.0040 H     1 <1>   0.1500 
@<TRIPOS>BOND
  1   1   2  2   
  2   1   3  2   
  3   1   4  am  
  4   1   5  1   
  5   4   6  1   
  6   4  16  1   
  7   5  17  1   
  8   5  18  1   
  9   5  19  1   
 10   6   7  1   
 11   6  20  1   
 12   6  21  1   
 13   7   8  1   
 14   7  22  1   
 15   7  23  1   
 16   8   9  ar  
 17   8  10  ar  
 18   9  11  1   
 19   9  12  ar  
 20  10  13  ar  
 21  10  24  1   
 22  11  14  1   
 23  12  15  ar  
 24  12  25  1   
 25  13  15  ar  
 26  13  26  1   
 27  14  27  1   
 28  14  28  1   
 29  14  29  1   
 30  15  30  1   
@<TRIPOS>SUBSTRUCTURE
  1 ****   6 GROUP 4 **** **** 0

# MOE 2024.06 (io_trps.svl 2023.06)
