@<TRIPOS>MOLECULE
NONAME
42 43 1 0 0 
SMALL
USER_CHARGES


@<TRIPOS>ATOM
  1 S        1.1320     0.2170     0.0990 S.3   1 <1>  -0.0800 
  2 C        1.8230    -1.3980     0.0720 C.2   1 <1>  -0.1400 
  3 C        1.1380     0.3010    -1.6530 C.2   1 <1>  -0.1100 
  4 C        2.0190    -1.8010    -1.1990 C.2   1 <1>  -0.1500 
  5 C        2.0730    -2.0450     1.4280 C.3   1 <1>   0.0810 
  6 C        1.6320    -0.8340    -2.1800 C.2   1 <1>  -0.1500 
  7 C        2.8470    -3.3500     1.3540 C.2   1 <1>   0.5690 
  8 O        2.3770    -4.3290     1.8810 O.2   1 <1>  -0.5700 
  9 N        4.0610    -3.3400     0.7200 N.am  1 <1>  -0.5470 
 10 C        5.0310    -4.3250     0.4700 C.ar  1 <1>   0.1170 
 11 C        6.3340    -3.9370     0.1040 C.ar  1 <1>   0.0860 
 12 C        4.7270    -5.6820     0.5620 C.ar  1 <1>  -0.1500 
 13 C        6.7220    -2.5420     0.0100 C.2   1 <1>   0.5440 
 14 C        7.2710    -4.9390    -0.1670 C.ar  1 <1>  -0.1500 
 15 C        5.6740    -6.6500     0.3010 C.ar  1 <1>  -0.1500 
 16 O        5.9470    -1.6930    -0.3940 O.2   1 <1>  -0.5700 
 17 N        7.9730    -2.1440     0.3970 N.am  1 <1>  -0.7300 
 18 C        6.9530    -6.2780    -0.0680 C.ar  1 <1>  -0.1500 
 19 C        8.5030    -0.7660     0.3120 C.3   1 <1>   0.1400 
 20 C        9.9290    -0.8140    -0.2370 C.3   1 <1>  -0.1600 
 21 C       10.5260     0.5940    -0.3480 C.3   1 <1>  -0.1600 
 22 C       11.9540     0.5450    -0.9000 C.3   1 <1>  -0.2400 
 23 H        0.7670     1.2020    -2.1080 H     1 <1>   0.1500 
 24 H        2.4260    -2.7500    -1.5060 H     1 <1>   0.1500 
 25 H        1.1270    -2.2270     1.9040 H     1 <1>   0.0800 
 26 H        2.6270    -1.3640     2.0460 H     1 <1>   0.0800 
 27 H        1.7450    -1.0390    -3.2300 H     1 <1>   0.1500 
 28 H        4.3340    -2.4190     0.3430 H     1 <1>   0.3700 
 29 H        3.7360    -5.9950     0.8360 H     1 <1>   0.1500 
 30 H        8.2660    -4.6640    -0.4700 H     1 <1>   0.1500 
 31 H        5.4160    -7.6930     0.3800 H     1 <1>   0.1500 
 32 H        8.5840    -2.8180     0.8590 H     1 <1>   0.3700 
 33 H        7.6920    -7.0330    -0.2800 H     1 <1>   0.1500 
 34 H        8.4950    -0.3220     1.2930 H     1 <1>   0.0800 
 35 H        7.8810    -0.1710    -0.3360 H     1 <1>   0.0800 
 36 H        9.9130    -1.2700    -1.2120 H     1 <1>   0.0800 
 37 H       10.5430    -1.4090     0.4160 H     1 <1>   0.0800 
 38 H       10.5380     1.0630     0.6210 H     1 <1>   0.0800 
 39 H        9.9160     1.1950    -1.0020 H     1 <1>   0.0800 
 40 H       12.5900    -0.0310    -0.2510 H     1 <1>   0.0800 
 41 H       12.3540     1.5410    -0.9730 H     1 <1>   0.0800 
 42 H       11.9640     0.1010    -1.8800 H     1 <1>   0.0800 
@<TRIPOS>BOND
  1   1   2  1   
  2   1   3  1   
  3   2   4  2   
  4   2   5  1   
  5   3   6  2   
  6   3  23  1   
  7   4   6  1   
  8   4  24  1   
  9   5   7  1   
 10   5  25  1   
 11   5  26  1   
 12   6  27  1   
 13   7   8  2   
 14   7   9  am  
 15   9  10  1   
 16   9  28  1   
 17  10  11  ar  
 18  10  12  ar  
 19  11  13  1   
 20  11  14  ar  
 21  12  15  ar  
 22  12  29  1   
 23  13  16  2   
 24  13  17  am  
 25  14  18  ar  
 26  14  30  1   
 27  15  18  ar  
 28  15  31  1   
 29  17  19  1   
 30  17  32  1   
 31  18  33  1   
 32  19  20  1   
 33  19  34  1   
 34  19  35  1   
 35  20  21  1   
 36  20  36  1   
 37  20  37  1   
 38  21  22  1   
 39  21  38  1   
 40  21  39  1   
 41  22  40  1   
 42  22  41  1   
 43  22  42  1   
@<TRIPOS>SUBSTRUCTURE
  1 ****  16 GROUP 4 **** **** 0

# MOE 2024.06 (io_trps.svl 2023.06)
