@<TRIPOS>MOLECULE
NONAME
44 46 1 0 0 
SMALL
USER_CHARGES


@<TRIPOS>ATOM
  1 S        0.5380    -0.2420    -0.1440 S.3   1 <1>  -0.0800 
  2 C       -0.8660    -0.9250    -0.9430 C.2   1 <1>  -0.1100 
  3 C        0.1060    -1.0130     1.3700 C.2   1 <1>  -0.1100 
  4 C       -1.5920    -1.6680    -0.0840 C.2   1 <1>  -0.1810 
  5 C       -1.0290    -1.7230     1.2360 C.2   1 <1>  -0.1500 
  6 C       -2.8760    -2.3930    -0.4290 C.3   1 <1>   0.5240 
  7 N       -4.0010    -1.4340    -0.2960 N.4   1 <1>  -0.9590 
  8 C       -4.1970    -0.9690     1.1270 C.3   1 <1>   0.3430 
  9 C       -5.2850    -1.9880    -0.8580 C.3   1 <1>   0.3430 
 10 C       -5.3580     0.0340     1.2620 C.3   1 <1>   0.2090 
 11 C       -6.4550    -0.9910    -0.7420 C.3   1 <1>   0.2090 
 12 N       -6.6130    -0.5090     0.6620 N.pl3 1 <1>  -0.8380 
 13 C       -7.7430     0.2960     0.8670 C.ar  1 <1>   0.1000 
 14 C       -7.9070     1.5760     0.3050 C.ar  1 <1>   0.0830 
 15 C       -8.7500    -0.2120     1.6750 C.ar  1 <1>  -0.1500 
 16 O       -6.9040     2.0680    -0.4900 O.3   1 <1>  -0.3620 
 17 C       -9.0670     2.2980     0.5660 C.ar  1 <1>  -0.1500 
 18 C       -9.8990     0.5130     1.9300 C.ar  1 <1>  -0.1500 
 19 C       -6.9690     3.3690    -1.0290 C.3   1 <1>   0.1200 
 20 C      -10.0580     1.7680     1.3760 C.ar  1 <1>  -0.1500 
 21 C       -5.6860     3.6170    -1.8160 C.3   1 <1>  -0.2400 
 22 H       -0.9860    -0.6830    -1.9850 H     1 <1>   0.1500 
 23 H        0.7630    -0.8520     2.2080 H     1 <1>   0.1500 
 24 H       -1.4820    -2.2940     2.0290 H     1 <1>   0.1500 
 25 H       -3.0150    -3.2410     0.2220 H     1 <1>   0.0800 
 26 H       -2.8160    -2.7470    -1.4450 H     1 <1>   0.0800 
 27 H       -3.7490    -0.6000    -0.8400 H     1 <1>   0.4500 
 28 H       -3.2960    -0.5020     1.4890 H     1 <1>   0.0800 
 29 H       -4.4110    -1.8140     1.7590 H     1 <1>   0.0800 
 30 H       -5.5590    -2.8820    -0.3220 H     1 <1>   0.0800 
 31 H       -5.1540    -2.2490    -1.8950 H     1 <1>   0.0800 
 32 H       -5.0900     0.9600     0.7840 H     1 <1>   0.0800 
 33 H       -5.5310     0.2430     2.3050 H     1 <1>   0.0800 
 34 H       -7.3680    -1.4710    -1.0510 H     1 <1>   0.0800 
 35 H       -6.2850    -0.1580    -1.4010 H     1 <1>   0.0800 
 36 H       -8.6270    -1.1880     2.1060 H     1 <1>   0.1500 
 37 H       -9.2300     3.2760     0.1540 H     1 <1>   0.1500 
 38 H      -10.6690     0.1000     2.5600 H     1 <1>   0.1500 
 39 H       -7.0590     4.0710    -0.2180 H     1 <1>   0.0800 
 40 H       -7.8280     3.4300    -1.6740 H     1 <1>   0.0800 
 41 H      -10.9530     2.3330     1.5740 H     1 <1>   0.1500 
 42 H       -4.8320     3.5430    -1.1670 H     1 <1>   0.0800 
 43 H       -5.7070     4.6050    -2.2380 H     1 <1>   0.0800 
 44 H       -5.5990     2.9060    -2.6170 H     1 <1>   0.0800 
@<TRIPOS>BOND
  1   1   2  1   
  2   1   3  1   
  3   2   4  2   
  4   2  22  1   
  5   3   5  2   
  6   3  23  1   
  7   4   5  1   
  8   4   6  1   
  9   5  24  1   
 10   6   7  1   
 11   6  25  1   
 12   6  26  1   
 13   7   8  1   
 14   7   9  1   
 15   7  27  1   
 16   8  10  1   
 17   8  28  1   
 18   8  29  1   
 19   9  11  1   
 20   9  30  1   
 21   9  31  1   
 22  10  12  1   
 23  10  32  1   
 24  10  33  1   
 25  11  12  1   
 26  11  34  1   
 27  11  35  1   
 28  12  13  1   
 29  13  14  ar  
 30  13  15  ar  
 31  14  16  1   
 32  14  17  ar  
 33  15  18  ar  
 34  15  36  1   
 35  16  19  1   
 36  17  20  ar  
 37  17  37  1   
 38  18  20  ar  
 39  18  38  1   
 40  19  21  1   
 41  19  39  1   
 42  19  40  1   
 43  20  41  1   
 44  21  42  1   
 45  21  43  1   
 46  21  44  1   
@<TRIPOS>SUBSTRUCTURE
  1 ****  10 GROUP 4 **** **** 0

# MOE 2024.06 (io_trps.svl 2023.06)
