@<TRIPOS>MOLECULE
NONAME
47 49 1 0 0 
SMALL
USER_CHARGES


@<TRIPOS>ATOM
  1 CL      -0.3690    -0.2630     2.4200 Cl    1 <1>  -0.1770 
  2 C        0.1720     1.2100     1.6560 C.ar  1 <1>   0.1770 
  3 C        0.2980     1.2540     0.2800 C.ar  1 <1>  -0.1500 
  4 C        0.4660     2.3110     2.4390 C.ar  1 <1>  -0.1500 
  5 C        0.7310     2.4240    -0.3210 C.ar  1 <1>  -0.1500 
  6 C        0.8990     3.4810     1.8360 C.ar  1 <1>  -0.1500 
  7 C        1.0390     3.5370     0.4500 C.ar  1 <1>   0.0830 
  8 O        1.4770     4.6330    -0.2180 O.3   1 <1>  -0.3630 
  9 C        1.8950     5.7960     0.4690 C.3   1 <1>   0.1200 
 10 C        2.5270     6.7640    -0.5370 C.3   1 <1>   0.2000 
 11 O        3.2240     7.7470     0.1640 O.3   1 <1>  -0.6800 
 12 C        3.4540     6.0810    -1.5850 C.3   1 <1>   0.3430 
 13 N        4.6940     5.3660    -1.0940 N.4   1 <1>  -0.9590 
 14 C        4.4430     3.9940    -0.5220 C.3   1 <1>   0.3430 
 15 C        5.5780     6.1690    -0.1790 C.3   1 <1>   0.3430 
 16 C        5.7310     3.3310     0.0200 C.3   1 <1>   0.2090 
 17 C        6.9670     5.5090    -0.0170 C.3   1 <1>   0.2090 
 18 N        6.9720     4.0580    -0.4070 N.pl3 1 <1>  -0.8380 
 19 C        8.1420     3.4040    -0.0860 C.ar  1 <1>   0.4100 
 20 N        8.3360     3.1530     1.2010 N.ar  1 <1>  -0.6200 
 21 C        9.0400     3.0520    -1.0880 C.ar  1 <1>  -0.1500 
 22 C        9.4650     2.5280     1.4970 C.ar  1 <1>   0.1600 
 23 C       10.2080     2.4030    -0.7660 C.ar  1 <1>  -0.1500 
 24 C       10.4180     2.1370     0.5720 C.ar  1 <1>  -0.1500 
 25 H        0.0550     0.3850    -0.3050 H     1 <1>   0.1500 
 26 H        0.3510     2.2470     3.5070 H     1 <1>   0.1500 
 27 H        0.8250     2.4730    -1.3910 H     1 <1>   0.1500 
 28 H        1.1110     4.3260     2.4640 H     1 <1>   0.1500 
 29 H        2.6190     5.5090     1.2110 H     1 <1>   0.0800 
 30 H        1.0330     6.2370     0.9390 H     1 <1>   0.0800 
 31 H        1.7350     7.2620    -1.0710 H     1 <1>   0.0800 
 32 H        2.6090     8.3610     0.6200 H     1 <1>   0.4000 
 33 H        2.8560     5.3790    -2.1420 H     1 <1>   0.0800 
 34 H        3.7560     6.8470    -2.2790 H     1 <1>   0.0800 
 35 H        5.3050     5.1730    -1.9020 H     1 <1>   0.4500 
 36 H        4.0220     3.3590    -1.2830 H     1 <1>   0.0800 
 37 H        3.7300     4.0440     0.2820 H     1 <1>   0.0800 
 38 H        5.1130     6.2500     0.7890 H     1 <1>   0.0800 
 39 H        5.7020     7.1700    -0.5600 H     1 <1>   0.0800 
 40 H        5.7780     2.3090    -0.3150 H     1 <1>   0.0800 
 41 H        5.6860     3.3100     1.0960 H     1 <1>   0.0800 
 42 H        7.2950     5.6180     1.0030 H     1 <1>   0.0800 
 43 H        7.6760     6.0310    -0.6370 H     1 <1>   0.0800 
 44 H        8.8050     3.2920    -2.1070 H     1 <1>   0.1500 
 45 H        9.6420     2.3140     2.5370 H     1 <1>   0.1500 
 46 H       10.9250     2.1150    -1.5160 H     1 <1>   0.1500 
 47 H       11.3110     1.6320     0.8950 H     1 <1>   0.1500 
@<TRIPOS>BOND
  1   1   2  1   
  2   2   3  ar  
  3   2   4  ar  
  4   3   5  ar  
  5   3  25  1   
  6   4   6  ar  
  7   4  26  1   
  8   5   7  ar  
  9   5  27  1   
 10   6   7  ar  
 11   6  28  1   
 12   7   8  1   
 13   8   9  1   
 14   9  10  1   
 15   9  29  1   
 16   9  30  1   
 17  10  11  1   
 18  10  12  1   
 19  10  31  1   
 20  11  32  1   
 21  12  13  1   
 22  12  33  1   
 23  12  34  1   
 24  13  14  1   
 25  13  15  1   
 26  13  35  1   
 27  14  16  1   
 28  14  36  1   
 29  14  37  1   
 30  15  17  1   
 31  15  38  1   
 32  15  39  1   
 33  16  18  1   
 34  16  40  1   
 35  16  41  1   
 36  17  18  1   
 37  17  42  1   
 38  17  43  1   
 39  18  19  1   
 40  19  20  ar  
 41  19  21  ar  
 42  20  22  ar  
 43  21  23  ar  
 44  21  44  1   
 45  22  24  ar  
 46  22  45  1   
 47  23  24  ar  
 48  23  46  1   
 49  24  47  1   
@<TRIPOS>SUBSTRUCTURE
  1 ****  14 GROUP 4 **** **** 0

# MOE 2024.06 (io_trps.svl 2023.06)
