@<TRIPOS>MOLECULE
NONAME
34 35 1 0 0 
SMALL
USER_CHARGES


@<TRIPOS>ATOM
  1 CL       2.5510     1.8340    -0.2030 Cl    1 <1>  -0.1230 
  2 C        0.8570     2.2980    -0.1530 C.2   1 <1>   0.1230 
  3 C       -0.1580     1.5900     0.4690 C.2   1 <1>   0.1080 
  4 C        0.2940     3.3930    -0.6970 C.2   1 <1>  -0.3320 
  5 N       -1.2960     2.1930     0.3320 N.2   1 <1>  -0.7070 
  6 C       -0.0070     0.2850     1.2210 C.3   1 <1>  -0.0590 
  7 N       -1.0420     3.3340    -0.4010 N.pl3 1 <1>   0.5840 
  8 C        0.9520     4.5130    -1.4940 C.3   1 <1>  -0.0600 
  9 S       -2.2740     4.5470    -0.8830 S.o2  1 <1>   1.2950 
 10 O       -2.3850     4.5620    -2.3310 O.2   1 <1>  -0.6500 
 11 O       -1.9850     5.8080    -0.2210 O.2   1 <1>  -0.6500 
 12 C       -3.8060     3.8670    -0.1900 C.ar  1 <1>  -0.0090 
 13 C       -4.2120     4.1820     1.1010 C.ar  1 <1>  -0.1500 
 14 C       -4.6020     2.9960    -0.9250 C.ar  1 <1>  -0.1500 
 15 C       -5.3710     3.6500     1.6390 C.ar  1 <1>  -0.1500 
 16 C       -5.7620     2.4600    -0.3930 C.ar  1 <1>  -0.1500 
 17 C       -6.1530     2.7830     0.8950 C.ar  1 <1>  -0.1430 
 18 C       -7.4260     2.1970     1.4830 C.3   1 <1>  -0.0170 
 19 C       -8.6220     3.1020     1.1830 C.3   1 <1>  -0.2400 
 20 H       -0.8870    -0.3160     1.0850 H     1 <1>   0.0800 
 21 H        0.1190     0.4860     2.2690 H     1 <1>   0.0800 
 22 H        0.8460    -0.2610     0.8610 H     1 <1>   0.0800 
 23 H        2.0080     4.3340    -1.5920 H     1 <1>   0.0800 
 24 H        0.8140     5.4590    -0.9980 H     1 <1>   0.0800 
 25 H        0.5260     4.5730    -2.4810 H     1 <1>   0.0800 
 26 H       -3.6180     4.8540     1.6970 H     1 <1>   0.1500 
 27 H       -4.3160     2.7320    -1.9300 H     1 <1>   0.1500 
 28 H       -5.6620     3.9140     2.6410 H     1 <1>   0.1500 
 29 H       -6.3600     1.7910    -0.9860 H     1 <1>   0.1500 
 30 H       -7.3160     2.0840     2.5480 H     1 <1>   0.0800 
 31 H       -7.6000     1.2190     1.0690 H     1 <1>   0.0800 
 32 H       -8.4650     4.0770     1.6090 H     1 <1>   0.0800 
 33 H       -9.5190     2.6820     1.6020 H     1 <1>   0.0800 
 34 H       -8.7510     3.2070     0.1210 H     1 <1>   0.0800 
@<TRIPOS>BOND
  1   1   2  1   
  2   2   3  1   
  3   2   4  2   
  4   3   5  2   
  5   3   6  1   
  6   4   7  1   
  7   4   8  1   
  8   5   7  1   
  9   6  20  1   
 10   6  21  1   
 11   6  22  1   
 12   7   9  1   
 13   8  23  1   
 14   8  24  1   
 15   8  25  1   
 16   9  10  2   
 17   9  11  2   
 18   9  12  1   
 19  12  13  ar  
 20  12  14  ar  
 21  13  15  ar  
 22  13  26  1   
 23  14  16  ar  
 24  14  27  1   
 25  15  17  ar  
 26  15  28  1   
 27  16  17  ar  
 28  16  29  1   
 29  17  18  1   
 30  18  19  1   
 31  18  30  1   
 32  18  31  1   
 33  19  32  1   
 34  19  33  1   
 35  19  34  1   
@<TRIPOS>SUBSTRUCTURE
  1 ****  12 GROUP 4 **** **** 0

# MOE 2024.06 (io_trps.svl 2023.06)
