@<TRIPOS>MOLECULE
NONAME
40 42 1 0 0 
SMALL
USER_CHARGES


@<TRIPOS>ATOM
  1 CL      -0.2610     0.4100     1.3510 Cl    1 <1>  -0.1770 
  2 C       -1.3800     1.5600     0.6640 C.ar  1 <1>   0.1770 
  3 C       -2.7050     1.5280     1.0470 C.ar  1 <1>  -0.1500 
  4 C       -0.9180     2.4850    -0.2550 C.ar  1 <1>  -0.1500 
  5 C       -3.6080     2.4360     0.5080 C.ar  1 <1>   0.1000 
  6 C       -1.8080     3.3950    -0.7980 C.ar  1 <1>  -0.1500 
  7 N       -4.9430     2.3860     0.9020 N.pl3 1 <1>  -0.8380 
  8 C       -3.1400     3.3660    -0.4190 C.ar  1 <1>  -0.1500 
  9 C       -5.7690     1.2130     0.4890 C.3   1 <1>   0.2090 
 10 C       -5.7360     3.6330     1.1310 C.3   1 <1>   0.2090 
 11 C       -6.7400     1.5790    -0.6500 C.3   1 <1>   0.1100 
 12 C       -6.7270     3.9100    -0.0190 C.3   1 <1>   0.1100 
 13 N       -7.5930     2.7460    -0.3120 N.3   1 <1>  -0.8100 
 14 C       -8.5370     3.0560    -1.4280 C.3   1 <1>   0.1710 
 15 C       -9.6880     2.0560    -1.5690 C.2   1 <1>   0.5690 
 16 O      -10.2270     1.9200    -2.6420 O.2   1 <1>  -0.5700 
 17 N      -10.0520     1.3600    -0.4610 N.am  1 <1>  -0.5790 
 18 C      -11.1110     0.3490    -0.3620 C.3   1 <1>   0.0490 
 19 C      -11.8410     0.2250     0.9330 C.3   1 <1>  -0.2000 
 20 C      -10.8680    -0.8360     0.5120 C.3   1 <1>  -0.2000 
 21 H       -3.0420     0.8080     1.7670 H     1 <1>   0.1500 
 22 H        0.1200     2.4880    -0.5350 H     1 <1>   0.1500 
 23 H       -1.4650     4.1210    -1.5150 H     1 <1>   0.1500 
 24 H       -3.8260     4.0690    -0.8500 H     1 <1>   0.1500 
 25 H       -6.3320     0.8650     1.3370 H     1 <1>   0.0800 
 26 H       -5.1270     0.4130     0.1640 H     1 <1>   0.0800 
 27 H       -5.0700     4.4700     1.2480 H     1 <1>   0.0800 
 28 H       -6.2870     3.5260     2.0490 H     1 <1>   0.0800 
 29 H       -7.3590     0.7230    -0.8570 H     1 <1>   0.0800 
 30 H       -6.1630     1.7900    -1.5340 H     1 <1>   0.0800 
 31 H       -6.1710     4.1800    -0.8990 H     1 <1>   0.0800 
 32 H       -7.3410     4.7500     0.2570 H     1 <1>   0.0800 
 33 H       -8.0020     3.1020    -2.3600 H     1 <1>   0.0800 
 34 H       -8.9830     4.0190    -1.2570 H     1 <1>   0.0800 
 35 H       -9.4880     1.5300     0.3760 H     1 <1>   0.3700 
 36 H      -11.6580     0.2130    -1.2830 H     1 <1>   0.1000 
 37 H      -12.8910    -0.0100     0.9100 H     1 <1>   0.1000 
 38 H      -11.5810     0.8860     1.7400 H     1 <1>   0.1000 
 39 H       -9.9280    -0.9170     1.0280 H     1 <1>   0.1000 
 40 H      -11.2570    -1.7900     0.2050 H     1 <1>   0.1000 
@<TRIPOS>BOND
  1   1   2  1   
  2   2   3  ar  
  3   2   4  ar  
  4   3   5  ar  
  5   3  21  1   
  6   4   6  ar  
  7   4  22  1   
  8   5   7  1   
  9   5   8  ar  
 10   6   8  ar  
 11   6  23  1   
 12   7   9  1   
 13   7  10  1   
 14   8  24  1   
 15   9  11  1   
 16   9  25  1   
 17   9  26  1   
 18  10  12  1   
 19  10  27  1   
 20  10  28  1   
 21  11  13  1   
 22  11  29  1   
 23  11  30  1   
 24  12  13  1   
 25  12  31  1   
 26  12  32  1   
 27  13  14  1   
 28  14  15  1   
 29  14  33  1   
 30  14  34  1   
 31  15  16  2   
 32  15  17  am  
 33  17  18  1   
 34  17  35  1   
 35  18  19  1   
 36  18  20  1   
 37  18  36  1   
 38  19  20  1   
 39  19  37  1   
 40  19  38  1   
 41  20  39  1   
 42  20  40  1   
@<TRIPOS>SUBSTRUCTURE
  1 ****  11 GROUP 4 **** **** 0

# MOE 2024.06 (io_trps.svl 2023.06)
