@<TRIPOS>MOLECULE
NONAME
41 41 1 0 0 
SMALL
USER_CHARGES


@<TRIPOS>ATOM
  1 S        0.2480     0.3670    -0.9320 S.o2  1 <1>   1.4470 
  2 O        0.4620     1.4730    -1.8370 O.2   1 <1>  -0.6500 
  3 O        0.8270    -0.9270    -1.2120 O.2   1 <1>  -0.6500 
  4 N        0.8420     0.7530     0.5920 N.am  1 <1>  -0.9140 
  5 C       -1.5290     0.1870    -0.6200 C.ar  1 <1>  -0.0090 
  6 C        2.0840     1.4670     0.7280 C.3   1 <1>   0.3560 
  7 C       -2.2660     1.2270    -0.0720 C.ar  1 <1>  -0.1500 
  8 C       -2.2060    -0.9870    -0.9190 C.ar  1 <1>  -0.1500 
  9 C        2.4860     1.2780     2.1900 C.3   1 <1>  -0.2400 
 10 C        1.8680     2.9600     0.4770 C.3   1 <1>  -0.2400 
 11 C        3.1900     0.8940    -0.1610 C.3   1 <1>  -0.2400 
 12 C       -3.6220     1.0970     0.1720 C.ar  1 <1>  -0.1500 
 13 C       -3.5620    -1.1210    -0.6780 C.ar  1 <1>  -0.1500 
 14 C       -4.3000    -0.0790    -0.1250 C.ar  1 <1>  -0.1430 
 15 C       -5.8140    -0.1770     0.1640 C.3   1 <1>   0.1430 
 16 C       -6.5610     0.9010    -0.6350 C.3   1 <1>  -0.2400 
 17 C       -6.4170    -1.5390    -0.2190 C.3   1 <1>  -0.2400 
 18 C       -6.0650     0.0350     1.6650 C.3   1 <1>  -0.2400 
 19 H        1.0150    -0.1620     0.9950 H     1 <1>   0.4200 
 20 H       -1.7680     2.1510     0.1680 H     1 <1>   0.1500 
 21 H       -1.6640    -1.8130    -1.3500 H     1 <1>   0.1500 
 22 H        1.7200     1.6580     2.8430 H     1 <1>   0.0800 
 23 H        3.3950     1.8120     2.3980 H     1 <1>   0.0800 
 24 H        2.6530     0.2390     2.4110 H     1 <1>   0.0800 
 25 H        1.0410     3.3230     1.0610 H     1 <1>   0.0800 
 26 H        1.6810     3.1640    -0.5590 H     1 <1>   0.0800 
 27 H        2.7470     3.5110     0.7560 H     1 <1>   0.0800 
 28 H        3.2920    -0.1660    -0.0140 H     1 <1>   0.0800 
 29 H        4.1290     1.3580     0.0790 H     1 <1>   0.0800 
 30 H        2.9970     1.0900    -1.2010 H     1 <1>   0.0800 
 31 H       -4.1450     1.9340     0.5990 H     1 <1>   0.1500 
 32 H       -4.0200    -2.0580    -0.9340 H     1 <1>   0.1500 
 33 H       -6.3630     0.7820    -1.6860 H     1 <1>   0.0800 
 34 H       -6.2490     1.8870    -0.3440 H     1 <1>   0.0800 
 35 H       -7.6210     0.8270    -0.4760 H     1 <1>   0.0800 
 36 H       -5.9450    -2.3310     0.3360 H     1 <1>   0.0800 
 37 H       -6.2920    -1.7250    -1.2710 H     1 <1>   0.0800 
 38 H       -7.4700    -1.5620    -0.0010 H     1 <1>   0.0800 
 39 H       -5.7490     1.0130     1.9770 H     1 <1>   0.0800 
 40 H       -5.5180    -0.6940     2.2350 H     1 <1>   0.0800 
 41 H       -7.1110    -0.0660     1.8930 H     1 <1>   0.0800 
@<TRIPOS>BOND
  1   1   2  2   
  2   1   3  2   
  3   1   4  am  
  4   1   5  1   
  5   4   6  1   
  6   4  19  1   
  7   5   7  ar  
  8   5   8  ar  
  9   6   9  1   
 10   6  10  1   
 11   6  11  1   
 12   7  12  ar  
 13   7  20  1   
 14   8  13  ar  
 15   8  21  1   
 16   9  22  1   
 17   9  23  1   
 18   9  24  1   
 19  10  25  1   
 20  10  26  1   
 21  10  27  1   
 22  11  28  1   
 23  11  29  1   
 24  11  30  1   
 25  12  14  ar  
 26  12  31  1   
 27  13  14  ar  
 28  13  32  1   
 29  14  15  1   
 30  15  16  1   
 31  15  17  1   
 32  15  18  1   
 33  16  33  1   
 34  16  34  1   
 35  16  35  1   
 36  17  36  1   
 37  17  37  1   
 38  17  38  1   
 39  18  39  1   
 40  18  40  1   
 41  18  41  1   
@<TRIPOS>SUBSTRUCTURE
  1 ****   5 GROUP 4 **** **** 0

# MOE 2024.06 (io_trps.svl 2023.06)
