@<TRIPOS>MOLECULE
NONAME
51 53 1 0 0 
SMALL
USER_CHARGES


@<TRIPOS>ATOM
  1 O        0.0140     0.0810     1.1000 O.2   1 <1>  -0.5700 
  2 C       -0.2710     1.0140     0.3690 C.2   1 <1>   0.5440 
  3 N       -0.4060     0.7800    -0.9800 N.am  1 <1>  -0.6600 
  4 C       -0.4170     2.3390     0.9260 C.ar  1 <1>   0.0860 
  5 C       -0.4160    -0.6100    -1.5230 C.3   1 <1>   0.1400 
  6 C       -0.0950     1.8200    -2.0060 C.3   1 <1>   0.1400 
  7 C        0.6520     2.9570     1.5920 C.ar  1 <1>   0.1170 
  8 C       -1.6220     3.0310     0.8020 C.ar  1 <1>  -0.1500 
  9 C       -1.2090    -0.6870    -2.8380 C.3   1 <1>   0.1200 
 10 C       -0.9040     1.5910    -3.2930 C.3   1 <1>   0.1200 
 11 N        1.8650     2.2650     1.7140 N.am  1 <1>  -0.5470 
 12 C        0.4810     4.2370     2.1100 C.ar  1 <1>  -0.1500 
 13 C       -1.7760     4.3030     1.3170 C.ar  1 <1>  -0.1500 
 14 O       -0.7580     0.2760    -3.7480 O.3   1 <1>  -0.5600 
 15 C        3.1610     2.6980     1.7960 C.2   1 <1>   0.5690 
 16 C       -0.7190     4.9080     1.9740 C.ar  1 <1>  -0.1500 
 17 O        3.4680     3.8620     1.9020 O.2   1 <1>  -0.5700 
 18 C        4.2770     1.6500     1.7140 C.3   1 <1>   0.2610 
 19 O        3.9320     0.6220     0.7930 O.3   1 <1>  -0.3630 
 20 C        4.5460     0.9990     3.0820 C.3   1 <1>  -0.1600 
 21 C        3.7930     0.8550    -0.5380 C.ar  1 <1>   0.0820 
 22 C        5.6910    -0.0250     3.0490 C.3   1 <1>  -0.2400 
 23 C        3.3030    -0.1920    -1.3010 C.ar  1 <1>  -0.1500 
 24 C        4.1070     2.0630    -1.1580 C.ar  1 <1>  -0.1500 
 25 C        3.1230    -0.0450    -2.6650 C.ar  1 <1>  -0.1500 
 26 C        3.9270     2.2080    -2.5230 C.ar  1 <1>  -0.1500 
 27 C        3.4360     1.1560    -3.2770 C.ar  1 <1>  -0.1500 
 28 H       -0.8550    -1.2800    -0.8040 H     1 <1>   0.0800 
 29 H        0.5950    -0.9290    -1.6980 H     1 <1>   0.0800 
 30 H        0.9540     1.7780    -2.2390 H     1 <1>   0.0800 
 31 H       -0.3060     2.8040    -1.6280 H     1 <1>   0.0800 
 32 H       -2.4440     2.5560     0.2960 H     1 <1>   0.1500 
 33 H       -2.2570    -0.5270    -2.6560 H     1 <1>   0.0800 
 34 H       -1.0800    -1.6530    -3.2910 H     1 <1>   0.0800 
 35 H       -0.5540     2.2470    -4.0710 H     1 <1>   0.0800 
 36 H       -1.9490     1.7830    -3.1230 H     1 <1>   0.0800 
 37 H        1.7790     1.2510     1.5500 H     1 <1>   0.3700 
 38 H        1.2920     4.7170     2.6280 H     1 <1>   0.1500 
 39 H       -2.7130     4.8240     1.2130 H     1 <1>   0.1500 
 40 H       -0.8310     5.8990     2.3800 H     1 <1>   0.1500 
 41 H        5.1800     2.1170     1.3650 H     1 <1>   0.0800 
 42 H        3.6460     0.5250     3.4330 H     1 <1>   0.0800 
 43 H        4.7970     1.7750     3.7840 H     1 <1>   0.0800 
 44 H        5.4490    -0.8410     2.3890 H     1 <1>   0.0800 
 45 H        5.8580    -0.4230     4.0340 H     1 <1>   0.0800 
 46 H        6.6010     0.4370     2.7070 H     1 <1>   0.0800 
 47 H        3.0600    -1.1220    -0.8180 H     1 <1>   0.1500 
 48 H        4.4920     2.9000    -0.6050 H     1 <1>   0.1500 
 49 H        2.7390    -0.8620    -3.2520 H     1 <1>   0.1500 
 50 H        4.1700     3.1420    -3.0000 H     1 <1>   0.1500 
 51 H        3.2960     1.2700    -4.3380 H     1 <1>   0.1500 
@<TRIPOS>BOND
  1   1   2  2   
  2   2   3  am  
  3   2   4  1   
  4   3   5  1   
  5   3   6  1   
  6   4   7  ar  
  7   4   8  ar  
  8   5   9  1   
  9   5  28  1   
 10   5  29  1   
 11   6  10  1   
 12   6  30  1   
 13   6  31  1   
 14   7  11  1   
 15   7  12  ar  
 16   8  13  ar  
 17   8  32  1   
 18   9  14  1   
 19   9  33  1   
 20   9  34  1   
 21  10  14  1   
 22  10  35  1   
 23  10  36  1   
 24  11  15  am  
 25  11  37  1   
 26  12  16  ar  
 27  12  38  1   
 28  13  16  ar  
 29  13  39  1   
 30  15  17  2   
 31  15  18  1   
 32  16  40  1   
 33  18  19  1   
 34  18  20  1   
 35  18  41  1   
 36  19  21  1   
 37  20  22  1   
 38  20  42  1   
 39  20  43  1   
 40  21  23  ar  
 41  21  24  ar  
 42  22  44  1   
 43  22  45  1   
 44  22  46  1   
 45  23  25  ar  
 46  23  47  1   
 47  24  26  ar  
 48  24  48  1   
 49  25  27  ar  
 50  25  49  1   
 51  26  27  ar  
 52  26  50  1   
 53  27  51  1   
@<TRIPOS>SUBSTRUCTURE
  1 ****  11 GROUP 4 **** **** 0

# MOE 2024.06 (io_trps.svl 2023.06)
