@<TRIPOS>MOLECULE
NONAME
43 45 1 0 0 
SMALL
USER_CHARGES


@<TRIPOS>ATOM
  1 S        1.8570    -0.2290    -0.4540 S.3   1 <1>  -0.0800 
  2 C        1.4310    -1.2720     0.9100 C.2   1 <1>  -0.0450 
  3 C        1.4690     1.2240     0.4400 C.2   1 <1>  -0.1100 
  4 C        1.5620    -2.7000     0.7850 C.2   1 <1>   0.7150 
  5 C        1.0260    -0.4870     1.9420 C.2   1 <1>  -0.1500 
  6 C        1.0470     0.9140     1.6800 C.2   1 <1>  -0.1500 
  7 O        1.2730    -3.4260     1.7160 O.2   1 <1>  -0.5700 
  8 N        2.0510    -3.2390    -0.3780 N.am  1 <1>  -0.5470 
  9 C        2.4650    -4.5440    -0.6690 C.ar  1 <1>   0.1170 
 10 C        3.6350    -4.7390    -1.4160 C.ar  1 <1>   0.0860 
 11 C        1.7390    -5.6520    -0.2420 C.ar  1 <1>  -0.1500 
 12 C        4.4160    -3.5990    -1.8280 C.2   1 <1>   0.5440 
 13 C        4.0330    -6.0390    -1.7230 C.ar  1 <1>  -0.1500 
 14 C        2.1510    -6.9340    -0.5490 C.ar  1 <1>  -0.1500 
 15 O        4.0460    -2.9470    -2.7870 O.2   1 <1>  -0.5700 
 16 N        5.5200    -3.1850    -1.1120 N.am  1 <1>  -0.6600 
 17 C        3.3010    -7.1300    -1.2950 C.ar  1 <1>  -0.1500 
 18 C        6.2400    -1.9250    -1.4420 C.3   1 <1>   0.1400 
 19 C        5.8730    -3.7300     0.2270 C.3   1 <1>   0.1400 
 20 C        5.8780    -0.8590    -0.4020 C.3   1 <1>  -0.1600 
 21 C        5.5040    -2.6990     1.2990 C.3   1 <1>  -0.1600 
 22 C        6.1630    -1.3340     1.0330 C.3   1 <1>  -0.0800 
 23 C        5.6700    -0.2960     2.0470 C.3   1 <1>  -0.2400 
 24 H        1.5970     2.1680    -0.0600 H     1 <1>   0.1500 
 25 H        0.7090    -0.8680     2.8980 H     1 <1>   0.1500 
 26 H        0.7450     1.6240     2.4310 H     1 <1>   0.1500 
 27 H        2.3520    -2.5360    -1.0610 H     1 <1>   0.3700 
 28 H        0.8430    -5.5070     0.3350 H     1 <1>   0.1500 
 29 H        4.9270    -6.1850    -2.3040 H     1 <1>   0.1500 
 30 H        1.5780    -7.7800    -0.2100 H     1 <1>   0.1500 
 31 H        3.6200    -8.1290    -1.5390 H     1 <1>   0.1500 
 32 H        5.9760    -1.5810    -2.4280 H     1 <1>   0.0800 
 33 H        7.3000    -2.1110    -1.4290 H     1 <1>   0.0800 
 34 H        6.9320    -3.9260     0.2580 H     1 <1>   0.0800 
 35 H        5.3600    -4.6550     0.4220 H     1 <1>   0.0800 
 36 H        4.8350    -0.6210    -0.5110 H     1 <1>   0.0800 
 37 H        6.4390     0.0350    -0.6080 H     1 <1>   0.0800 
 38 H        5.8100    -3.0680     2.2610 H     1 <1>   0.0800 
 39 H        4.4340    -2.5920     1.3190 H     1 <1>   0.0800 
 40 H        7.2290    -1.4450     1.1470 H     1 <1>   0.0800 
 41 H        4.6070    -0.1560     1.9600 H     1 <1>   0.0800 
 42 H        6.1550     0.6490     1.8790 H     1 <1>   0.0800 
 43 H        5.8930    -0.6180     3.0490 H     1 <1>   0.0800 
@<TRIPOS>BOND
  1   1   2  1   
  2   1   3  1   
  3   2   4  1   
  4   2   5  2   
  5   3   6  2   
  6   3  24  1   
  7   4   7  2   
  8   4   8  am  
  9   5   6  1   
 10   5  25  1   
 11   6  26  1   
 12   8   9  1   
 13   8  27  1   
 14   9  10  ar  
 15   9  11  ar  
 16  10  12  1   
 17  10  13  ar  
 18  11  14  ar  
 19  11  28  1   
 20  12  15  2   
 21  12  16  am  
 22  13  17  ar  
 23  13  29  1   
 24  14  17  ar  
 25  14  30  1   
 26  16  18  1   
 27  16  19  1   
 28  17  31  1   
 29  18  20  1   
 30  18  32  1   
 31  18  33  1   
 32  19  21  1   
 33  19  34  1   
 34  19  35  1   
 35  20  22  1   
 36  20  36  1   
 37  20  37  1   
 38  21  22  1   
 39  21  38  1   
 40  21  39  1   
 41  22  23  1   
 42  22  40  1   
 43  23  41  1   
 44  23  42  1   
 45  23  43  1   
@<TRIPOS>SUBSTRUCTURE
  1 ****   8 GROUP 4 **** **** 0

# MOE 2024.06 (io_trps.svl 2023.06)
