@<TRIPOS>MOLECULE
NONAME
39 41 1 0 0 
SMALL
USER_CHARGES


@<TRIPOS>ATOM
  1 S       -0.4280     0.4070     0.0030 S.3   1 <1>  -0.2860 
  2 C        1.1660     1.2000    -0.2170 C.2   1 <1>   0.2420 
  3 C       -1.6100     1.6810    -0.6680 C.3   1 <1>   0.1310 
  4 N        1.3050     2.3810    -0.7020 N.2   1 <1>  -0.3380 
  5 N        2.3170     0.6150     0.1010 N.pl3 1 <1>   0.0480 
  6 C       -3.0570     1.2190    -0.5800 C.2   1 <1>   0.5690 
  7 N        2.6170     2.6120    -0.7230 N.2   1 <1>  -0.3380 
  8 C        3.2170     1.5580    -0.2410 C.2   1 <1>   0.1330 
  9 C        2.5490    -0.7500     0.6270 C.3   1 <1>   0.0960 
 10 O       -3.8960     1.8650    -1.1610 O.2   1 <1>  -0.5700 
 11 N       -3.3680     0.1090     0.1450 N.am  1 <1>  -0.5790 
 12 C        4.6440     1.4050    -0.1100 C.ar  1 <1>   0.0530 
 13 C        2.8290    -1.7280    -0.5180 C.3   1 <1>  -0.2400 
 14 C       -4.7110    -0.4580     0.3240 C.3   1 <1>   0.0490 
 15 C        5.2500     1.2930     1.1430 C.ar  1 <1>  -0.1500 
 16 C        5.4530     1.3660    -1.2470 C.ar  1 <1>  -0.1500 
 17 C       -5.0290    -1.1070     1.6300 C.3   1 <1>  -0.2000 
 18 C       -4.8390    -1.9420     0.3990 C.3   1 <1>  -0.2000 
 19 C        6.6180     1.1250     1.2630 C.ar  1 <1>  -0.1500 
 20 C        6.8230     1.1990    -1.1450 C.ar  1 <1>  -0.1500 
 21 C        7.3820     1.0780     0.1120 C.ar  1 <1>   0.1900 
 22 F        8.6720     0.9160     0.2180 F     1 <1>  -0.1900 
 23 H       -1.3380     1.8590    -1.6920 H     1 <1>   0.0800 
 24 H       -1.4710     2.5790    -0.0960 H     1 <1>   0.0800 
 25 H        1.6800    -1.0670     1.1760 H     1 <1>   0.0800 
 26 H        3.3830    -0.7290     1.3040 H     1 <1>   0.0800 
 27 H       -2.6100    -0.4070     0.5950 H     1 <1>   0.3700 
 28 H        1.9940    -1.7630    -1.1950 H     1 <1>   0.0800 
 29 H        2.9870    -2.7150    -0.1210 H     1 <1>   0.0800 
 30 H        3.7130    -1.4340    -1.0570 H     1 <1>   0.0800 
 31 H       -5.4830     0.1050    -0.1780 H     1 <1>   0.1000 
 32 H        4.6410     1.3470     2.0290 H     1 <1>   0.1500 
 33 H        4.9950     1.4720    -2.2160 H     1 <1>   0.1500 
 34 H       -6.0250    -1.0040     2.0250 H     1 <1>   0.1000 
 35 H       -4.2780    -1.1250     2.3990 H     1 <1>   0.1000 
 36 H       -3.9540    -2.5460     0.3060 H     1 <1>   0.1000 
 37 H       -5.7050    -2.4060    -0.0400 H     1 <1>   0.1000 
 38 H        7.0910     1.0370     2.2250 H     1 <1>   0.1500 
 39 H        7.4490     1.1670    -2.0190 H     1 <1>   0.1500 
@<TRIPOS>BOND
  1   1   2  1   
  2   1   3  1   
  3   2   4  2   
  4   2   5  1   
  5   3   6  1   
  6   3  23  1   
  7   3  24  1   
  8   4   7  1   
  9   5   8  1   
 10   5   9  1   
 11   6  10  2   
 12   6  11  am  
 13   7   8  2   
 14   8  12  1   
 15   9  13  1   
 16   9  25  1   
 17   9  26  1   
 18  11  14  1   
 19  11  27  1   
 20  12  15  ar  
 21  12  16  ar  
 22  13  28  1   
 23  13  29  1   
 24  13  30  1   
 25  14  17  1   
 26  14  18  1   
 27  14  31  1   
 28  15  19  ar  
 29  15  32  1   
 30  16  20  ar  
 31  16  33  1   
 32  17  18  1   
 33  17  34  1   
 34  17  35  1   
 35  18  36  1   
 36  18  37  1   
 37  19  21  ar  
 38  19  38  1   
 39  20  21  ar  
 40  20  39  1   
 41  21  22  1   
@<TRIPOS>SUBSTRUCTURE
  1 ****   2 GROUP 4 **** **** 0

# MOE 2024.06 (io_trps.svl 2023.06)
