@<TRIPOS>MOLECULE
NONAME
32 34 1 0 0 
SMALL
USER_CHARGES


@<TRIPOS>ATOM
  1 CL       0.7770    -0.9750     0.6900 Cl    1 <1>  -0.1770 
  2 C        2.3410    -1.6270     0.2600 C.ar  1 <1>   0.1770 
  3 C        3.4600    -0.8410     0.3830 C.ar  1 <1>  -0.1500 
  4 C        2.4050    -2.9450    -0.2030 C.ar  1 <1>  -0.1500 
  5 C        4.7000    -1.3850     0.0320 C.ar  1 <1>   0.0000 
  6 C        3.6210    -3.4890    -0.5500 C.ar  1 <1>  -0.1500 
  7 C        4.7690    -2.7000    -0.4290 C.ar  1 <1>  -0.1520 
  8 C        6.0230    -0.8940     0.0220 C.2   1 <1>  -0.1810 
  9 N        6.0840    -2.9930    -0.7020 N.pl3 1 <1>   0.0330 
 10 C        6.8290    -1.8880    -0.4080 C.2   1 <1>  -0.3320 
 11 C        6.5230     0.4870     0.3930 C.3   1 <1>   0.0210 
 12 C        8.3300    -1.8070    -0.5800 C.3   1 <1>   0.4000 
 13 C        7.9300     0.7060    -0.1990 C.3   1 <1>  -0.1600 
 14 N        8.9390    -2.9460     0.1130 N.am  1 <1>  -0.7300 
 15 C        8.8590    -0.5030     0.0490 C.3   1 <1>  -0.1600 
 16 C        9.0200    -4.1780    -0.4140 C.2   1 <1>   0.6900 
 17 O        8.5680    -4.4500    -1.5040 O.2   1 <1>  -0.5700 
 18 N        9.5930    -5.1360     0.3130 N.am  1 <1>  -0.8000 
 19 H        3.3960     0.1690     0.7380 H     1 <1>   0.1500 
 20 H        1.4980    -3.5150    -0.2800 H     1 <1>   0.1500 
 21 H        3.7000    -4.5000    -0.9090 H     1 <1>   0.1500 
 22 H        6.4670    -3.8730    -1.0750 H     1 <1>   0.2700 
 23 H        6.5550     0.5680     1.4650 H     1 <1>   0.0800 
 24 H        5.8480     1.2340     0.0140 H     1 <1>   0.0800 
 25 H        8.5710    -1.8400    -1.6300 H     1 <1>   0.0800 
 26 H        8.3620     1.5950     0.2270 H     1 <1>   0.0800 
 27 H        7.8370     0.8600    -1.2610 H     1 <1>   0.0800 
 28 H        8.8550    -2.8860     1.1220 H     1 <1>   0.3700 
 29 H        9.8350    -0.2970    -0.3510 H     1 <1>   0.0800 
 30 H        8.9510    -0.6340     1.1130 H     1 <1>   0.0800 
 31 H        9.7390    -6.0380    -0.1380 H     1 <1>   0.3700 
 32 H       10.2170    -4.9100     1.0820 H     1 <1>   0.3700 
@<TRIPOS>BOND
  1   1   2  1   
  2   2   3  ar  
  3   2   4  ar  
  4   3   5  ar  
  5   3  19  1   
  6   4   6  ar  
  7   4  20  1   
  8   5   7  ar  
  9   5   8  1   
 10   6   7  ar  
 11   6  21  1   
 12   7   9  1   
 13   8  10  2   
 14   8  11  1   
 15   9  10  1   
 16   9  22  1   
 17  10  12  1   
 18  11  13  1   
 19  11  23  1   
 20  11  24  1   
 21  12  14  1   
 22  12  15  1   
 23  12  25  1   
 24  13  15  1   
 25  13  26  1   
 26  13  27  1   
 27  14  16  am  
 28  14  28  1   
 29  15  29  1   
 30  15  30  1   
 31  16  17  2   
 32  16  18  am  
 33  18  31  1   
 34  18  32  1   
@<TRIPOS>SUBSTRUCTURE
  1 ****  10 GROUP 4 **** **** 0

# MOE 2024.06 (io_trps.svl 2023.06)
