@<TRIPOS>MOLECULE
NONAME
52 53 1 0 0 
SMALL
USER_CHARGES


@<TRIPOS>ATOM
  1 S       -0.0380    -0.1660     0.0560 S.o2  1 <1>   1.3330 
  2 O        0.3170    -0.5180     1.4130 O.2   1 <1>  -0.6500 
  3 O        0.3170    -1.0480    -1.0330 O.2   1 <1>  -0.6500 
  4 N       -1.7170     0.0550     0.0120 N.am  1 <1>  -0.8490 
  5 C        0.5890     1.4740    -0.3250 C.3   1 <1>  -0.0550 
  6 C       -2.4080    -1.1870    -0.3710 C.3   1 <1>   0.1960 
  7 C       -2.2600     0.5880     1.2630 C.3   1 <1>   0.1960 
  8 C        2.1240     1.5580    -0.3590 C.3   1 <1>  -0.1600 
  9 C       -3.9320    -1.1060    -0.1720 C.3   1 <1>  -0.1600 
 10 C       -3.6950     1.0890     1.0410 C.3   1 <1>  -0.1600 
 11 C        2.5970     2.9780    -0.6870 C.3   1 <1>  -0.2400 
 12 C       -4.4320     0.3460    -0.0950 C.3   1 <1>  -0.0190 
 13 C       -5.9470     0.4250     0.0640 C.2   1 <1>   0.5690 
 14 O       -6.4650    -0.1290     1.0040 O.2   1 <1>  -0.5700 
 15 N       -6.6570     1.1210    -0.8660 N.am  1 <1>  -0.7300 
 16 C       -8.1210     1.3340    -0.9160 C.3   1 <1>   0.2200 
 17 C       -8.5900     2.0610     0.3550 C.3   1 <1>  -0.1600 
 18 C       -8.8180    -0.0020    -1.2040 C.3   1 <1>  -0.1600 
 19 C       -9.9800     2.6960     0.1870 C.3   1 <1>  -0.1600 
 20 C      -10.3510     0.0790    -1.3020 C.3   1 <1>  -0.1600 
 21 C      -11.1600     1.7610     0.4960 C.3   1 <1>  -0.1600 
 22 C      -11.0120     0.2920     0.0680 C.3   1 <1>  -0.1600 
 23 H        0.2230     2.1670     0.4070 H     1 <1>   0.0800 
 24 H        0.2040     1.7740    -1.2810 H     1 <1>   0.0800 
 25 H       -2.0210    -2.0150     0.2010 H     1 <1>   0.0800 
 26 H       -2.1990    -1.3830    -1.4100 H     1 <1>   0.0800 
 27 H       -1.6530     1.4000     1.6250 H     1 <1>   0.0800 
 28 H       -2.2530    -0.1880     2.0130 H     1 <1>   0.0800 
 29 H        2.5020     0.8740    -1.1010 H     1 <1>   0.0800 
 30 H        2.5200     1.2590     0.5970 H     1 <1>   0.0800 
 31 H       -4.1890    -1.6160     0.7400 H     1 <1>   0.0800 
 32 H       -4.4240    -1.6280    -0.9740 H     1 <1>   0.0800 
 33 H       -3.6770     2.1400     0.8190 H     1 <1>   0.0800 
 34 H       -4.2320     0.9700     1.9670 H     1 <1>   0.0800 
 35 H        2.2310     3.2860    -1.6510 H     1 <1>   0.0800 
 36 H        3.6730     3.0090    -0.7070 H     1 <1>   0.0800 
 37 H        2.2510     3.6740     0.0570 H     1 <1>   0.0800 
 38 H       -4.1650     0.8210    -1.0230 H     1 <1>   0.0800 
 39 H       -6.1500     1.5530    -1.6380 H     1 <1>   0.3700 
 40 H       -8.3140     1.9860    -1.7510 H     1 <1>   0.0800 
 41 H       -7.8930     2.8550     0.5580 H     1 <1>   0.0800 
 42 H       -8.5840     1.3950     1.2000 H     1 <1>   0.0800 
 43 H       -8.5570    -0.7160    -0.4430 H     1 <1>   0.0800 
 44 H       -8.4440    -0.3760    -2.1400 H     1 <1>   0.0800 
 45 H      -10.0820     3.0800    -0.8140 H     1 <1>   0.0800 
 46 H      -10.0530     3.5420     0.8490 H     1 <1>   0.0800 
 47 H      -10.7000    -0.8630    -1.6910 H     1 <1>   0.0800 
 48 H      -10.6550     0.8430    -1.9960 H     1 <1>   0.0800 
 49 H      -12.0390     2.1700     0.0280 H     1 <1>   0.0800 
 50 H      -11.3380     1.7730     1.5580 H     1 <1>   0.0800 
 51 H      -10.4560    -0.2430     0.8190 H     1 <1>   0.0800 
 52 H      -11.9960    -0.1430     0.0470 H     1 <1>   0.0800 
@<TRIPOS>BOND
  1   1   2  2   
  2   1   3  2   
  3   1   4  am  
  4   1   5  1   
  5   4   6  1   
  6   4   7  1   
  7   5   8  1   
  8   5  23  1   
  9   5  24  1   
 10   6   9  1   
 11   6  25  1   
 12   6  26  1   
 13   7  10  1   
 14   7  27  1   
 15   7  28  1   
 16   8  11  1   
 17   8  29  1   
 18   8  30  1   
 19   9  12  1   
 20   9  31  1   
 21   9  32  1   
 22  10  12  1   
 23  10  33  1   
 24  10  34  1   
 25  11  35  1   
 26  11  36  1   
 27  11  37  1   
 28  12  13  1   
 29  12  38  1   
 30  13  14  2   
 31  13  15  am  
 32  15  16  1   
 33  15  39  1   
 34  16  17  1   
 35  16  18  1   
 36  16  40  1   
 37  17  19  1   
 38  17  41  1   
 39  17  42  1   
 40  18  20  1   
 41  18  43  1   
 42  18  44  1   
 43  19  21  1   
 44  19  45  1   
 45  19  46  1   
 46  20  22  1   
 47  20  47  1   
 48  20  48  1   
 49  21  22  1   
 50  21  49  1   
 51  21  50  1   
 52  22  51  1   
 53  22  52  1   
@<TRIPOS>SUBSTRUCTURE
  1 ****  12 GROUP 4 **** **** 0

# MOE 2024.06 (io_trps.svl 2023.06)
