@<TRIPOS>MOLECULE
NONAME
37 37 1 0 0 
SMALL
USER_CHARGES


@<TRIPOS>ATOM
  1 I        0.1410    -1.1920    -1.2910 I     1 <1>  -0.0810 
  2 C        2.1150    -0.7130    -0.6690 C.ar  1 <1>   0.0810 
  3 C        2.7380     0.3910    -1.2180 C.ar  1 <1>  -0.1500 
  4 C        2.7310    -1.5150     0.2720 C.ar  1 <1>  -0.1500 
  5 C        4.0240     0.6950    -0.8070 C.ar  1 <1>  -0.1500 
  6 C        4.0170    -1.1930     0.6680 C.ar  1 <1>  -0.1500 
  7 C        4.6960    -0.0910     0.1380 C.ar  1 <1>   0.0860 
  8 C        6.0510     0.2160     0.5660 C.2   1 <1>   0.5440 
  9 O        6.4650    -0.1490     1.6480 O.2   1 <1>  -0.5700 
 10 N        6.9030     0.9110    -0.2410 N.am  1 <1>  -0.7300 
 11 C        8.2610     1.3860     0.1470 C.3   1 <1>   0.2810 
 12 C        8.5490     2.7880    -0.4200 C.2   1 <1>   0.6590 
 13 C        9.2740     0.3310    -0.3310 C.3   1 <1>  -0.1600 
 14 O        8.0470     3.1720    -1.4490 O.2   1 <1>  -0.5700 
 15 O        9.3800     3.5530     0.2830 O.3   1 <1>  -0.4300 
 16 C       10.7100     0.6020     0.1580 C.3   1 <1>  -0.0990 
 17 C        9.7240     4.8580    -0.1370 C.3   1 <1>   0.0400 
 18 C       11.6680    -0.4870    -0.2790 C.2   1 <1>   0.6590 
 19 O       12.4410    -0.3180    -1.1850 O.2   1 <1>  -0.5700 
 20 O       11.5980    -1.6280     0.3940 O.3   1 <1>  -0.4300 
 21 C       12.4310    -2.7240     0.0810 C.3   1 <1>   0.0400 
 22 H        2.2300     0.9990    -1.9460 H     1 <1>   0.1500 
 23 H        2.2210    -2.3670     0.6870 H     1 <1>   0.1500 
 24 H        4.5080     1.5600    -1.2230 H     1 <1>   0.1500 
 25 H        4.5140    -1.8050     1.4030 H     1 <1>   0.1500 
 26 H        6.5980     1.2420    -1.1600 H     1 <1>   0.3700 
 27 H        8.3080     1.4530     1.2200 H     1 <1>   0.0800 
 28 H        9.2680     0.2930    -1.4070 H     1 <1>   0.0800 
 29 H        8.9640    -0.6300     0.0430 H     1 <1>   0.0800 
 30 H       10.7300     0.6600     1.2310 H     1 <1>   0.0800 
 31 H       11.0700     1.5340    -0.2370 H     1 <1>   0.0800 
 32 H       10.4020     5.2810     0.5830 H     1 <1>   0.0800 
 33 H        8.8280     5.4520    -0.1960 H     1 <1>   0.0800 
 34 H       10.1950     4.8000    -1.1030 H     1 <1>   0.0800 
 35 H       12.1980    -3.5320     0.7510 H     1 <1>   0.0800 
 36 H       13.4590    -2.4260     0.2000 H     1 <1>   0.0800 
 37 H       12.2470    -3.0210    -0.9380 H     1 <1>   0.0800 
@<TRIPOS>BOND
  1   1   2  1   
  2   2   3  ar  
  3   2   4  ar  
  4   3   5  ar  
  5   3  22  1   
  6   4   6  ar  
  7   4  23  1   
  8   5   7  ar  
  9   5  24  1   
 10   6   7  ar  
 11   6  25  1   
 12   7   8  1   
 13   8   9  2   
 14   8  10  am  
 15  10  11  1   
 16  10  26  1   
 17  11  12  1   
 18  11  13  1   
 19  11  27  1   
 20  12  14  2   
 21  12  15  1   
 22  13  16  1   
 23  13  28  1   
 24  13  29  1   
 25  15  17  1   
 26  16  18  1   
 27  16  30  1   
 28  16  31  1   
 29  17  32  1   
 30  17  33  1   
 31  17  34  1   
 32  18  19  2   
 33  18  20  1   
 34  20  21  1   
 35  21  35  1   
 36  21  36  1   
 37  21  37  1   
@<TRIPOS>SUBSTRUCTURE
  1 ****  10 GROUP 4 **** **** 0

# MOE 2024.06 (io_trps.svl 2023.06)
