@<TRIPOS>MOLECULE
NONAME
37 39 1 0 0 
SMALL
USER_CHARGES


@<TRIPOS>ATOM
  1 O       -0.7630     1.1790    -2.0990 O.2   1 <1>  -0.5700 
  2 C       -1.2190     1.5270    -1.0380 C.2   1 <1>   0.5690 
  3 N       -0.7210     2.4700    -0.1890 N.am  1 <1>  -0.0840 
  4 C       -2.4700     0.9120    -0.4470 C.3   1 <1>  -0.0990 
  5 O        0.3730     3.2930    -0.4970 O.3   1 <1>  -0.3160 
  6 C       -1.4560     2.5870     0.9530 C.2   1 <1>   0.5690 
  7 C       -2.6320     1.6340     0.9090 C.3   1 <1>  -0.0990 
  8 C        1.5690     2.6980    -0.0380 C.3   1 <1>   0.1200 
  9 O       -1.2380     3.3070     1.8970 O.2   1 <1>  -0.5700 
 10 C        2.7290     3.6200    -0.3910 C.3   1 <1>   0.1200 
 11 O        3.9240     3.0250     0.0680 O.3   1 <1>  -0.3630 
 12 C        5.1240     3.6310    -0.1120 C.ar  1 <1>   0.0820 
 13 C        6.2380     2.9630     0.3770 C.ar  1 <1>  -0.1500 
 14 C        5.2830     4.8640    -0.7500 C.ar  1 <1>  -0.1500 
 15 C        7.4900     3.5270     0.2260 C.ar  1 <1>  -0.1440 
 16 C        6.5450     5.4190    -0.8960 C.ar  1 <1>  -0.1500 
 17 C        7.6420     4.7370    -0.4010 C.ar  1 <1>  -0.1430 
 18 C        8.8180     2.9730     0.6790 C.3   1 <1>  -0.0170 
 19 C        9.0910     5.1520    -0.4500 C.3   1 <1>  -0.0170 
 20 C        9.7770     4.1640     0.5100 C.3   1 <1>  -0.1600 
 21 H       -2.3320    -0.1470    -0.3180 H     1 <1>   0.0800 
 22 H       -3.3080     1.0960    -1.0950 H     1 <1>   0.0800 
 23 H       -2.5760     0.9460     1.7330 H     1 <1>   0.0800 
 24 H       -3.5520     2.1880     0.9550 H     1 <1>   0.0800 
 25 H        1.6880     1.7470    -0.5270 H     1 <1>   0.0800 
 26 H        1.5030     2.5760     1.0300 H     1 <1>   0.0800 
 27 H        2.6150     4.5710     0.1000 H     1 <1>   0.0800 
 28 H        2.8000     3.7410    -1.4570 H     1 <1>   0.0800 
 29 H        6.1160     2.0150     0.8680 H     1 <1>   0.1500 
 30 H        4.4410     5.4030    -1.1380 H     1 <1>   0.1500 
 31 H        6.6710     6.3670    -1.3870 H     1 <1>   0.1500 
 32 H        9.1030     2.1590     0.0360 H     1 <1>   0.0800 
 33 H        8.7780     2.6380     1.7010 H     1 <1>   0.0800 
 34 H        9.2230     6.1700    -0.1300 H     1 <1>   0.0800 
 35 H        9.4640     5.0300    -1.4510 H     1 <1>   0.0800 
 36 H       10.7400     3.8530     0.1440 H     1 <1>   0.0800 
 37 H        9.9040     4.6430     1.4650 H     1 <1>   0.0800 
@<TRIPOS>BOND
  1   1   2  2   
  2   2   3  am  
  3   2   4  1   
  4   3   5  1   
  5   3   6  am  
  6   4   7  1   
  7   4  21  1   
  8   4  22  1   
  9   5   8  1   
 10   6   7  1   
 11   6   9  2   
 12   7  23  1   
 13   7  24  1   
 14   8  10  1   
 15   8  25  1   
 16   8  26  1   
 17  10  11  1   
 18  10  27  1   
 19  10  28  1   
 20  11  12  1   
 21  12  13  ar  
 22  12  14  ar  
 23  13  15  ar  
 24  13  29  1   
 25  14  16  ar  
 26  14  30  1   
 27  15  17  ar  
 28  15  18  1   
 29  16  17  ar  
 30  16  31  1   
 31  17  19  1   
 32  18  20  1   
 33  18  32  1   
 34  18  33  1   
 35  19  20  1   
 36  19  34  1   
 37  19  35  1   
 38  20  36  1   
 39  20  37  1   
@<TRIPOS>SUBSTRUCTURE
  1 ****  10 GROUP 4 **** **** 0

# MOE 2024.06 (io_trps.svl 2023.06)
