@<TRIPOS>MOLECULE
NONAME
39 40 1 0 0 
SMALL
USER_CHARGES


@<TRIPOS>ATOM
  1 O        0.9660    -0.1660     1.5130 O.2   1 <1>  -0.5700 
  2 C        1.6990    -0.7140     0.7240 C.2   1 <1>   0.4950 
  3 C        2.6280    -0.0100    -0.1090 C.2   1 <1>   0.0290 
  4 C        1.5620    -2.2240     0.6650 C.3   1 <1>  -0.0990 
  5 C        3.4480    -0.7680    -1.0150 C.2   1 <1>   0.4950 
  6 C        2.7040     1.3660    -0.0130 C.2   1 <1>  -0.0500 
  7 C        2.8590    -2.8910     0.2100 C.3   1 <1>   0.0640 
  8 O        4.2810    -0.2930    -1.7550 O.2   1 <1>  -0.5700 
  9 C        3.3110    -2.2770    -1.1130 C.3   1 <1>  -0.0990 
 10 N        3.5200     2.1770    -0.7280 N.pl3 1 <1>  -0.8690 
 11 C        2.6980    -4.4040     0.0980 C.ar  1 <1>  -0.1430 
 12 C        3.6010     3.6570    -0.6280 C.3   1 <1>   0.2090 
 13 C        1.7900    -4.9750    -0.7850 C.ar  1 <1>  -0.1500 
 14 C        3.4720    -5.2370     0.8940 C.ar  1 <1>  -0.1500 
 15 C        4.9660     4.0700    -0.0780 C.3   1 <1>   0.1200 
 16 C        1.6600    -6.3510    -0.8700 C.ar  1 <1>  -0.1500 
 17 C        3.3430    -6.6130     0.8100 C.ar  1 <1>  -0.1500 
 18 O        5.0280     5.4620    -0.0220 O.3   1 <1>  -0.5600 
 19 C        2.4370    -7.1710    -0.0720 C.ar  1 <1>  -0.1500 
 20 C        6.2290     5.9500     0.4800 C.3   1 <1>   0.0400 
 21 H        0.7540    -2.4640    -0.0010 H     1 <1>   0.0800 
 22 H        1.3020    -2.5930     1.6420 H     1 <1>   0.0800 
 23 H        2.0570     1.8630     0.6960 H     1 <1>   0.1500 
 24 H        3.6160    -2.6790     0.9470 H     1 <1>   0.0800 
 25 H        4.2610    -2.7000    -1.3890 H     1 <1>   0.0800 
 26 H        2.6130    -2.5020    -1.8990 H     1 <1>   0.0800 
 27 H        4.1530     1.7460    -1.4290 H     1 <1>   0.4000 
 28 H        2.8280     4.0180     0.0280 H     1 <1>   0.0800 
 29 H        3.4600     4.0860    -1.6050 H     1 <1>   0.0800 
 30 H        1.1750    -4.3600    -1.4160 H     1 <1>   0.1500 
 31 H        4.1840    -4.8250     1.5880 H     1 <1>   0.1500 
 32 H        5.7490     3.7170    -0.7260 H     1 <1>   0.0800 
 33 H        5.0940     3.6770     0.9160 H     1 <1>   0.0800 
 34 H        0.9550    -6.7840    -1.5570 H     1 <1>   0.1500 
 35 H        3.9490    -7.2490     1.4320 H     1 <1>   0.1500 
 36 H        2.3360    -8.2400    -0.1380 H     1 <1>   0.1500 
 37 H        6.1790     7.0250     0.4830 H     1 <1>   0.0800 
 38 H        7.0370     5.6260    -0.1520 H     1 <1>   0.0800 
 39 H        6.3670     5.5910     1.4860 H     1 <1>   0.0800 
@<TRIPOS>BOND
  1   1   2  2   
  2   2   3  1   
  3   2   4  1   
  4   3   5  1   
  5   3   6  2   
  6   4   7  1   
  7   4  21  1   
  8   4  22  1   
  9   5   8  2   
 10   5   9  1   
 11   6  10  1   
 12   6  23  1   
 13   7   9  1   
 14   7  11  1   
 15   7  24  1   
 16   9  25  1   
 17   9  26  1   
 18  10  12  1   
 19  10  27  1   
 20  11  13  ar  
 21  11  14  ar  
 22  12  15  1   
 23  12  28  1   
 24  12  29  1   
 25  13  16  ar  
 26  13  30  1   
 27  14  17  ar  
 28  14  31  1   
 29  15  18  1   
 30  15  32  1   
 31  15  33  1   
 32  16  19  ar  
 33  16  34  1   
 34  17  19  ar  
 35  17  35  1   
 36  18  20  1   
 37  19  36  1   
 38  20  37  1   
 39  20  38  1   
 40  20  39  1   
@<TRIPOS>SUBSTRUCTURE
  1 ****   5 GROUP 4 **** **** 0

# MOE 2024.06 (io_trps.svl 2023.06)
