@<TRIPOS>MOLECULE
NONAME
28 28 1 0 0 
SMALL
USER_CHARGES


@<TRIPOS>ATOM
  1 CL      -1.5330     1.7910    -2.3160 Cl    1 <1>  -0.1770 
  2 C       -0.6950     2.5710    -0.9940 C.ar  1 <1>   0.1770 
  3 C       -1.1820     2.5160     0.3200 C.ar  1 <1>   0.0860 
  4 C        0.4750     3.2320    -1.3220 C.ar  1 <1>  -0.1500 
  5 C       -2.4090     1.8450     0.7080 C.2   1 <1>   0.5440 
  6 C       -0.4170     3.1550     1.3050 C.ar  1 <1>  -0.1500 
  7 C        1.1830     3.8490    -0.3120 C.ar  1 <1>   0.1900 
  8 O       -2.4820     1.3000     1.7920 O.2   1 <1>  -0.5700 
  9 N       -3.5150     1.8330    -0.0950 N.am  1 <1>  -0.7300 
 10 C        0.7580     3.8210     1.0010 C.ar  1 <1>  -0.1500 
 11 F        2.2860     4.4760    -0.6070 F     1 <1>  -0.1900 
 12 C       -4.8080     1.2000     0.2340 C.3   1 <1>   0.1400 
 13 C       -5.9420     2.0840    -0.2860 C.3   1 <1>  -0.1600 
 14 C       -7.3110     1.4720     0.0320 C.3   1 <1>  -0.1600 
 15 C       -8.4460     2.3580    -0.4890 C.3   1 <1>  -0.2400 
 16 H        0.8290     3.2630    -2.3350 H     1 <1>   0.1500 
 17 H       -0.7570     3.1240     2.3280 H     1 <1>   0.1500 
 18 H       -3.4270     2.1670    -1.0580 H     1 <1>   0.3700 
 19 H        1.3360     4.3100     1.7660 H     1 <1>   0.1500 
 20 H       -4.8970     1.0780     1.3010 H     1 <1>   0.0800 
 21 H       -4.8520     0.2270    -0.2250 H     1 <1>   0.0800 
 22 H       -5.8440     2.1990    -1.3520 H     1 <1>   0.0800 
 23 H       -5.8700     3.0530     0.1760 H     1 <1>   0.0800 
 24 H       -7.4160     1.3540     1.0980 H     1 <1>   0.0800 
 25 H       -7.3880     0.4970    -0.4200 H     1 <1>   0.0800 
 26 H       -8.4020     3.3320    -0.0320 H     1 <1>   0.0800 
 27 H       -9.3970     1.9140    -0.2540 H     1 <1>   0.0800 
 28 H       -8.3760     2.4720    -1.5560 H     1 <1>   0.0800 
@<TRIPOS>BOND
  1   1   2  1   
  2   2   3  ar  
  3   2   4  ar  
  4   3   5  1   
  5   3   6  ar  
  6   4   7  ar  
  7   4  16  1   
  8   5   8  2   
  9   5   9  am  
 10   6  10  ar  
 11   6  17  1   
 12   7  10  ar  
 13   7  11  1   
 14   9  12  1   
 15   9  18  1   
 16  10  19  1   
 17  12  13  1   
 18  12  20  1   
 19  12  21  1   
 20  13  14  1   
 21  13  22  1   
 22  13  23  1   
 23  14  15  1   
 24  14  24  1   
 25  14  25  1   
 26  15  26  1   
 27  15  27  1   
 28  15  28  1   
@<TRIPOS>SUBSTRUCTURE
  1 ****   5 GROUP 4 **** **** 0

# MOE 2024.06 (io_trps.svl 2023.06)
