@<TRIPOS>MOLECULE
NONAME
50 51 1 0 0 
SMALL
USER_CHARGES


@<TRIPOS>ATOM
  1 O       -0.2980     0.2840     0.5520 O.2   1 <1>  -0.5700 
  2 C       -0.2900    -0.9040     0.3470 C.2   1 <1>   0.5690 
  3 N       -1.3350    -1.5420    -0.2290 N.am  1 <1>  -0.7300 
  4 C        0.9280    -1.7100     0.7400 C.3   1 <1>  -0.0990 
  5 C       -2.6070    -0.9020    -0.5720 C.3   1 <1>   0.3640 
  6 C        2.0630    -1.5210    -0.2710 C.3   1 <1>  -0.0160 
  7 C       -3.7230    -1.9140    -0.3340 C.ar  1 <1>  -0.1440 
  8 C       -2.5480    -0.4240    -2.0210 C.3   1 <1>  -0.2400 
  9 C        3.2720    -2.3560     0.1220 C.ar  1 <1>  -0.1430 
 10 C       -4.6250    -1.7030     0.7000 C.ar  1 <1>  -0.1500 
 11 C       -3.8550    -3.0520    -1.1190 C.ar  1 <1>  -0.1500 
 12 C        4.1730    -1.8740     1.0590 C.ar  1 <1>  -0.1500 
 13 C        3.4860    -3.6020    -0.4480 C.ar  1 <1>  -0.1500 
 14 C       -5.6520    -2.6080     0.9520 C.ar  1 <1>   0.0830 
 15 C       -4.8730    -3.9590    -0.8810 C.ar  1 <1>  -0.1500 
 16 C        5.2730    -2.6310     1.4220 C.ar  1 <1>  -0.1500 
 17 C        4.5860    -4.3610    -0.0870 C.ar  1 <1>  -0.1500 
 18 O       -6.5540    -2.4290     1.9610 O.3   1 <1>  -0.3630 
 19 C       -5.7790    -3.7470     0.1530 C.ar  1 <1>   0.0830 
 20 C        5.4890    -3.8760     0.8550 C.ar  1 <1>   0.0830 
 21 C       -6.4880    -1.3240     2.8340 C.3   1 <1>   0.0400 
 22 O       -6.7980    -4.6140     0.4250 O.3   1 <1>  -0.3630 
 23 O        6.5920    -4.5520     1.2650 O.3   1 <1>  -0.3620 
 24 C       -7.0240    -5.7650    -0.3560 C.3   1 <1>   0.0400 
 25 C        6.9180    -5.8160     0.7320 C.3   1 <1>   0.0400 
 26 H       -1.3460    -2.5570    -0.3140 H     1 <1>   0.3700 
 27 H        0.6710    -2.7510     0.8090 H     1 <1>   0.0800 
 28 H        1.2530    -1.3840     1.7110 H     1 <1>   0.0800 
 29 H       -2.7550    -0.0450     0.0650 H     1 <1>   0.0800 
 30 H        2.3410    -0.4810    -0.3110 H     1 <1>   0.0800 
 31 H        1.7270    -1.8040    -1.2540 H     1 <1>   0.0800 
 32 H       -2.3100    -1.2300    -2.6900 H     1 <1>   0.0800 
 33 H       -1.8030     0.3450    -2.1150 H     1 <1>   0.0800 
 34 H       -3.4990    -0.0100    -2.3020 H     1 <1>   0.0800 
 35 H       -4.5110    -0.8250     1.3060 H     1 <1>   0.1500 
 36 H       -3.1680    -3.2410    -1.9240 H     1 <1>   0.1500 
 37 H        4.0210    -0.9090     1.5100 H     1 <1>   0.1500 
 38 H        2.7960    -3.9880    -1.1770 H     1 <1>   0.1500 
 39 H       -4.9410    -4.8240    -1.5120 H     1 <1>   0.1500 
 40 H        5.9720    -2.2590     2.1490 H     1 <1>   0.1500 
 41 H        4.7240    -5.3210    -0.5460 H     1 <1>   0.1500 
 42 H       -7.2920    -1.4130     3.5420 H     1 <1>   0.0800 
 43 H       -6.6030    -0.4210     2.2630 H     1 <1>   0.0800 
 44 H       -5.5450    -1.3420     3.3490 H     1 <1>   0.0800 
 45 H       -7.8840    -6.2720     0.0430 H     1 <1>   0.0800 
 46 H       -6.1620    -6.4050    -0.2920 H     1 <1>   0.0800 
 47 H       -7.2140    -5.4670    -1.3710 H     1 <1>   0.0800 
 48 H        7.8280    -6.1490     1.1960 H     1 <1>   0.0800 
 49 H        7.0620    -5.7200    -0.3300 H     1 <1>   0.0800 
 50 H        6.1210    -6.5040     0.9540 H     1 <1>   0.0800 
@<TRIPOS>BOND
  1   1   2  2   
  2   2   3  am  
  3   2   4  1   
  4   3   5  1   
  5   3  26  1   
  6   4   6  1   
  7   4  27  1   
  8   4  28  1   
  9   5   7  1   
 10   5   8  1   
 11   5  29  1   
 12   6   9  1   
 13   6  30  1   
 14   6  31  1   
 15   7  10  ar  
 16   7  11  ar  
 17   8  32  1   
 18   8  33  1   
 19   8  34  1   
 20   9  12  ar  
 21   9  13  ar  
 22  10  14  ar  
 23  10  35  1   
 24  11  15  ar  
 25  11  36  1   
 26  12  16  ar  
 27  12  37  1   
 28  13  17  ar  
 29  13  38  1   
 30  14  18  1   
 31  14  19  ar  
 32  15  19  ar  
 33  15  39  1   
 34  16  20  ar  
 35  16  40  1   
 36  17  20  ar  
 37  17  41  1   
 38  18  21  1   
 39  19  22  1   
 40  20  23  1   
 41  21  42  1   
 42  21  43  1   
 43  21  44  1   
 44  22  24  1   
 45  23  25  1   
 46  24  45  1   
 47  24  46  1   
 48  24  47  1   
 49  25  48  1   
 50  25  49  1   
 51  25  50  1   
@<TRIPOS>SUBSTRUCTURE
  1 ****   3 GROUP 4 **** **** 0

# MOE 2024.06 (io_trps.svl 2023.06)
