@<TRIPOS>MOLECULE
NONAME
50 52 1 0 0 
SMALL
USER_CHARGES


@<TRIPOS>ATOM
  1 F       -2.5030     1.1150     2.8930 F     1 <1>  -0.3400 
  2 C       -3.0590     1.3220     1.7100 C.3   1 <1>   1.1640 
  3 F       -4.2790     1.8060     1.9420 F     1 <1>  -0.3400 
  4 F       -3.2520     0.1320     1.1590 F     1 <1>  -0.3400 
  5 C       -2.2820     2.2670     0.7740 C.ar  1 <1>  -0.1440 
  6 C       -2.6780     2.4960    -0.5530 C.ar  1 <1>  -0.1440 
  7 C       -1.1520     2.9250     1.2540 C.ar  1 <1>  -0.1500 
  8 C       -1.9330     3.3500    -1.3560 C.ar  1 <1>  -0.1500 
  9 C       -3.9060     1.8450    -1.1850 C.3   1 <1>   0.4870 
 10 C       -0.4270     3.7800     0.4480 C.ar  1 <1>  -0.1500 
 11 C       -0.8160     3.9920    -0.8590 C.ar  1 <1>  -0.1500 
 12 N       -5.1500     2.5080    -0.6730 N.4   1 <1>  -0.9590 
 13 C       -6.3650     1.7850    -1.1390 C.3   1 <1>   0.3430 
 14 C       -5.1680     3.9670    -0.9920 C.3   1 <1>   0.3430 
 15 C       -7.6100     2.4110    -0.5070 C.3   1 <1>  -0.1600 
 16 C       -6.3980     4.6160    -0.3580 C.3   1 <1>  -0.1600 
 17 C       -7.6810     3.9140    -0.8130 C.3   1 <1>   0.4230 
 18 N       -8.8780     4.5710    -0.2030 N.4   1 <1>  -0.9590 
 19 C       -9.0260     4.4050     1.2820 C.3   1 <1>   0.3430 
 20 C      -10.1440     4.1900    -0.9070 C.3   1 <1>   0.3430 
 21 C      -10.1450     5.3130     1.7940 C.3   1 <1>  -0.1600 
 22 C      -11.2870     5.0930    -0.4420 C.3   1 <1>  -0.1600 
 23 C      -11.4730     5.0360     1.0790 C.3   1 <1>  -0.1600 
 24 H       -0.8130     2.7810     2.2690 H     1 <1>   0.1500 
 25 H       -2.2030     3.5280    -2.3840 H     1 <1>   0.1500 
 26 H       -3.9200     0.7920    -0.9520 H     1 <1>   0.0800 
 27 H       -3.8510     1.9420    -2.2570 H     1 <1>   0.0800 
 28 H        0.4460     4.2790     0.8370 H     1 <1>   0.1500 
 29 H       -0.2420     4.6530    -1.4870 H     1 <1>   0.1500 
 30 H       -5.1010     2.4190     0.3550 H     1 <1>   0.4500 
 31 H       -6.3050     0.7440    -0.8590 H     1 <1>   0.0800 
 32 H       -6.4340     1.8390    -2.2150 H     1 <1>   0.0800 
 33 H       -5.1850     4.1090    -2.0610 H     1 <1>   0.0800 
 34 H       -4.2770     4.4420    -0.6070 H     1 <1>   0.0800 
 35 H       -7.5780     2.2290     0.5530 H     1 <1>   0.0800 
 36 H       -8.4740     1.9120    -0.9070 H     1 <1>   0.0800 
 37 H       -6.4250     5.6490    -0.6560 H     1 <1>   0.0800 
 38 H       -6.2890     4.5780     0.7110 H     1 <1>   0.0800 
 39 H       -7.7490     4.0300    -1.8840 H     1 <1>   0.0800 
 40 H       -8.7880     5.5860    -0.3540 H     1 <1>   0.4500 
 41 H       -8.1090     4.6640     1.7860 H     1 <1>   0.0800 
 42 H       -9.2670     3.3810     1.5160 H     1 <1>   0.0800 
 43 H      -10.3920     3.1630    -0.6910 H     1 <1>   0.0800 
 44 H      -10.0260     4.2950    -1.9740 H     1 <1>   0.0800 
 45 H       -9.8640     6.3440     1.6610 H     1 <1>   0.0800 
 46 H      -10.2740     5.1530     2.8510 H     1 <1>   0.0800 
 47 H      -12.2000     4.7800    -0.9200 H     1 <1>   0.0800 
 48 H      -11.0970     6.1060    -0.7520 H     1 <1>   0.0800 
 49 H      -12.2110     5.7600     1.3850 H     1 <1>   0.0800 
 50 H      -11.8380     4.0620     1.3620 H     1 <1>   0.0800 
@<TRIPOS>BOND
  1   1   2  1   
  2   2   3  1   
  3   2   4  1   
  4   2   5  1   
  5   5   6  ar  
  6   5   7  ar  
  7   6   8  ar  
  8   6   9  1   
  9   7  10  ar  
 10   7  24  1   
 11   8  11  ar  
 12   8  25  1   
 13   9  12  1   
 14   9  26  1   
 15   9  27  1   
 16  10  11  ar  
 17  10  28  1   
 18  11  29  1   
 19  12  13  1   
 20  12  14  1   
 21  12  30  1   
 22  13  15  1   
 23  13  31  1   
 24  13  32  1   
 25  14  16  1   
 26  14  33  1   
 27  14  34  1   
 28  15  17  1   
 29  15  35  1   
 30  15  36  1   
 31  16  17  1   
 32  16  37  1   
 33  16  38  1   
 34  17  18  1   
 35  17  39  1   
 36  18  19  1   
 37  18  20  1   
 38  18  40  1   
 39  19  21  1   
 40  19  41  1   
 41  19  42  1   
 42  20  22  1   
 43  20  43  1   
 44  20  44  1   
 45  21  23  1   
 46  21  45  1   
 47  21  46  1   
 48  22  23  1   
 49  22  47  1   
 50  22  48  1   
 51  23  49  1   
 52  23  50  1   
@<TRIPOS>SUBSTRUCTURE
  1 ****  12 GROUP 4 **** **** 0

# MOE 2024.06 (io_trps.svl 2023.06)
