@<TRIPOS>MOLECULE
NONAME
40 41 1 0 0 
SMALL
USER_CHARGES


@<TRIPOS>ATOM
  1 O       -0.4060    -0.9140     1.4260 O.2   1 <1>  -0.5700 
  2 C       -0.4030    -1.7000     0.4980 C.2   1 <1>   0.5440 
  3 N        0.7490    -1.8710    -0.2180 N.am  1 <1>  -0.7300 
  4 C       -1.6030    -2.4360     0.1430 C.ar  1 <1>   0.0860 
  5 C        2.0320    -1.1970     0.0430 C.3   1 <1>   0.2200 
  6 C       -2.8670    -1.8790     0.3290 C.ar  1 <1>  -0.1500 
  7 C       -1.5440    -3.7230    -0.3960 C.ar  1 <1>  -0.1500 
  8 C        2.3340    -0.2410    -1.1150 C.3   1 <1>  -0.1600 
  9 C        3.1260    -2.2590     0.1890 C.3   1 <1>  -0.1600 
 10 C       -4.0240    -2.5570    -0.0140 C.ar  1 <1>   0.0830 
 11 C       -2.6910    -4.4130    -0.7440 C.ar  1 <1>  -0.1500 
 12 C        3.7160     0.4090    -0.9530 C.3   1 <1>  -0.1600 
 13 C        4.5090    -1.6120     0.3540 C.3   1 <1>  -0.1600 
 14 O       -5.1960    -1.9130     0.2080 O.3   1 <1>  -0.3630 
 15 C       -3.9330    -3.8350    -0.5580 C.ar  1 <1>  -0.1500 
 16 C        4.8150    -0.6520    -0.8040 C.3   1 <1>  -0.1600 
 17 C       -6.4350    -2.5370    -0.0380 C.3   1 <1>   0.2580 
 18 C       -7.5350    -1.5680     0.3500 C.2   1 <1>  -0.2880 
 19 C       -8.5170    -1.1440    -0.4520 C.2   1 <1>  -0.3000 
 20 H        0.7250    -2.4300    -1.0680 H     1 <1>   0.3700 
 21 H        1.9690    -0.6310     0.9590 H     1 <1>   0.0800 
 22 H       -2.9480    -0.8930     0.7520 H     1 <1>   0.1500 
 23 H       -0.5880    -4.1940    -0.5350 H     1 <1>   0.1500 
 24 H        1.5810     0.5270    -1.1440 H     1 <1>   0.0800 
 25 H        2.3080    -0.7810    -2.0460 H     1 <1>   0.0800 
 26 H        3.1370    -2.8890    -0.6830 H     1 <1>   0.0800 
 27 H        2.9140    -2.8680     1.0500 H     1 <1>   0.0800 
 28 H       -2.6180    -5.4040    -1.1590 H     1 <1>   0.1500 
 29 H        3.7100     1.0410    -0.0800 H     1 <1>   0.0800 
 30 H        3.9250     1.0300    -1.8070 H     1 <1>   0.0800 
 31 H        5.2640    -2.3780     0.3980 H     1 <1>   0.0800 
 32 H        4.5380    -1.0680     1.2840 H     1 <1>   0.0800 
 33 H       -4.8080    -4.3910    -0.8380 H     1 <1>   0.1500 
 34 H        5.7610    -0.1680    -0.6300 H     1 <1>   0.0800 
 35 H        4.8960    -1.2120    -1.7190 H     1 <1>   0.0800 
 36 H       -6.4920    -3.4280     0.5620 H     1 <1>   0.0800 
 37 H       -6.4930    -2.7830    -1.0830 H     1 <1>   0.0800 
 38 H       -7.4390    -1.2410     1.3720 H     1 <1>   0.1500 
 39 H       -9.2830    -0.4520    -0.1460 H     1 <1>   0.1500 
 40 H       -8.6400    -1.4470    -1.4780 H     1 <1>   0.1500 
@<TRIPOS>BOND
  1   1   2  2   
  2   2   3  am  
  3   2   4  1   
  4   3   5  1   
  5   3  20  1   
  6   4   6  ar  
  7   4   7  ar  
  8   5   8  1   
  9   5   9  1   
 10   5  21  1   
 11   6  10  ar  
 12   6  22  1   
 13   7  11  ar  
 14   7  23  1   
 15   8  12  1   
 16   8  24  1   
 17   8  25  1   
 18   9  13  1   
 19   9  26  1   
 20   9  27  1   
 21  10  14  1   
 22  10  15  ar  
 23  11  15  ar  
 24  11  28  1   
 25  12  16  1   
 26  12  29  1   
 27  12  30  1   
 28  13  16  1   
 29  13  31  1   
 30  13  32  1   
 31  14  17  1   
 32  15  33  1   
 33  16  34  1   
 34  16  35  1   
 35  17  18  1   
 36  17  36  1   
 37  17  37  1   
 38  18  19  2   
 39  18  38  1   
 40  19  39  1   
 41  19  40  1   
@<TRIPOS>SUBSTRUCTURE
  1 ****   4 GROUP 4 **** **** 0

# MOE 2024.06 (io_trps.svl 2023.06)
