@<TRIPOS>MOLECULE
NONAME
54 56 1 0 0 
SMALL
USER_CHARGES


@<TRIPOS>ATOM
  1 O       -0.6060     0.6910    -0.8520 O.2   1 <1>  -0.5700 
  2 C       -1.1060     1.7840    -0.7480 C.2   1 <1>   0.5690 
  3 N       -2.3750     2.0150    -1.2210 N.am  1 <1>  -0.6600 
  4 C       -0.3150     2.8910    -0.0570 C.3   1 <1>  -0.0990 
  5 C       -3.0510     1.0040    -2.0940 C.3   1 <1>   0.1400 
  6 C       -3.2620     3.1390    -0.7900 C.3   1 <1>   0.1400 
  7 C        1.2110     2.6750    -0.0720 C.3   1 <1>  -0.1600 
  8 C       -4.3180     0.4640    -1.4110 C.3   1 <1>   0.3430 
  9 C       -4.5540     2.5930    -0.1450 C.3   1 <1>   0.3430 
 10 C        1.9590     3.8300     0.6030 C.3   1 <1>  -0.0170 
 11 N       -5.2570     1.5760    -1.0150 N.4   1 <1>  -0.9590 
 12 C        3.4610     3.5960     0.5590 C.ar  1 <1>  -0.1440 
 13 C       -6.5190     1.0320    -0.4330 C.3   1 <1>   0.4230 
 14 C        4.2140     4.0830    -0.4980 C.ar  1 <1>  -0.1500 
 15 C        4.0910     2.8940     1.5740 C.ar  1 <1>  -0.1500 
 16 C       -7.5960     2.1250    -0.4030 C.3   1 <1>  -0.1600 
 17 C       -6.3180     0.4180     0.9640 C.3   1 <1>  -0.1600 
 18 C        5.5820     3.8720    -0.5380 C.ar  1 <1>  -0.1500 
 19 C        5.4580     2.6820     1.5360 C.ar  1 <1>  -0.1500 
 20 C       -8.9230     1.5660     0.1310 C.3   1 <1>  -0.1600 
 21 C       -7.6420    -0.1480     1.4990 C.3   1 <1>  -0.1600 
 22 C        6.2050     3.1720     0.4800 C.ar  1 <1>  -0.1500 
 23 C       -8.7400     0.9250     1.5130 C.3   1 <1>  -0.1600 
 24 H       -0.6500     2.9580     0.9620 H     1 <1>   0.0800 
 25 H       -0.5250     3.8220    -0.5500 H     1 <1>   0.0800 
 26 H       -2.3910     0.1810    -2.3080 H     1 <1>   0.0800 
 27 H       -3.3050     1.4600    -3.0340 H     1 <1>   0.0800 
 28 H       -3.5080     3.7450    -1.6450 H     1 <1>   0.0800 
 29 H       -2.7630     3.7680    -0.0760 H     1 <1>   0.0800 
 30 H        1.5490     2.5790    -1.0900 H     1 <1>   0.0800 
 31 H        1.4500     1.7560     0.4360 H     1 <1>   0.0800 
 32 H       -4.0180    -0.0930    -0.5390 H     1 <1>   0.0800 
 33 H       -4.8150    -0.2170    -2.0830 H     1 <1>   0.0800 
 34 H       -5.2150     3.4180     0.0640 H     1 <1>   0.0800 
 35 H       -4.2900     2.1390     0.7950 H     1 <1>   0.0800 
 36 H        1.6440     3.9210     1.6280 H     1 <1>   0.0800 
 37 H        1.7290     4.7570     0.1070 H     1 <1>   0.0800 
 38 H       -5.5250     2.0570    -1.8820 H     1 <1>   0.4500 
 39 H       -6.8820     0.2490    -1.0810 H     1 <1>   0.0800 
 40 H        3.7400     4.6260    -1.2960 H     1 <1>   0.1500 
 41 H        3.5190     2.5060     2.3990 H     1 <1>   0.1500 
 42 H       -7.7600     2.5080    -1.3950 H     1 <1>   0.0800 
 43 H       -7.2940     2.9350     0.2360 H     1 <1>   0.0800 
 44 H       -5.9730     1.1610     1.6600 H     1 <1>   0.0800 
 45 H       -5.6000    -0.3810     0.9260 H     1 <1>   0.0800 
 46 H        6.1600     4.2530    -1.3620 H     1 <1>   0.1500 
 47 H        5.9400     2.1360     2.3280 H     1 <1>   0.1500 
 48 H       -9.3100     0.8290    -0.5540 H     1 <1>   0.0800 
 49 H       -9.6510     2.3570     0.1990 H     1 <1>   0.0800 
 50 H       -7.4980    -0.5240     2.4980 H     1 <1>   0.0800 
 51 H       -7.9600    -0.9740     0.8850 H     1 <1>   0.0800 
 52 H        7.2680     3.0090     0.4490 H     1 <1>   0.1500 
 53 H       -9.6700     0.4820     1.8290 H     1 <1>   0.0800 
 54 H       -8.4870     1.6870     2.2310 H     1 <1>   0.0800 
@<TRIPOS>BOND
  1   1   2  2   
  2   2   3  am  
  3   2   4  1   
  4   3   5  1   
  5   3   6  1   
  6   4   7  1   
  7   4  24  1   
  8   4  25  1   
  9   5   8  1   
 10   5  26  1   
 11   5  27  1   
 12   6   9  1   
 13   6  28  1   
 14   6  29  1   
 15   7  10  1   
 16   7  30  1   
 17   7  31  1   
 18   8  11  1   
 19   8  32  1   
 20   8  33  1   
 21   9  11  1   
 22   9  34  1   
 23   9  35  1   
 24  10  12  1   
 25  10  36  1   
 26  10  37  1   
 27  11  13  1   
 28  11  38  1   
 29  12  14  ar  
 30  12  15  ar  
 31  13  16  1   
 32  13  17  1   
 33  13  39  1   
 34  14  18  ar  
 35  14  40  1   
 36  15  19  ar  
 37  15  41  1   
 38  16  20  1   
 39  16  42  1   
 40  16  43  1   
 41  17  21  1   
 42  17  44  1   
 43  17  45  1   
 44  18  22  ar  
 45  18  46  1   
 46  19  22  ar  
 47  19  47  1   
 48  20  23  1   
 49  20  48  1   
 50  20  49  1   
 51  21  23  1   
 52  21  50  1   
 53  21  51  1   
 54  22  52  1   
 55  23  53  1   
 56  23  54  1   
@<TRIPOS>SUBSTRUCTURE
  1 ****   2 GROUP 4 **** **** 0

# MOE 2024.06 (io_trps.svl 2023.06)
