@<TRIPOS>MOLECULE
NONAME
42 43 1 0 0 
SMALL
USER_CHARGES


@<TRIPOS>ATOM
  1 CL      -3.5810     2.0060    -1.6310 Cl    1 <1>  -0.1770 
  2 C       -2.0520     2.5480    -0.9850 C.ar  1 <1>   0.1770 
  3 C       -1.9310     3.8510    -0.5420 C.ar  1 <1>  -0.1500 
  4 C       -0.9930     1.6630    -0.9230 C.ar  1 <1>  -0.1500 
  5 C       -0.7210     4.2920    -0.0310 C.ar  1 <1>  -0.1440 
  6 C        0.2250     2.0860    -0.4150 C.ar  1 <1>  -0.1440 
  7 C        0.3590     3.4090     0.0110 C.ar  1 <1>   0.0830 
  8 C       -0.6060     5.7220     0.4790 C.3   1 <1>  -0.0960 
  9 C        1.3760     1.0950    -0.3270 C.3   1 <1>  -0.0960 
 10 O        1.5510     3.8380     0.4800 O.3   1 <1>  -0.3630 
 11 C        2.4250     4.3760    -0.4780 C.3   1 <1>   0.1200 
 12 C        3.6960     4.8020     0.2550 C.3   1 <1>  -0.1600 
 13 C        4.7170     5.3730    -0.7260 C.3   1 <1>   0.3430 
 14 N        5.9000     5.9000     0.0060 N.4   1 <1>  -0.9590 
 15 C        6.7900     6.7430    -0.8640 C.3   1 <1>   0.3430 
 16 C        6.7150     4.8530     0.7180 C.3   1 <1>   0.3430 
 17 C        8.0000     7.2940    -0.0720 C.3   1 <1>   0.1200 
 18 C        7.9480     5.4710     1.4170 C.3   1 <1>   0.1200 
 19 O        7.9720     6.8640     1.2630 O.3   1 <1>  -0.5600 
 20 H       -2.7830     4.5040    -0.5980 H     1 <1>   0.1500 
 21 H       -1.1330     0.6550    -1.2680 H     1 <1>   0.1500 
 22 H       -1.5780     6.1250     0.6990 H     1 <1>   0.0800 
 23 H       -0.1370     6.3410    -0.2630 H     1 <1>   0.0800 
 24 H       -0.0220     5.7490     1.3810 H     1 <1>   0.0800 
 25 H        1.0090     0.0840    -0.3450 H     1 <1>   0.0800 
 26 H        1.9180     1.2350     0.5910 H     1 <1>   0.0800 
 27 H        2.0460     1.2320    -1.1560 H     1 <1>   0.0800 
 28 H        1.9380     5.2140    -0.9470 H     1 <1>   0.0800 
 29 H        2.6270     3.6160    -1.2130 H     1 <1>   0.0800 
 30 H        4.0980     3.9390     0.7520 H     1 <1>   0.0800 
 31 H        3.4330     5.5490     0.9830 H     1 <1>   0.0800 
 32 H        4.2550     6.1730    -1.2830 H     1 <1>   0.0800 
 33 H        5.0230     4.6090    -1.4240 H     1 <1>   0.0800 
 34 H        5.5850     6.5390     0.7530 H     1 <1>   0.4500 
 35 H        6.2330     7.5710    -1.2700 H     1 <1>   0.0800 
 36 H        7.1550     6.1600    -1.6940 H     1 <1>   0.0800 
 37 H        7.0480     4.1040     0.0190 H     1 <1>   0.0800 
 38 H        6.1110     4.3570     1.4600 H     1 <1>   0.0800 
 39 H        7.9830     8.3700    -0.0690 H     1 <1>   0.0800 
 40 H        8.9260     6.9750    -0.5180 H     1 <1>   0.0800 
 41 H        8.8600     5.0630     1.0150 H     1 <1>   0.0800 
 42 H        7.9230     5.2580     2.4720 H     1 <1>   0.0800 
@<TRIPOS>BOND
  1   1   2  1   
  2   2   3  ar  
  3   2   4  ar  
  4   3   5  ar  
  5   3  20  1   
  6   4   6  ar  
  7   4  21  1   
  8   5   7  ar  
  9   5   8  1   
 10   6   7  ar  
 11   6   9  1   
 12   7  10  1   
 13   8  22  1   
 14   8  23  1   
 15   8  24  1   
 16   9  25  1   
 17   9  26  1   
 18   9  27  1   
 19  10  11  1   
 20  11  12  1   
 21  11  28  1   
 22  11  29  1   
 23  12  13  1   
 24  12  30  1   
 25  12  31  1   
 26  13  14  1   
 27  13  32  1   
 28  13  33  1   
 29  14  15  1   
 30  14  16  1   
 31  14  34  1   
 32  15  17  1   
 33  15  35  1   
 34  15  36  1   
 35  16  18  1   
 36  16  37  1   
 37  16  38  1   
 38  17  19  1   
 39  17  39  1   
 40  17  40  1   
 41  18  19  1   
 42  18  41  1   
 43  18  42  1   
@<TRIPOS>SUBSTRUCTURE
  1 ****  11 GROUP 4 **** **** 0

# MOE 2024.06 (io_trps.svl 2023.06)
