@<TRIPOS>MOLECULE
NONAME
39 40 1 0 0 
SMALL
USER_CHARGES


@<TRIPOS>ATOM
  1 O        0.5400    -0.1110     0.7430 O.2   1 <1>  -0.5700 
  2 C        1.5930     0.1550     0.2210 C.2   1 <1>   0.5690 
  3 N        2.0890     1.4110     0.3450 N.am  1 <1>  -0.7300 
  4 C        2.3130    -0.9320    -0.5660 C.3   1 <1>   0.0440 
  5 C        3.3960     1.9500    -0.1010 C.3   1 <1>   0.1400 
  6 C        3.6710    -1.3230     0.0140 C.ar  1 <1>  -0.1430 
  7 C        4.3020     2.1800     1.1100 C.3   1 <1>  -0.0220 
  8 C        4.7740    -1.4640    -0.8160 C.ar  1 <1>  -0.1500 
  9 C        3.8150    -1.5460     1.3760 C.ar  1 <1>  -0.1500 
 10 C        5.6510     2.7520     0.6960 C.2   1 <1>  -0.2760 
 11 C        6.0060    -1.8110    -0.2910 C.ar  1 <1>  -0.1500 
 12 C        5.0480    -1.8890     1.9020 C.ar  1 <1>  -0.1500 
 13 C        5.9750     4.0380     0.8700 C.2   1 <1>  -0.2880 
 14 C        6.6140     1.7350     0.0890 C.3   1 <1>  -0.0220 
 15 C        6.1450    -2.0210     1.0700 C.ar  1 <1>  -0.1500 
 16 C        7.3240     4.6390     0.5100 C.3   1 <1>  -0.0220 
 17 C        7.8100     2.4150    -0.5950 C.3   1 <1>  -0.1600 
 18 C        8.3770     3.5470     0.2710 C.3   1 <1>  -0.1600 
 19 H        1.5170     2.0460     0.9050 H     1 <1>   0.3700 
 20 H        2.4240    -0.5920    -1.5780 H     1 <1>   0.0800 
 21 H        1.6890    -1.8070    -0.5880 H     1 <1>   0.0800 
 22 H        3.2390     2.8840    -0.6130 H     1 <1>   0.0800 
 23 H        3.8650     1.2700    -0.7880 H     1 <1>   0.0800 
 24 H        4.4540     1.2550     1.6380 H     1 <1>   0.0800 
 25 H        3.8170     2.8700     1.7770 H     1 <1>   0.0800 
 26 H        4.6810    -1.3060    -1.8760 H     1 <1>   0.1500 
 27 H        2.9680    -1.4510     2.0340 H     1 <1>   0.1500 
 28 H        6.8580    -1.9180    -0.9400 H     1 <1>   0.1500 
 29 H        5.1520    -2.0560     2.9600 H     1 <1>   0.1500 
 30 H        5.2970     4.7630     1.2870 H     1 <1>   0.1500 
 31 H        6.1110     1.1260    -0.6390 H     1 <1>   0.0800 
 32 H        6.9670     1.0870     0.8720 H     1 <1>   0.0800 
 33 H        7.1030    -2.2890     1.4800 H     1 <1>   0.1500 
 34 H        7.6580     5.2800     1.3070 H     1 <1>   0.0800 
 35 H        7.2110     5.2380    -0.3770 H     1 <1>   0.0800 
 36 H        7.4890     2.8240    -1.5370 H     1 <1>   0.0800 
 37 H        8.5740     1.6840    -0.7920 H     1 <1>   0.0800 
 38 H        8.6820     3.1410     1.2200 H     1 <1>   0.0800 
 39 H        9.2420     3.9780    -0.2010 H     1 <1>   0.0800 
@<TRIPOS>BOND
  1   1   2  2   
  2   2   3  am  
  3   2   4  1   
  4   3   5  1   
  5   3  19  1   
  6   4   6  1   
  7   4  20  1   
  8   4  21  1   
  9   5   7  1   
 10   5  22  1   
 11   5  23  1   
 12   6   8  ar  
 13   6   9  ar  
 14   7  10  1   
 15   7  24  1   
 16   7  25  1   
 17   8  11  ar  
 18   8  26  1   
 19   9  12  ar  
 20   9  27  1   
 21  10  13  2   
 22  10  14  1   
 23  11  15  ar  
 24  11  28  1   
 25  12  15  ar  
 26  12  29  1   
 27  13  16  1   
 28  13  30  1   
 29  14  17  1   
 30  14  31  1   
 31  14  32  1   
 32  15  33  1   
 33  16  18  1   
 34  16  34  1   
 35  16  35  1   
 36  17  18  1   
 37  17  36  1   
 38  17  37  1   
 39  18  38  1   
 40  18  39  1   
@<TRIPOS>SUBSTRUCTURE
  1 ****   7 GROUP 4 **** **** 0

# MOE 2024.06 (io_trps.svl 2023.06)
