@<TRIPOS>MOLECULE
NONAME
46 48 1 0 0 
SMALL
USER_CHARGES


@<TRIPOS>ATOM
  1 F       -2.8790     0.1500     2.2360 F     1 <1>  -0.3400 
  2 C       -3.4290     1.3530     2.3210 C.3   1 <1>   1.1640 
  3 F       -2.5790     2.1150     2.9950 F     1 <1>  -0.3400 
  4 F       -4.5040     1.2180     3.0900 F     1 <1>  -0.3400 
  5 C       -3.7950     1.9140     0.9340 C.ar  1 <1>  -0.1440 
  6 C       -4.8950     1.4100     0.2460 C.ar  1 <1>  -0.1500 
  7 C       -3.0430     2.9210     0.3380 C.ar  1 <1>  -0.1500 
  8 C       -5.2480     1.9030    -1.0030 C.ar  1 <1>  -0.1440 
  9 C       -3.3840     3.4090    -0.9100 C.ar  1 <1>  -0.1500 
 10 C       -4.4810     2.9030    -1.5810 C.ar  1 <1>  -0.1500 
 11 C       -6.4630     1.3580    -1.7310 C.3   1 <1>   0.4870 
 12 N       -7.6870     1.8440    -1.0430 N.4   1 <1>  -0.9590 
 13 C       -8.9180     1.2060    -1.5790 C.3   1 <1>   0.4860 
 14 C       -7.8200     3.3320    -1.0690 C.3   1 <1>   0.3430 
 15 C      -10.1290     1.6850    -0.7980 C.ar  1 <1>  -0.1430 
 16 C       -8.8950     3.7790    -0.0740 C.3   1 <1>  -0.0170 
 17 C      -10.1300     2.8880    -0.1050 C.ar  1 <1>  -0.1430 
 18 C      -11.2680     0.8980    -0.7860 C.ar  1 <1>  -0.1500 
 19 C      -11.2650     3.2820     0.5860 C.ar  1 <1>  -0.1500 
 20 C      -12.4090     1.2770    -0.1020 C.ar  1 <1>   0.0830 
 21 C      -12.4150     2.4940     0.6030 C.ar  1 <1>   0.0830 
 22 O      -13.4300     0.3770    -0.2060 O.3   1 <1>  -0.3630 
 23 O      -13.5240     2.8870     1.2940 O.3   1 <1>  -0.3620 
 24 C      -14.7240     0.5990     0.3090 C.3   1 <1>   0.0400 
 25 C      -13.5740     4.0730     2.0580 C.3   1 <1>   0.0400 
 26 H       -5.4740     0.6200     0.6990 H     1 <1>   0.1500 
 27 H       -2.1810     3.3330     0.8380 H     1 <1>   0.1500 
 28 H       -2.7860     4.1860    -1.3600 H     1 <1>   0.1500 
 29 H       -4.7190     3.2980    -2.5540 H     1 <1>   0.1500 
 30 H       -6.4300     0.2800    -1.7170 H     1 <1>   0.0800 
 31 H       -6.4540     1.6870    -2.7570 H     1 <1>   0.0800 
 32 H       -7.6230     1.5720    -0.0540 H     1 <1>   0.4500 
 33 H       -8.8460     0.1340    -1.4970 H     1 <1>   0.0800 
 34 H       -9.0470     1.4610    -2.6190 H     1 <1>   0.0800 
 35 H       -8.0970     3.6520    -2.0610 H     1 <1>   0.0800 
 36 H       -6.8840     3.8010    -0.8090 H     1 <1>   0.0800 
 37 H       -9.1720     4.7950    -0.2960 H     1 <1>   0.0800 
 38 H       -8.4800     3.7680     0.9180 H     1 <1>   0.0800 
 39 H      -11.2970    -0.0390    -1.3160 H     1 <1>   0.1500 
 40 H      -11.2380     4.2160     1.1140 H     1 <1>   0.1500 
 41 H      -15.3430    -0.2340     0.0300 H     1 <1>   0.0800 
 42 H      -15.1180     1.5060    -0.1130 H     1 <1>   0.0800 
 43 H      -14.6660     0.6660     1.3810 H     1 <1>   0.0800 
 44 H      -14.5460     4.1340     2.5140 H     1 <1>   0.0800 
 45 H      -13.4250     4.9160     1.4070 H     1 <1>   0.0800 
 46 H      -12.8170     4.0300     2.8210 H     1 <1>   0.0800 
@<TRIPOS>BOND
  1   1   2  1   
  2   2   3  1   
  3   2   4  1   
  4   2   5  1   
  5   5   6  ar  
  6   5   7  ar  
  7   6   8  ar  
  8   6  26  1   
  9   7   9  ar  
 10   7  27  1   
 11   8  10  ar  
 12   8  11  1   
 13   9  10  ar  
 14   9  28  1   
 15  10  29  1   
 16  11  12  1   
 17  11  30  1   
 18  11  31  1   
 19  12  13  1   
 20  12  14  1   
 21  12  32  1   
 22  13  15  1   
 23  13  33  1   
 24  13  34  1   
 25  14  16  1   
 26  14  35  1   
 27  14  36  1   
 28  15  17  ar  
 29  15  18  ar  
 30  16  17  1   
 31  16  37  1   
 32  16  38  1   
 33  17  19  ar  
 34  18  20  ar  
 35  18  39  1   
 36  19  21  ar  
 37  19  40  1   
 38  20  21  ar  
 39  20  22  1   
 40  21  23  1   
 41  22  24  1   
 42  23  25  1   
 43  24  41  1   
 44  24  42  1   
 45  24  43  1   
 46  25  44  1   
 47  25  45  1   
 48  25  46  1   
@<TRIPOS>SUBSTRUCTURE
  1 ****  12 GROUP 4 **** **** 0

# MOE 2024.06 (io_trps.svl 2023.06)
