@<TRIPOS>MOLECULE
NONAME
52 54 1 0 0 
SMALL
USER_CHARGES


@<TRIPOS>ATOM
  1 S       -0.1840     0.1790     0.3910 S.o2  1 <1>   1.4470 
  2 O        0.2420     0.1230     1.7730 O.2   1 <1>  -0.6500 
  3 O        0.3880     1.1720    -0.4910 O.2   1 <1>  -0.6500 
  4 N        0.1540    -1.3350    -0.2910 N.am  1 <1>  -0.8490 
  5 C       -1.9960     0.2730     0.3040 C.ar  1 <1>  -0.0090 
  6 C        1.5770    -1.4600    -0.6420 C.3   1 <1>   0.1960 
  7 C       -0.2260    -2.4530     0.5890 C.3   1 <1>   0.1960 
  8 C       -2.6650     0.0450    -0.8950 C.ar  1 <1>  -0.1500 
  9 C       -2.7600     0.5750     1.4290 C.ar  1 <1>  -0.1500 
 10 C        1.8800    -2.8400    -1.2550 C.3   1 <1>   0.1200 
 11 C        0.1100    -3.8060    -0.0640 C.3   1 <1>   0.1200 
 12 C       -4.0460     0.1090    -0.9710 C.ar  1 <1>  -0.1500 
 13 C       -4.1420     0.6430     1.3690 C.ar  1 <1>  -0.1500 
 14 O        1.4680    -3.8660    -0.3960 O.3   1 <1>  -0.5600 
 15 C       -4.7800     0.4070     0.1620 C.ar  1 <1>   0.1010 
 16 S       -6.5710     0.4690    -0.0150 S.3   1 <1>  -0.3310 
 17 C       -7.2610     0.9650     1.6450 C.3   1 <1>   0.1310 
 18 C       -8.7800     1.0860     1.6290 C.2   1 <1>   0.5690 
 19 O       -9.3320     1.3960     2.6570 O.2   1 <1>  -0.5700 
 20 N       -9.4690     0.8490     0.4830 N.am  1 <1>  -0.7300 
 21 C      -10.9280     0.9280     0.3220 C.3   1 <1>   0.2200 
 22 C      -11.4530    -0.4480    -0.1000 C.3   1 <1>  -0.1600 
 23 C      -11.2520     1.9940    -0.7280 C.3   1 <1>  -0.1600 
 24 C      -12.9610    -0.4010    -0.3920 C.3   1 <1>  -0.1600 
 25 C      -12.7590     2.0460    -1.0210 C.3   1 <1>  -0.1600 
 26 C      -13.2900     0.6690    -1.4420 C.3   1 <1>  -0.1600 
 27 H        2.1880    -1.3190     0.2340 H     1 <1>   0.0800 
 28 H        1.8410    -0.6990    -1.3570 H     1 <1>   0.0800 
 29 H       -1.2830    -2.4140     0.7900 H     1 <1>   0.0800 
 30 H        0.2970    -2.3860     1.5290 H     1 <1>   0.0800 
 31 H       -2.0930    -0.1850    -1.7790 H     1 <1>   0.1500 
 32 H       -2.2620     0.7610     2.3670 H     1 <1>   0.1500 
 33 H        2.9370    -2.9510    -1.4170 H     1 <1>   0.0800 
 34 H        1.3710    -2.9530    -2.1960 H     1 <1>   0.0800 
 35 H       -0.4710    -3.9490    -0.9590 H     1 <1>   0.0800 
 36 H       -0.0970    -4.6120     0.6180 H     1 <1>   0.0800 
 37 H       -4.5530    -0.0700    -1.9030 H     1 <1>   0.1500 
 38 H       -4.6940     0.8780     2.2580 H     1 <1>   0.1500 
 39 H       -6.8250     1.9110     1.9040 H     1 <1>   0.0800 
 40 H       -6.9660     0.2130     2.3520 H     1 <1>   0.0800 
 41 H       -8.9470     0.5890    -0.3560 H     1 <1>   0.3700 
 42 H      -11.3830     1.2060     1.2600 H     1 <1>   0.0800 
 43 H      -11.2660    -1.1560     0.6880 H     1 <1>   0.0800 
 44 H      -10.9360    -0.7750    -0.9850 H     1 <1>   0.0800 
 45 H      -10.7260     1.7740    -1.6400 H     1 <1>   0.0800 
 46 H      -10.9260     2.9550    -0.3690 H     1 <1>   0.0800 
 47 H      -13.4920    -0.1810     0.5190 H     1 <1>   0.0800 
 48 H      -13.2910    -1.3640    -0.7410 H     1 <1>   0.0800 
 49 H      -12.9510     2.7620    -1.8020 H     1 <1>   0.0800 
 50 H      -13.2810     2.3740    -0.1380 H     1 <1>   0.0800 
 51 H      -14.3560     0.7210    -1.5810 H     1 <1>   0.0800 
 52 H      -12.8490     0.3900    -2.3840 H     1 <1>   0.0800 
@<TRIPOS>BOND
  1   1   2  2   
  2   1   3  2   
  3   1   4  am  
  4   1   5  1   
  5   4   6  1   
  6   4   7  1   
  7   5   8  ar  
  8   5   9  ar  
  9   6  10  1   
 10   6  27  1   
 11   6  28  1   
 12   7  11  1   
 13   7  29  1   
 14   7  30  1   
 15   8  12  ar  
 16   8  31  1   
 17   9  13  ar  
 18   9  32  1   
 19  10  14  1   
 20  10  33  1   
 21  10  34  1   
 22  11  14  1   
 23  11  35  1   
 24  11  36  1   
 25  12  15  ar  
 26  12  37  1   
 27  13  15  ar  
 28  13  38  1   
 29  15  16  1   
 30  16  17  1   
 31  17  18  1   
 32  17  39  1   
 33  17  40  1   
 34  18  19  2   
 35  18  20  am  
 36  20  21  1   
 37  20  41  1   
 38  21  22  1   
 39  21  23  1   
 40  21  42  1   
 41  22  24  1   
 42  22  43  1   
 43  22  44  1   
 44  23  25  1   
 45  23  45  1   
 46  23  46  1   
 47  24  26  1   
 48  24  47  1   
 49  24  48  1   
 50  25  26  1   
 51  25  49  1   
 52  25  50  1   
 53  26  51  1   
 54  26  52  1   
@<TRIPOS>SUBSTRUCTURE
  1 ****  15 GROUP 4 **** **** 0

# MOE 2024.06 (io_trps.svl 2023.06)
