@<TRIPOS>MOLECULE
NONAME
35 35 1 0 0 
SMALL
USER_CHARGES


@<TRIPOS>ATOM
  1 O        0.2300    -0.0540     1.3280 O.2   1 <1>  -0.5700 
  2 C        0.1220     0.8690     0.5490 C.2   1 <1>   0.6160 
  3 N        1.1980     1.3060    -0.1830 N.am  1 <1>  -0.5470 
  4 C       -1.1440     1.5420     0.3850 C.2   1 <1>  -0.1360 
  5 C        2.5100     0.8170    -0.2870 C.ar  1 <1>   0.1170 
  6 C       -2.2980     1.2860     1.0290 C.2   1 <1>  -0.2880 
  7 C        2.8530    -0.5060    -0.0210 C.ar  1 <1>  -0.1500 
  8 C        3.5140     1.6870    -0.6970 C.ar  1 <1>  -0.1500 
  9 C       -3.6080     2.0230     0.8190 C.3   1 <1>  -0.0220 
 10 C        4.1580    -0.9420    -0.1540 C.ar  1 <1>  -0.1500 
 11 C        4.8210     1.2550    -0.8330 C.ar  1 <1>  -0.1500 
 12 C       -4.6750     1.0630     0.2850 C.3   1 <1>  -0.1600 
 13 C        5.1460    -0.0630    -0.5610 C.ar  1 <1>  -0.1500 
 14 C       -6.0120     1.7790     0.0540 C.3   1 <1>  -0.1600 
 15 C       -7.0720     0.8100    -0.4810 C.3   1 <1>  -0.1600 
 16 C       -8.4060     1.5240    -0.7110 C.3   1 <1>  -0.2400 
 17 H        1.0310     2.1600    -0.7060 H     1 <1>   0.3700 
 18 H       -1.1170     2.3280    -0.3440 H     1 <1>   0.1500 
 19 H       -2.3680     0.5030     1.7680 H     1 <1>   0.1500 
 20 H        2.0980    -1.2040     0.2910 H     1 <1>   0.1500 
 21 H        3.2770     2.7130    -0.9090 H     1 <1>   0.1500 
 22 H       -3.9310     2.4430     1.7560 H     1 <1>   0.0800 
 23 H       -3.4690     2.8310     0.1210 H     1 <1>   0.0800 
 24 H        4.4040    -1.9680     0.0600 H     1 <1>   0.1500 
 25 H        5.5880     1.9410    -1.1490 H     1 <1>   0.1500 
 26 H       -4.3310     0.6340    -0.6410 H     1 <1>   0.0800 
 27 H       -4.8140     0.2610     0.9910 H     1 <1>   0.0800 
 28 H        6.1620    -0.4020    -0.6640 H     1 <1>   0.1500 
 29 H       -6.3550     2.2060     0.9820 H     1 <1>   0.0800 
 30 H       -5.8730     2.5800    -0.6520 H     1 <1>   0.0800 
 31 H       -6.7350     0.3810    -1.4090 H     1 <1>   0.0800 
 32 H       -7.2170     0.0080     0.2230 H     1 <1>   0.0800 
 33 H       -8.2900     2.3170    -1.4290 H     1 <1>   0.0800 
 34 H       -8.7740     1.9420     0.2100 H     1 <1>   0.0800 
 35 H       -9.1360     0.8280    -1.0850 H     1 <1>   0.0800 
@<TRIPOS>BOND
  1   1   2  2   
  2   2   3  am  
  3   2   4  1   
  4   3   5  1   
  5   3  17  1   
  6   4   6  2   
  7   4  18  1   
  8   5   7  ar  
  9   5   8  ar  
 10   6   9  1   
 11   6  19  1   
 12   7  10  ar  
 13   7  20  1   
 14   8  11  ar  
 15   8  21  1   
 16   9  12  1   
 17   9  22  1   
 18   9  23  1   
 19  10  13  ar  
 20  10  24  1   
 21  11  13  ar  
 22  11  25  1   
 23  12  14  1   
 24  12  26  1   
 25  12  27  1   
 26  13  28  1   
 27  14  15  1   
 28  14  29  1   
 29  14  30  1   
 30  15  16  1   
 31  15  31  1   
 32  15  32  1   
 33  16  33  1   
 34  16  34  1   
 35  16  35  1   
@<TRIPOS>SUBSTRUCTURE
  1 ****   2 GROUP 4 **** **** 0

# MOE 2024.06 (io_trps.svl 2023.06)
