@<TRIPOS>MOLECULE
NONAME
56 60 1 0 0 
SMALL
USER_CHARGES


@<TRIPOS>ATOM
  1 O        0.4080    -0.5570    -1.1350 O.2   1 <1>  -0.5700 
  2 C        0.2660    -1.6910    -0.7440 C.2   1 <1>   0.5690 
  3 N        1.3070    -2.5930    -0.8370 N.am  1 <1>  -0.6600 
  4 C       -1.0920    -2.0580    -0.1480 C.3   1 <1>   0.0820 
  5 C        2.4970    -2.2710    -1.6890 C.3   1 <1>   0.1400 
  6 C        1.2680    -3.9830    -0.2800 C.3   1 <1>   0.1400 
  7 C       -1.6860    -3.3270    -0.7480 C.2   1 <1>  -0.1810 
  8 C        3.8120    -2.7210    -1.0340 C.3   1 <1>   0.3430 
  9 C        2.6220    -4.4180     0.3110 C.3   1 <1>   0.3430 
 10 C       -2.0360    -4.4890    -0.0210 C.ar  1 <1>   0.0000 
 11 C       -1.9580    -3.5630    -2.0540 C.2   1 <1>  -0.3020 
 12 N        3.7710    -4.1710    -0.6340 N.4   1 <1>  -0.9590 
 13 C       -2.4910    -5.4120    -0.9580 C.ar  1 <1>  -0.1520 
 14 C       -2.0050    -4.8450     1.3330 C.ar  1 <1>  -0.1500 
 15 N       -2.4560    -4.8260    -2.1970 N.pl3 1 <1>   0.0330 
 16 C        5.1020    -4.6390    -0.1270 C.3   1 <1>   0.4230 
 17 C       -2.8930    -6.6920    -0.5720 C.ar  1 <1>  -0.1500 
 18 C       -2.4020    -6.1060     1.7130 C.ar  1 <1>  -0.1500 
 19 C        5.1810    -6.1710    -0.1180 C.3   1 <1>  -0.0170 
 20 C        5.4260    -4.0850     1.2670 C.3   1 <1>  -0.1600 
 21 C       -2.8430    -7.0320     0.7600 C.ar  1 <1>  -0.1500 
 22 C        6.4900    -6.6560     0.4840 C.ar  1 <1>  -0.1440 
 23 C        6.8860    -4.3970     1.6140 C.3   1 <1>  -0.0170 
 24 C        7.2700    -5.8360     1.2940 C.ar  1 <1>  -0.1440 
 25 C        6.9010    -7.9540     0.2220 C.ar  1 <1>  -0.1500 
 26 C        8.4500    -6.3300     1.8270 C.ar  1 <1>  -0.1500 
 27 C        8.0800    -8.4380     0.7580 C.ar  1 <1>  -0.1500 
 28 C        8.8550    -7.6250     1.5620 C.ar  1 <1>  -0.1500 
 29 H       -1.7750    -1.2480    -0.3270 H     1 <1>   0.0800 
 30 H       -0.9850    -2.1570     0.9140 H     1 <1>   0.0800 
 31 H        2.5540    -1.2120    -1.8730 H     1 <1>   0.0800 
 32 H        2.3830    -2.7540    -2.6440 H     1 <1>   0.0800 
 33 H        0.9670    -4.6670    -1.0550 H     1 <1>   0.0800 
 34 H        0.5410    -4.0450     0.5080 H     1 <1>   0.0800 
 35 H        3.9850    -2.1050    -0.1660 H     1 <1>   0.0800 
 36 H        4.6220    -2.5510    -1.7250 H     1 <1>   0.0800 
 37 H        2.5680    -5.4630     0.5650 H     1 <1>   0.0800 
 38 H        2.7820    -3.8670     1.2230 H     1 <1>   0.0800 
 39 H       -1.8270    -2.9050    -2.8970 H     1 <1>   0.1500 
 40 H        3.5720    -4.7020    -1.4920 H     1 <1>   0.4500 
 41 H       -1.6810    -4.1290     2.0650 H     1 <1>   0.1500 
 42 H       -2.7790    -5.2610    -3.0670 H     1 <1>   0.2700 
 43 H        5.8670    -4.2880    -0.8020 H     1 <1>   0.0800 
 44 H       -3.2400    -7.3950    -1.3100 H     1 <1>   0.1500 
 45 H       -2.3860    -6.3940     2.7500 H     1 <1>   0.1500 
 46 H        5.1050    -6.5370    -1.1260 H     1 <1>   0.0800 
 47 H        4.3830    -6.5910     0.4670 H     1 <1>   0.0800 
 48 H        4.8000    -4.5510     2.0070 H     1 <1>   0.0800 
 49 H        5.2860    -3.0210     1.3100 H     1 <1>   0.0800 
 50 H       -3.1500    -8.0110     1.0830 H     1 <1>   0.1500 
 51 H        7.0510    -4.2040     2.6610 H     1 <1>   0.0800 
 52 H        7.5370    -3.7440     1.0580 H     1 <1>   0.0800 
 53 H        6.3090    -8.6030    -0.3990 H     1 <1>   0.1500 
 54 H        9.0660    -5.7090     2.4550 H     1 <1>   0.1500 
 55 H        8.3940    -9.4470     0.5510 H     1 <1>   0.1500 
 56 H        9.7730    -8.0000     1.9810 H     1 <1>   0.1500 
@<TRIPOS>BOND
  1   1   2  2   
  2   2   3  am  
  3   2   4  1   
  4   3   5  1   
  5   3   6  1   
  6   4   7  1   
  7   4  29  1   
  8   4  30  1   
  9   5   8  1   
 10   5  31  1   
 11   5  32  1   
 12   6   9  1   
 13   6  33  1   
 14   6  34  1   
 15   7  10  1   
 16   7  11  2   
 17   8  12  1   
 18   8  35  1   
 19   8  36  1   
 20   9  12  1   
 21   9  37  1   
 22   9  38  1   
 23  10  13  ar  
 24  10  14  ar  
 25  11  15  1   
 26  11  39  1   
 27  12  16  1   
 28  12  40  1   
 29  13  15  1   
 30  13  17  ar  
 31  14  18  ar  
 32  14  41  1   
 33  15  42  1   
 34  16  19  1   
 35  16  20  1   
 36  16  43  1   
 37  17  21  ar  
 38  17  44  1   
 39  18  21  ar  
 40  18  45  1   
 41  19  22  1   
 42  19  46  1   
 43  19  47  1   
 44  20  23  1   
 45  20  48  1   
 46  20  49  1   
 47  21  50  1   
 48  22  24  ar  
 49  22  25  ar  
 50  23  24  1   
 51  23  51  1   
 52  23  52  1   
 53  24  26  ar  
 54  25  27  ar  
 55  25  53  1   
 56  26  28  ar  
 57  26  54  1   
 58  27  28  ar  
 59  27  55  1   
 60  28  56  1   
@<TRIPOS>SUBSTRUCTURE
  1 ****   9 GROUP 4 **** **** 0

# MOE 2024.06 (io_trps.svl 2023.06)
