@<TRIPOS>MOLECULE
NONAME
37 37 1 0 0 
SMALL
USER_CHARGES


@<TRIPOS>ATOM
  1 S       -0.0060     0.0890    -1.0990 S.o2  1 <1>   1.3330 
  2 O       -0.7860     1.2840    -0.8840 O.2   1 <1>  -0.6500 
  3 O       -0.3990    -0.9000    -2.0690 O.2   1 <1>  -0.6500 
  4 N        1.5770     0.5670    -1.5690 N.am  1 <1>  -0.7570 
  5 C        0.3080    -0.7190     0.4770 C.3   1 <1>  -0.0550 
  6 C        2.3720     1.4960    -0.9070 C.ar  1 <1>   0.1990 
  7 C       -0.9450    -1.3070     1.1500 C.3   1 <1>  -0.2400 
  8 C        3.6460     1.1610    -0.4070 C.ar  1 <1>   0.0860 
  9 C        1.8870     2.7890    -0.7520 C.ar  1 <1>  -0.1500 
 10 C        4.2060    -0.1680    -0.5370 C.2   1 <1>   0.6340 
 11 C        4.3680     2.1690     0.2410 C.ar  1 <1>  -0.1500 
 12 C        2.6060     3.7720    -0.0900 C.ar  1 <1>   0.0820 
 13 O        3.5660    -1.1460    -0.8820 O.2   1 <1>  -0.5700 
 14 O        5.5040    -0.3350    -0.2570 O.3   1 <1>  -0.4300 
 15 C        3.8790     3.4480     0.4000 C.ar  1 <1>   0.0820 
 16 O        2.1040     5.0200     0.1060 O.3   1 <1>  -0.3630 
 17 C        6.1410    -1.5940    -0.3580 C.3   1 <1>   0.0400 
 18 O        4.6970     4.3180     1.0560 O.3   1 <1>  -0.3630 
 19 C        0.7590     5.3420    -0.1840 C.3   1 <1>   0.0400 
 20 C        4.8790     5.6170     0.5320 C.3   1 <1>   0.0400 
 21 H        2.0660    -0.2730    -1.8960 H     1 <1>   0.4200 
 22 H        0.7530    -0.0100     1.1480 H     1 <1>   0.0800 
 23 H        1.0170    -1.5110     0.3260 H     1 <1>   0.0800 
 24 H       -1.6640    -0.5290     1.3390 H     1 <1>   0.0800 
 25 H       -0.6820    -1.7720     2.0830 H     1 <1>   0.0800 
 26 H       -1.3970    -2.0440     0.5090 H     1 <1>   0.0800 
 27 H        0.9260     3.0120    -1.1730 H     1 <1>   0.1500 
 28 H        5.3450     1.9570     0.6400 H     1 <1>   0.1500 
 29 H        7.1750    -1.4750    -0.0860 H     1 <1>   0.0800 
 30 H        6.0640    -1.9430    -1.3730 H     1 <1>   0.0800 
 31 H        5.6580    -2.2850     0.3110 H     1 <1>   0.0800 
 32 H        0.5780     6.3490     0.1450 H     1 <1>   0.0800 
 33 H        0.1130     4.6630     0.3450 H     1 <1>   0.0800 
 34 H        0.6030     5.2720    -1.2460 H     1 <1>   0.0800 
 35 H        5.8210     5.9930     0.8870 H     1 <1>   0.0800 
 36 H        4.0830     6.2490     0.8830 H     1 <1>   0.0800 
 37 H        4.8810     5.5700    -0.5430 H     1 <1>   0.0800 
@<TRIPOS>BOND
  1   1   2  2   
  2   1   3  2   
  3   1   4  am  
  4   1   5  1   
  5   4   6  1   
  6   4  21  1   
  7   5   7  1   
  8   5  22  1   
  9   5  23  1   
 10   6   8  ar  
 11   6   9  ar  
 12   7  24  1   
 13   7  25  1   
 14   7  26  1   
 15   8  10  1   
 16   8  11  ar  
 17   9  12  ar  
 18   9  27  1   
 19  10  13  2   
 20  10  14  1   
 21  11  15  ar  
 22  11  28  1   
 23  12  15  ar  
 24  12  16  1   
 25  14  17  1   
 26  15  18  1   
 27  16  19  1   
 28  17  29  1   
 29  17  30  1   
 30  17  31  1   
 31  18  20  1   
 32  19  32  1   
 33  19  33  1   
 34  19  34  1   
 35  20  35  1   
 36  20  36  1   
 37  20  37  1   
@<TRIPOS>SUBSTRUCTURE
  1 ****   6 GROUP 4 **** **** 0

# MOE 2024.06 (io_trps.svl 2023.06)
