@<TRIPOS>MOLECULE
NONAME
33 33 1 0 0 
SMALL
USER_CHARGES


@<TRIPOS>ATOM
  1 O       -0.4890    -3.2030    -0.8430 O.2   1 <1>  -0.5700 
  2 C       -0.3070    -2.5200     0.1400 C.2   1 <1>   0.6900 
  3 N       -1.1690    -1.5630     0.5210 N.am  1 <1>  -0.7300 
  4 N        0.7810    -2.7210     0.8820 N.am  1 <1>  -0.8000 
  5 C       -2.2910    -1.1120    -0.3090 C.3   1 <1>   0.3640 
  6 C       -2.4150     0.3930    -0.0810 C.ar  1 <1>  -0.1430 
  7 C       -3.5430    -1.9330     0.0530 C.3   1 <1>  -0.1600 
  8 C       -2.0970     1.2680    -1.1100 C.ar  1 <1>  -0.1500 
  9 C       -2.8250     0.9130     1.1410 C.ar  1 <1>  -0.1500 
 10 C       -4.7140    -1.8210    -0.9470 C.3   1 <1>  -0.0800 
 11 C       -2.1960     2.6370    -0.9270 C.ar  1 <1>  -0.1500 
 12 C       -2.9240     2.2810     1.3250 C.ar  1 <1>  -0.1500 
 13 C       -5.4080    -0.4520    -0.9120 C.3   1 <1>  -0.2400 
 14 C       -5.7520    -2.9090    -0.6400 C.3   1 <1>  -0.2400 
 15 C       -2.6100     3.1440     0.2910 C.ar  1 <1>  -0.1500 
 16 H       -0.8280    -0.8380     1.1450 H     1 <1>   0.3700 
 17 H        1.3740    -3.5120     0.6340 H     1 <1>   0.3700 
 18 H        0.8510    -2.3750     1.8340 H     1 <1>   0.3700 
 19 H       -2.0510    -1.2980    -1.3430 H     1 <1>   0.0800 
 20 H       -3.8830    -1.6790     1.0400 H     1 <1>   0.0800 
 21 H       -3.2400    -2.9650     0.0740 H     1 <1>   0.0800 
 22 H       -1.7700     0.8880    -2.0630 H     1 <1>   0.1500 
 23 H       -3.0700     0.2560     1.9560 H     1 <1>   0.1500 
 24 H       -4.3390    -1.9930    -1.9420 H     1 <1>   0.0800 
 25 H       -1.9490     3.3060    -1.7320 H     1 <1>   0.1500 
 26 H       -3.2460     2.6740     2.2740 H     1 <1>   0.1500 
 27 H       -5.7050    -0.2000     0.0900 H     1 <1>   0.0800 
 28 H       -6.2840    -0.4610    -1.5360 H     1 <1>   0.0800 
 29 H       -4.7590     0.3190    -1.2830 H     1 <1>   0.0800 
 30 H       -6.1560    -2.7790     0.3480 H     1 <1>   0.0800 
 31 H       -5.3020    -3.8840    -0.7030 H     1 <1>   0.0800 
 32 H       -6.5590    -2.8670    -1.3500 H     1 <1>   0.0800 
 33 H       -2.6880     4.2080     0.4340 H     1 <1>   0.1500 
@<TRIPOS>BOND
  1   1   2  2   
  2   2   3  am  
  3   2   4  am  
  4   3   5  1   
  5   3  16  1   
  6   4  17  1   
  7   4  18  1   
  8   5   6  1   
  9   5   7  1   
 10   5  19  1   
 11   6   8  ar  
 12   6   9  ar  
 13   7  10  1   
 14   7  20  1   
 15   7  21  1   
 16   8  11  ar  
 17   8  22  1   
 18   9  12  ar  
 19   9  23  1   
 20  10  13  1   
 21  10  14  1   
 22  10  24  1   
 23  11  15  ar  
 24  11  25  1   
 25  12  15  ar  
 26  12  26  1   
 27  13  27  1   
 28  13  28  1   
 29  13  29  1   
 30  14  30  1   
 31  14  31  1   
 32  14  32  1   
 33  15  33  1   
@<TRIPOS>SUBSTRUCTURE
  1 ****   5 GROUP 4 **** **** 0

# MOE 2024.06 (io_trps.svl 2023.06)
