@<TRIPOS>MOLECULE
NONAME
33 34 1 0 0 
SMALL
USER_CHARGES


@<TRIPOS>ATOM
  1 O       -2.4250     0.1940     0.8710 O.co2 1 <1>  -0.9000 
  2 C       -3.5210    -0.2760     0.5160 C.2   1 <1>   1.0320 
  3 O       -3.6390    -1.5150     0.4180 O.co2 1 <1>  -0.9000 
  4 C       -4.6640     0.5840     0.2340 C.2   1 <1>  -0.0920 
  5 O       -5.7670     0.0300    -0.2510 O.3   1 <1>  -0.2800 
  6 C       -4.9060     1.9230     0.3710 C.2   1 <1>  -0.1810 
  7 C       -6.7000     0.9340    -0.4000 C.2   1 <1>  -0.0400 
  8 C       -6.2270     2.1440    -0.0350 C.2   1 <1>  -0.1500 
  9 C       -3.9750     3.0100     0.8740 C.3   1 <1>  -0.0590 
 10 C       -8.0450     0.4390    -0.8870 C.3   1 <1>   0.5230 
 11 N       -8.3040    -0.8580    -0.2020 N.4   1 <1>  -0.9590 
 12 C       -7.7380    -2.0080    -0.9700 C.3   1 <1>   0.3430 
 13 C       -9.7150    -1.0540     0.2120 C.3   1 <1>   0.3430 
 14 C       -7.8220    -3.2750    -0.1190 C.3   1 <1>  -0.1600 
 15 C       -9.8220    -2.3120     1.0770 C.3   1 <1>  -0.1600 
 16 C       -9.2520    -3.5470     0.3670 C.3   1 <1>  -0.1600 
 17 H       -6.7180     3.1010    -0.0280 H     1 <1>   0.1500 
 18 H       -3.0190     2.5980     1.1440 H     1 <1>   0.0800 
 19 H       -4.3970     3.4840     1.7410 H     1 <1>   0.0800 
 20 H       -3.8220     3.7460     0.1060 H     1 <1>   0.0800 
 21 H       -8.0220     0.3010    -1.9550 H     1 <1>   0.0800 
 22 H       -8.8000     1.1650    -0.6380 H     1 <1>   0.0800 
 23 H       -7.7030    -0.8040     0.6370 H     1 <1>   0.4500 
 24 H       -6.7040    -1.8210    -1.2180 H     1 <1>   0.0800 
 25 H       -8.2890    -2.1480    -1.8850 H     1 <1>   0.0800 
 26 H      -10.3390    -1.1630    -0.6600 H     1 <1>   0.0800 
 27 H      -10.0580    -0.2010     0.7760 H     1 <1>   0.0800 
 28 H       -7.1550    -3.1740     0.7210 H     1 <1>   0.0800 
 29 H       -7.4720    -4.1100    -0.7010 H     1 <1>   0.0800 
 30 H      -10.8550    -2.4860     1.3220 H     1 <1>   0.0800 
 31 H       -9.2950    -2.1500     2.0020 H     1 <1>   0.0800 
 32 H       -9.2520    -4.3890     1.0400 H     1 <1>   0.0800 
 33 H       -9.8750    -3.8000    -0.4750 H     1 <1>   0.0800 
@<TRIPOS>BOND
  1   1   2  ar  
  2   2   3  ar  
  3   2   4  1   
  4   4   5  1   
  5   4   6  2   
  6   5   7  1   
  7   6   8  1   
  8   6   9  1   
  9   7   8  2   
 10   7  10  1   
 11   8  17  1   
 12   9  18  1   
 13   9  19  1   
 14   9  20  1   
 15  10  11  1   
 16  10  21  1   
 17  10  22  1   
 18  11  12  1   
 19  11  13  1   
 20  11  23  1   
 21  12  14  1   
 22  12  24  1   
 23  12  25  1   
 24  13  15  1   
 25  13  26  1   
 26  13  27  1   
 27  14  16  1   
 28  14  28  1   
 29  14  29  1   
 30  15  16  1   
 31  15  30  1   
 32  15  31  1   
 33  16  32  1   
 34  16  33  1   
@<TRIPOS>SUBSTRUCTURE
  1 ****   5 GROUP 4 **** **** 0

# MOE 2024.06 (io_trps.svl 2023.06)
