@<TRIPOS>MOLECULE
NONAME
40 40 1 0 0 
SMALL
USER_CHARGES


@<TRIPOS>ATOM
  1 S        0.0080    -0.0830     0.6430 S.o2  1 <1>   1.3330 
  2 O        1.3680    -0.1950     0.1730 O.2   1 <1>  -0.6500 
  3 O       -0.5580     1.2000     0.9840 O.2   1 <1>  -0.6500 
  4 N       -1.0050    -0.8370    -0.5480 N.am  1 <1>  -0.6930 
  5 C       -0.1900    -1.1870     2.0240 C.3   1 <1>  -0.1350 
  6 C       -2.3890    -0.8510    -0.4590 C.ar  1 <1>   0.1990 
  7 C       -0.3280    -1.5550    -1.6560 C.3   1 <1>   0.1160 
  8 C       -3.0850    -2.0540    -0.4200 C.ar  1 <1>  -0.1500 
  9 C       -3.1250     0.3270    -0.4120 C.ar  1 <1>  -0.1500 
 10 C       -4.4630    -2.0750    -0.3240 C.ar  1 <1>  -0.1500 
 11 C       -4.5020     0.3050    -0.3160 C.ar  1 <1>  -0.1500 
 12 C       -5.2130    -0.8980    -0.2620 C.ar  1 <1>   0.0860 
 13 C       -6.6590    -0.9400    -0.1530 C.2   1 <1>   0.5440 
 14 O       -7.2820    -1.9170    -0.5210 O.2   1 <1>  -0.5700 
 15 N       -7.3560     0.1140     0.3690 N.am  1 <1>  -0.7300 
 16 C       -8.8210     0.1530     0.5590 C.3   1 <1>   0.2200 
 17 C       -9.5110     0.3690    -0.7990 C.3   1 <1>   0.1200 
 18 C       -9.1190     1.2640     1.5660 C.3   1 <1>  -0.2400 
 19 O      -10.8850     0.5530    -0.6210 O.3   1 <1>  -0.5600 
 20 C      -11.5930     0.6650    -1.8120 C.3   1 <1>   0.0400 
 21 H        0.4040    -0.8490     2.8500 H     1 <1>   0.0800 
 22 H        0.1230    -2.1760     1.7550 H     1 <1>   0.0800 
 23 H       -1.2170    -1.2170     2.3280 H     1 <1>   0.0800 
 24 H        0.3330    -0.8790    -2.1710 H     1 <1>   0.0800 
 25 H       -1.0510    -1.9320    -2.3590 H     1 <1>   0.0800 
 26 H        0.2480    -2.3740    -1.2640 H     1 <1>   0.0800 
 27 H       -2.5390    -2.9790    -0.4610 H     1 <1>   0.1500 
 28 H       -2.6070     1.2690    -0.4580 H     1 <1>   0.1500 
 29 H       -4.9810    -3.0190    -0.2960 H     1 <1>   0.1500 
 30 H       -5.0330     1.2400    -0.2930 H     1 <1>   0.1500 
 31 H       -6.8510     0.8920     0.7910 H     1 <1>   0.3700 
 32 H       -9.1430    -0.7950     0.9580 H     1 <1>   0.0800 
 33 H       -9.3580    -0.4960    -1.4210 H     1 <1>   0.0800 
 34 H       -9.1140     1.2450    -1.2810 H     1 <1>   0.0800 
 35 H       -8.8310     2.2210     1.1720 H     1 <1>   0.0800 
 36 H       -8.6040     1.0780     2.4910 H     1 <1>   0.0800 
 37 H      -10.1750     1.2890     1.7730 H     1 <1>   0.0800 
 38 H      -12.6320     0.8080    -1.5720 H     1 <1>   0.0800 
 39 H      -11.4740    -0.2400    -2.3820 H     1 <1>   0.0800 
 40 H      -11.2280     1.5130    -2.3650 H     1 <1>   0.0800 
@<TRIPOS>BOND
  1   1   2  2   
  2   1   3  2   
  3   1   4  am  
  4   1   5  1   
  5   4   6  1   
  6   4   7  1   
  7   5  21  1   
  8   5  22  1   
  9   5  23  1   
 10   6   8  ar  
 11   6   9  ar  
 12   7  24  1   
 13   7  25  1   
 14   7  26  1   
 15   8  10  ar  
 16   8  27  1   
 17   9  11  ar  
 18   9  28  1   
 19  10  12  ar  
 20  10  29  1   
 21  11  12  ar  
 22  11  30  1   
 23  12  13  1   
 24  13  14  2   
 25  13  15  am  
 26  15  16  1   
 27  15  31  1   
 28  16  17  1   
 29  16  18  1   
 30  16  32  1   
 31  17  19  1   
 32  17  33  1   
 33  17  34  1   
 34  18  35  1   
 35  18  36  1   
 36  18  37  1   
 37  19  20  1   
 38  20  38  1   
 39  20  39  1   
 40  20  40  1   
@<TRIPOS>SUBSTRUCTURE
  1 ****  12 GROUP 4 **** **** 0

# MOE 2024.06 (io_trps.svl 2023.06)
