@<TRIPOS>MOLECULE
NONAME
36 37 1 0 0 
SMALL
USER_CHARGES


@<TRIPOS>ATOM
  1 S        0.0390     1.4820    -0.8070 S.o2  1 <1>   1.5760 
  2 O        0.2440     0.5350    -1.8750 O.2   1 <1>  -0.6500 
  3 O        0.1430     2.9090    -0.9850 O.2   1 <1>  -0.6500 
  4 N       -1.4320     1.1500    -0.0600 N.am  1 <1>  -0.8490 
  5 N        1.0490     1.1080     0.5110 N.am  1 <1>  -0.7570 
  6 C       -1.6710    -0.2950     0.0860 C.3   1 <1>   0.1960 
  7 C       -2.5470     1.7520    -0.8040 C.3   1 <1>   0.1960 
  8 C        2.4070     0.8990     0.3370 C.ar  1 <1>   0.1990 
  9 C       -3.0380    -0.5640     0.7400 C.3   1 <1>   0.1200 
 10 C       -3.8970     1.4320    -0.1350 C.3   1 <1>   0.1200 
 11 C        2.9400    -0.3750     0.1340 C.ar  1 <1>  -0.1430 
 12 C        3.2640     1.9910     0.3780 C.ar  1 <1>  -0.1500 
 13 O       -4.0620     0.0490     0.0080 O.3   1 <1>  -0.5600 
 14 C        4.3080    -0.5270    -0.0270 C.ar  1 <1>  -0.1500 
 15 C        2.0440    -1.6060     0.0860 C.3   1 <1>  -0.0970 
 16 C        4.6270     1.8290     0.2190 C.ar  1 <1>  -0.1500 
 17 C        5.1570     0.5670     0.0140 C.ar  1 <1>  -0.1430 
 18 C        6.6520     0.3790    -0.1640 C.3   1 <1>  -0.0970 
 19 H        0.8300     1.8060     1.2090 H     1 <1>   0.4200 
 20 H       -0.8990    -0.7290     0.6960 H     1 <1>   0.0800 
 21 H       -1.6470    -0.7790    -0.8770 H     1 <1>   0.0800 
 22 H       -2.5590     1.3840    -1.8170 H     1 <1>   0.0800 
 23 H       -2.4220     2.8220    -0.8390 H     1 <1>   0.0800 
 24 H       -3.0560    -0.1810     1.7460 H     1 <1>   0.0800 
 25 H       -3.2380    -1.6200     0.7650 H     1 <1>   0.0800 
 26 H       -4.7080     1.7990    -0.7370 H     1 <1>   0.0800 
 27 H       -3.9520     1.8880     0.8380 H     1 <1>   0.0800 
 28 H        2.8600     2.9760     0.5270 H     1 <1>   0.1500 
 29 H        4.7220    -1.5070    -0.1870 H     1 <1>   0.1500 
 30 H        1.4410    -1.5830    -0.8040 H     1 <1>   0.0800 
 31 H        1.4020    -1.6260     0.9460 H     1 <1>   0.0800 
 32 H        2.6280    -2.5080     0.0770 H     1 <1>   0.0800 
 33 H        5.2730     2.6890     0.2530 H     1 <1>   0.1500 
 34 H        6.8480    -0.4030    -0.8760 H     1 <1>   0.0800 
 35 H        7.1000     0.1140     0.7760 H     1 <1>   0.0800 
 36 H        7.1070     1.2850    -0.5230 H     1 <1>   0.0800 
@<TRIPOS>BOND
  1   1   2  2   
  2   1   3  2   
  3   1   4  am  
  4   1   5  am  
  5   4   6  1   
  6   4   7  1   
  7   5   8  1   
  8   5  19  1   
  9   6   9  1   
 10   6  20  1   
 11   6  21  1   
 12   7  10  1   
 13   7  22  1   
 14   7  23  1   
 15   8  11  ar  
 16   8  12  ar  
 17   9  13  1   
 18   9  24  1   
 19   9  25  1   
 20  10  13  1   
 21  10  26  1   
 22  10  27  1   
 23  11  14  ar  
 24  11  15  1   
 25  12  16  ar  
 26  12  28  1   
 27  14  17  ar  
 28  14  29  1   
 29  15  30  1   
 30  15  31  1   
 31  15  32  1   
 32  16  17  ar  
 33  16  33  1   
 34  17  18  1   
 35  18  34  1   
 36  18  35  1   
 37  18  36  1   
@<TRIPOS>SUBSTRUCTURE
  1 ****   5 GROUP 4 **** **** 0

# MOE 2024.06 (io_trps.svl 2023.06)
