@<TRIPOS>MOLECULE
NONAME
41 42 1 0 0 
SMALL
USER_CHARGES


@<TRIPOS>ATOM
  1 O       -4.9690     2.1620    -1.8460 O.3   1 <1>  -0.3630 
  2 C       -4.2040     1.9100    -0.7570 C.ar  1 <1>   0.0830 
  3 C       -6.3550     1.9130    -1.7470 C.3   1 <1>   0.1200 
  4 C       -3.4800     2.9440    -0.1700 C.ar  1 <1>  -0.1440 
  5 C       -4.1480     0.6260    -0.2300 C.ar  1 <1>  -0.1500 
  6 C       -6.9560     2.9120    -0.7520 C.3   1 <1>   0.3430 
  7 C       -2.7280     2.6770     0.9650 C.ar  1 <1>  -0.1500 
  8 C       -3.4890     4.3560    -0.7500 C.3   1 <1>   0.1270 
  9 C       -3.3960     0.3740     0.9030 C.ar  1 <1>  -0.1500 
 10 N       -8.3940     2.6440    -0.4620 N.4   1 <1>  -0.9060 
 11 C       -2.6900     1.4010     1.5020 C.ar  1 <1>  -0.1500 
 12 C       -4.7480     5.1340    -0.3730 C.ar  1 <1>  -0.1430 
 13 C       -8.9330     3.6690     0.4540 C.3   1 <1>   0.3430 
 14 C       -5.4450     5.8410    -1.3430 C.ar  1 <1>  -0.1500 
 15 C       -5.2020     5.1620     0.9380 C.ar  1 <1>  -0.1500 
 16 C      -10.3940     3.3460     0.7250 C.3   1 <1>  -0.2400 
 17 C       -6.5810     6.5580    -1.0090 C.ar  1 <1>  -0.1500 
 18 C       -6.3370     5.8810     1.2750 C.ar  1 <1>  -0.1500 
 19 C       -7.0280     6.5790     0.3010 C.ar  1 <1>  -0.1500 
 20 H       -6.5010     0.8970    -1.4290 H     1 <1>   0.0800 
 21 H       -6.7730     2.0510    -2.7270 H     1 <1>   0.0800 
 22 H       -4.6720    -0.1820    -0.7050 H     1 <1>   0.1500 
 23 H       -6.8570     3.9020    -1.1630 H     1 <1>   0.0800 
 24 H       -6.3920     2.8710     0.1660 H     1 <1>   0.0800 
 25 H       -2.1610     3.4600     1.4390 H     1 <1>   0.1500 
 26 H       -3.3970     4.2930    -1.8200 H     1 <1>   0.0800 
 27 H       -2.6310     4.9000    -0.3960 H     1 <1>   0.0800 
 28 H       -3.3510    -0.6200     1.3140 H     1 <1>   0.1500 
 29 H       -8.5010     1.7180    -0.0320 H     1 <1>   0.4500 
 30 H       -8.9400     2.6520    -1.3320 H     1 <1>   0.4500 
 31 H       -2.1020     1.2060     2.3830 H     1 <1>   0.1500 
 32 H       -8.8490     4.6480     0.0070 H     1 <1>   0.0800 
 33 H       -8.3780     3.6700     1.3800 H     1 <1>   0.0800 
 34 H       -5.1000     5.8460    -2.3640 H     1 <1>   0.1500 
 35 H       -4.6640     4.6340     1.7080 H     1 <1>   0.1500 
 36 H      -10.9690     3.3690    -0.1840 H     1 <1>   0.0800 
 37 H      -10.8010     4.0850     1.3920 H     1 <1>   0.0800 
 38 H      -10.4950     2.3840     1.1960 H     1 <1>   0.0800 
 39 H       -7.1070     7.1140    -1.7670 H     1 <1>   0.1500 
 40 H       -6.6680     5.9110     2.2990 H     1 <1>   0.1500 
 41 H       -7.8990     7.1560     0.5630 H     1 <1>   0.1500 
@<TRIPOS>BOND
  1   1   2  1   
  2   1   3  1   
  3   2   4  ar  
  4   2   5  ar  
  5   3   6  1   
  6   3  20  1   
  7   3  21  1   
  8   4   7  ar  
  9   4   8  1   
 10   5   9  ar  
 11   5  22  1   
 12   6  10  1   
 13   6  23  1   
 14   6  24  1   
 15   7  11  ar  
 16   7  25  1   
 17   8  12  1   
 18   8  26  1   
 19   8  27  1   
 20   9  11  ar  
 21   9  28  1   
 22  10  13  1   
 23  10  29  1   
 24  10  30  1   
 25  11  31  1   
 26  12  14  ar  
 27  12  15  ar  
 28  13  16  1   
 29  13  32  1   
 30  13  33  1   
 31  14  17  ar  
 32  14  34  1   
 33  15  18  ar  
 34  15  35  1   
 35  16  36  1   
 36  16  37  1   
 37  16  38  1   
 38  17  19  ar  
 39  17  39  1   
 40  18  19  ar  
 41  18  40  1   
 42  19  41  1   
@<TRIPOS>SUBSTRUCTURE
  1 ****   6 GROUP 4 **** **** 0

# MOE 2024.06 (io_trps.svl 2023.06)
