@<TRIPOS>MOLECULE
NONAME
26 27 1 0 0 
SMALL
USER_CHARGES


@<TRIPOS>ATOM
  1 S       -0.3100     0.2210    -1.0560 S.3   1 <1>  -0.3710 
  2 C        1.3230     0.9640    -0.9970 C.2   1 <1>   0.6510 
  3 C       -1.4490     1.3900    -0.2300 C.3   1 <1>   0.0700 
  4 N        2.2340     0.3140    -1.6140 N.2   1 <1>  -0.6210 
  5 N        1.4880     2.1560    -0.3160 N.am  1 <1>  -0.4200 
  6 C       -0.7000     1.9920     0.9460 C.3   1 <1>  -0.1600 
  7 C        3.4990     0.8320    -1.6290 C.2   1 <1>   0.0210 
  8 C        2.7530     2.7310    -0.3790 C.2   1 <1>   0.6160 
  9 C        0.4400     2.8800     0.4570 C.3   1 <1>   0.1400 
 10 O        4.3520     0.1760    -2.2380 O.3   1 <1>  -0.8500 
 11 C        3.7810     2.0410    -1.0080 C.2   1 <1>  -0.1240 
 12 O        2.9000     3.8650     0.1230 O.2   1 <1>  -0.5700 
 13 C        5.1920     2.6180    -1.0340 C.3   1 <1>   0.1160 
 14 C        5.9180     2.5440     0.3100 C.2   1 <1>  -0.2880 
 15 C        5.5490     1.8190     1.3720 C.2   1 <1>  -0.3000 
 16 H       -2.3070     0.8230     0.0860 H     1 <1>   0.0800 
 17 H       -1.7360     2.1310    -0.9560 H     1 <1>   0.0800 
 18 H       -0.3180     1.2160     1.5880 H     1 <1>   0.0800 
 19 H       -1.3810     2.5920     1.5220 H     1 <1>   0.0800 
 20 H        0.0530     3.6730    -0.1590 H     1 <1>   0.0800 
 21 H        0.8960     3.3310     1.3220 H     1 <1>   0.0800 
 22 H        5.1260     3.6470    -1.3370 H     1 <1>   0.0800 
 23 H        5.7820     2.1080    -1.7740 H     1 <1>   0.0800 
 24 H        6.8030     3.1550     0.3170 H     1 <1>   0.1500 
 25 H        6.0850     1.7910     2.3020 H     1 <1>   0.1500 
 26 H        4.6790     1.1840     1.3850 H     1 <1>   0.1500 
@<TRIPOS>BOND
  1   1   2  1   
  2   1   3  1   
  3   2   4  2   
  4   2   5  1   
  5   3   6  1   
  6   3  16  1   
  7   3  17  1   
  8   4   7  1   
  9   5   8  am  
 10   5   9  1   
 11   6   9  1   
 12   6  18  1   
 13   6  19  1   
 14   7  10  1   
 15   7  11  2   
 16   8  11  1   
 17   8  12  2   
 18   9  20  1   
 19   9  21  1   
 20  11  13  1   
 21  13  14  1   
 22  13  22  1   
 23  13  23  1   
 24  14  15  2   
 25  14  24  1   
 26  15  25  1   
 27  15  26  1   
@<TRIPOS>SUBSTRUCTURE
  1 ****   8 GROUP 4 **** **** 0

# MOE 2024.06 (io_trps.svl 2023.06)
