@<TRIPOS>MOLECULE
NONAME
35 37 1 0 0 
SMALL
USER_CHARGES


@<TRIPOS>ATOM
  1 O       -0.2870     0.3690    -1.1580 O.3   1 <1>  -0.0190 
  2 N       -1.5170     0.0710    -0.8860 N.2   1 <1>  -0.4100 
  3 C       -0.1560     1.5990    -0.7330 C.2   1 <1>   0.2980 
  4 C       -2.0580     1.0970    -0.3300 C.2   1 <1>   0.4620 
  5 N       -1.1950     2.1110    -0.2170 N.2   1 <1>  -0.5650 
  6 C        1.1860     2.2880    -0.8920 C.3   1 <1>   0.0200 
  7 C       -3.4300     1.1830     0.1310 C.ar  1 <1>   0.0540 
  8 C        2.2600     1.6470     0.0020 C.3   1 <1>  -0.1600 
  9 C       -3.9570     2.3200     0.7300 C.ar  1 <1>  -0.1500 
 10 C       -4.3270     0.1300     0.0080 C.ar  1 <1>  -0.1500 
 11 C        3.6410     2.2970    -0.1770 C.3   1 <1>  -0.0800 
 12 C       -5.2720     2.3480     1.1510 C.ar  1 <1>   0.1600 
 13 C       -5.6260     0.2560     0.4620 C.ar  1 <1>   0.1600 
 14 C        4.7130     1.6330     0.6840 C.3   1 <1>  -0.1600 
 15 C        3.7050     3.7640     0.2480 C.3   1 <1>  -0.1600 
 16 N       -6.1220     1.3410     1.0310 N.ar  1 <1>  -0.6200 
 17 C        5.8370     2.6640     0.7690 C.3   1 <1>  -0.1600 
 18 C        5.1800     4.0320     0.5540 C.3   1 <1>  -0.1600 
 19 H        1.0690     3.3260    -0.6350 H     1 <1>   0.0800 
 20 H        1.4840     2.2300    -1.9230 H     1 <1>   0.0800 
 21 H        2.3370     0.6000    -0.2390 H     1 <1>   0.0800 
 22 H        1.9520     1.7230     1.0310 H     1 <1>   0.0800 
 23 H       -3.3380     3.1880     0.8690 H     1 <1>   0.1500 
 24 H       -4.0100    -0.7930    -0.4430 H     1 <1>   0.1500 
 25 H        3.9460     2.2230    -1.2080 H     1 <1>   0.0800 
 26 H       -5.6490     3.2460     1.6110 H     1 <1>   0.1500 
 27 H       -6.2950    -0.5810     0.3510 H     1 <1>   0.1500 
 28 H        5.0510     0.7030     0.2620 H     1 <1>   0.0800 
 29 H        4.3270     1.4520     1.6730 H     1 <1>   0.0800 
 30 H        3.1310     3.9070     1.1480 H     1 <1>   0.0800 
 31 H        3.3330     4.4230    -0.5160 H     1 <1>   0.0800 
 32 H        6.5530     2.4840    -0.0160 H     1 <1>   0.0800 
 33 H        6.3420     2.6110     1.7180 H     1 <1>   0.0800 
 34 H        5.2790     4.6530     1.4280 H     1 <1>   0.0800 
 35 H        5.6460     4.5300    -0.2800 H     1 <1>   0.0800 
@<TRIPOS>BOND
  1   1   2  1   
  2   1   3  1   
  3   2   4  2   
  4   3   5  2   
  5   3   6  1   
  6   4   5  1   
  7   4   7  1   
  8   6   8  1   
  9   6  19  1   
 10   6  20  1   
 11   7   9  ar  
 12   7  10  ar  
 13   8  11  1   
 14   8  21  1   
 15   8  22  1   
 16   9  12  ar  
 17   9  23  1   
 18  10  13  ar  
 19  10  24  1   
 20  11  14  1   
 21  11  15  1   
 22  11  25  1   
 23  12  16  ar  
 24  12  26  1   
 25  13  16  ar  
 26  13  27  1   
 27  14  17  1   
 28  14  28  1   
 29  14  29  1   
 30  15  18  1   
 31  15  30  1   
 32  15  31  1   
 33  17  18  1   
 34  17  32  1   
 35  17  33  1   
 36  18  34  1   
 37  18  35  1   
@<TRIPOS>SUBSTRUCTURE
  1 ****   3 GROUP 4 **** **** 0

# MOE 2024.06 (io_trps.svl 2023.06)
