@<TRIPOS>MOLECULE
NONAME
47 48 1 0 0 
SMALL
USER_CHARGES


@<TRIPOS>ATOM
  1 S       -0.2610     0.5030     0.4700 S.3   1 <1>  -0.0800 
  2 C        0.4150    -1.0910     0.2690 C.2   1 <1>   0.1040 
  3 C        1.2850     1.3080     0.1950 C.2   1 <1>  -0.0450 
  4 N       -0.3890    -2.2110     0.3750 N.am  1 <1>  -0.4940 
  5 C        1.7600    -1.0200     0.0070 C.2   1 <1>  -0.0860 
  6 C        2.2290     0.3470    -0.0410 C.2   1 <1>  -0.1810 
  7 C        1.2780     2.7490     0.2650 C.2   1 <1>   0.8050 
  8 C       -1.7220    -2.3820     0.6640 C.2   1 <1>   0.5690 
  9 C        2.5410    -2.2250    -0.1840 C.2   1 <1>   0.8060 
 10 C        3.6900     0.6780    -0.3470 C.3   1 <1>  -0.0590 
 11 O        2.2750     3.4380     0.1620 O.2   1 <1>  -0.5700 
 12 O        0.1060     3.3690     0.4570 O.3   1 <1>  -0.4300 
 13 O       -2.4800    -1.4850     0.9400 O.2   1 <1>  -0.5700 
 14 C       -2.3120    -3.8010     0.6250 C.3   1 <1>   0.4040 
 15 O        2.0250    -3.3320    -0.2320 O.2   1 <1>  -0.5700 
 16 O        3.8710    -2.1560    -0.3010 O.3   1 <1>  -0.4300 
 17 C        0.0040     4.7770     0.5440 C.3   1 <1>   0.0400 
 18 N       -3.8110    -3.8170     0.4270 N.4   1 <1>  -0.9590 
 19 C        4.6800    -3.3040    -0.4790 C.3   1 <1>   0.0400 
 20 C       -4.4240    -5.1290     0.7760 C.3   1 <1>   0.3430 
 21 C       -4.1950    -3.3400    -0.9350 C.3   1 <1>   0.3430 
 22 C       -5.9490    -5.0170     0.7140 C.3   1 <1>  -0.1600 
 23 C       -5.7160    -3.2040    -1.0210 C.3   1 <1>  -0.1600 
 24 C       -6.4290    -4.5120    -0.6530 C.3   1 <1>  -0.1600 
 25 H        0.1520    -3.0700     0.2010 H     1 <1>   0.3700 
 26 H        3.8660     1.7330    -0.4290 H     1 <1>   0.0800 
 27 H        3.9830     0.2350    -1.2810 H     1 <1>   0.0800 
 28 H        4.3250     0.3030     0.4350 H     1 <1>   0.0800 
 29 H       -2.0730    -4.2750     1.5610 H     1 <1>   0.0800 
 30 H       -1.8370    -4.3570    -0.1640 H     1 <1>   0.0800 
 31 H       -1.0280     5.0350     0.6990 H     1 <1>   0.0800 
 32 H        0.3600     5.2100    -0.3750 H     1 <1>   0.0800 
 33 H        0.5990     5.1190     1.3730 H     1 <1>   0.0800 
 34 H       -4.1770    -3.0990     1.0760 H     1 <1>   0.4500 
 35 H        5.7060    -2.9900    -0.5490 H     1 <1>   0.0800 
 36 H        4.3840    -3.8040    -1.3850 H     1 <1>   0.0800 
 37 H        4.5520    -3.9580     0.3670 H     1 <1>   0.0800 
 38 H       -4.1280    -5.4260     1.7690 H     1 <1>   0.0800 
 39 H       -4.0930    -5.8840     0.0810 H     1 <1>   0.0800 
 40 H       -3.8540    -4.0390    -1.6800 H     1 <1>   0.0800 
 41 H       -3.7430    -2.3790    -1.1320 H     1 <1>   0.0800 
 42 H       -6.2890    -4.3530     1.4900 H     1 <1>   0.0800 
 43 H       -6.3810    -5.9840     0.9080 H     1 <1>   0.0800 
 44 H       -5.9870    -2.9190    -2.0230 H     1 <1>   0.0800 
 45 H       -6.0390    -2.4120    -0.3660 H     1 <1>   0.0800 
 46 H       -7.4950    -4.3530    -0.6310 H     1 <1>   0.0800 
 47 H       -6.2250    -5.2570    -1.4050 H     1 <1>   0.0800 
@<TRIPOS>BOND
  1   1   2  1   
  2   1   3  1   
  3   2   4  1   
  4   2   5  2   
  5   3   6  2   
  6   3   7  1   
  7   4   8  am  
  8   4  25  1   
  9   5   6  1   
 10   5   9  1   
 11   6  10  1   
 12   7  11  2   
 13   7  12  1   
 14   8  13  2   
 15   8  14  1   
 16   9  15  2   
 17   9  16  1   
 18  10  26  1   
 19  10  27  1   
 20  10  28  1   
 21  12  17  1   
 22  14  18  1   
 23  14  29  1   
 24  14  30  1   
 25  16  19  1   
 26  17  31  1   
 27  17  32  1   
 28  17  33  1   
 29  18  20  1   
 30  18  21  1   
 31  18  34  1   
 32  19  35  1   
 33  19  36  1   
 34  19  37  1   
 35  20  22  1   
 36  20  38  1   
 37  20  39  1   
 38  21  23  1   
 39  21  40  1   
 40  21  41  1   
 41  22  24  1   
 42  22  42  1   
 43  22  43  1   
 44  23  24  1   
 45  23  44  1   
 46  23  45  1   
 47  24  46  1   
 48  24  47  1   
@<TRIPOS>SUBSTRUCTURE
  1 ****   2 GROUP 4 **** **** 0

# MOE 2024.06 (io_trps.svl 2023.06)
