@<TRIPOS>MOLECULE
NONAME
41 42 1 0 0 
SMALL
USER_CHARGES


@<TRIPOS>ATOM
  1 O        1.5650     1.6270    -0.7210 O.3   1 <1>  -0.3630 
  2 C        2.3700     0.5490    -0.5190 C.ar  1 <1>   0.0830 
  3 C        0.9140     1.8320    -1.9610 C.3   1 <1>   0.0400 
  4 C        2.8070     0.3020     0.7810 C.ar  1 <1>  -0.1440 
  5 C        2.7740    -0.2950    -1.5510 C.ar  1 <1>  -0.1500 
  6 C        3.6360    -0.7800     1.0370 C.ar  1 <1>  -0.1500 
  7 C        2.3820     1.2100     1.9190 C.3   1 <1>   0.4870 
  8 C        3.6030    -1.3690    -1.2850 C.ar  1 <1>  -0.1500 
  9 C        4.0330    -1.6120     0.0060 C.ar  1 <1>  -0.1500 
 10 N        2.8030     2.5900     1.6000 N.4   1 <1>  -0.9060 
 11 C        4.2560     2.7640     1.4290 C.3   1 <1>   0.4860 
 12 C        4.4440     4.1420     0.8440 C.ar  1 <1>  -0.1430 
 13 C        4.7140     5.2270     1.6650 C.ar  1 <1>  -0.1500 
 14 C        4.3340     4.3300    -0.5250 C.ar  1 <1>  -0.1500 
 15 C        4.8640     6.4890     1.1180 C.ar  1 <1>  -0.1500 
 16 C        4.4850     5.5940    -1.0670 C.ar  1 <1>  -0.1500 
 17 C        4.7470     6.6810    -0.2490 C.ar  1 <1>  -0.1430 
 18 C        4.9160     8.0690    -0.8460 C.3   1 <1>  -0.0170 
 19 C        6.3810     8.3240    -1.2070 C.3   1 <1>  -0.2400 
 20 H        1.6510     2.0170    -2.7220 H     1 <1>   0.0800 
 21 H        0.2670     2.6870    -1.8680 H     1 <1>   0.0800 
 22 H        0.3290     0.9600    -2.1990 H     1 <1>   0.0800 
 23 H        2.4590    -0.1370    -2.5660 H     1 <1>   0.1500 
 24 H        3.9800    -0.9950     2.0350 H     1 <1>   0.1500 
 25 H        2.8290     0.8840     2.8440 H     1 <1>   0.0800 
 26 H        1.3090     1.1670     2.0200 H     1 <1>   0.0800 
 27 H        3.9130    -2.0210    -2.0850 H     1 <1>   0.1500 
 28 H        4.6760    -2.4540     0.2060 H     1 <1>   0.1500 
 29 H        2.4360     3.2850     2.2550 H     1 <1>   0.4500 
 30 H        2.3810     2.7940     0.6800 H     1 <1>   0.4500 
 31 H        4.6510     2.0250     0.7490 H     1 <1>   0.0800 
 32 H        4.7670     2.6810     2.3750 H     1 <1>   0.0800 
 33 H        4.8140     5.1100     2.7300 H     1 <1>   0.1500 
 34 H        4.1340     3.5030    -1.1860 H     1 <1>   0.1500 
 35 H        5.0760     7.3280     1.7600 H     1 <1>   0.1500 
 36 H        4.4020     5.7340    -2.1310 H     1 <1>   0.1500 
 37 H        4.5830     8.8120    -0.1420 H     1 <1>   0.0800 
 38 H        4.3060     8.1620    -1.7280 H     1 <1>   0.0800 
 39 H        6.9970     8.2520    -0.3280 H     1 <1>   0.0800 
 40 H        6.4920     9.3070    -1.6280 H     1 <1>   0.0800 
 41 H        6.7190     7.5990    -1.9250 H     1 <1>   0.0800 
@<TRIPOS>BOND
  1   1   2  1   
  2   1   3  1   
  3   2   4  ar  
  4   2   5  ar  
  5   3  20  1   
  6   3  21  1   
  7   3  22  1   
  8   4   6  ar  
  9   4   7  1   
 10   5   8  ar  
 11   5  23  1   
 12   6   9  ar  
 13   6  24  1   
 14   7  10  1   
 15   7  25  1   
 16   7  26  1   
 17   8   9  ar  
 18   8  27  1   
 19   9  28  1   
 20  10  11  1   
 21  10  29  1   
 22  10  30  1   
 23  11  12  1   
 24  11  31  1   
 25  11  32  1   
 26  12  13  ar  
 27  12  14  ar  
 28  13  15  ar  
 29  13  33  1   
 30  14  16  ar  
 31  14  34  1   
 32  15  17  ar  
 33  15  35  1   
 34  16  17  ar  
 35  16  36  1   
 36  17  18  1   
 37  18  19  1   
 38  18  37  1   
 39  18  38  1   
 40  19  39  1   
 41  19  40  1   
 42  19  41  1   
@<TRIPOS>SUBSTRUCTURE
  1 ****  11 GROUP 4 **** **** 0

# MOE 2024.06 (io_trps.svl 2023.06)
