@<TRIPOS>MOLECULE
11823
54 55 1 0 0 
SMALL
USER_CHARGES


@<TRIPOS>ATOM
  1 S       -0.2570     0.2350     1.6770 S.o2  1 <1>   1.4470 
  2 O        0.6180    -0.5860     2.4890 O.2   1 <1>  -0.6500 
  3 O       -0.9610     1.3360     2.2980 O.2   1 <1>  -0.6500 
  4 N        0.6900     0.8810     0.4260 N.am  1 <1>  -0.8490 
  5 C       -1.4630    -0.8090     0.8110 C.ar  1 <1>  -0.0090 
  6 C        1.5710     1.9340     0.9390 C.3   1 <1>   0.1960 
  7 C        1.4290    -0.1590    -0.3020 C.3   1 <1>   0.1960 
  8 C       -1.5720    -2.1610     1.1040 C.ar  1 <1>  -0.1500 
  9 C       -2.3000    -0.2870    -0.1650 C.ar  1 <1>  -0.1500 
 10 C        2.1720     2.7610    -0.1960 C.3   1 <1>  -0.2400 
 11 C        1.0840    -0.0670    -1.7850 C.3   1 <1>  -0.2400 
 12 C       -2.4550    -2.9970     0.4330 C.ar  1 <1>   0.1170 
 13 C       -3.2120    -1.0870    -0.8310 C.ar  1 <1>  -0.1500 
 14 N       -2.5410    -4.3740     0.7100 N.am  1 <1>  -0.5470 
 15 C       -3.2990    -2.4430    -0.5350 C.ar  1 <1>   0.0820 
 16 C       -1.6210    -5.3330     1.0250 C.2   1 <1>   0.5690 
 17 O       -4.1840    -3.2810    -1.1480 O.3   1 <1>  -0.3630 
 18 O       -1.9940    -6.4690     1.1850 O.2   1 <1>  -0.5700 
 19 C       -0.1330    -5.0350     1.1930 C.3   1 <1>   0.1810 
 20 C       -5.0150    -2.8350    -2.1980 C.3   1 <1>   0.0400 
 21 O        0.3780    -4.3380     0.0650 O.3   1 <1>  -0.3630 
 22 C        1.6080    -3.7720     0.0690 C.ar  1 <1>   0.0820 
 23 C        2.2150    -3.5970    -1.1640 C.ar  1 <1>  -0.1500 
 24 C        2.2630    -3.3430     1.2190 C.ar  1 <1>  -0.1500 
 25 C        3.4600    -3.0010    -1.2550 C.ar  1 <1>  -0.1500 
 26 C        3.5070    -2.7450     1.1230 C.ar  1 <1>  -0.1500 
 27 C        4.1120    -2.5680    -0.1120 C.ar  1 <1>  -0.1440 
 28 C        5.4770    -1.9110    -0.2080 C.3   1 <1>  -0.0970 
 29 H        2.3490     1.5040     1.5490 H     1 <1>   0.0800 
 30 H        1.0010     2.6050     1.5610 H     1 <1>   0.0800 
 31 H        1.1540    -1.1390     0.0450 H     1 <1>   0.0800 
 32 H        2.4920    -0.0590    -0.1580 H     1 <1>   0.0800 
 33 H       -0.9500    -2.5580     1.8800 H     1 <1>   0.1500 
 34 H       -2.2330     0.7630    -0.4040 H     1 <1>   0.1500 
 35 H        2.8650     2.1810    -0.7760 H     1 <1>   0.0800 
 36 H        2.7030     3.5990     0.2160 H     1 <1>   0.0800 
 37 H        1.3890     3.1350    -0.8320 H     1 <1>   0.0800 
 38 H        0.0330    -0.2380    -1.9320 H     1 <1>   0.0800 
 39 H        1.6270    -0.8200    -2.3260 H     1 <1>   0.0800 
 40 H        1.3470     0.8950    -2.1810 H     1 <1>   0.0800 
 41 H       -3.8430    -0.6330    -1.5720 H     1 <1>   0.1500 
 42 H       -3.4400    -4.7810     0.4430 H     1 <1>   0.3700 
 43 H        0.4140    -5.9550     1.2840 H     1 <1>   0.0800 
 44 H        0.0050    -4.4540     2.0810 H     1 <1>   0.0800 
 45 H       -5.5940    -3.6730    -2.5440 H     1 <1>   0.0800 
 46 H       -4.4000    -2.4620    -2.9970 H     1 <1>   0.0800 
 47 H       -5.6710    -2.0690    -1.8240 H     1 <1>   0.0800 
 48 H        1.7050    -3.9300    -2.0500 H     1 <1>   0.1500 
 49 H        1.8250    -3.4440     2.1930 H     1 <1>   0.1500 
 50 H        3.9200    -2.8780    -2.2210 H     1 <1>   0.1500 
 51 H        4.0020    -2.4120     2.0190 H     1 <1>   0.1500 
 52 H        6.2450    -2.6560    -0.1090 H     1 <1>   0.0800 
 53 H        5.5980    -1.1820     0.5730 H     1 <1>   0.0800 
 54 H        5.5930    -1.4170    -1.1550 H     1 <1>   0.0800 
@<TRIPOS>BOND
  1   1   2  2   
  2   1   3  2   
  3   1   4  am  
  4   1   5  1   
  5   4   6  1   
  6   4   7  1   
  7   5   8  ar  
  8   5   9  ar  
  9   6  10  1   
 10   6  29  1   
 11   6  30  1   
 12   7  11  1   
 13   7  31  1   
 14   7  32  1   
 15   8  12  ar  
 16   8  33  1   
 17   9  13  ar  
 18   9  34  1   
 19  10  35  1   
 20  10  36  1   
 21  10  37  1   
 22  11  38  1   
 23  11  39  1   
 24  11  40  1   
 25  12  14  1   
 26  12  15  ar  
 27  13  15  ar  
 28  13  41  1   
 29  14  16  am  
 30  14  42  1   
 31  15  17  1   
 32  16  18  2   
 33  16  19  1   
 34  17  20  1   
 35  19  21  1   
 36  19  43  1   
 37  19  44  1   
 38  20  45  1   
 39  20  46  1   
 40  20  47  1   
 41  21  22  1   
 42  22  23  ar  
 43  22  24  ar  
 44  23  25  ar  
 45  23  48  1   
 46  24  26  ar  
 47  24  49  1   
 48  25  27  ar  
 49  25  50  1   
 50  26  27  ar  
 51  26  51  1   
 52  27  28  1   
 53  28  52  1   
 54  28  53  1   
 55  28  54  1   
@<TRIPOS>SUBSTRUCTURE
  1 ****   8 GROUP 4 **** **** 0

# MOE 2024.06 (io_trps.svl 2023.06)
