@<TRIPOS>MOLECULE
NONAME
37 36 1 0 0 
SMALL
USER_CHARGES


@<TRIPOS>ATOM
  1 O       -8.4030     3.2810     0.5720 O.2   1 <1>  -0.5700 
  2 C       -9.4630     2.7000     0.6290 C.2   1 <1>   0.5690 
  3 N       -9.9620     2.0570    -0.4670 N.am  1 <1>  -0.7300 
  4 C      -10.2310     2.6560     1.9450 C.3   1 <1>   0.2340 
  5 C       -9.5440     2.1840    -1.8980 C.3   1 <1>   0.1400 
  6 N      -10.5470     1.2790     2.2960 N.2   1 <1>  -0.1710 
  7 C       -8.2180     1.4550    -2.2030 C.3   1 <1>   0.3430 
  8 O      -11.6690     0.9590     2.2190 O.2   1 <1>  -0.1620 
  9 N       -7.0750     2.1260    -1.5170 N.4   1 <1>  -0.9060 
 10 C       -5.9740     1.2220    -1.1170 C.3   1 <1>   0.3430 
 11 C       -4.9990     1.9960    -0.2240 C.3   1 <1>  -0.1600 
 12 C       -3.8840     1.0830     0.3040 C.3   1 <1>   0.3430 
 13 N       -2.8920     1.8560     1.1100 N.4   1 <1>  -0.9590 
 14 C       -1.6660     1.0300     1.3610 C.3   1 <1>   0.2630 
 15 C       -3.4400     2.3360     2.4230 C.3   1 <1>   0.2630 
 16 H      -10.8340     1.5260    -0.3230 H     1 <1>   0.3700 
 17 H      -11.1360     3.2260     1.8440 H     1 <1>   0.0800 
 18 H       -9.6390     3.0890     2.7300 H     1 <1>   0.0800 
 19 H       -9.4590     3.2260    -2.1580 H     1 <1>   0.0800 
 20 H      -10.3190     1.7600    -2.5140 H     1 <1>   0.0800 
 21 H       -8.0470     1.4450    -3.2680 H     1 <1>   0.0800 
 22 H       -8.3090     0.4350    -1.8680 H     1 <1>   0.0800 
 23 H       -7.4810     2.5620    -0.6620 H     1 <1>   0.4500 
 24 H       -6.7410     2.9200    -2.0770 H     1 <1>   0.4500 
 25 H       -5.4680     0.8480    -1.9940 H     1 <1>   0.0800 
 26 H       -6.3800     0.3840    -0.5710 H     1 <1>   0.0800 
 27 H       -5.5470     2.4050     0.6070 H     1 <1>   0.0800 
 28 H       -4.5600     2.7960    -0.7940 H     1 <1>   0.0800 
 29 H       -3.3780     0.6260    -0.5320 H     1 <1>   0.0800 
 30 H       -4.3050     0.2950     0.9090 H     1 <1>   0.0800 
 31 H       -2.5910     2.6850     0.5700 H     1 <1>   0.4500 
 32 H       -1.9140     0.1510     1.9350 H     1 <1>   0.0800 
 33 H       -0.9340     1.6010     1.9100 H     1 <1>   0.0800 
 34 H       -1.2230     0.7190     0.4280 H     1 <1>   0.0800 
 35 H       -3.7680     1.5020     3.0220 H     1 <1>   0.0800 
 36 H       -4.2740     3.0000     2.2680 H     1 <1>   0.0800 
 37 H       -2.6810     2.8720     2.9710 H     1 <1>   0.0800 
@<TRIPOS>BOND
  1   1   2  2   
  2   2   3  am  
  3   2   4  1   
  4   3   5  1   
  5   3  16  1   
  6   4   6  1   
  7   4  17  1   
  8   4  18  1   
  9   5   7  1   
 10   5  19  1   
 11   5  20  1   
 12   6   8  2   
 13   7   9  1   
 14   7  21  1   
 15   7  22  1   
 16   9  10  1   
 17   9  23  1   
 18   9  24  1   
 19  10  11  1   
 20  10  25  1   
 21  10  26  1   
 22  11  12  1   
 23  11  27  1   
 24  11  28  1   
 25  12  13  1   
 26  12  29  1   
 27  12  30  1   
 28  13  14  1   
 29  13  15  1   
 30  13  31  1   
 31  14  32  1   
 32  14  33  1   
 33  14  34  1   
 34  15  35  1   
 35  15  36  1   
 36  15  37  1   
@<TRIPOS>SUBSTRUCTURE
  1 ****   1 GROUP 4 **** **** 0

# MOE 2024.06 (io_trps.svl 2023.06)
