@<TRIPOS>MOLECULE
NONAME
45 46 1 0 0 
SMALL
USER_CHARGES


@<TRIPOS>ATOM
  1 O        0.6180     2.1130     3.4850 O.2   1 <1>  -0.5700 
  2 C        0.2730     2.1610     2.3280 C.2   1 <1>   0.5690 
  3 N        1.0980     1.7830     1.3150 N.am  1 <1>  -0.7300 
  4 C       -1.1310     2.6600     2.0080 C.3   1 <1>   0.1810 
  5 C        2.4840     1.2980     1.4590 C.3   1 <1>   0.1400 
  6 O       -1.3790     2.6610     0.6070 O.3   1 <1>  -0.3620 
  7 C        3.3950     2.1160     0.5460 C.3   1 <1>  -0.1600 
  8 C       -2.5700     3.0730     0.1070 C.ar  1 <1>   0.0820 
  9 C        4.8570     1.6770     0.6800 C.3   1 <1>  -0.0160 
 10 C       -2.7100     3.0500    -1.2710 C.ar  1 <1>  -0.1500 
 11 C       -3.6340     3.5080     0.8930 C.ar  1 <1>  -0.1500 
 12 C        5.7420     2.4910    -0.2480 C.ar  1 <1>  -0.1440 
 13 C       -3.8930     3.4530    -1.8640 C.ar  1 <1>  -0.1500 
 14 C       -4.8160     3.9110     0.2960 C.ar  1 <1>  -0.1500 
 15 C        6.2500     3.7130     0.1650 C.ar  1 <1>  -0.1500 
 16 C        6.0490     2.0220    -1.5170 C.ar  1 <1>  -0.1500 
 17 C       -4.9530     3.8870    -1.0830 C.ar  1 <1>  -0.1440 
 18 C        7.0550     4.4580    -0.6790 C.ar  1 <1>  -0.1500 
 19 C        6.8550     2.7650    -2.3620 C.ar  1 <1>  -0.1500 
 20 C       -6.2540     4.3290    -1.7330 C.3   1 <1>  -0.0170 
 21 C        7.3590     3.9840    -1.9430 C.ar  1 <1>  -0.1500 
 22 C       -7.2080     3.1420    -1.8840 C.3   1 <1>  -0.2400 
 23 H        0.7300     1.8530     0.3610 H     1 <1>   0.3700 
 24 H       -1.2400     3.6650     2.3730 H     1 <1>   0.0800 
 25 H       -1.8500     2.0160     2.4800 H     1 <1>   0.0800 
 26 H        2.5230     0.2550     1.1920 H     1 <1>   0.0800 
 27 H        2.8000     1.3990     2.4850 H     1 <1>   0.0800 
 28 H        3.3160     3.1570     0.8070 H     1 <1>   0.0800 
 29 H        3.0840     1.9940    -0.4770 H     1 <1>   0.0800 
 30 H        4.9500     0.6320     0.4420 H     1 <1>   0.0800 
 31 H        5.1870     1.8110     1.6960 H     1 <1>   0.0800 
 32 H       -1.8890     2.7140    -1.8780 H     1 <1>   0.1500 
 33 H       -3.5670     3.5400     1.9630 H     1 <1>   0.1500 
 34 H       -3.9870     3.4270    -2.9350 H     1 <1>   0.1500 
 35 H       -5.6340     4.2430     0.9100 H     1 <1>   0.1500 
 36 H        6.0190     4.0900     1.1450 H     1 <1>   0.1500 
 37 H        5.6620     1.0770    -1.8530 H     1 <1>   0.1500 
 38 H        7.4460     5.4050    -0.3520 H     1 <1>   0.1500 
 39 H        7.0900     2.3960    -3.3450 H     1 <1>   0.1500 
 40 H       -6.0510     4.7530    -2.7010 H     1 <1>   0.0800 
 41 H       -6.7190     5.0920    -1.1350 H     1 <1>   0.0800 
 42 H        7.9850     4.5630    -2.6000 H     1 <1>   0.1500 
 43 H       -6.7580     2.3800    -2.4950 H     1 <1>   0.0800 
 44 H       -8.1260     3.4600    -2.3450 H     1 <1>   0.0800 
 45 H       -7.4320     2.7210    -0.9190 H     1 <1>   0.0800 
@<TRIPOS>BOND
  1   1   2  2   
  2   2   3  am  
  3   2   4  1   
  4   3   5  1   
  5   3  23  1   
  6   4   6  1   
  7   4  24  1   
  8   4  25  1   
  9   5   7  1   
 10   5  26  1   
 11   5  27  1   
 12   6   8  1   
 13   7   9  1   
 14   7  28  1   
 15   7  29  1   
 16   8  10  ar  
 17   8  11  ar  
 18   9  12  1   
 19   9  30  1   
 20   9  31  1   
 21  10  13  ar  
 22  10  32  1   
 23  11  14  ar  
 24  11  33  1   
 25  12  15  ar  
 26  12  16  ar  
 27  13  17  ar  
 28  13  34  1   
 29  14  17  ar  
 30  14  35  1   
 31  15  18  ar  
 32  15  36  1   
 33  16  19  ar  
 34  16  37  1   
 35  17  20  1   
 36  18  21  ar  
 37  18  38  1   
 38  19  21  ar  
 39  19  39  1   
 40  20  22  1   
 41  20  40  1   
 42  20  41  1   
 43  21  42  1   
 44  22  43  1   
 45  22  44  1   
 46  22  45  1   
@<TRIPOS>SUBSTRUCTURE
  1 ****   3 GROUP 4 **** **** 0

# MOE 2024.06 (io_trps.svl 2023.06)
