@<TRIPOS>MOLECULE
NONAME
37 38 1 0 0 
SMALL
USER_CHARGES


@<TRIPOS>ATOM
  1 O        7.4000    -2.6950    -0.4020 O.co2 1 <1>  -0.9000 
  2 C        8.3470    -2.0170     0.0440 C.2   1 <1>   1.0320 
  3 O        9.2750    -2.5950     0.6370 O.co2 1 <1>  -0.9000 
  4 C        8.3010    -0.5750    -0.1340 C.2   1 <1>  -0.0920 
  5 O        9.1460     0.2810     0.4390 O.3   1 <1>  -0.2800 
  6 C        7.4060     0.1380    -0.8640 C.2   1 <1>  -0.1500 
  7 C        8.8030     1.5080     0.1180 C.2   1 <1>  -0.0400 
  8 C        7.7130     1.4880    -0.6790 C.2   1 <1>  -0.1810 
  9 C        9.6350     2.6470     0.6800 C.3   1 <1>   0.0200 
 10 C        6.9100     2.6200    -1.2620 C.3   1 <1>   0.5240 
 11 C       11.0370     2.6500     0.0620 C.3   1 <1>  -0.1600 
 12 N        5.8500     2.9870    -0.2840 N.4   1 <1>  -0.9590 
 13 C       11.8900     3.8080     0.5930 C.3   1 <1>  -0.2400 
 14 C        4.9890     1.8280     0.1450 C.3   1 <1>   0.3430 
 15 C        5.0180     4.1590    -0.7100 C.3   1 <1>   0.3430 
 16 C        3.9560     2.2590     1.2110 C.3   1 <1>   0.1200 
 17 C        3.8310     4.4070     0.2500 C.3   1 <1>   0.1200 
 18 O        3.9680     3.6490     1.4190 O.3   1 <1>  -0.5600 
 19 H        6.6150    -0.2910    -1.4540 H     1 <1>   0.1500 
 20 H        9.7110     2.5230     1.7470 H     1 <1>   0.0800 
 21 H        9.1520     3.5860     0.4820 H     1 <1>   0.0800 
 22 H        6.4740     2.3100    -2.1970 H     1 <1>   0.0800 
 23 H        7.5580     3.4620    -1.4410 H     1 <1>   0.0800 
 24 H       10.9580     2.7220    -1.0090 H     1 <1>   0.0800 
 25 H       11.5230     1.7150     0.2910 H     1 <1>   0.0800 
 26 H        6.3260     3.2620     0.5860 H     1 <1>   0.4500 
 27 H       11.4390     4.7550     0.3540 H     1 <1>   0.0800 
 28 H       12.8680     3.7740     0.1470 H     1 <1>   0.0800 
 29 H       12.0020     3.7320     1.6600 H     1 <1>   0.0800 
 30 H        5.5980     1.0400     0.5600 H     1 <1>   0.0800 
 31 H        4.4700     1.4180    -0.7060 H     1 <1>   0.0800 
 32 H        4.6300     3.9980    -1.7030 H     1 <1>   0.0800 
 33 H        5.6290     5.0460    -0.7420 H     1 <1>   0.0800 
 34 H        4.1840     1.7880     2.1520 H     1 <1>   0.0800 
 35 H        2.9630     1.9610     0.9200 H     1 <1>   0.0800 
 36 H        2.8970     4.1470    -0.2200 H     1 <1>   0.0800 
 37 H        3.7880     5.4450     0.5300 H     1 <1>   0.0800 
@<TRIPOS>BOND
  1   1   2  ar  
  2   2   3  ar  
  3   2   4  1   
  4   4   5  1   
  5   4   6  2   
  6   5   7  1   
  7   6   8  1   
  8   6  19  1   
  9   7   8  2   
 10   7   9  1   
 11   8  10  1   
 12   9  11  1   
 13   9  20  1   
 14   9  21  1   
 15  10  12  1   
 16  10  22  1   
 17  10  23  1   
 18  11  13  1   
 19  11  24  1   
 20  11  25  1   
 21  12  14  1   
 22  12  15  1   
 23  12  26  1   
 24  13  27  1   
 25  13  28  1   
 26  13  29  1   
 27  14  16  1   
 28  14  30  1   
 29  14  31  1   
 30  15  17  1   
 31  15  32  1   
 32  15  33  1   
 33  16  18  1   
 34  16  34  1   
 35  16  35  1   
 36  17  18  1   
 37  17  36  1   
 38  17  37  1   
@<TRIPOS>SUBSTRUCTURE
  1 ****   8 GROUP 4 **** **** 0

# MOE 2024.06 (io_trps.svl 2023.06)
