@<TRIPOS>MOLECULE
NONAME
34 37 1 0 0 
SMALL
USER_CHARGES


@<TRIPOS>ATOM
  1 O       -0.7520     0.4680    -0.8910 O.2   1 <1>  -0.5700 
  2 C       -1.5950     0.5340    -0.0220 C.2   1 <1>   0.5180 
  3 N       -2.1410    -0.6220     0.5710 N.pl3 1 <1>   0.5610 
  4 C       -2.0480     1.9330     0.4730 C.3   1 <1>   0.0610 
  5 N       -2.6090    -0.7160     1.8530 N.2   1 <1>  -0.4180 
  6 C       -2.2640    -1.8610    -0.0020 C.ar  1 <1>  -0.1520 
  7 C       -3.5690     1.9990     0.8130 C.3   1 <1>   0.0580 
  8 C       -1.9450     3.0270    -0.6500 C.3   1 <1>  -0.1600 
  9 C       -1.1780     2.3400     1.6860 C.3   1 <1>  -0.2400 
 10 N       -3.0110    -1.9000     2.0890 N.2   1 <1>  -0.2270 
 11 C       -2.8180    -2.6450     0.9740 C.ar  1 <1>   0.2270 
 12 C       -1.9620    -2.3860    -1.2620 C.ar  1 <1>  -0.1500 
 13 C       -4.3070     1.4470    -0.3950 C.2   1 <1>  -0.2880 
 14 C       -3.8860     3.4780     0.5970 C.3   1 <1>  -0.1600 
 15 C       -3.3930     3.5130    -0.8410 C.3   1 <1>   0.0580 
 16 C       -3.0940    -3.9900     0.7280 C.ar  1 <1>  -0.1500 
 17 C       -2.2350    -3.7140    -1.5060 C.ar  1 <1>  -0.1500 
 18 C       -4.1830     2.3350    -1.3770 C.2   1 <1>  -0.2880 
 19 C       -2.8020    -4.5180    -0.5100 C.ar  1 <1>  -0.1500 
 20 H       -3.8890     1.6160     1.7670 H     1 <1>   0.0800 
 21 H       -1.5650     2.6520    -1.5840 H     1 <1>   0.0800 
 22 H       -1.3240     3.8490    -0.3410 H     1 <1>   0.0800 
 23 H       -1.3230     1.6560     2.5030 H     1 <1>   0.0800 
 24 H       -1.4130     3.3290     2.0340 H     1 <1>   0.0800 
 25 H       -0.1370     2.3220     1.4110 H     1 <1>   0.0800 
 26 H       -1.5230    -1.7610    -2.0240 H     1 <1>   0.1500 
 27 H       -4.7940     0.4860    -0.3620 H     1 <1>   0.1500 
 28 H       -3.3470     4.1450     1.2470 H     1 <1>   0.0800 
 29 H       -4.9420     3.6790     0.6660 H     1 <1>   0.0800 
 30 H       -3.5340     4.4480    -1.3560 H     1 <1>   0.0800 
 31 H       -3.5290    -4.5850     1.5100 H     1 <1>   0.1500 
 32 H       -2.0120    -4.1450    -2.4670 H     1 <1>   0.1500 
 33 H       -4.5300     2.3220    -2.3960 H     1 <1>   0.1500 
 34 H       -3.0060    -5.5530    -0.7230 H     1 <1>   0.1500 
@<TRIPOS>BOND
  1   1   2  2   
  2   2   3  1   
  3   2   4  1   
  4   3   5  1   
  5   3   6  1   
  6   4   7  1   
  7   4   8  1   
  8   4   9  1   
  9   5  10  2   
 10   6  11  ar  
 11   6  12  ar  
 12   7  13  1   
 13   7  14  1   
 14   7  20  1   
 15   8  15  1   
 16   8  21  1   
 17   8  22  1   
 18   9  23  1   
 19   9  24  1   
 20   9  25  1   
 21  10  11  1   
 22  11  16  ar  
 23  12  17  ar  
 24  12  26  1   
 25  13  18  2   
 26  13  27  1   
 27  14  15  1   
 28  14  28  1   
 29  14  29  1   
 30  15  18  1   
 31  15  30  1   
 32  16  19  ar  
 33  16  31  1   
 34  17  19  ar  
 35  17  32  1   
 36  18  33  1   
 37  19  34  1   
@<TRIPOS>SUBSTRUCTURE
  1 ****   3 GROUP 4 **** **** 0

# MOE 2024.06 (io_trps.svl 2023.06)
