@<TRIPOS>MOLECULE
NONAME
46 48 1 0 0 
SMALL
USER_CHARGES


@<TRIPOS>ATOM
  1 S       -0.8930    -0.8500    -0.0520 S.o2  1 <1>   1.4470 
  2 O       -1.1870    -1.4740     1.2190 O.2   1 <1>  -0.6500 
  3 O       -1.9650    -0.7060    -1.0130 O.2   1 <1>  -0.6500 
  4 N        0.2910    -1.8170    -0.8060 N.am  1 <1>  -0.8490 
  5 C       -0.1310     0.7820     0.1800 C.ar  1 <1>  -0.0090 
  6 C        1.3280    -2.2960     0.1500 C.3   1 <1>   0.2570 
  7 C       -0.3150    -2.9660    -1.4880 C.3   1 <1>   0.1160 
  8 C        0.0250     1.6550    -0.8670 C.ar  1 <1>  -0.1500 
  9 C        0.3350     1.1850     1.4450 C.ar  1 <1>  -0.1500 
 10 C        2.3080    -1.2200     0.6290 C.2   1 <1>   0.5690 
 11 C        0.6330     2.9170    -0.7180 C.ar  1 <1>   0.0000 
 12 C        0.9360     2.4000     1.6260 C.ar  1 <1>  -0.1500 
 13 O        2.5150    -1.0960     1.8120 O.2   1 <1>  -0.5700 
 14 N        2.9210    -0.4410    -0.2990 N.am  1 <1>  -0.7300 
 15 C        1.1090     3.2950     0.5530 C.ar  1 <1>   0.0000 
 16 C        0.7970     3.8110    -1.7960 C.ar  1 <1>  -0.1500 
 17 C        3.8340     0.6750    -0.0020 C.3   1 <1>   0.2200 
 18 C        1.7410     4.5450     0.6980 C.ar  1 <1>  -0.1500 
 19 C        1.4140     5.0190    -1.6280 C.ar  1 <1>  -0.1500 
 20 C        3.8850     1.6050    -1.2100 C.3   1 <1>  -0.1600 
 21 C        5.2590     0.1470     0.0940 C.3   1 <1>  -0.1600 
 22 C        1.8940     5.3900    -0.3660 C.ar  1 <1>  -0.1500 
 23 C        4.9190     1.0060    -2.1710 C.3   1 <1>  -0.1600 
 24 C        5.7430     0.0050    -1.3510 C.3   1 <1>  -0.1600 
 25 H        1.9250    -3.0500    -0.3290 H     1 <1>   0.0800 
 26 H        0.8680    -2.7540     1.0080 H     1 <1>   0.0800 
 27 H       -0.9980    -2.6270    -2.2500 H     1 <1>   0.0800 
 28 H       -0.8580    -3.5770    -0.7860 H     1 <1>   0.0800 
 29 H        0.4430    -3.5630    -1.9660 H     1 <1>   0.0800 
 30 H       -0.3280     1.3760    -1.8440 H     1 <1>   0.1500 
 31 H        0.2200     0.5100     2.2780 H     1 <1>   0.1500 
 32 H        1.2920     2.6870     2.5990 H     1 <1>   0.1500 
 33 H        2.6850    -0.5540    -1.2850 H     1 <1>   0.3700 
 34 H        0.4250     3.5230    -2.7630 H     1 <1>   0.1500 
 35 H        3.5220     1.1820     0.8970 H     1 <1>   0.0800 
 36 H        2.1050     4.8250     1.6710 H     1 <1>   0.1500 
 37 H        1.5390     5.6970    -2.4540 H     1 <1>   0.1500 
 38 H        4.2300     2.5690    -0.8800 H     1 <1>   0.0800 
 39 H        2.9240     1.7300    -1.6720 H     1 <1>   0.0800 
 40 H        5.3150    -0.7740     0.6470 H     1 <1>   0.0800 
 41 H        5.8610     0.8850     0.5950 H     1 <1>   0.0800 
 42 H        2.3780     6.3440    -0.2500 H     1 <1>   0.1500 
 43 H        5.5460     1.7810    -2.5790 H     1 <1>   0.0800 
 44 H        4.4270     0.4960    -2.9810 H     1 <1>   0.0800 
 45 H        5.5430    -0.9940    -1.6990 H     1 <1>   0.0800 
 46 H        6.7990     0.1970    -1.4300 H     1 <1>   0.0800 
@<TRIPOS>BOND
  1   1   2  2   
  2   1   3  2   
  3   1   4  am  
  4   1   5  1   
  5   4   6  1   
  6   4   7  1   
  7   5   8  ar  
  8   5   9  ar  
  9   6  10  1   
 10   6  25  1   
 11   6  26  1   
 12   7  27  1   
 13   7  28  1   
 14   7  29  1   
 15   8  11  ar  
 16   8  30  1   
 17   9  12  ar  
 18   9  31  1   
 19  10  13  2   
 20  10  14  am  
 21  11  15  ar  
 22  11  16  ar  
 23  12  15  ar  
 24  12  32  1   
 25  14  17  1   
 26  14  33  1   
 27  15  18  ar  
 28  16  19  ar  
 29  16  34  1   
 30  17  20  1   
 31  17  21  1   
 32  17  35  1   
 33  18  22  ar  
 34  18  36  1   
 35  19  22  ar  
 36  19  37  1   
 37  20  23  1   
 38  20  38  1   
 39  20  39  1   
 40  21  24  1   
 41  21  40  1   
 42  21  41  1   
 43  22  42  1   
 44  23  24  1   
 45  23  43  1   
 46  23  44  1   
 47  24  45  1   
 48  24  46  1   
@<TRIPOS>SUBSTRUCTURE
  1 ****   5 GROUP 4 **** **** 0

# MOE 2024.06 (io_trps.svl 2023.06)
