@<TRIPOS>MOLECULE
NONAME
38 39 1 0 0 
SMALL
USER_CHARGES


@<TRIPOS>ATOM
  1 O       -0.2470     1.0240     2.2950 O.2   1 <1>  -0.5700 
  2 C       -0.0550     1.6010     1.2530 C.2   1 <1>   0.6300 
  3 N        1.1780     1.7090     0.7090 N.am  1 <1>  -0.7300 
  4 C       -1.2360     2.2370     0.5280 C.3   1 <1>  -0.1000 
  5 C        2.4240     1.2770     1.3390 C.3   1 <1>   0.3640 
  6 C       -1.3070     2.3280    -0.9700 C.3   1 <1>  -0.1950 
  7 C       -1.1040     3.5710    -0.1660 C.3   1 <1>  -0.2000 
  8 C        3.5600     2.1840     0.8560 C.ar  1 <1>  -0.1430 
  9 C        2.6590    -0.2100     1.0790 C.3   1 <1>  -0.2400 
 10 C       -2.6290     2.0940    -1.7030 C.3   1 <1>  -0.1450 
 11 C        4.0190     2.2800    -0.4620 C.ar  1 <1>  -0.1430 
 12 C        4.1620     2.9760     1.8270 C.ar  1 <1>  -0.1500 
 13 C        5.0580     3.1500    -0.7610 C.ar  1 <1>  -0.1500 
 14 C        3.4600     1.4720    -1.6290 C.3   1 <1>  -0.0970 
 15 C        5.1950     3.8400     1.5150 C.ar  1 <1>  -0.1500 
 16 C        5.6490     3.9330     0.2140 C.ar  1 <1>  -0.1430 
 17 C        6.7850     4.8750    -0.1420 C.3   1 <1>  -0.0970 
 18 H        1.3150     2.2980    -0.1090 H     1 <1>   0.3700 
 19 H       -2.1540     2.0540     1.0560 H     1 <1>   0.1000 
 20 H        2.3120     1.3980     2.4050 H     1 <1>   0.0800 
 21 H       -0.4640     1.9580    -1.5290 H     1 <1>   0.1000 
 22 H       -0.1430     4.0570    -0.1920 H     1 <1>   0.1000 
 23 H       -1.9120     4.2740    -0.0660 H     1 <1>   0.1000 
 24 H        2.6040    -0.4480     0.0360 H     1 <1>   0.0800 
 25 H        1.9160    -0.7850     1.6030 H     1 <1>   0.0800 
 26 H        3.6270    -0.4900     1.4500 H     1 <1>   0.0800 
 27 H       -3.4570     2.4750    -1.1310 H     1 <1>   0.0800 
 28 H       -2.7780     1.0410    -1.8620 H     1 <1>   0.0800 
 29 H       -2.6120     2.5890    -2.6570 H     1 <1>   0.0800 
 30 H        3.8290     2.9290     2.8490 H     1 <1>   0.1500 
 31 H        5.4210     3.2210    -1.7710 H     1 <1>   0.1500 
 32 H        2.4000     1.3300    -1.5510 H     1 <1>   0.0800 
 33 H        3.9410     0.5110    -1.6640 H     1 <1>   0.0800 
 34 H        3.6480     1.9740    -2.5610 H     1 <1>   0.0800 
 35 H        5.6410     4.4380     2.2890 H     1 <1>   0.1500 
 36 H        7.7170     4.3410    -0.1320 H     1 <1>   0.0800 
 37 H        6.8400     5.6840     0.5650 H     1 <1>   0.0800 
 38 H        6.6310     5.2920    -1.1210 H     1 <1>   0.0800 
@<TRIPOS>BOND
  1   1   2  2   
  2   2   3  am  
  3   2   4  1   
  4   3   5  1   
  5   3  18  1   
  6   4   6  1   
  7   4   7  1   
  8   4  19  1   
  9   5   8  1   
 10   5   9  1   
 11   5  20  1   
 12   6   7  1   
 13   6  10  1   
 14   6  21  1   
 15   7  22  1   
 16   7  23  1   
 17   8  11  ar  
 18   8  12  ar  
 19   9  24  1   
 20   9  25  1   
 21   9  26  1   
 22  10  27  1   
 23  10  28  1   
 24  10  29  1   
 25  11  13  ar  
 26  11  14  1   
 27  12  15  ar  
 28  12  30  1   
 29  13  16  ar  
 30  13  31  1   
 31  14  32  1   
 32  14  33  1   
 33  14  34  1   
 34  15  16  ar  
 35  15  35  1   
 36  16  17  1   
 37  17  36  1   
 38  17  37  1   
 39  17  38  1   
@<TRIPOS>SUBSTRUCTURE
  1 ****   3 GROUP 4 **** **** 0

# MOE 2024.06 (io_trps.svl 2023.06)
