@<TRIPOS>MOLECULE
NONAME
38 40 1 0 0 
SMALL
USER_CHARGES


@<TRIPOS>ATOM
  1 S        0.3600     0.2630    -0.2180 S.o2  1 <1>   1.4470 
  2 O        0.6470    -0.2770     1.0910 O.2   1 <1>  -0.6500 
  3 O        0.4380    -0.5820    -1.3880 O.2   1 <1>  -0.6500 
  4 N        1.4700     1.5040    -0.4120 N.am  1 <1>  -0.9140 
  5 C       -1.2290     1.1370    -0.1950 C.ar  1 <1>  -0.0090 
  6 C        2.7000     1.1000    -1.0610 C.3   1 <1>   0.2760 
  7 C       -1.5760     2.0160    -1.2150 C.ar  1 <1>  -0.1500 
  8 C       -2.1430     0.9480     0.8370 C.ar  1 <1>  -0.1500 
  9 C        3.5970     0.1820    -0.1990 C.3   1 <1>  -0.0800 
 10 C        3.5990     2.3240    -1.2990 C.3   1 <1>  -0.1600 
 11 C       -2.7870     2.6850    -1.2040 C.ar  1 <1>  -0.1500 
 12 C       -3.3580     1.6120     0.8570 C.ar  1 <1>  -0.1500 
 13 C        4.9580     0.4430    -0.8290 C.3   1 <1>  -0.1600 
 14 C        3.8280     0.7740     1.2070 C.3   1 <1>  -0.1600 
 15 C        4.9140     1.9440    -0.5960 C.3   1 <1>  -0.0800 
 16 C       -3.6870     2.4900    -0.1710 C.ar  1 <1>   0.0830 
 17 C        4.6910     2.0150     0.9230 C.3   1 <1>  -0.1600 
 18 O       -4.8500     3.1820    -0.2320 O.3   1 <1>  -0.3620 
 19 C       -5.8400     3.0460     0.7630 C.3   1 <1>   0.0400 
 20 H        1.7310     1.7520     0.5380 H     1 <1>   0.4200 
 21 H        2.4890     0.6330    -2.0100 H     1 <1>   0.0800 
 22 H       -0.8860     2.1770    -2.0270 H     1 <1>   0.1500 
 23 H       -1.9000     0.2700     1.6380 H     1 <1>   0.1500 
 24 H        3.2970    -0.8520    -0.2070 H     1 <1>   0.0800 
 25 H        3.1820     3.2350    -0.9090 H     1 <1>   0.0800 
 26 H        3.7710     2.4390    -2.3540 H     1 <1>   0.0800 
 27 H       -3.0420     3.3620    -1.9990 H     1 <1>   0.1500 
 28 H       -4.0310     1.4350     1.6750 H     1 <1>   0.1500 
 29 H        4.9940     0.1820    -1.8740 H     1 <1>   0.0800 
 30 H        5.7640    -0.0380    -0.3010 H     1 <1>   0.0800 
 31 H        4.3850     0.0720     1.8060 H     1 <1>   0.0800 
 32 H        2.9220     1.0130     1.7320 H     1 <1>   0.0800 
 33 H        5.7740     2.4930    -0.9420 H     1 <1>   0.0800 
 34 H        5.6300     1.9410     1.4440 H     1 <1>   0.0800 
 35 H        4.1990     2.9270     1.2140 H     1 <1>   0.0800 
 36 H       -6.6660     3.6820     0.4990 H     1 <1>   0.0800 
 37 H       -5.4300     3.3540     1.7080 H     1 <1>   0.0800 
 38 H       -6.1640     2.0210     0.7960 H     1 <1>   0.0800 
@<TRIPOS>BOND
  1   1   2  2   
  2   1   3  2   
  3   1   4  am  
  4   1   5  1   
  5   4   6  1   
  6   4  20  1   
  7   5   7  ar  
  8   5   8  ar  
  9   6   9  1   
 10   6  10  1   
 11   6  21  1   
 12   7  11  ar  
 13   7  22  1   
 14   8  12  ar  
 15   8  23  1   
 16   9  13  1   
 17   9  14  1   
 18   9  24  1   
 19  10  15  1   
 20  10  25  1   
 21  10  26  1   
 22  11  16  ar  
 23  11  27  1   
 24  12  16  ar  
 25  12  28  1   
 26  13  15  1   
 27  13  29  1   
 28  13  30  1   
 29  14  17  1   
 30  14  31  1   
 31  14  32  1   
 32  15  17  1   
 33  15  33  1   
 34  16  18  1   
 35  17  34  1   
 36  17  35  1   
 37  18  19  1   
 38  19  36  1   
 39  19  37  1   
 40  19  38  1   
@<TRIPOS>SUBSTRUCTURE
  1 ****   1 GROUP 4 **** **** 0

# MOE 2024.06 (io_trps.svl 2023.06)
