@<TRIPOS>MOLECULE
NONAME
31 32 1 0 0 
SMALL
USER_CHARGES


@<TRIPOS>ATOM
  1 F       -0.1970     1.0730    -0.3790 F     1 <1>  -0.1900 
  2 C       -1.4860     1.2940    -0.3880 C.ar  1 <1>   0.1900 
  3 C       -1.9870     2.2890    -1.2050 C.ar  1 <1>  -0.1500 
  4 C       -2.3020     0.5240     0.4180 C.ar  1 <1>  -0.1500 
  5 C       -3.3530     2.5170    -1.2090 C.ar  1 <1>  -0.1500 
  6 C       -3.6650     0.7640     0.4020 C.ar  1 <1>  -0.1500 
  7 C       -4.2080     1.7630    -0.4080 C.ar  1 <1>   0.1170 
  8 N       -5.5840     2.0250    -0.4610 N.am  1 <1>  -0.5470 
  9 C       -6.5670     1.8190     0.4610 C.2   1 <1>   0.6900 
 10 O       -6.3260     1.4350     1.5880 O.2   1 <1>  -0.5700 
 11 N       -7.8410     2.0700     0.0770 N.am  1 <1>  -0.7300 
 12 C       -9.0280     1.9090     0.9340 C.3   1 <1>   0.2200 
 13 C       -9.8950     0.7930     0.3660 C.3   1 <1>  -0.1600 
 14 C       -9.9070     3.1440     0.7890 C.3   1 <1>  -0.1600 
 15 C      -10.7030     1.4270    -0.7720 C.3   1 <1>  -0.1600 
 16 C      -10.7110     2.9380    -0.5010 C.3   1 <1>  -0.1600 
 17 H       -1.3190     2.8670    -1.8180 H     1 <1>   0.1500 
 18 H       -1.8790    -0.2420     1.0430 H     1 <1>   0.1500 
 19 H       -3.7550     3.2900    -1.8370 H     1 <1>   0.1500 
 20 H       -4.3110     0.1680     1.0220 H     1 <1>   0.1500 
 21 H       -5.8950     2.5500    -1.2700 H     1 <1>   0.3700 
 22 H       -8.0580     2.2350    -0.9000 H     1 <1>   0.3700 
 23 H       -8.7430     1.7280     1.9580 H     1 <1>   0.0800 
 24 H      -10.5720     0.4670     1.1350 H     1 <1>   0.0800 
 25 H       -9.3110    -0.0520     0.0450 H     1 <1>   0.0800 
 26 H       -9.3340     4.0550     0.7830 H     1 <1>   0.0800 
 27 H      -10.5870     3.1740     1.6220 H     1 <1>   0.0800 
 28 H      -11.7020     1.0270    -0.8000 H     1 <1>   0.0800 
 29 H      -10.2250     1.2300    -1.7170 H     1 <1>   0.0800 
 30 H      -10.2370     3.4560    -1.3160 H     1 <1>   0.0800 
 31 H      -11.7150     3.3120    -0.3900 H     1 <1>   0.0800 
@<TRIPOS>BOND
  1   1   2  1   
  2   2   3  ar  
  3   2   4  ar  
  4   3   5  ar  
  5   3  17  1   
  6   4   6  ar  
  7   4  18  1   
  8   5   7  ar  
  9   5  19  1   
 10   6   7  ar  
 11   6  20  1   
 12   7   8  1   
 13   8   9  am  
 14   8  21  1   
 15   9  10  2   
 16   9  11  am  
 17  11  12  1   
 18  11  22  1   
 19  12  13  1   
 20  12  14  1   
 21  12  23  1   
 22  13  15  1   
 23  13  24  1   
 24  13  25  1   
 25  14  16  1   
 26  14  26  1   
 27  14  27  1   
 28  15  16  1   
 29  15  28  1   
 30  15  29  1   
 31  16  30  1   
 32  16  31  1   
@<TRIPOS>SUBSTRUCTURE
  1 ****   8 GROUP 4 **** **** 0

# MOE 2024.06 (io_trps.svl 2023.06)
