@<TRIPOS>MOLECULE
NONAME
42 43 1 0 0 
SMALL
USER_CHARGES


@<TRIPOS>ATOM
  1 O        1.0370     0.7160     1.9470 O.2   1 <1>  -0.5700 
  2 C        1.7570     1.5400     1.4210 C.2   1 <1>   0.6900 
  3 N        1.3060     2.4210     0.4500 N.am  1 <1>  -0.4690 
  4 N        3.0470     1.5560     1.7840 N.am  1 <1>  -0.7300 
  5 C        2.1930     3.2590    -0.2410 C.2   1 <1>  -0.0290 
  6 C       -0.1530     2.3940     0.1110 C.3   1 <1>   0.0600 
  7 C        4.0910     2.3070     1.0860 C.3   1 <1>   0.5020 
  8 C        3.5380     3.2270    -0.0010 C.2   1 <1>  -0.1240 
  9 C        1.5610     4.2070    -1.2650 C.3   1 <1>  -0.1020 
 10 C        5.1510     1.3080     0.6150 C.ar  1 <1>  -0.1440 
 11 C        4.5810     3.9670    -0.6500 C.2   1 <1>   0.7060 
 12 C        5.0170     0.5410    -0.5420 C.ar  1 <1>   0.0830 
 13 C        6.3050     1.1630     1.3750 C.ar  1 <1>  -0.1500 
 14 O        4.5280     4.3790    -1.7930 O.2   1 <1>  -0.5700 
 15 O        5.6930     4.2320     0.0530 O.3   1 <1>  -0.4300 
 16 O        3.9200     0.6350    -1.3220 O.3   1 <1>  -0.3630 
 17 C        6.0280    -0.3220    -0.9360 C.ar  1 <1>  -0.1500 
 18 C        7.3060     0.2880     0.9900 C.ar  1 <1>  -0.1500 
 19 C        6.8020     4.8910    -0.5290 C.3   1 <1>   0.0400 
 20 C        2.8780    -0.2880    -1.0940 C.3   1 <1>   0.1200 
 21 C        7.1710    -0.4530    -0.1690 C.ar  1 <1>  -0.1500 
 22 C        2.9420    -1.3950    -2.1440 C.3   1 <1>  -0.2400 
 23 H        3.3620     0.7810     2.3620 H     1 <1>   0.3700 
 24 H       -0.6600     1.5790     0.5970 H     1 <1>   0.0800 
 25 H       -0.2800     2.2730    -0.9500 H     1 <1>   0.0800 
 26 H       -0.6130     3.3120     0.4280 H     1 <1>   0.0800 
 27 H        4.5430     2.9430     1.8280 H     1 <1>   0.0800 
 28 H        1.2440     3.6520    -2.1300 H     1 <1>   0.0800 
 29 H        2.2330     4.9750    -1.5920 H     1 <1>   0.0800 
 30 H        0.7160     4.7160    -0.8400 H     1 <1>   0.0800 
 31 H        6.4380     1.7360     2.2770 H     1 <1>   0.1500 
 32 H        5.9190    -0.8830    -1.8450 H     1 <1>   0.1500 
 33 H        8.1940     0.1880     1.5900 H     1 <1>   0.1500 
 34 H        7.5740     4.9820     0.2140 H     1 <1>   0.0800 
 35 H        6.4920     5.8660    -0.8650 H     1 <1>   0.0800 
 36 H        7.1550     4.3060    -1.3610 H     1 <1>   0.0800 
 37 H        1.9500     0.2490    -1.1780 H     1 <1>   0.0800 
 38 H        2.9640    -0.6860    -0.0960 H     1 <1>   0.0800 
 39 H        7.9510    -1.1280    -0.4750 H     1 <1>   0.1500 
 40 H        2.9160    -0.9680    -3.1310 H     1 <1>   0.0800 
 41 H        2.0960    -2.0470    -2.0290 H     1 <1>   0.0800 
 42 H        3.8360    -1.9780    -2.0230 H     1 <1>   0.0800 
@<TRIPOS>BOND
  1   1   2  2   
  2   2   3  am  
  3   2   4  am  
  4   3   5  1   
  5   3   6  1   
  6   4   7  1   
  7   4  23  1   
  8   5   8  2   
  9   5   9  1   
 10   6  24  1   
 11   6  25  1   
 12   6  26  1   
 13   7   8  1   
 14   7  10  1   
 15   7  27  1   
 16   8  11  1   
 17   9  28  1   
 18   9  29  1   
 19   9  30  1   
 20  10  12  ar  
 21  10  13  ar  
 22  11  14  2   
 23  11  15  1   
 24  12  16  1   
 25  12  17  ar  
 26  13  18  ar  
 27  13  31  1   
 28  15  19  1   
 29  16  20  1   
 30  17  21  ar  
 31  17  32  1   
 32  18  21  ar  
 33  18  33  1   
 34  19  34  1   
 35  19  35  1   
 36  19  36  1   
 37  20  22  1   
 38  20  37  1   
 39  20  38  1   
 40  21  39  1   
 41  22  40  1   
 42  22  41  1   
 43  22  42  1   
@<TRIPOS>SUBSTRUCTURE
  1 ****   7 GROUP 4 **** **** 0

# MOE 2024.06 (io_trps.svl 2023.06)
