@<TRIPOS>MOLECULE
NONAME
39 40 1 0 0 
SMALL
USER_CHARGES


@<TRIPOS>ATOM
  1 O       -0.1920     0.8920    -1.4750 O.2   1 <1>  -0.5700 
  2 C       -0.2140     1.6610    -0.5340 C.2   1 <1>   0.7160 
  3 N       -1.4020     1.8890     0.0880 N.am  1 <1>  -0.7300 
  4 C        0.9780     2.3330    -0.0670 C.2   1 <1>  -0.0860 
  5 C       -2.7060     1.4290    -0.3900 C.3   1 <1>   0.3640 
  6 C        2.2920     2.1300    -0.3780 C.2   1 <1>  -0.0400 
  7 C        1.0140     3.4010     0.8590 C.2   1 <1>  -0.1500 
  8 C       -3.7490     2.4460     0.0570 C.ar  1 <1>  -0.1440 
  9 C       -2.9840     0.0370     0.1720 C.3   1 <1>  -0.2400 
 10 O        3.0660     2.9650     0.2710 O.3   1 <1>  -0.2800 
 11 C        2.9690     1.1400    -1.3060 C.3   1 <1>  -0.0600 
 12 C        2.3100     3.7340     1.0170 C.2   1 <1>  -0.0400 
 13 C       -4.4530     3.1690    -0.8940 C.ar  1 <1>  -0.1500 
 14 C       -4.0100     2.6780     1.4030 C.ar  1 <1>  -0.1500 
 15 C        2.9720     4.7930     1.8690 C.3   1 <1>  -0.0600 
 16 C       -5.4040     4.1060    -0.5220 C.ar  1 <1>   0.0820 
 17 C       -4.9580     3.6110     1.7850 C.ar  1 <1>  -0.1500 
 18 O       -6.0400     4.7600    -1.5250 O.3   1 <1>  -0.3620 
 19 C       -5.6560     4.3260     0.8290 C.ar  1 <1>  -0.1500 
 20 C       -7.0340     5.7240    -1.2580 C.3   1 <1>   0.0400 
 21 H       -1.4550     2.6080     0.8030 H     1 <1>   0.3700 
 22 H       -2.6900     1.3750    -1.4670 H     1 <1>   0.0800 
 23 H        0.1610     3.8520     1.3310 H     1 <1>   0.1500 
 24 H       -2.9300     0.0320     1.2440 H     1 <1>   0.0800 
 25 H       -2.2680    -0.6620    -0.2220 H     1 <1>   0.0800 
 26 H       -3.9660    -0.2800    -0.1270 H     1 <1>   0.0800 
 27 H        2.2570     0.4800    -1.7630 H     1 <1>   0.0800 
 28 H        3.6750     0.5520    -0.7500 H     1 <1>   0.0800 
 29 H        3.4920     1.6720    -2.0790 H     1 <1>   0.0800 
 30 H       -4.2720     3.0170    -1.9430 H     1 <1>   0.1500 
 31 H       -3.4780     2.1310     2.1620 H     1 <1>   0.1500 
 32 H        2.2340     5.3440     2.4220 H     1 <1>   0.0800 
 33 H        3.5200     5.4710     1.2410 H     1 <1>   0.0800 
 34 H        3.6530     4.3280     2.5590 H     1 <1>   0.0800 
 35 H       -5.1530     3.7800     2.8300 H     1 <1>   0.1500 
 36 H       -6.3870     5.0430     1.1510 H     1 <1>   0.1500 
 37 H       -7.3950     6.1010    -2.1980 H     1 <1>   0.0800 
 38 H       -6.5990     6.5250    -0.6860 H     1 <1>   0.0800 
 39 H       -7.8380     5.2560    -0.7190 H     1 <1>   0.0800 
@<TRIPOS>BOND
  1   1   2  2   
  2   2   3  am  
  3   2   4  1   
  4   3   5  1   
  5   3  21  1   
  6   4   6  2   
  7   4   7  1   
  8   5   8  1   
  9   5   9  1   
 10   5  22  1   
 11   6  10  1   
 12   6  11  1   
 13   7  12  2   
 14   7  23  1   
 15   8  13  ar  
 16   8  14  ar  
 17   9  24  1   
 18   9  25  1   
 19   9  26  1   
 20  10  12  1   
 21  11  27  1   
 22  11  28  1   
 23  11  29  1   
 24  12  15  1   
 25  13  16  ar  
 26  13  30  1   
 27  14  17  ar  
 28  14  31  1   
 29  15  32  1   
 30  15  33  1   
 31  15  34  1   
 32  16  18  1   
 33  16  19  ar  
 34  17  19  ar  
 35  17  35  1   
 36  18  20  1   
 37  19  36  1   
 38  20  37  1   
 39  20  38  1   
 40  20  39  1   
@<TRIPOS>SUBSTRUCTURE
  1 ****   3 GROUP 4 **** **** 0

# MOE 2024.06 (io_trps.svl 2023.06)
