@<TRIPOS>MOLECULE
NONAME
32 32 1 0 0 
SMALL
USER_CHARGES


@<TRIPOS>ATOM
  1 BR      -1.0380     0.3790     2.1220 Br    1 <1>  -0.1110 
  2 C       -2.2640     1.2260     0.9060 C.ar  1 <1>   0.1110 
  3 C       -3.4710     0.6090     0.6380 C.ar  1 <1>  -0.1500 
  4 C       -1.9070     2.4310     0.3310 C.ar  1 <1>  -0.1500 
  5 C       -4.3590     1.2160    -0.2380 C.ar  1 <1>  -0.1440 
  6 C       -2.7960     3.0350    -0.5410 C.ar  1 <1>  -0.1500 
  7 C       -4.0120     2.4290    -0.8220 C.ar  1 <1>  -0.1500 
  8 C       -5.6950     0.5570    -0.5570 C.3   1 <1>   0.2540 
  9 N       -6.4400     0.2320     0.6760 N.3   1 <1>  -0.8100 
 10 C       -7.6310    -0.6160     0.3790 C.3   1 <1>   0.1710 
 11 C       -6.8080     1.4390     1.4330 C.3   1 <1>   0.0300 
 12 C       -8.6950    -0.0030    -0.5410 C.2   1 <1>   0.6590 
 13 O       -8.6550    -0.1430    -1.7380 O.2   1 <1>  -0.5700 
 14 O       -9.6590     0.6910     0.0550 O.3   1 <1>  -0.4300 
 15 C      -10.6850     1.3080    -0.6860 C.3   1 <1>   0.1200 
 16 C      -11.6040     2.0320     0.2920 C.3   1 <1>  -0.2400 
 17 H       -3.7190    -0.3260     1.1090 H     1 <1>   0.1500 
 18 H       -0.9590     2.8820     0.5630 H     1 <1>   0.1500 
 19 H       -2.5430     3.9740    -1.0030 H     1 <1>   0.1500 
 20 H       -4.6920     2.9110    -1.5030 H     1 <1>   0.1500 
 21 H       -5.5020    -0.3500    -1.1050 H     1 <1>   0.0800 
 22 H       -6.2850     1.2040    -1.1830 H     1 <1>   0.0800 
 23 H       -8.1050    -0.8830     1.3070 H     1 <1>   0.0800 
 24 H       -7.2930    -1.5300    -0.0760 H     1 <1>   0.0800 
 25 H       -7.3650     1.1670     2.3130 H     1 <1>   0.0800 
 26 H       -5.9200     1.9610     1.7490 H     1 <1>   0.0800 
 27 H       -7.4040     2.1030     0.8300 H     1 <1>   0.0800 
 28 H      -11.2190     0.5470    -1.2300 H     1 <1>   0.0800 
 29 H      -10.2360     2.0000    -1.3800 H     1 <1>   0.0800 
 30 H      -12.0360     1.3310     0.9830 H     1 <1>   0.0800 
 31 H      -12.3990     2.5150    -0.2470 H     1 <1>   0.0800 
 32 H      -11.0540     2.7810     0.8340 H     1 <1>   0.0800 
@<TRIPOS>BOND
  1   1   2  1   
  2   2   3  ar  
  3   2   4  ar  
  4   3   5  ar  
  5   3  17  1   
  6   4   6  ar  
  7   4  18  1   
  8   5   7  ar  
  9   5   8  1   
 10   6   7  ar  
 11   6  19  1   
 12   7  20  1   
 13   8   9  1   
 14   8  21  1   
 15   8  22  1   
 16   9  10  1   
 17   9  11  1   
 18  10  12  1   
 19  10  23  1   
 20  10  24  1   
 21  11  25  1   
 22  11  26  1   
 23  11  27  1   
 24  12  13  2   
 25  12  14  1   
 26  14  15  1   
 27  15  16  1   
 28  15  28  1   
 29  15  29  1   
 30  16  30  1   
 31  16  31  1   
 32  16  32  1   
@<TRIPOS>SUBSTRUCTURE
  1 ****   8 GROUP 4 **** **** 0

# MOE 2024.06 (io_trps.svl 2023.06)
