@<TRIPOS>MOLECULE
NONAME
47 50 1 0 0 
SMALL
USER_CHARGES


@<TRIPOS>ATOM
  1 O        0.7510    -0.3540     1.1600 O.2   1 <1>  -0.5700 
  2 C        1.2940    -1.2810     0.6160 C.2   1 <1>   0.4230 
  3 C        2.6790    -1.2760     0.2410 C.ar  1 <1>   0.0860 
  4 C        0.4530    -2.5090     0.3060 C.3   1 <1>  -0.0990 
  5 C        3.2950    -2.3560    -0.3760 C.ar  1 <1>   0.1660 
  6 C        3.5010    -0.1870     0.4720 C.ar  1 <1>   0.1600 
  7 C        1.3010    -3.7890     0.2580 C.3   1 <1>  -0.1600 
  8 N        4.5560    -2.3460    -0.7280 N.ar  1 <1>  -0.6200 
  9 C        2.5020    -3.6200    -0.6830 C.3   1 <1>  -0.0160 
 10 N        4.7670    -0.1530     0.1300 N.ar  1 <1>  -0.6200 
 11 C        5.2440    -1.2350    -0.4780 C.ar  1 <1>   0.7200 
 12 N        6.5610    -1.2090    -0.8640 N.pl3 1 <1>  -0.8380 
 13 C        7.3670     0.0500    -0.9100 C.3   1 <1>   0.2090 
 14 C        7.3570    -2.4520    -1.1080 C.3   1 <1>   0.2090 
 15 C        8.5350    -0.0350     0.0930 C.3   1 <1>   0.3430 
 16 C        8.5480    -2.5250    -0.1280 C.3   1 <1>   0.3430 
 17 N        9.3860    -1.2640    -0.1170 N.4   1 <1>  -0.9590 
 18 C       10.4830    -1.3510     0.8820 C.3   1 <1>   0.4860 
 19 C       11.4170    -2.4720     0.4710 C.ar  1 <1>  -0.1440 
 20 C       11.3950    -3.6830     1.1490 C.ar  1 <1>  -0.1500 
 21 C       12.2950    -2.2990    -0.5900 C.ar  1 <1>  -0.1500 
 22 C       12.2340    -4.7130     0.7620 C.ar  1 <1>  -0.1500 
 23 C       13.1330    -3.3310    -0.9750 C.ar  1 <1>  -0.1500 
 24 C       13.1010    -4.5380    -0.3010 C.ar  1 <1>  -0.1500 
 25 H       -0.0350    -2.3560    -0.6390 H     1 <1>   0.0800 
 26 H       -0.3100    -2.6110     1.0580 H     1 <1>   0.0800 
 27 H        3.0820     0.6800     0.9570 H     1 <1>   0.1500 
 28 H        0.6960    -4.6190    -0.0660 H     1 <1>   0.0800 
 29 H        1.6610    -4.0100     1.2490 H     1 <1>   0.0800 
 30 H        3.1460    -4.4780    -0.5930 H     1 <1>   0.0800 
 31 H        2.1640    -3.5700    -1.7030 H     1 <1>   0.0800 
 32 H        6.7670     0.9140    -0.6830 H     1 <1>   0.0800 
 33 H        7.7510     0.1870    -1.9060 H     1 <1>   0.0800 
 34 H        7.7150    -2.4520    -2.1230 H     1 <1>   0.0800 
 35 H        6.7550    -3.3360    -0.9810 H     1 <1>   0.0800 
 36 H        8.1150    -0.0490     1.0860 H     1 <1>   0.0800 
 37 H        9.1390     0.8530     0.0010 H     1 <1>   0.0800 
 38 H        9.1620    -3.3710    -0.3910 H     1 <1>   0.0800 
 39 H        8.1520    -2.7020     0.8580 H     1 <1>   0.0800 
 40 H        9.8330    -1.2020    -1.0400 H     1 <1>   0.4500 
 41 H       10.0830    -1.5440     1.8640 H     1 <1>   0.0800 
 42 H       11.0350    -0.4250     0.9130 H     1 <1>   0.0800 
 43 H       10.7340    -3.8420     1.9850 H     1 <1>   0.1500 
 44 H       12.3470    -1.3660    -1.1250 H     1 <1>   0.1500 
 45 H       12.2180    -5.6530     1.2880 H     1 <1>   0.1500 
 46 H       13.8170    -3.1980    -1.7970 H     1 <1>   0.1500 
 47 H       13.7540    -5.3400    -0.6010 H     1 <1>   0.1500 
@<TRIPOS>BOND
  1   1   2  2   
  2   2   3  1   
  3   2   4  1   
  4   3   5  ar  
  5   3   6  ar  
  6   4   7  1   
  7   4  25  1   
  8   4  26  1   
  9   5   8  ar  
 10   5   9  1   
 11   6  10  ar  
 12   6  27  1   
 13   7   9  1   
 14   7  28  1   
 15   7  29  1   
 16   8  11  ar  
 17   9  30  1   
 18   9  31  1   
 19  10  11  ar  
 20  11  12  1   
 21  12  13  1   
 22  12  14  1   
 23  13  15  1   
 24  13  32  1   
 25  13  33  1   
 26  14  16  1   
 27  14  34  1   
 28  14  35  1   
 29  15  17  1   
 30  15  36  1   
 31  15  37  1   
 32  16  17  1   
 33  16  38  1   
 34  16  39  1   
 35  17  18  1   
 36  17  40  1   
 37  18  19  1   
 38  18  41  1   
 39  18  42  1   
 40  19  20  ar  
 41  19  21  ar  
 42  20  22  ar  
 43  20  43  1   
 44  21  23  ar  
 45  21  44  1   
 46  22  24  ar  
 47  22  45  1   
 48  23  24  ar  
 49  23  46  1   
 50  24  47  1   
@<TRIPOS>SUBSTRUCTURE
  1 ****  12 GROUP 4 **** **** 0

# MOE 2024.06 (io_trps.svl 2023.06)
