@<TRIPOS>MOLECULE
NONAME
45 46 1 0 0 
SMALL
USER_CHARGES


@<TRIPOS>ATOM
  1 O       -2.5020     2.3970     0.8990 O.3   1 <1>  -0.5600 
  2 C       -3.3140     1.6230     1.7330 C.3   1 <1>   0.1200 
  3 C       -2.6350     2.1310    -0.4670 C.3   1 <1>   0.1200 
  4 C       -4.7980     1.8440     1.3860 C.3   1 <1>   0.3430 
  5 C       -4.0870     2.3790    -0.9180 C.3   1 <1>   0.3430 
  6 N       -5.0700     1.6060    -0.0790 N.4   1 <1>  -0.9590 
  7 C       -6.4720     1.9370    -0.4610 C.3   1 <1>   0.3430 
  8 C       -7.4410     0.9290     0.1510 C.3   1 <1>  -0.1600 
  9 C       -8.8710     1.1990    -0.3130 C.3   1 <1>   0.1200 
 10 O       -9.6890     0.2390     0.3030 O.3   1 <1>  -0.3630 
 11 C      -11.0340     0.1910     0.1000 C.ar  1 <1>   0.0830 
 12 C      -11.7610    -0.8130     0.7410 C.ar  1 <1>  -0.1430 
 13 C      -11.6900     1.1040    -0.7240 C.ar  1 <1>  -0.1500 
 14 C      -13.1360    -0.8990     0.5370 C.ar  1 <1>  -0.1430 
 15 C      -11.0610    -1.8200     1.6560 C.3   1 <1>  -0.0970 
 16 C      -13.0560     1.0230    -0.9160 C.ar  1 <1>  -0.1430 
 17 C      -13.7690     0.0190    -0.2860 C.ar  1 <1>  -0.1500 
 18 C      -13.9830    -1.9830     1.1910 C.3   1 <1>  -0.0970 
 19 C      -13.7730     2.0160    -1.8130 C.3   1 <1>  -0.0970 
 20 H       -3.1210     1.9250     2.7480 H     1 <1>   0.0800 
 21 H       -3.0360     0.5880     1.6250 H     1 <1>   0.0800 
 22 H       -2.3340     1.1140    -0.6540 H     1 <1>   0.0800 
 23 H       -1.9650     2.7880    -0.9940 H     1 <1>   0.0800 
 24 H       -5.0580     2.8580     1.6450 H     1 <1>   0.0800 
 25 H       -5.4020     1.1850     1.9880 H     1 <1>   0.0800 
 26 H       -4.1880     2.1020    -1.9550 H     1 <1>   0.0800 
 27 H       -4.2880     3.4350    -0.8360 H     1 <1>   0.0800 
 28 H       -4.9140     0.6060    -0.2630 H     1 <1>   0.4500 
 29 H       -6.5700     1.9030    -1.5350 H     1 <1>   0.0800 
 30 H       -6.7210     2.9340    -0.1320 H     1 <1>   0.0800 
 31 H       -7.4240     0.9970     1.2240 H     1 <1>   0.0800 
 32 H       -7.1710    -0.0680    -0.1520 H     1 <1>   0.0800 
 33 H       -8.9670     1.0860    -1.3800 H     1 <1>   0.0800 
 34 H       -9.2080     2.1740    -0.0030 H     1 <1>   0.0800 
 35 H      -11.1570     1.8860    -1.2260 H     1 <1>   0.1500 
 36 H      -10.9550    -2.7580     1.1430 H     1 <1>   0.0800 
 37 H      -11.6310    -1.9740     2.5530 H     1 <1>   0.0800 
 38 H      -10.0860    -1.4850     1.9550 H     1 <1>   0.0800 
 39 H      -14.8310    -0.0460    -0.4410 H     1 <1>   0.1500 
 40 H      -14.0380    -1.8140     2.2510 H     1 <1>   0.0800 
 41 H      -13.5530    -2.9510     1.0100 H     1 <1>   0.0800 
 42 H      -14.9820    -1.9840     0.7960 H     1 <1>   0.0800 
 43 H      -13.2350     2.9460    -1.8560 H     1 <1>   0.0800 
 44 H      -14.7600     2.2140    -1.4360 H     1 <1>   0.0800 
 45 H      -13.8550     1.6140    -2.8070 H     1 <1>   0.0800 
@<TRIPOS>BOND
  1   1   2  1   
  2   1   3  1   
  3   2   4  1   
  4   2  20  1   
  5   2  21  1   
  6   3   5  1   
  7   3  22  1   
  8   3  23  1   
  9   4   6  1   
 10   4  24  1   
 11   4  25  1   
 12   5   6  1   
 13   5  26  1   
 14   5  27  1   
 15   6   7  1   
 16   6  28  1   
 17   7   8  1   
 18   7  29  1   
 19   7  30  1   
 20   8   9  1   
 21   8  31  1   
 22   8  32  1   
 23   9  10  1   
 24   9  33  1   
 25   9  34  1   
 26  10  11  1   
 27  11  12  ar  
 28  11  13  ar  
 29  12  14  ar  
 30  12  15  1   
 31  13  16  ar  
 32  13  35  1   
 33  14  17  ar  
 34  14  18  1   
 35  15  36  1   
 36  15  37  1   
 37  15  38  1   
 38  16  17  ar  
 39  16  19  1   
 40  17  39  1   
 41  18  40  1   
 42  18  41  1   
 43  18  42  1   
 44  19  43  1   
 45  19  44  1   
 46  19  45  1   
@<TRIPOS>SUBSTRUCTURE
  1 ****   9 GROUP 4 **** **** 0

# MOE 2024.06 (io_trps.svl 2023.06)
