@<TRIPOS>MOLECULE
NONAME
37 38 1 0 0 
SMALL
USER_CHARGES


@<TRIPOS>ATOM
  1 O        0.0070    -0.5230    -1.4680 O.2   1 <1>  -0.5700 
  2 C       -0.0050    -1.4020    -0.6270 C.2   1 <1>   0.5440 
  3 N        1.1410    -1.6400     0.0750 N.am  1 <1>  -0.7300 
  4 C       -1.2090    -2.1760    -0.3750 C.ar  1 <1>   0.0860 
  5 C        2.4570    -1.0180    -0.1550 C.3   1 <1>   0.2200 
  6 C       -2.4660    -1.6790    -0.7280 C.ar  1 <1>  -0.1500 
  7 C       -1.1720    -3.4390     0.2230 C.ar  1 <1>  -0.1500 
  8 C        3.4840    -2.1440    -0.4260 C.3   1 <1>   0.2000 
  9 C        2.7640    -0.1600     1.0760 C.3   1 <1>  -0.2400 
 10 C       -3.6270    -2.3920    -0.4940 C.ar  1 <1>  -0.1500 
 11 C       -2.3290    -4.1580     0.4620 C.ar  1 <1>  -0.1500 
 12 O        3.5210    -3.0600     0.6320 O.3   1 <1>  -0.5600 
 13 C        4.9350    -1.7240    -0.6270 C.3   1 <1>  -0.1600 
 14 C       -3.5650    -3.6440     0.1090 C.ar  1 <1>   0.0830 
 15 C        4.7560    -3.7060     0.6970 C.3   1 <1>   0.1200 
 16 C        5.6800    -3.0000    -0.2920 C.3   1 <1>  -0.1600 
 17 O       -4.6480    -4.4080     0.3760 O.3   1 <1>  -0.3630 
 18 C       -5.9530    -3.9850     0.0480 C.3   1 <1>   0.0400 
 19 H        1.1860    -2.3960     0.7600 H     1 <1>   0.3700 
 20 H        2.4080    -0.3790    -1.0210 H     1 <1>   0.0800 
 21 H       -2.5240    -0.7110    -1.1970 H     1 <1>   0.1500 
 22 H       -0.2280    -3.8720     0.5000 H     1 <1>   0.1500 
 23 H        3.1640    -2.6900    -1.2980 H     1 <1>   0.0800 
 24 H        2.9000    -0.7800     1.9440 H     1 <1>   0.0800 
 25 H        1.9540     0.5250     1.2520 H     1 <1>   0.0800 
 26 H        3.6550     0.4190     0.9220 H     1 <1>   0.0800 
 27 H       -4.5650    -1.9600    -0.7860 H     1 <1>   0.1500 
 28 H       -2.2830    -5.1280     0.9240 H     1 <1>   0.1500 
 29 H        5.2110    -0.9520     0.0660 H     1 <1>   0.0800 
 30 H        5.1200    -1.3850    -1.6310 H     1 <1>   0.0800 
 31 H        4.6190    -4.7440     0.4470 H     1 <1>   0.0800 
 32 H        5.1200    -3.6150     1.7070 H     1 <1>   0.0800 
 33 H        6.6510    -2.8120     0.1300 H     1 <1>   0.0800 
 34 H        5.7920    -3.6130    -1.1700 H     1 <1>   0.0800 
 35 H       -6.6400    -4.7540     0.3520 H     1 <1>   0.0800 
 36 H       -6.0160    -3.8380    -1.0150 H     1 <1>   0.0800 
 37 H       -6.1680    -3.0730     0.5780 H     1 <1>   0.0800 
@<TRIPOS>BOND
  1   1   2  2   
  2   2   3  am  
  3   2   4  1   
  4   3   5  1   
  5   3  19  1   
  6   4   6  ar  
  7   4   7  ar  
  8   5   8  1   
  9   5   9  1   
 10   5  20  1   
 11   6  10  ar  
 12   6  21  1   
 13   7  11  ar  
 14   7  22  1   
 15   8  12  1   
 16   8  13  1   
 17   8  23  1   
 18   9  24  1   
 19   9  25  1   
 20   9  26  1   
 21  10  14  ar  
 22  10  27  1   
 23  11  14  ar  
 24  11  28  1   
 25  12  15  1   
 26  13  16  1   
 27  13  29  1   
 28  13  30  1   
 29  14  17  1   
 30  15  16  1   
 31  15  31  1   
 32  15  32  1   
 33  16  33  1   
 34  16  34  1   
 35  17  18  1   
 36  18  35  1   
 37  18  36  1   
 38  18  37  1   
@<TRIPOS>SUBSTRUCTURE
  1 ****   2 GROUP 4 **** **** 0

# MOE 2024.06 (io_trps.svl 2023.06)
