@<TRIPOS>MOLECULE
NONAME
41 42 1 0 0 
SMALL
USER_CHARGES


@<TRIPOS>ATOM
  1 BR       1.5860     0.8800    -1.4040 Br    1 <1>  -0.1110 
  2 C        0.9080     2.5010    -0.6040 C.ar  1 <1>   0.1110 
  3 C        1.7790     3.3370     0.0760 C.ar  1 <1>   0.0820 
  4 C       -0.4370     2.7790    -0.7360 C.ar  1 <1>  -0.1500 
  5 O        3.0870     2.9800     0.1530 O.3   1 <1>  -0.3630 
  6 C        1.2560     4.4950     0.6390 C.ar  1 <1>  -0.1500 
  7 C       -0.9680     3.9370    -0.1750 C.ar  1 <1>  -0.1440 
  8 C        4.0420     3.7860     0.8320 C.3   1 <1>   0.1810 
  9 C       -0.0950     4.7830     0.5110 C.ar  1 <1>  -0.1500 
 10 C       -2.4760     4.2280    -0.3340 C.3   1 <1>   0.1440 
 11 C        5.4240     3.1500     0.7610 C.2   1 <1>   0.5690 
 12 C       -2.9140     5.5410     0.3380 C.3   1 <1>  -0.2400 
 13 C       -3.2890     3.0900     0.3000 C.3   1 <1>  -0.2400 
 14 C       -2.8240     4.3330    -1.8260 C.3   1 <1>  -0.2400 
 15 O        6.3470     3.7420     1.2650 O.2   1 <1>  -0.5700 
 16 N        5.5420     1.9430     0.1230 N.am  1 <1>  -0.5470 
 17 C        6.6400     1.0960    -0.1230 C.ar  1 <1>   0.1170 
 18 C        6.4920    -0.0010    -0.9750 C.ar  1 <1>   0.1600 
 19 C        7.8890     1.2850     0.4490 C.ar  1 <1>  -0.1500 
 20 N        7.4330    -0.8770    -1.2890 N.ar  1 <1>  -0.6200 
 21 C        8.8850     0.3860     0.1350 C.ar  1 <1>  -0.1500 
 22 C        8.6110    -0.6620    -0.7260 C.ar  1 <1>   0.1600 
 23 H       -1.0550     2.0860    -1.2760 H     1 <1>   0.1500 
 24 H        1.8750     5.1870     1.1780 H     1 <1>   0.1500 
 25 H        3.7440     3.8790     1.8600 H     1 <1>   0.0800 
 26 H        4.0690     4.7520     0.3630 H     1 <1>   0.0800 
 27 H       -0.4480     5.6910     0.9650 H     1 <1>   0.1500 
 28 H       -2.3940     6.3780    -0.0920 H     1 <1>   0.0800 
 29 H       -3.9690     5.7010     0.2010 H     1 <1>   0.0800 
 30 H       -2.7190     5.5090     1.3950 H     1 <1>   0.0800 
 31 H       -3.0970     2.1540    -0.1910 H     1 <1>   0.0800 
 32 H       -4.3430     3.2910     0.2310 H     1 <1>   0.0800 
 33 H       -3.0280     2.9850     1.3380 H     1 <1>   0.0800 
 34 H       -2.6280     3.4090    -2.3370 H     1 <1>   0.0800 
 35 H       -2.2350     5.1050    -2.2880 H     1 <1>   0.0800 
 36 H       -3.8640     4.5720    -1.9580 H     1 <1>   0.0800 
 37 H        4.6460     1.6220    -0.2570 H     1 <1>   0.3700 
 38 H        5.5280    -0.1600    -1.4240 H     1 <1>   0.1500 
 39 H        8.0880     2.1010     1.1190 H     1 <1>   0.1500 
 40 H        9.8690     0.4960     0.5550 H     1 <1>   0.1500 
 41 H        9.3980    -1.3570    -0.9640 H     1 <1>   0.1500 
@<TRIPOS>BOND
  1   1   2  1   
  2   2   3  ar  
  3   2   4  ar  
  4   3   5  1   
  5   3   6  ar  
  6   4   7  ar  
  7   4  23  1   
  8   5   8  1   
  9   6   9  ar  
 10   6  24  1   
 11   7   9  ar  
 12   7  10  1   
 13   8  11  1   
 14   8  25  1   
 15   8  26  1   
 16   9  27  1   
 17  10  12  1   
 18  10  13  1   
 19  10  14  1   
 20  11  15  2   
 21  11  16  am  
 22  12  28  1   
 23  12  29  1   
 24  12  30  1   
 25  13  31  1   
 26  13  32  1   
 27  13  33  1   
 28  14  34  1   
 29  14  35  1   
 30  14  36  1   
 31  16  17  1   
 32  16  37  1   
 33  17  18  ar  
 34  17  19  ar  
 35  18  20  ar  
 36  18  38  1   
 37  19  21  ar  
 38  19  39  1   
 39  20  22  ar  
 40  21  22  ar  
 41  21  40  1   
 42  22  41  1   
@<TRIPOS>SUBSTRUCTURE
  1 ****   5 GROUP 4 **** **** 0

# MOE 2024.06 (io_trps.svl 2023.06)
