@<TRIPOS>MOLECULE
NONAME
38 39 1 0 0 
SMALL
USER_CHARGES


@<TRIPOS>ATOM
  1 CL      -0.3580    -0.8920     0.0650 Cl    1 <1>  -0.1770 
  2 C       -1.3930     0.5240     0.1150 C.ar  1 <1>   0.1770 
  3 C       -0.9760     1.7960    -0.3000 C.ar  1 <1>   0.0820 
  4 C       -2.6810     0.3170     0.5740 C.ar  1 <1>  -0.1500 
  5 O        0.2620     2.1310    -0.7520 O.3   1 <1>  -0.3630 
  6 C       -1.8950     2.8350    -0.2600 C.ar  1 <1>  -0.1500 
  7 C       -3.5800     1.3690     0.6180 C.ar  1 <1>  -0.1500 
  8 C        1.4240     1.5140    -0.2540 C.3   1 <1>   0.1200 
  9 C       -3.1850     2.6280     0.1970 C.ar  1 <1>  -0.1500 
 10 C        2.5890     2.4840    -0.4550 C.3   1 <1>  -0.1600 
 11 C        3.9120     1.8840     0.0410 C.3   1 <1>  -0.1600 
 12 C        5.0620     2.8710    -0.1700 C.3   1 <1>   0.3430 
 13 N        6.3290     2.3140     0.3760 N.4   1 <1>  -0.9590 
 14 C        7.4220     3.3160     0.4160 C.3   1 <1>   0.3430 
 15 C        6.8700     1.1610    -0.3880 C.3   1 <1>   0.3430 
 16 C        8.6920     2.4850     0.5450 C.3   1 <1>  -0.1600 
 17 C        8.3370     1.0930     0.0150 C.3   1 <1>  -0.1600 
 18 H       -2.9810    -0.6660     0.8900 H     1 <1>   0.1500 
 19 H       -1.5910     3.8130    -0.5880 H     1 <1>   0.1500 
 20 H       -4.5830     1.2100     0.9740 H     1 <1>   0.1500 
 21 H        1.5860     0.6070    -0.8100 H     1 <1>   0.0800 
 22 H        1.2790     1.2960     0.7910 H     1 <1>   0.0800 
 23 H       -3.8830     3.4470     0.2240 H     1 <1>   0.1500 
 24 H        2.3750     3.3920     0.0840 H     1 <1>   0.0800 
 25 H        2.6640     2.7160    -1.5040 H     1 <1>   0.0800 
 26 H        4.1010     0.9740    -0.5010 H     1 <1>   0.0800 
 27 H        3.8200     1.6550     1.0880 H     1 <1>   0.0800 
 28 H        4.8260     3.7940     0.3350 H     1 <1>   0.0800 
 29 H        5.1740     3.0830    -1.2220 H     1 <1>   0.0800 
 30 H        6.1680     1.9990     1.3420 H     1 <1>   0.4500 
 31 H        7.3080     4.0030     1.2400 H     1 <1>   0.0800 
 32 H        7.4480     3.8670    -0.5110 H     1 <1>   0.0800 
 33 H        6.7960     1.3560    -1.4460 H     1 <1>   0.0800 
 34 H        6.3490     0.2450    -0.1540 H     1 <1>   0.0800 
 35 H        8.9870     2.4290     1.5790 H     1 <1>   0.0800 
 36 H        9.4940     2.9350    -0.0140 H     1 <1>   0.0800 
 37 H        8.9450     0.8200    -0.8310 H     1 <1>   0.0800 
 38 H        8.4710     0.3510     0.7840 H     1 <1>   0.0800 
@<TRIPOS>BOND
  1   1   2  1   
  2   2   3  ar  
  3   2   4  ar  
  4   3   5  1   
  5   3   6  ar  
  6   4   7  ar  
  7   4  18  1   
  8   5   8  1   
  9   6   9  ar  
 10   6  19  1   
 11   7   9  ar  
 12   7  20  1   
 13   8  10  1   
 14   8  21  1   
 15   8  22  1   
 16   9  23  1   
 17  10  11  1   
 18  10  24  1   
 19  10  25  1   
 20  11  12  1   
 21  11  26  1   
 22  11  27  1   
 23  12  13  1   
 24  12  28  1   
 25  12  29  1   
 26  13  14  1   
 27  13  15  1   
 28  13  30  1   
 29  14  16  1   
 30  14  31  1   
 31  14  32  1   
 32  15  17  1   
 33  15  33  1   
 34  15  34  1   
 35  16  17  1   
 36  16  35  1   
 37  16  36  1   
 38  17  37  1   
 39  17  38  1   
@<TRIPOS>SUBSTRUCTURE
  1 ****   8 GROUP 4 **** **** 0

# MOE 2024.06 (io_trps.svl 2023.06)
