@<TRIPOS>MOLECULE
NONAME
46 47 1 0 0 
SMALL
USER_CHARGES


@<TRIPOS>ATOM
  1 O        3.1450    -5.2940    -0.9040 O.3   1 <1>  -0.3630 
  2 C        1.8760    -5.5980    -0.5150 C.ar  1 <1>   0.0830 
  3 C        3.8440    -4.2140    -0.3380 C.3   1 <1>   0.1200 
  4 C        1.3730    -6.8500    -0.8650 C.ar  1 <1>  -0.1440 
  5 C        1.0820    -4.7140     0.2120 C.ar  1 <1>  -0.1500 
  6 C        5.2870    -4.3060    -0.8380 C.3   1 <1>   0.3430 
  7 C        0.0920    -7.2010    -0.4690 C.ar  1 <1>  -0.1500 
  8 C        2.1970    -7.8480    -1.6700 C.3   1 <1>   0.1220 
  9 C       -0.1970    -5.0750     0.5960 C.ar  1 <1>  -0.1500 
 10 N        6.1390    -3.2110    -0.2810 N.4   1 <1>  -0.9060 
 11 C       -0.6980    -6.3270     0.2570 C.ar  1 <1>   0.0830 
 12 C        3.0980    -8.6570    -0.7520 C.2   1 <1>  -0.2880 
 13 C        7.5440    -3.2770    -0.7290 C.3   1 <1>   0.4230 
 14 O       -1.9400    -6.7640     0.5950 O.3   1 <1>  -0.3630 
 15 C        3.1150    -9.9910    -0.6660 C.2   1 <1>  -0.3000 
 16 C        8.2760    -4.3630     0.0550 C.3   1 <1>  -0.1600 
 17 C        8.2410    -2.0040    -0.2680 C.3   1 <1>  -0.1600 
 18 C       -2.8190    -5.9560     1.3450 C.3   1 <1>   0.0400 
 19 C        8.6100    -3.7440     1.4180 C.3   1 <1>  -0.1600 
 20 C        8.5840    -2.2240     1.2110 C.3   1 <1>  -0.1600 
 21 H        3.7970    -4.3120     0.7320 H     1 <1>   0.0800 
 22 H        3.3740    -3.3040    -0.6680 H     1 <1>   0.0800 
 23 H        1.4310    -3.7380     0.4860 H     1 <1>   0.1500 
 24 H        5.2840    -4.2510    -1.9140 H     1 <1>   0.0800 
 25 H        5.6880    -5.2630    -0.5460 H     1 <1>   0.0800 
 26 H       -0.3110    -8.1660    -0.7190 H     1 <1>   0.1500 
 27 H        2.7960    -7.3310    -2.3980 H     1 <1>   0.0800 
 28 H        1.5420    -8.5080    -2.2100 H     1 <1>   0.0800 
 29 H       -0.7880    -4.3740     1.1550 H     1 <1>   0.1500 
 30 H        6.1590    -3.2470     0.7450 H     1 <1>   0.4500 
 31 H        5.7610    -2.2950    -0.5470 H     1 <1>   0.4500 
 32 H        3.7380    -8.0330    -0.1530 H     1 <1>   0.1500 
 33 H        7.6110    -3.4140    -1.7970 H     1 <1>   0.0800 
 34 H        3.7600   -10.5430    -0.0040 H     1 <1>   0.1500 
 35 H        2.4860   -10.6450    -1.2460 H     1 <1>   0.1500 
 36 H        9.2010    -4.5760    -0.4550 H     1 <1>   0.0800 
 37 H        7.7300    -5.2860     0.1420 H     1 <1>   0.0800 
 38 H        7.6620    -1.1130    -0.4330 H     1 <1>   0.0800 
 39 H        9.1620    -1.9080    -0.8190 H     1 <1>   0.0800 
 40 H       -3.7300    -6.5060     1.4950 H     1 <1>   0.0800 
 41 H       -3.0230    -5.0560     0.7930 H     1 <1>   0.0800 
 42 H       -2.3660    -5.7340     2.2950 H     1 <1>   0.0800 
 43 H        9.5790    -4.0730     1.7580 H     1 <1>   0.0800 
 44 H        7.8790    -4.0300     2.1560 H     1 <1>   0.0800 
 45 H        7.8370    -1.7770     1.8460 H     1 <1>   0.0800 
 46 H        9.5380    -1.7830     1.4510 H     1 <1>   0.0800 
@<TRIPOS>BOND
  1   1   2  1   
  2   1   3  1   
  3   2   4  ar  
  4   2   5  ar  
  5   3   6  1   
  6   3  21  1   
  7   3  22  1   
  8   4   7  ar  
  9   4   8  1   
 10   5   9  ar  
 11   5  23  1   
 12   6  10  1   
 13   6  24  1   
 14   6  25  1   
 15   7  11  ar  
 16   7  26  1   
 17   8  12  1   
 18   8  27  1   
 19   8  28  1   
 20   9  11  ar  
 21   9  29  1   
 22  10  13  1   
 23  10  30  1   
 24  10  31  1   
 25  11  14  1   
 26  12  15  2   
 27  12  32  1   
 28  13  16  1   
 29  13  17  1   
 30  13  33  1   
 31  14  18  1   
 32  15  34  1   
 33  15  35  1   
 34  16  19  1   
 35  16  36  1   
 36  16  37  1   
 37  17  20  1   
 38  17  38  1   
 39  17  39  1   
 40  18  40  1   
 41  18  41  1   
 42  18  42  1   
 43  19  20  1   
 44  19  43  1   
 45  19  44  1   
 46  20  45  1   
 47  20  46  1   
@<TRIPOS>SUBSTRUCTURE
  1 ****   1 GROUP 4 **** **** 0

# MOE 2024.06 (io_trps.svl 2023.06)
