@<TRIPOS>MOLECULE
NONAME
49 51 1 0 0 
SMALL
USER_CHARGES


@<TRIPOS>ATOM
  1 S        0.2550    -1.0360    -1.6550 S.o2  1 <1>   1.4470 
  2 O        1.1450    -1.9070    -2.3940 O.2   1 <1>  -0.6500 
  3 O        0.0010     0.2960    -2.1600 O.2   1 <1>  -0.6500 
  4 N        0.9250    -0.8540    -0.1080 N.am  1 <1>  -0.8490 
  5 C       -1.3070    -1.9070    -1.3500 C.ar  1 <1>  -0.0090 
  6 C        0.2000     0.1250     0.7270 C.3   1 <1>   0.1960 
  7 C        2.3410    -0.4650    -0.1880 C.3   1 <1>   0.1960 
  8 C       -2.4340    -1.2110    -0.9400 C.ar  1 <1>  -0.1500 
  9 C       -1.4120    -3.2870    -1.4810 C.ar  1 <1>  -0.1500 
 10 C        0.8680     0.2900     2.1040 C.3   1 <1>   0.1200 
 11 C        2.9530    -0.2900     1.2130 C.3   1 <1>   0.1200 
 12 C       -3.6230    -1.8500    -0.6210 C.ar  1 <1>   0.1170 
 13 C       -2.6010    -3.9470    -1.2140 C.ar  1 <1>  -0.1500 
 14 O        2.2170     0.6360     1.9620 O.3   1 <1>  -0.5600 
 15 N       -4.7320    -1.1410    -0.1340 N.am  1 <1>  -0.5470 
 16 C       -3.7140    -3.2340    -0.7860 C.ar  1 <1>   0.0820 
 17 C       -4.7970    -0.0110     0.6460 C.2   1 <1>   0.5440 
 18 O       -4.9170    -3.8170    -0.5080 O.3   1 <1>  -0.3630 
 19 O       -3.7710     0.4980     1.0570 O.2   1 <1>  -0.5700 
 20 C       -6.0920     0.5390     1.0030 C.ar  1 <1>   0.0860 
 21 C       -5.0920    -5.2130    -0.5820 C.3   1 <1>   0.1200 
 22 C       -6.2720     1.2290     2.2030 C.ar  1 <1>  -0.1500 
 23 C       -7.2080     0.4010     0.1720 C.ar  1 <1>  -0.1500 
 24 C       -6.5300    -5.5290    -0.1830 C.3   1 <1>  -0.2400 
 25 C       -7.5030     1.7440     2.5650 C.ar  1 <1>  -0.1500 
 26 C       -8.4420     0.9130     0.5290 C.ar  1 <1>  -0.1500 
 27 C       -8.5930     1.5850     1.7290 C.ar  1 <1>  -0.1500 
 28 H       -0.8130    -0.2020     0.8840 H     1 <1>   0.0800 
 29 H        0.1690     1.0860     0.2400 H     1 <1>   0.0800 
 30 H        2.4390     0.4590    -0.7350 H     1 <1>   0.0800 
 31 H        2.8950    -1.2230    -0.7150 H     1 <1>   0.0800 
 32 H       -2.3800    -0.1390    -0.8600 H     1 <1>   0.1500 
 33 H       -0.5500    -3.8510    -1.7980 H     1 <1>   0.1500 
 34 H        0.8040    -0.6260     2.6650 H     1 <1>   0.0800 
 35 H        0.3840     1.0730     2.6590 H     1 <1>   0.0800 
 36 H        3.9610     0.0770     1.1360 H     1 <1>   0.0800 
 37 H        2.9630    -1.2290     1.7390 H     1 <1>   0.0800 
 38 H       -2.6320    -5.0130    -1.3440 H     1 <1>   0.1500 
 39 H       -5.5910    -1.6930    -0.1730 H     1 <1>   0.3700 
 40 H       -4.3980    -5.6810     0.0950 H     1 <1>   0.0800 
 41 H       -4.9000    -5.5290    -1.5930 H     1 <1>   0.0800 
 42 H       -5.4280     1.3600     2.8590 H     1 <1>   0.1500 
 43 H       -7.1110    -0.1060    -0.7720 H     1 <1>   0.1500 
 44 H       -6.7180    -5.1960     0.8220 H     1 <1>   0.0800 
 45 H       -6.6950    -6.5900    -0.2270 H     1 <1>   0.0800 
 46 H       -7.2170    -5.0490    -0.8570 H     1 <1>   0.0800 
 47 H       -7.6150     2.2700     3.4980 H     1 <1>   0.1500 
 48 H       -9.2870     0.7930    -0.1270 H     1 <1>   0.1500 
 49 H       -9.5520     1.9840     2.0090 H     1 <1>   0.1500 
@<TRIPOS>BOND
  1   1   2  2   
  2   1   3  2   
  3   1   4  am  
  4   1   5  1   
  5   4   6  1   
  6   4   7  1   
  7   5   8  ar  
  8   5   9  ar  
  9   6  10  1   
 10   6  28  1   
 11   6  29  1   
 12   7  11  1   
 13   7  30  1   
 14   7  31  1   
 15   8  12  ar  
 16   8  32  1   
 17   9  13  ar  
 18   9  33  1   
 19  10  14  1   
 20  10  34  1   
 21  10  35  1   
 22  11  14  1   
 23  11  36  1   
 24  11  37  1   
 25  12  15  1   
 26  12  16  ar  
 27  13  16  ar  
 28  13  38  1   
 29  15  17  am  
 30  15  39  1   
 31  16  18  1   
 32  17  19  2   
 33  17  20  1   
 34  18  21  1   
 35  20  22  ar  
 36  20  23  ar  
 37  21  24  1   
 38  21  40  1   
 39  21  41  1   
 40  22  25  ar  
 41  22  42  1   
 42  23  26  ar  
 43  23  43  1   
 44  24  44  1   
 45  24  45  1   
 46  24  46  1   
 47  25  27  ar  
 48  25  47  1   
 49  26  27  ar  
 50  26  48  1   
 51  27  49  1   
@<TRIPOS>SUBSTRUCTURE
  1 ****   8 GROUP 4 **** **** 0

# MOE 2024.06 (io_trps.svl 2023.06)
