@<TRIPOS>MOLECULE
NONAME
40 41 1 0 0 
SMALL
USER_CHARGES


@<TRIPOS>ATOM
  1 N       -0.0240     0.0170     0.4860 N.4   1 <1>  -0.9590 
  2 C        1.1560     0.9300     0.5870 C.3   1 <1>   0.4230 
  3 C       -0.0910    -0.8310    -0.7500 C.3   1 <1>   0.3430 
  4 C       -1.3150     0.7490     0.6930 C.3   1 <1>   0.3430 
  5 C        1.2890     1.8640    -0.6230 C.3   1 <1>  -0.1600 
  6 C        2.4430     0.1220     0.7780 C.3   1 <1>  -0.1600 
  7 C       -1.2060    -1.8660    -0.6070 C.3   1 <1>  -0.1600 
  8 C       -2.4560    -0.2540     0.8660 C.3   1 <1>  -0.1600 
  9 C        2.5040     2.7810    -0.4620 C.3   1 <1>   0.3430 
 10 C        3.6470     1.0540     0.9290 C.3   1 <1>   0.3430 
 11 C       -2.5630    -1.2030    -0.3360 C.3   1 <1>  -0.0800 
 12 N        3.7370     1.9680    -0.2480 N.4   1 <1>  -0.9590 
 13 C       -3.6430    -2.2620    -0.0920 C.3   1 <1>  -0.2400 
 14 C        4.9310     2.8680    -0.1110 C.3   1 <1>   0.2630 
 15 H        0.0280    -0.6490     1.2700 H     1 <1>   0.4500 
 16 H        1.0270     1.5430     1.4660 H     1 <1>   0.0800 
 17 H        0.8440    -1.3440    -0.9070 H     1 <1>   0.0800 
 18 H       -0.2890    -0.2130    -1.6110 H     1 <1>   0.0800 
 19 H       -1.5220     1.3800    -0.1560 H     1 <1>   0.0800 
 20 H       -1.2560     1.3690     1.5740 H     1 <1>   0.0800 
 21 H        0.4150     2.4830    -0.7100 H     1 <1>   0.0800 
 22 H        1.4020     1.3080    -1.5360 H     1 <1>   0.0800 
 23 H        2.6200    -0.5350    -0.0540 H     1 <1>   0.0800 
 24 H        2.3660    -0.4750     1.6700 H     1 <1>   0.0800 
 25 H       -0.9600    -2.5510     0.1860 H     1 <1>   0.0800 
 26 H       -1.2670    -2.4390    -1.5160 H     1 <1>   0.0800 
 27 H       -3.3800     0.2880     0.9730 H     1 <1>   0.0800 
 28 H       -2.3070    -0.8140     1.7730 H     1 <1>   0.0800 
 29 H        2.3530     3.4410     0.3780 H     1 <1>   0.0800 
 30 H        2.6150     3.3910    -1.3470 H     1 <1>   0.0800 
 31 H        4.5500     0.4670     1.0090 H     1 <1>   0.0800 
 32 H        3.5480     1.6340     1.8330 H     1 <1>   0.0800 
 33 H       -2.8480    -0.6300    -1.2040 H     1 <1>   0.0800 
 34 H        3.9000     1.3950    -1.0930 H     1 <1>   0.4500 
 35 H       -3.4080    -2.8660     0.7680 H     1 <1>   0.0800 
 36 H       -3.7340    -2.9100    -0.9470 H     1 <1>   0.0800 
 37 H       -4.5990    -1.7940     0.0720 H     1 <1>   0.0800 
 38 H        4.8310     3.5000     0.7570 H     1 <1>   0.0800 
 39 H        5.0320     3.4950    -0.9830 H     1 <1>   0.0800 
 40 H        5.8320     2.2850    -0.0080 H     1 <1>   0.0800 
@<TRIPOS>BOND
  1   1   2  1   
  2   1   3  1   
  3   1   4  1   
  4   1  15  1   
  5   2   5  1   
  6   2   6  1   
  7   2  16  1   
  8   3   7  1   
  9   3  17  1   
 10   3  18  1   
 11   4   8  1   
 12   4  19  1   
 13   4  20  1   
 14   5   9  1   
 15   5  21  1   
 16   5  22  1   
 17   6  10  1   
 18   6  23  1   
 19   6  24  1   
 20   7  11  1   
 21   7  25  1   
 22   7  26  1   
 23   8  11  1   
 24   8  27  1   
 25   8  28  1   
 26   9  12  1   
 27   9  29  1   
 28   9  30  1   
 29  10  12  1   
 30  10  31  1   
 31  10  32  1   
 32  11  13  1   
 33  11  33  1   
 34  12  14  1   
 35  12  34  1   
 36  13  35  1   
 37  13  36  1   
 38  13  37  1   
 39  14  38  1   
 40  14  39  1   
 41  14  40  1   
@<TRIPOS>SUBSTRUCTURE
  1 ****   1 GROUP 4 **** **** 0

# MOE 2024.06 (io_trps.svl 2023.06)
