@<TRIPOS>MOLECULE
NONAME
58 60 1 0 0 
SMALL
USER_CHARGES


@<TRIPOS>ATOM
  1 O       -1.6090     1.8410    -2.7490 O.2   1 <1>  -0.5700 
  2 C       -1.1060     1.9440    -1.6580 C.2   1 <1>   0.5690 
  3 N       -1.3680     1.1210    -0.6010 N.am  1 <1>  -0.5470 
  4 C       -0.0620     3.0410    -1.4320 C.3   1 <1>   0.1710 
  5 C       -2.1400    -0.0420    -0.4410 C.ar  1 <1>   0.1170 
  6 N        1.0850     2.6220    -0.5630 N.3   1 <1>  -0.8100 
  7 C       -1.9770    -0.7840     0.7340 C.ar  1 <1>   0.0830 
  8 C       -3.0530    -0.4820    -1.3910 C.ar  1 <1>  -0.1500 
  9 C        1.9560     3.7670    -0.2350 C.3   1 <1>   0.1100 
 10 C        1.8590     1.5250    -1.1940 C.3   1 <1>   0.1100 
 11 O       -1.0750    -0.3200     1.6550 O.3   1 <1>  -0.3630 
 12 C       -2.7160    -1.9460     0.9320 C.ar  1 <1>  -0.1500 
 13 C       -3.7910    -1.6370    -1.1950 C.ar  1 <1>   0.0830 
 14 C        3.1210     3.3420     0.6850 C.3   1 <1>   0.3430 
 15 C        3.0170     1.0620    -0.2900 C.3   1 <1>   0.3430 
 16 C       -1.1420    -0.7600     2.9950 C.3   1 <1>   0.0400 
 17 C       -3.6190    -2.3720    -0.0260 C.ar  1 <1>  -0.1500 
 18 O       -4.6550    -1.9850    -2.1840 O.3   1 <1>  -0.3630 
 19 N        3.9120     2.2100     0.0950 N.4   1 <1>  -0.9590 
 20 C       -5.4370    -3.1550    -2.0930 C.3   1 <1>   0.0400 
 21 C        5.0110     1.7660     0.9930 C.3   1 <1>   0.4860 
 22 C        5.8740     0.7800     0.2330 C.ar  1 <1>  -0.1430 
 23 C        6.7450     1.2240    -0.7510 C.ar  1 <1>  -0.1500 
 24 C        5.7930    -0.5770     0.5080 C.ar  1 <1>  -0.1500 
 25 C        7.5140     0.3190    -1.4600 C.ar  1 <1>  -0.1500 
 26 C        6.5640    -1.4790    -0.2030 C.ar  1 <1>  -0.1500 
 27 C        7.4270    -1.0360    -1.1910 C.ar  1 <1>  -0.1430 
 28 C        8.2720    -2.0280    -1.9710 C.3   1 <1>  -0.0970 
 29 H       -0.7990     1.3260     0.2240 H     1 <1>   0.3700 
 30 H       -0.5690     3.8730    -0.9770 H     1 <1>   0.0800 
 31 H        0.3040     3.3630    -2.3910 H     1 <1>   0.0800 
 32 H       -3.2060     0.0690    -2.2990 H     1 <1>   0.1500 
 33 H        1.3750     4.5200     0.2700 H     1 <1>   0.0800 
 34 H        2.3490     4.2040    -1.1380 H     1 <1>   0.0800 
 35 H        2.2480     1.8450    -2.1460 H     1 <1>   0.0800 
 36 H        1.2170     0.6790    -1.3730 H     1 <1>   0.0800 
 37 H       -2.6020    -2.5370     1.8210 H     1 <1>   0.1500 
 38 H        2.7060     3.0380     1.6330 H     1 <1>   0.0800 
 39 H        3.7620     4.1900     0.8580 H     1 <1>   0.0800 
 40 H        3.5870     0.3070    -0.8090 H     1 <1>   0.0800 
 41 H        2.5980     0.6120     0.5940 H     1 <1>   0.0800 
 42 H       -0.4670    -0.1620     3.5810 H     1 <1>   0.0800 
 43 H       -0.8470    -1.7930     3.0420 H     1 <1>   0.0800 
 44 H       -2.1480    -0.6310     3.3560 H     1 <1>   0.0800 
 45 H       -4.1760    -3.2720     0.1530 H     1 <1>   0.1500 
 46 H        4.3550     2.5340    -0.7730 H     1 <1>   0.4500 
 47 H       -6.0320    -3.2270    -2.9860 H     1 <1>   0.0800 
 48 H       -6.0780    -3.0810    -1.2330 H     1 <1>   0.0800 
 49 H       -4.7840    -4.0060    -2.0200 H     1 <1>   0.0800 
 50 H        4.6070     1.3000     1.8770 H     1 <1>   0.0800 
 51 H        5.6130     2.6080     1.2920 H     1 <1>   0.0800 
 52 H        6.8430     2.2720    -0.9780 H     1 <1>   0.1500 
 53 H        5.1360    -0.9520     1.2750 H     1 <1>   0.1500 
 54 H        8.1880     0.6710    -2.2240 H     1 <1>   0.1500 
 55 H        6.4940    -2.5320     0.0150 H     1 <1>   0.1500 
 56 H        9.1990    -1.5760    -2.2750 H     1 <1>   0.0800 
 57 H        7.7400    -2.3520    -2.8470 H     1 <1>   0.0800 
 58 H        8.5000    -2.8880    -1.3660 H     1 <1>   0.0800 
@<TRIPOS>BOND
  1   1   2  2   
  2   2   3  am  
  3   2   4  1   
  4   3   5  1   
  5   3  29  1   
  6   4   6  1   
  7   4  30  1   
  8   4  31  1   
  9   5   7  ar  
 10   5   8  ar  
 11   6   9  1   
 12   6  10  1   
 13   7  11  1   
 14   7  12  ar  
 15   8  13  ar  
 16   8  32  1   
 17   9  14  1   
 18   9  33  1   
 19   9  34  1   
 20  10  15  1   
 21  10  35  1   
 22  10  36  1   
 23  11  16  1   
 24  12  17  ar  
 25  12  37  1   
 26  13  17  ar  
 27  13  18  1   
 28  14  19  1   
 29  14  38  1   
 30  14  39  1   
 31  15  19  1   
 32  15  40  1   
 33  15  41  1   
 34  16  42  1   
 35  16  43  1   
 36  16  44  1   
 37  17  45  1   
 38  18  20  1   
 39  19  21  1   
 40  19  46  1   
 41  20  47  1   
 42  20  48  1   
 43  20  49  1   
 44  21  22  1   
 45  21  50  1   
 46  21  51  1   
 47  22  23  ar  
 48  22  24  ar  
 49  23  25  ar  
 50  23  52  1   
 51  24  26  ar  
 52  24  53  1   
 53  25  27  ar  
 54  25  54  1   
 55  26  27  ar  
 56  26  55  1   
 57  27  28  1   
 58  28  56  1   
 59  28  57  1   
 60  28  58  1   
@<TRIPOS>SUBSTRUCTURE
  1 ****  10 GROUP 4 **** **** 0

# MOE 2024.06 (io_trps.svl 2023.06)
