@<TRIPOS>MOLECULE
NONAME
31 32 1 0 0 
SMALL
USER_CHARGES


@<TRIPOS>ATOM
  1 S       -0.3280    -0.2180     0.5240 S.3   1 <1>  -0.4600 
  2 C       -0.9300     0.9590    -0.6980 C.3   1 <1>   0.1500 
  3 C       -1.3620    -1.5900    -0.0040 C.3   1 <1>   0.0700 
  4 C       -2.4050     0.5580    -0.9150 C.3   1 <1>   0.2200 
  5 C       -0.6800     2.3980    -0.2180 C.3   1 <1>  -0.1600 
  6 C       -2.6330    -0.9450    -0.5770 C.3   1 <1>   0.2200 
  7 N       -3.3360     1.2470     0.0130 N.am  1 <1>  -0.7300 
  8 C        0.7860     2.8200    -0.3860 C.3   1 <1>  -0.1600 
  9 N       -3.6950    -0.8920     0.4510 N.am  1 <1>  -0.7300 
 10 C       -3.9440     0.3690     0.8170 C.2   1 <1>   0.6900 
 11 C        0.9960     4.2730     0.0620 C.3   1 <1>  -0.1600 
 12 O       -4.5520     0.6740     1.8160 O.2   1 <1>  -0.5700 
 13 C        2.4070     4.7800    -0.2860 C.3   1 <1>  -0.2660 
 14 C        3.5230     3.9990     0.3720 C.2   1 <1>   0.9060 
 15 O        3.7810     4.2270     1.5570 O.co2 1 <1>  -0.9000 
 16 O        4.1450     3.1750    -0.3070 O.co2 1 <1>  -0.9000 
 17 H       -0.3710     0.7590    -1.5960 H     1 <1>   0.0800 
 18 H       -0.8090    -2.1120    -0.7650 H     1 <1>   0.0800 
 19 H       -1.5460    -2.2290     0.8410 H     1 <1>   0.0800 
 20 H       -2.6980     0.7720    -1.9280 H     1 <1>   0.0800 
 21 H       -1.2910     3.0680    -0.7960 H     1 <1>   0.0800 
 22 H       -0.9630     2.4900     0.8170 H     1 <1>   0.0800 
 23 H       -2.9840    -1.4920    -1.4350 H     1 <1>   0.0800 
 24 H       -3.0660     2.1350     0.4340 H     1 <1>   0.3700 
 25 H        1.4240     2.1750     0.1960 H     1 <1>   0.0800 
 26 H        1.0780     2.7230    -1.4170 H     1 <1>   0.0800 
 27 H       -3.7890    -1.6120     1.1650 H     1 <1>   0.3700 
 28 H        0.8570     4.3410     1.1290 H     1 <1>   0.0800 
 29 H        0.2750     4.9130    -0.4140 H     1 <1>   0.0800 
 30 H        2.5080     5.8010     0.0290 H     1 <1>   0.0800 
 31 H        2.5610     4.7430    -1.3480 H     1 <1>   0.0800 
@<TRIPOS>BOND
  1   1   2  1   
  2   1   3  1   
  3   2   4  1   
  4   2   5  1   
  5   2  17  1   
  6   3   6  1   
  7   3  18  1   
  8   3  19  1   
  9   4   6  1   
 10   4   7  1   
 11   4  20  1   
 12   5   8  1   
 13   5  21  1   
 14   5  22  1   
 15   6   9  1   
 16   6  23  1   
 17   7  10  am  
 18   7  24  1   
 19   8  11  1   
 20   8  25  1   
 21   8  26  1   
 22   9  10  am  
 23   9  27  1   
 24  10  12  2   
 25  11  13  1   
 26  11  28  1   
 27  11  29  1   
 28  13  14  1   
 29  13  30  1   
 30  13  31  1   
 31  14  15  ar  
 32  14  16  ar  
@<TRIPOS>SUBSTRUCTURE
  1 ****   5 GROUP 4 **** **** 0

# MOE 2024.06 (io_trps.svl 2023.06)
