@<TRIPOS>MOLECULE
NONAME
43 44 1 0 0 
SMALL
USER_CHARGES


@<TRIPOS>ATOM
  1 S        0.3780    -0.0010    -0.5710 S.o2  1 <1>   1.3330 
  2 O        0.7680    -1.3390    -0.1880 O.2   1 <1>  -0.6500 
  3 O        0.2530     0.3360    -1.9720 O.2   1 <1>  -0.6500 
  4 N        1.4880     1.0820     0.1090 N.am  1 <1>  -0.8490 
  5 C       -1.1460     0.4120     0.2900 C.3   1 <1>  -0.0550 
  6 C        2.8330     0.4830     0.2530 C.3   1 <1>   0.1960 
  7 C        1.5180     2.3840    -0.5580 C.3   1 <1>   0.1960 
  8 C       -2.3660    -0.4260    -0.1330 C.3   1 <1>  -0.2400 
  9 C        3.9580     1.5220     0.4320 C.3   1 <1>  -0.0190 
 10 C        2.2700     3.4050     0.3140 C.3   1 <1>  -0.1600 
 11 C        5.1320     0.9060     1.1790 C.2   1 <1>   0.5690 
 12 C        3.4320     2.7940     1.1200 C.3   1 <1>  -0.1600 
 13 O        4.9740     0.4740     2.2950 O.2   1 <1>  -0.5700 
 14 N        6.3410     0.8570     0.5720 N.am  1 <1>  -0.7300 
 15 C        7.5600     0.3290     1.2030 C.3   1 <1>   0.2840 
 16 C        8.7450     0.7980     0.3810 C.ar  1 <1>  -0.1440 
 17 C        9.3090     2.0420     0.6180 C.ar  1 <1>  -0.1500 
 18 C        9.2700    -0.0080    -0.6190 C.ar  1 <1>  -0.1500 
 19 C       10.3860     2.4770    -0.1350 C.ar  1 <1>  -0.1500 
 20 C       10.3470     0.4260    -1.3720 C.ar  1 <1>  -0.1500 
 21 C       10.9060     1.6680    -1.1310 C.ar  1 <1>  -0.1500 
 22 H       -1.3700     1.4480     0.1250 H     1 <1>   0.0800 
 23 H       -0.9890     0.2810     1.3440 H     1 <1>   0.0800 
 24 H        3.0610    -0.1220    -0.6100 H     1 <1>   0.0800 
 25 H        2.8060    -0.1750     1.1080 H     1 <1>   0.0800 
 26 H        0.5170     2.7390    -0.7340 H     1 <1>   0.0800 
 27 H        2.0050     2.2820    -1.5150 H     1 <1>   0.0800 
 28 H       -2.5590    -0.2930    -1.1840 H     1 <1>   0.0800 
 29 H       -3.2360    -0.1270     0.4230 H     1 <1>   0.0800 
 30 H       -2.1770    -1.4700     0.0510 H     1 <1>   0.0800 
 31 H        4.3030     1.7970    -0.5480 H     1 <1>   0.0800 
 32 H        1.5750     3.8630     0.9960 H     1 <1>   0.0800 
 33 H        2.6440     4.1820    -0.3280 H     1 <1>   0.0800 
 34 H        4.2210     3.5140     1.2440 H     1 <1>   0.0800 
 35 H        3.0750     2.5230     2.1010 H     1 <1>   0.0800 
 36 H        6.4950     1.2530    -0.3560 H     1 <1>   0.3700 
 37 H        7.5150    -0.7470     1.2270 H     1 <1>   0.0800 
 38 H        7.6330     0.6900     2.2150 H     1 <1>   0.0800 
 39 H        8.9100     2.6780     1.3890 H     1 <1>   0.1500 
 40 H        8.8420    -0.9760    -0.8160 H     1 <1>   0.1500 
 41 H       10.8210     3.4430     0.0540 H     1 <1>   0.1500 
 42 H       10.7520    -0.2030    -2.1460 H     1 <1>   0.1500 
 43 H       11.7440     2.0050    -1.7160 H     1 <1>   0.1500 
@<TRIPOS>BOND
  1   1   2  2   
  2   1   3  2   
  3   1   4  am  
  4   1   5  1   
  5   4   6  1   
  6   4   7  1   
  7   5   8  1   
  8   5  22  1   
  9   5  23  1   
 10   6   9  1   
 11   6  24  1   
 12   6  25  1   
 13   7  10  1   
 14   7  26  1   
 15   7  27  1   
 16   8  28  1   
 17   8  29  1   
 18   8  30  1   
 19   9  11  1   
 20   9  12  1   
 21   9  31  1   
 22  10  12  1   
 23  10  32  1   
 24  10  33  1   
 25  11  13  2   
 26  11  14  am  
 27  12  34  1   
 28  12  35  1   
 29  14  15  1   
 30  14  36  1   
 31  15  16  1   
 32  15  37  1   
 33  15  38  1   
 34  16  17  ar  
 35  16  18  ar  
 36  17  19  ar  
 37  17  39  1   
 38  18  20  ar  
 39  18  40  1   
 40  19  21  ar  
 41  19  41  1   
 42  20  21  ar  
 43  20  42  1   
 44  21  43  1   
@<TRIPOS>SUBSTRUCTURE
  1 ****   9 GROUP 4 **** **** 0

# MOE 2024.06 (io_trps.svl 2023.06)
