@<TRIPOS>MOLECULE
NONAME
45 46 1 0 0 
SMALL
USER_CHARGES


@<TRIPOS>ATOM
  1 O       -2.0990     1.0540     0.4560 O.3   1 <1>  -0.5600 
  2 C       -2.4730     1.3560    -0.8570 C.3   1 <1>   0.1200 
  3 C       -3.0410     1.3960     1.4310 C.3   1 <1>   0.1200 
  4 C       -3.7740     0.6170    -1.2240 C.3   1 <1>   0.3430 
  5 C       -4.3700     0.6610     1.1700 C.3   1 <1>   0.3430 
  6 N       -4.8720     0.8980    -0.2320 N.4   1 <1>  -0.9590 
  7 C       -6.0850     0.0940    -0.5490 C.3   1 <1>   0.3430 
  8 C       -7.2990     0.6170     0.2220 C.3   1 <1>  -0.1600 
  9 C       -8.5640    -0.1520    -0.1870 C.3   1 <1>  -0.1600 
 10 C       -9.8030     0.3450     0.5610 C.3   1 <1>   0.1200 
 11 O      -10.8960    -0.4230     0.1230 O.3   1 <1>  -0.3630 
 12 C      -12.1540    -0.2260     0.6040 C.ar  1 <1>   0.0820 
 13 C      -13.1760    -1.0310     0.1040 C.ar  1 <1>  -0.1430 
 14 C      -12.4480     0.7420     1.5630 C.ar  1 <1>  -0.1500 
 15 C      -14.4710    -0.8550     0.5670 C.ar  1 <1>  -0.1500 
 16 C      -12.9110    -2.1050    -0.9450 C.3   1 <1>  -0.0170 
 17 C      -13.7440     0.9060     2.0170 C.ar  1 <1>  -0.1500 
 18 C      -14.7570     0.1070     1.5180 C.ar  1 <1>  -0.1500 
 19 C      -13.0020    -1.5160    -2.3550 C.3   1 <1>  -0.2400 
 20 H       -1.6720     1.0420    -1.5040 H     1 <1>   0.0800 
 21 H       -2.5880     2.4230    -0.9490 H     1 <1>   0.0800 
 22 H       -3.1760     2.4640     1.4250 H     1 <1>   0.0800 
 23 H       -2.6390     1.1080     2.3870 H     1 <1>   0.0800 
 24 H       -3.5650    -0.4400    -1.2460 H     1 <1>   0.0800 
 25 H       -4.0830     0.9140    -2.2130 H     1 <1>   0.0800 
 26 H       -5.1020     0.9920     1.8880 H     1 <1>   0.0800 
 27 H       -4.2080    -0.3930     1.3250 H     1 <1>   0.0800 
 28 H       -5.1130     1.8940    -0.3150 H     1 <1>   0.4500 
 29 H       -5.9160    -0.9440    -0.3080 H     1 <1>   0.0800 
 30 H       -6.2950     0.1600    -1.6050 H     1 <1>   0.0800 
 31 H       -7.4440     1.6620     0.0080 H     1 <1>   0.0800 
 32 H       -7.1510     0.4920     1.2810 H     1 <1>   0.0800 
 33 H       -8.4380    -1.2010     0.0240 H     1 <1>   0.0800 
 34 H       -8.7370    -0.0350    -1.2440 H     1 <1>   0.0800 
 35 H      -10.0060     1.3780     0.3350 H     1 <1>   0.0800 
 36 H       -9.6970     0.2050     1.6230 H     1 <1>   0.0800 
 37 H      -11.6880     1.3790     1.9700 H     1 <1>   0.1500 
 38 H      -15.2680    -1.4690     0.1840 H     1 <1>   0.1500 
 39 H      -13.6290    -2.8990    -0.8420 H     1 <1>   0.0800 
 40 H      -11.9370    -2.5370    -0.7950 H     1 <1>   0.0800 
 41 H      -13.9670     1.6540     2.7570 H     1 <1>   0.1500 
 42 H      -15.7660     0.2340     1.8700 H     1 <1>   0.1500 
 43 H      -13.9820    -1.1040    -2.5210 H     1 <1>   0.0800 
 44 H      -12.8140    -2.2780    -3.0890 H     1 <1>   0.0800 
 45 H      -12.2750    -0.7320    -2.4720 H     1 <1>   0.0800 
@<TRIPOS>BOND
  1   1   2  1   
  2   1   3  1   
  3   2   4  1   
  4   2  20  1   
  5   2  21  1   
  6   3   5  1   
  7   3  22  1   
  8   3  23  1   
  9   4   6  1   
 10   4  24  1   
 11   4  25  1   
 12   5   6  1   
 13   5  26  1   
 14   5  27  1   
 15   6   7  1   
 16   6  28  1   
 17   7   8  1   
 18   7  29  1   
 19   7  30  1   
 20   8   9  1   
 21   8  31  1   
 22   8  32  1   
 23   9  10  1   
 24   9  33  1   
 25   9  34  1   
 26  10  11  1   
 27  10  35  1   
 28  10  36  1   
 29  11  12  1   
 30  12  13  ar  
 31  12  14  ar  
 32  13  15  ar  
 33  13  16  1   
 34  14  17  ar  
 35  14  37  1   
 36  15  18  ar  
 37  15  38  1   
 38  16  19  1   
 39  16  39  1   
 40  16  40  1   
 41  17  18  ar  
 42  17  41  1   
 43  18  42  1   
 44  19  43  1   
 45  19  44  1   
 46  19  45  1   
@<TRIPOS>SUBSTRUCTURE
  1 ****   9 GROUP 4 **** **** 0

# MOE 2024.06 (io_trps.svl 2023.06)
