@<TRIPOS>MOLECULE
NONAME
47 47 1 0 0 
SMALL
USER_CHARGES


@<TRIPOS>ATOM
  1 O       -1.1540     0.1150    -0.6150 O.2   1 <1>  -0.5700 
  2 C       -1.8870     0.9040    -0.0630 C.2   1 <1>   0.4950 
  3 C       -1.7600     2.3270    -0.1930 C.2   1 <1>   0.0290 
  4 C       -2.9850     0.3650     0.8470 C.3   1 <1>   0.0420 
  5 C       -3.0300     2.9630    -0.3490 C.2   1 <1>   0.4950 
  6 C       -0.5350     2.9900    -0.1660 C.2   1 <1>  -0.0380 
  7 C       -2.9960    -1.1560     0.8900 C.2   1 <1>   0.6590 
  8 C       -4.3610     1.0310     0.5670 C.3   1 <1>   0.0000 
  9 O       -3.3180     3.7720    -1.2000 O.2   1 <1>  -0.5700 
 10 C       -4.1490     2.5550     0.5930 C.3   1 <1>  -0.0990 
 11 N       -0.3080     4.3300    -0.2530 N.pl3 1 <1>  -0.8690 
 12 C        0.7680     2.1830    -0.0060 C.3   1 <1>  -0.0220 
 13 O       -2.7780    -1.7340     1.9250 O.2   1 <1>  -0.5700 
 14 O       -3.2750    -1.8160    -0.2290 O.3   1 <1>  -0.4300 
 15 C       -5.3800     0.6530     1.6570 C.3   1 <1>  -0.2400 
 16 C       -4.9540     0.6380    -0.8030 C.3   1 <1>  -0.2400 
 17 C       -1.1990     5.4970    -0.3780 C.3   1 <1>   0.3470 
 18 C        1.9830     2.9580     0.5420 C.3   1 <1>  -0.1600 
 19 C       -3.2650    -3.2260    -0.2860 C.3   1 <1>   0.0400 
 20 C       -0.3910     6.6980     0.0600 C.2   1 <1>  -0.2880 
 21 C        3.1750     2.0270     0.7910 C.3   1 <1>  -0.2400 
 22 C       -0.0380     7.7250    -0.7190 C.2   1 <1>  -0.3000 
 23 H       -2.6920     0.6660     1.8360 H     1 <1>   0.0800 
 24 H       -3.8870     2.8830     1.5830 H     1 <1>   0.0800 
 25 H       -5.0560     3.0640     0.3140 H     1 <1>   0.0800 
 26 H        0.6650     4.6560    -0.2660 H     1 <1>   0.4000 
 27 H        0.5980     1.3630     0.6680 H     1 <1>   0.0800 
 28 H        1.0260     1.7670    -0.9640 H     1 <1>   0.0800 
 29 H       -5.5760    -0.4050     1.6500 H     1 <1>   0.0800 
 30 H       -6.3150     1.1630     1.4940 H     1 <1>   0.0800 
 31 H       -5.0180     0.9200     2.6340 H     1 <1>   0.0800 
 32 H       -5.8220     1.2340    -1.0250 H     1 <1>   0.0800 
 33 H       -5.2650    -0.3910    -0.8130 H     1 <1>   0.0800 
 34 H       -4.2440     0.7790    -1.6000 H     1 <1>   0.0800 
 35 H       -1.5150     5.6030    -1.4030 H     1 <1>   0.0800 
 36 H       -2.0620     5.3890     0.2550 H     1 <1>   0.0800 
 37 H        2.2820     3.7140    -0.1640 H     1 <1>   0.0800 
 38 H        1.7130     3.4410     1.4660 H     1 <1>   0.0800 
 39 H       -2.2810    -3.5750    -0.0260 H     1 <1>   0.0800 
 40 H       -3.5120    -3.5270    -1.2880 H     1 <1>   0.0800 
 41 H       -3.9930    -3.6080     0.4090 H     1 <1>   0.0800 
 42 H       -0.1190     6.6380     1.1000 H     1 <1>   0.1500 
 43 H        3.4680     1.5400    -0.1230 H     1 <1>   0.0800 
 44 H        2.9210     1.2750     1.5170 H     1 <1>   0.0800 
 45 H        4.0120     2.5910     1.1620 H     1 <1>   0.0800 
 46 H        0.5380     8.5680    -0.3790 H     1 <1>   0.1500 
 47 H       -0.2950     7.8100    -1.7620 H     1 <1>   0.1500 
@<TRIPOS>BOND
  1   1   2  2   
  2   2   3  1   
  3   2   4  1   
  4   3   5  1   
  5   3   6  2   
  6   4   7  1   
  7   4   8  1   
  8   4  23  1   
  9   5   9  2   
 10   5  10  1   
 11   6  11  1   
 12   6  12  1   
 13   7  13  2   
 14   7  14  1   
 15   8  10  1   
 16   8  15  1   
 17   8  16  1   
 18  10  24  1   
 19  10  25  1   
 20  11  17  1   
 21  11  26  1   
 22  12  18  1   
 23  12  27  1   
 24  12  28  1   
 25  14  19  1   
 26  15  29  1   
 27  15  30  1   
 28  15  31  1   
 29  16  32  1   
 30  16  33  1   
 31  16  34  1   
 32  17  20  1   
 33  17  35  1   
 34  17  36  1   
 35  18  21  1   
 36  18  37  1   
 37  18  38  1   
 38  19  39  1   
 39  19  40  1   
 40  19  41  1   
 41  20  22  2   
 42  20  42  1   
 43  21  43  1   
 44  21  44  1   
 45  21  45  1   
 46  22  46  1   
 47  22  47  1   
@<TRIPOS>SUBSTRUCTURE
  1 ****   3 GROUP 4 **** **** 0

# MOE 2024.06 (io_trps.svl 2023.06)
