@<TRIPOS>MOLECULE
NONAME
37 39 1 0 0 
SMALL
USER_CHARGES


@<TRIPOS>ATOM
  1 N        0.2150     0.1990    -0.3230 N.ar  1 <1>  -0.6200 
  2 C        0.3030     1.3340     0.3680 C.ar  1 <1>   0.7200 
  3 C       -0.9370    -0.0480    -0.8960 C.ar  1 <1>   0.1600 
  4 N       -0.6690     2.2330     0.5120 N.ar  1 <1>  -0.6200 
  5 N        1.5080     1.6010     0.9830 N.pl3 1 <1>  -0.8380 
  6 C       -2.0080     0.8100    -0.8030 C.ar  1 <1>  -0.1430 
  7 C       -1.8090     1.9590    -0.0730 C.ar  1 <1>   0.1600 
  8 C        2.7990     1.0110     0.4990 C.3   1 <1>   0.2090 
  9 C        1.7400     2.8290     1.8130 C.3   1 <1>   0.2090 
 10 C       -3.3370     0.5070    -1.4740 C.3   1 <1>  -0.0970 
 11 C        3.6300     2.0540    -0.2740 C.3   1 <1>   0.2090 
 12 C        2.5570     3.8760     1.0330 C.3   1 <1>   0.2090 
 13 N        3.8460     3.3040     0.5250 N.pl3 1 <1>  -0.8380 
 14 C        4.7520     4.2160    -0.0040 C.ar  1 <1>   0.1000 
 15 C        4.4840     4.9160    -1.1760 C.ar  1 <1>  -0.1500 
 16 C        5.9570     4.4410     0.6460 C.ar  1 <1>  -0.1500 
 17 C        5.4000     5.8190    -1.6840 C.ar  1 <1>  -0.1500 
 18 C        6.8780     5.3420     0.1420 C.ar  1 <1>  -0.1500 
 19 C        6.6000     6.0340    -1.0250 C.ar  1 <1>  -0.1500 
 20 H       -1.0290    -0.9630    -1.4550 H     1 <1>   0.1500 
 21 H       -2.6080     2.6720     0.0340 H     1 <1>   0.1500 
 22 H        2.6300     0.1590    -0.1340 H     1 <1>   0.0800 
 23 H        3.3670     0.6740     1.3480 H     1 <1>   0.0800 
 24 H        2.2870     2.5530     2.6970 H     1 <1>   0.0800 
 25 H        0.8120     3.2650     2.1360 H     1 <1>   0.0800 
 26 H       -3.4960    -0.5550    -1.5340 H     1 <1>   0.0800 
 27 H       -3.3460     0.9150    -2.4690 H     1 <1>   0.0800 
 28 H       -4.1480     0.9400    -0.9150 H     1 <1>   0.0800 
 29 H        3.1170     2.2970    -1.1880 H     1 <1>   0.0800 
 30 H        4.5850     1.6300    -0.5290 H     1 <1>   0.0800 
 31 H        2.7710     4.7110     1.6750 H     1 <1>   0.0800 
 32 H        1.9670     4.2300     0.2060 H     1 <1>   0.0800 
 33 H        3.5540     4.7480    -1.6850 H     1 <1>   0.1500 
 34 H        6.1610     3.8980     1.5500 H     1 <1>   0.1500 
 35 H        5.1820     6.3550    -2.5910 H     1 <1>   0.1500 
 36 H        7.8080     5.5060     0.6570 H     1 <1>   0.1500 
 37 H        7.3140     6.7360    -1.4190 H     1 <1>   0.1500 
@<TRIPOS>BOND
  1   1   2  ar  
  2   1   3  ar  
  3   2   4  ar  
  4   2   5  1   
  5   3   6  ar  
  6   3  20  1   
  7   4   7  ar  
  8   5   8  1   
  9   5   9  1   
 10   6   7  ar  
 11   6  10  1   
 12   7  21  1   
 13   8  11  1   
 14   8  22  1   
 15   8  23  1   
 16   9  12  1   
 17   9  24  1   
 18   9  25  1   
 19  10  26  1   
 20  10  27  1   
 21  10  28  1   
 22  11  13  1   
 23  11  29  1   
 24  11  30  1   
 25  12  13  1   
 26  12  31  1   
 27  12  32  1   
 28  13  14  1   
 29  14  15  ar  
 30  14  16  ar  
 31  15  17  ar  
 32  15  33  1   
 33  16  18  ar  
 34  16  34  1   
 35  17  19  ar  
 36  17  35  1   
 37  18  19  ar  
 38  18  36  1   
 39  19  37  1   
@<TRIPOS>SUBSTRUCTURE
  1 ****  11 GROUP 4 **** **** 0

# MOE 2024.06 (io_trps.svl 2023.06)
