@<TRIPOS>MOLECULE
NONAME
51 53 1 0 0 
SMALL
USER_CHARGES


@<TRIPOS>ATOM
  1 O        2.7410    -4.0510    -0.1450 O.3   1 <1>  -0.3630 
  2 C        4.0780    -4.1540    -0.3690 C.ar  1 <1>   0.0830 
  3 C        2.1160    -2.8030     0.0610 C.3   1 <1>   0.1200 
  4 C        4.6110    -5.4320    -0.5150 C.ar  1 <1>  -0.1440 
  5 C        4.9170    -3.0440    -0.4570 C.ar  1 <1>  -0.1500 
  6 C        0.6210    -3.0480     0.2980 C.3   1 <1>   0.2000 
  7 C        5.9690    -5.5860    -0.7450 C.ar  1 <1>  -0.1500 
  8 C        3.7220    -6.6650    -0.4230 C.3   1 <1>  -0.0960 
  9 C        6.2710    -3.2110    -0.6870 C.ar  1 <1>  -0.1500 
 10 O        0.1290    -3.8670    -0.7220 O.3   1 <1>  -0.6800 
 11 C       -0.2020    -1.7430     0.3350 C.3   1 <1>   0.3430 
 12 C        6.7970    -4.4810    -0.8310 C.ar  1 <1>  -0.1500 
 13 N       -1.6290    -2.0180    -0.0150 N.4   1 <1>  -0.9590 
 14 C       -2.3400    -0.8230    -0.6010 C.3   1 <1>   0.3430 
 15 C       -2.4080    -2.6280     1.1250 C.3   1 <1>   0.3430 
 16 C       -3.8020    -1.1340    -0.9860 C.3   1 <1>   0.2090 
 17 C       -3.8680    -2.9450     0.7400 C.3   1 <1>   0.2090 
 18 N       -4.5330    -1.7420     0.1620 N.pl3 1 <1>  -0.8380 
 19 C       -5.9160    -1.8110     0.0330 C.ar  1 <1>   0.1000 
 20 C       -6.5210    -2.6910    -0.8580 C.ar  1 <1>  -0.1500 
 21 C       -6.7190    -0.9840     0.8060 C.ar  1 <1>  -0.1500 
 22 C       -7.8990    -2.7430    -0.9710 C.ar  1 <1>  -0.1500 
 23 C       -8.0970    -1.0320     0.6960 C.ar  1 <1>  -0.1500 
 24 C       -8.6890    -1.9130    -0.1940 C.ar  1 <1>  -0.1500 
 25 H        2.2700    -2.1980    -0.8170 H     1 <1>   0.0800 
 26 H        2.5690    -2.3330     0.9170 H     1 <1>   0.0800 
 27 H        4.5470    -2.0440    -0.3520 H     1 <1>   0.1500 
 28 H        0.5010    -3.5780     1.2280 H     1 <1>   0.0800 
 29 H        6.3930    -6.5690    -0.8590 H     1 <1>   0.1500 
 30 H        3.2190    -6.6840     0.5260 H     1 <1>   0.0800 
 31 H        4.3000    -7.5670    -0.5200 H     1 <1>   0.0800 
 32 H        2.9880    -6.6440    -1.2080 H     1 <1>   0.0800 
 33 H        6.9170    -2.3530    -0.7550 H     1 <1>   0.1500 
 34 H        0.8110    -4.5550    -0.9160 H     1 <1>   0.4000 
 35 H        0.2150    -1.0670    -0.3920 H     1 <1>   0.0800 
 36 H       -0.1270    -1.2750     1.3030 H     1 <1>   0.0800 
 37 H        7.8500    -4.6120    -1.0100 H     1 <1>   0.1500 
 38 H       -1.5570    -2.7550    -0.7440 H     1 <1>   0.4500 
 39 H       -1.8140    -0.4760    -1.4750 H     1 <1>   0.0800 
 40 H       -2.3500    -0.0230     0.1200 H     1 <1>   0.0800 
 41 H       -2.4250    -1.9430     1.9560 H     1 <1>   0.0800 
 42 H       -1.9290    -3.5370     1.4500 H     1 <1>   0.0800 
 43 H       -3.8240    -1.8050    -1.8280 H     1 <1>   0.0800 
 44 H       -4.2970    -0.2230    -1.2770 H     1 <1>   0.0800 
 45 H       -4.4100    -3.2620     1.6150 H     1 <1>   0.0800 
 46 H       -3.8900    -3.7520     0.0270 H     1 <1>   0.0800 
 47 H       -5.9150    -3.3370    -1.4640 H     1 <1>   0.1500 
 48 H       -6.2570    -0.3030     1.4950 H     1 <1>   0.1500 
 49 H       -8.3590    -3.4270    -1.6630 H     1 <1>   0.1500 
 50 H       -8.7100    -0.3870     1.3000 H     1 <1>   0.1500 
 51 H       -9.7610    -1.9510    -0.2810 H     1 <1>   0.1500 
@<TRIPOS>BOND
  1   1   2  1   
  2   1   3  1   
  3   2   4  ar  
  4   2   5  ar  
  5   3   6  1   
  6   3  25  1   
  7   3  26  1   
  8   4   7  ar  
  9   4   8  1   
 10   5   9  ar  
 11   5  27  1   
 12   6  10  1   
 13   6  11  1   
 14   6  28  1   
 15   7  12  ar  
 16   7  29  1   
 17   8  30  1   
 18   8  31  1   
 19   8  32  1   
 20   9  12  ar  
 21   9  33  1   
 22  10  34  1   
 23  11  13  1   
 24  11  35  1   
 25  11  36  1   
 26  12  37  1   
 27  13  14  1   
 28  13  15  1   
 29  13  38  1   
 30  14  16  1   
 31  14  39  1   
 32  14  40  1   
 33  15  17  1   
 34  15  41  1   
 35  15  42  1   
 36  16  18  1   
 37  16  43  1   
 38  16  44  1   
 39  17  18  1   
 40  17  45  1   
 41  17  46  1   
 42  18  19  1   
 43  19  20  ar  
 44  19  21  ar  
 45  20  22  ar  
 46  20  47  1   
 47  21  23  ar  
 48  21  48  1   
 49  22  24  ar  
 50  22  49  1   
 51  23  24  ar  
 52  23  50  1   
 53  24  51  1   
@<TRIPOS>SUBSTRUCTURE
  1 ****  13 GROUP 4 **** **** 0

# MOE 2024.06 (io_trps.svl 2023.06)
