@<TRIPOS>MOLECULE
NONAME
39 40 1 0 0 
SMALL
USER_CHARGES


@<TRIPOS>ATOM
  1 CL      -2.0680     2.5850    -3.3010 Cl    1 <1>  -0.1770 
  2 C       -2.6800     2.2420    -1.6960 C.ar  1 <1>   0.1770 
  3 C       -1.9540     2.6210    -0.5730 C.ar  1 <1>   0.0830 
  4 C       -3.8930     1.5910    -1.5890 C.ar  1 <1>  -0.1500 
  5 O       -0.7630     3.2590    -0.7540 O.3   1 <1>  -0.3630 
  6 C       -2.4820     2.3290     0.6820 C.ar  1 <1>  -0.1500 
  7 C       -4.4210     1.2940    -0.3400 C.ar  1 <1>   0.1170 
  8 C        0.0400     3.6360     0.3430 C.3   1 <1>   0.0400 
  9 C       -3.6990     1.6760     0.7890 C.ar  1 <1>  -0.1500 
 10 N       -5.6610     0.6360    -0.2740 N.am  1 <1>  -0.5470 
 11 C       -6.2420    -0.0870     0.7300 C.2   1 <1>   0.5690 
 12 O       -5.7250    -0.2970     1.7990 O.2   1 <1>  -0.5700 
 13 C       -7.6180    -0.6710     0.4700 C.3   1 <1>  -0.0990 
 14 C       -8.7040     0.4150     0.3840 C.3   1 <1>  -0.1600 
 15 C      -10.0800    -0.1950     0.1020 C.3   1 <1>   0.1400 
 16 N      -11.0710     0.8800    -0.1100 N.am  1 <1>  -0.4200 
 17 C      -11.9760     1.2860     0.8190 C.2   1 <1>   0.5690 
 18 C      -11.2030     1.5740    -1.2700 C.2   1 <1>   0.5690 
 19 O      -12.0930     0.8440     1.9310 O.2   1 <1>  -0.5700 
 20 C      -12.8480     2.3920     0.2690 C.3   1 <1>  -0.0990 
 21 O      -10.5290     1.4280    -2.2570 O.2   1 <1>  -0.5700 
 22 C      -12.3220     2.5850    -1.1670 C.3   1 <1>  -0.0990 
 23 H       -4.4170     1.3160    -2.4850 H     1 <1>   0.1500 
 24 H       -1.9670     2.5990     1.5840 H     1 <1>   0.1500 
 25 H        0.9290     4.1050    -0.0410 H     1 <1>   0.0800 
 26 H        0.3040     2.7560     0.9020 H     1 <1>   0.0800 
 27 H       -0.5050     4.3340     0.9530 H     1 <1>   0.0800 
 28 H       -4.0880     1.4680     1.7690 H     1 <1>   0.1500 
 29 H       -6.2100     0.6860    -1.1310 H     1 <1>   0.3700 
 30 H       -7.8550    -1.3520     1.2690 H     1 <1>   0.0800 
 31 H       -7.5840    -1.2360    -0.4430 H     1 <1>   0.0800 
 32 H       -8.4530     1.1050    -0.4030 H     1 <1>   0.0800 
 33 H       -8.7390     0.9550     1.3160 H     1 <1>   0.0800 
 34 H      -10.3890    -0.8140     0.9280 H     1 <1>   0.0800 
 35 H      -10.0400    -0.8060    -0.7840 H     1 <1>   0.0800 
 36 H      -12.7240     3.2810     0.8600 H     1 <1>   0.0800 
 37 H      -13.8780     2.0840     0.2770 H     1 <1>   0.0800 
 38 H      -13.0790     2.3680    -1.8980 H     1 <1>   0.0800 
 39 H      -11.9360     3.5760    -1.3180 H     1 <1>   0.0800 
@<TRIPOS>BOND
  1   1   2  1   
  2   2   3  ar  
  3   2   4  ar  
  4   3   5  1   
  5   3   6  ar  
  6   4   7  ar  
  7   4  23  1   
  8   5   8  1   
  9   6   9  ar  
 10   6  24  1   
 11   7   9  ar  
 12   7  10  1   
 13   8  25  1   
 14   8  26  1   
 15   8  27  1   
 16   9  28  1   
 17  10  11  am  
 18  10  29  1   
 19  11  12  2   
 20  11  13  1   
 21  13  14  1   
 22  13  30  1   
 23  13  31  1   
 24  14  15  1   
 25  14  32  1   
 26  14  33  1   
 27  15  16  1   
 28  15  34  1   
 29  15  35  1   
 30  16  17  am  
 31  16  18  am  
 32  17  19  2   
 33  17  20  1   
 34  18  21  2   
 35  18  22  1   
 36  20  22  1   
 37  20  36  1   
 38  20  37  1   
 39  22  38  1   
 40  22  39  1   
@<TRIPOS>SUBSTRUCTURE
  1 ****  10 GROUP 4 **** **** 0

# MOE 2024.06 (io_trps.svl 2023.06)
