@<TRIPOS>MOLECULE
NONAME
49 50 1 0 0 
SMALL
USER_CHARGES


@<TRIPOS>ATOM
  1 O        0.1510     1.1910     1.5240 O.2   1 <1>  -0.5700 
  2 C        0.0430     1.8290     0.4940 C.2   1 <1>   0.5440 
  3 N        1.1520     1.9980    -0.3080 N.am  1 <1>  -0.6600 
  4 C       -1.2430     2.4030     0.1500 C.ar  1 <1>   0.0860 
  5 C        1.2910     3.0880    -1.3210 C.3   1 <1>   0.1400 
  6 C        2.4280     1.2570    -0.0670 C.3   1 <1>   0.1400 
  7 C       -1.9500     3.1790     1.0660 C.ar  1 <1>  -0.1500 
  8 C       -1.8230     2.2060    -1.1030 C.ar  1 <1>  -0.1500 
  9 C        2.5190     3.9610    -1.0110 C.3   1 <1>   0.1200 
 10 C        3.5870     2.2390     0.1710 C.3   1 <1>   0.1200 
 11 C       -3.1680     3.7440     0.7410 C.ar  1 <1>  -0.1500 
 12 C       -3.0410     2.7710    -1.4280 C.ar  1 <1>  -0.1500 
 13 O        3.6660     3.1720    -0.8710 O.3   1 <1>  -0.5600 
 14 C       -3.7480     3.5480    -0.5110 C.ar  1 <1>   0.0860 
 15 C       -5.0190     4.1490    -0.8590 C.2   1 <1>   0.5440 
 16 O       -5.0710     4.8680    -1.8400 O.2   1 <1>  -0.5700 
 17 N       -6.1620     3.9550    -0.1090 N.am  1 <1>  -0.6600 
 18 C       -6.6240     2.6070     0.3460 C.3   1 <1>   0.2200 
 19 C       -7.1490     5.0720    -0.0390 C.3   1 <1>   0.2200 
 20 C       -5.8990     2.1590     1.6140 C.3   1 <1>  -0.2400 
 21 C       -6.4900     1.5730    -0.7730 C.3   1 <1>  -0.2400 
 22 C       -7.5930     5.3140     1.4040 C.3   1 <1>  -0.2400 
 23 C       -8.3360     4.8130    -0.9690 C.3   1 <1>  -0.2400 
 24 H        0.4180     3.7150    -1.3340 H     1 <1>   0.0800 
 25 H        1.4060     2.6510    -2.2980 H     1 <1>   0.0800 
 26 H        2.6510     0.6510    -0.9270 H     1 <1>   0.0800 
 27 H        2.3370     0.6020     0.7810 H     1 <1>   0.0800 
 28 H       -1.5270     3.3340     2.0450 H     1 <1>   0.1500 
 29 H       -1.3050     1.6010    -1.8270 H     1 <1>   0.1500 
 30 H        2.3690     4.5150    -0.1010 H     1 <1>   0.0800 
 31 H        2.6950     4.6540    -1.8140 H     1 <1>   0.0800 
 32 H        4.5210     1.7070     0.2090 H     1 <1>   0.0800 
 33 H        3.4500     2.7650     1.1000 H     1 <1>   0.0800 
 34 H       -3.6920     4.3460     1.4640 H     1 <1>   0.1500 
 35 H       -3.4660     2.6190    -2.4060 H     1 <1>   0.1500 
 36 H       -7.6700     2.6670     0.5880 H     1 <1>   0.0800 
 37 H       -6.6640     5.9740    -0.3770 H     1 <1>   0.0800 
 38 H       -4.8930     1.8540     1.4020 H     1 <1>   0.0800 
 39 H       -5.8950     2.9490     2.3420 H     1 <1>   0.0800 
 40 H       -6.4110     1.3140     2.0370 H     1 <1>   0.0800 
 41 H       -5.4600     1.3560    -0.9850 H     1 <1>   0.0800 
 42 H       -6.9710     1.9320    -1.6650 H     1 <1>   0.0800 
 43 H       -6.9670     0.6570    -0.4760 H     1 <1>   0.0800 
 44 H       -8.1670     4.4910     1.7850 H     1 <1>   0.0800 
 45 H       -8.2050     6.1970     1.4470 H     1 <1>   0.0800 
 46 H       -6.7320     5.4720     2.0280 H     1 <1>   0.0800 
 47 H       -8.9270     3.9790    -0.6410 H     1 <1>   0.0800 
 48 H       -7.9790     4.6290    -1.9670 H     1 <1>   0.0800 
 49 H       -8.9680     5.6820    -0.9960 H     1 <1>   0.0800 
@<TRIPOS>BOND
  1   1   2  2   
  2   2   3  am  
  3   2   4  1   
  4   3   5  1   
  5   3   6  1   
  6   4   7  ar  
  7   4   8  ar  
  8   5   9  1   
  9   5  24  1   
 10   5  25  1   
 11   6  10  1   
 12   6  26  1   
 13   6  27  1   
 14   7  11  ar  
 15   7  28  1   
 16   8  12  ar  
 17   8  29  1   
 18   9  13  1   
 19   9  30  1   
 20   9  31  1   
 21  10  13  1   
 22  10  32  1   
 23  10  33  1   
 24  11  14  ar  
 25  11  34  1   
 26  12  14  ar  
 27  12  35  1   
 28  14  15  1   
 29  15  16  2   
 30  15  17  am  
 31  17  18  1   
 32  17  19  1   
 33  18  20  1   
 34  18  21  1   
 35  18  36  1   
 36  19  22  1   
 37  19  23  1   
 38  19  37  1   
 39  20  38  1   
 40  20  39  1   
 41  20  40  1   
 42  21  41  1   
 43  21  42  1   
 44  21  43  1   
 45  22  44  1   
 46  22  45  1   
 47  22  46  1   
 48  23  47  1   
 49  23  48  1   
 50  23  49  1   
@<TRIPOS>SUBSTRUCTURE
  1 ****  11 GROUP 4 **** **** 0

# MOE 2024.06 (io_trps.svl 2023.06)
