@<TRIPOS>MOLECULE
NONAME
50 52 1 0 0 
SMALL
USER_CHARGES


@<TRIPOS>ATOM
  1 S        0.2570    -0.4480    -1.5650 S.o2  1 <1>   1.3330 
  2 O       -0.6700    -0.8630    -2.5910 O.2   1 <1>  -0.6500 
  3 O        1.6410    -0.8510    -1.6260 O.2   1 <1>  -0.6500 
  4 N        0.2250     1.2780    -1.4990 N.am  1 <1>  -0.6930 
  5 C       -0.3970    -0.8940     0.0300 C.3   1 <1>  -0.1350 
  6 C        1.2440     2.0050    -0.9160 C.ar  1 <1>   0.1990 
  7 C       -0.9160     1.9720    -2.1310 C.3   1 <1>   0.3390 
  8 C        1.1160     2.5160     0.3700 C.ar  1 <1>  -0.1500 
  9 C        2.4270     2.2420    -1.6050 C.ar  1 <1>  -0.1500 
 10 C       -2.1410     1.9090    -1.2300 C.ar  1 <1>  -0.1430 
 11 C        2.1380     3.2450     0.9450 C.ar  1 <1>  -0.1500 
 12 C        3.4470     2.9720    -1.0280 C.ar  1 <1>  -0.1500 
 13 C       -2.3150     2.8390    -0.2160 C.ar  1 <1>  -0.1500 
 14 C       -3.1030     0.9270    -1.4170 C.ar  1 <1>  -0.1500 
 15 C        3.3340     3.4860     0.2660 C.ar  1 <1>   0.0860 
 16 C       -3.4230     2.7760     0.6110 C.ar  1 <1>  -0.1500 
 17 C       -4.2100     0.8650    -0.5890 C.ar  1 <1>  -0.1500 
 18 C        4.4000     4.2430     0.8890 C.2   1 <1>   0.5440 
 19 C       -4.3750     1.7860     0.4310 C.ar  1 <1>  -0.1430 
 20 O        4.1430     5.2940     1.4480 O.2   1 <1>  -0.5700 
 21 N        5.7050     3.8020     0.8830 N.am  1 <1>  -0.6600 
 22 C       -5.5900     1.7190     1.3380 C.3   1 <1>  -0.0970 
 23 C        6.7980     4.5760     1.5120 C.3   1 <1>   0.1400 
 24 C        6.1260     2.4050     0.6300 C.3   1 <1>   0.1400 
 25 C        8.0130     3.6570     1.4590 C.3   1 <1>  -0.1600 
 26 C        7.4290     2.2490     1.4050 C.3   1 <1>  -0.1600 
 27 H       -0.4400    -1.9610     0.1230 H     1 <1>   0.0800 
 28 H       -1.3850    -0.4980     0.1550 H     1 <1>   0.0800 
 29 H        0.2310    -0.5060     0.8060 H     1 <1>   0.0800 
 30 H       -1.1300     1.5270    -3.0870 H     1 <1>   0.0800 
 31 H       -0.6530     3.0010    -2.3040 H     1 <1>   0.0800 
 32 H        0.2100     2.3340     0.9180 H     1 <1>   0.1500 
 33 H        2.5370     1.8420    -2.5980 H     1 <1>   0.1500 
 34 H        2.0240     3.6430     1.9390 H     1 <1>   0.1500 
 35 H        4.3510     3.1550    -1.5830 H     1 <1>   0.1500 
 36 H       -1.5890     3.6190    -0.0660 H     1 <1>   0.1500 
 37 H       -2.9960     0.2030    -2.2070 H     1 <1>   0.1500 
 38 H       -3.5430     3.5040     1.3940 H     1 <1>   0.1500 
 39 H       -4.9460     0.0960    -0.7480 H     1 <1>   0.1500 
 40 H       -5.9410     0.7060     1.4220 H     1 <1>   0.0800 
 41 H       -6.3790     2.3270     0.9330 H     1 <1>   0.0800 
 42 H       -5.3460     2.0760     2.3220 H     1 <1>   0.0800 
 43 H        6.5310     4.7950     2.5320 H     1 <1>   0.0800 
 44 H        6.9660     5.4970     0.9790 H     1 <1>   0.0800 
 45 H        6.3040     2.2750    -0.4230 H     1 <1>   0.0800 
 46 H        5.3810     1.7030     0.9650 H     1 <1>   0.0800 
 47 H        8.6610     3.8030     2.3050 H     1 <1>   0.0800 
 48 H        8.5640     3.8600     0.5570 H     1 <1>   0.0800 
 49 H        8.0930     1.5450     0.9360 H     1 <1>   0.0800 
 50 H        7.2040     1.9090     2.4020 H     1 <1>   0.0800 
@<TRIPOS>BOND
  1   1   2  2   
  2   1   3  2   
  3   1   4  am  
  4   1   5  1   
  5   4   6  1   
  6   4   7  1   
  7   5  27  1   
  8   5  28  1   
  9   5  29  1   
 10   6   8  ar  
 11   6   9  ar  
 12   7  10  1   
 13   7  30  1   
 14   7  31  1   
 15   8  11  ar  
 16   8  32  1   
 17   9  12  ar  
 18   9  33  1   
 19  10  13  ar  
 20  10  14  ar  
 21  11  15  ar  
 22  11  34  1   
 23  12  15  ar  
 24  12  35  1   
 25  13  16  ar  
 26  13  36  1   
 27  14  17  ar  
 28  14  37  1   
 29  15  18  1   
 30  16  19  ar  
 31  16  38  1   
 32  17  19  ar  
 33  17  39  1   
 34  18  20  2   
 35  18  21  am  
 36  19  22  1   
 37  21  23  1   
 38  21  24  1   
 39  22  40  1   
 40  22  41  1   
 41  22  42  1   
 42  23  25  1   
 43  23  43  1   
 44  23  44  1   
 45  24  26  1   
 46  24  45  1   
 47  24  46  1   
 48  25  26  1   
 49  25  47  1   
 50  25  48  1   
 51  26  49  1   
 52  26  50  1   
@<TRIPOS>SUBSTRUCTURE
  1 ****   8 GROUP 4 **** **** 0

# MOE 2024.06 (io_trps.svl 2023.06)
