@<TRIPOS>MOLECULE
NONAME
38 40 1 0 0 
SMALL
USER_CHARGES


@<TRIPOS>ATOM
  1 F       -1.6420     0.6140     2.0420 F     1 <1>  -0.1900 
  2 C       -2.3480     1.0670     1.0440 C.ar  1 <1>   0.1900 
  3 C       -3.5990     0.5240     0.8200 C.ar  1 <1>  -0.1500 
  4 C       -1.8240     2.0710     0.2540 C.ar  1 <1>  -0.1500 
  5 C       -4.3620     1.0100    -0.2330 C.ar  1 <1>  -0.1440 
  6 C       -2.5840     2.5450    -0.8010 C.ar  1 <1>  -0.1500 
  7 C       -3.8440     2.0170    -1.0420 C.ar  1 <1>  -0.1500 
  8 C       -5.7500     0.4550    -0.4940 C.3   1 <1>   0.4870 
  9 N       -6.6680     0.9570     0.5620 N.4   1 <1>  -0.9590 
 10 C       -8.0300     0.3060     0.4580 C.3   1 <1>   0.3430 
 11 C       -6.7650     2.4700     0.5360 C.3   1 <1>   0.3430 
 12 C       -9.0320     0.8690     1.4860 C.3   1 <1>   0.2090 
 13 C       -7.7850     3.0270     1.5520 C.3   1 <1>   0.2090 
 14 N       -9.0990     2.3530     1.3560 N.pl3 1 <1>  -0.8380 
 15 C      -10.0130     2.9350     0.5080 C.ar  1 <1>   0.7200 
 16 N      -10.5410     2.1530    -0.4330 N.ar  1 <1>  -0.6200 
 17 N      -10.2440     4.2290     0.6850 N.ar  1 <1>  -0.6200 
 18 C      -11.4190     2.7260    -1.2240 C.ar  1 <1>   0.1600 
 19 C      -11.1250     4.7730    -0.1190 C.ar  1 <1>   0.1600 
 20 C      -11.7540     4.0520    -1.1050 C.ar  1 <1>  -0.1500 
 21 H       -3.9430    -0.2630     1.4680 H     1 <1>   0.1500 
 22 H       -0.8440     2.4650     0.4600 H     1 <1>   0.1500 
 23 H       -2.1920     3.3240    -1.4350 H     1 <1>   0.1500 
 24 H       -4.4110     2.4020    -1.8740 H     1 <1>   0.1500 
 25 H       -5.7120    -0.6220    -0.4750 H     1 <1>   0.0800 
 26 H       -6.0950     0.7670    -1.4670 H     1 <1>   0.0800 
 27 H       -6.2570     0.7040     1.4680 H     1 <1>   0.4500 
 28 H       -7.9440    -0.7580     0.5980 H     1 <1>   0.0800 
 29 H       -8.4400     0.4800    -0.5240 H     1 <1>   0.0800 
 30 H       -7.0710     2.7930    -0.4450 H     1 <1>   0.0800 
 31 H       -5.7990     2.9050     0.7380 H     1 <1>   0.0800 
 32 H       -8.7270     0.6100     2.4850 H     1 <1>   0.0800 
 33 H      -10.0060     0.4350     1.3260 H     1 <1>   0.0800 
 34 H       -7.8760     4.0920     1.4180 H     1 <1>   0.0800 
 35 H       -7.4400     2.8580     2.5570 H     1 <1>   0.0800 
 36 H      -11.8860     2.1240    -1.9860 H     1 <1>   0.1500 
 37 H      -11.3520     5.8190     0.0100 H     1 <1>   0.1500 
 38 H      -12.4770     4.5080    -1.7550 H     1 <1>   0.1500 
@<TRIPOS>BOND
  1   1   2  1   
  2   2   3  ar  
  3   2   4  ar  
  4   3   5  ar  
  5   3  21  1   
  6   4   6  ar  
  7   4  22  1   
  8   5   7  ar  
  9   5   8  1   
 10   6   7  ar  
 11   6  23  1   
 12   7  24  1   
 13   8   9  1   
 14   8  25  1   
 15   8  26  1   
 16   9  10  1   
 17   9  11  1   
 18   9  27  1   
 19  10  12  1   
 20  10  28  1   
 21  10  29  1   
 22  11  13  1   
 23  11  30  1   
 24  11  31  1   
 25  12  14  1   
 26  12  32  1   
 27  12  33  1   
 28  13  14  1   
 29  13  34  1   
 30  13  35  1   
 31  14  15  1   
 32  15  16  ar  
 33  15  17  ar  
 34  16  18  ar  
 35  17  19  ar  
 36  18  20  ar  
 37  18  36  1   
 38  19  20  ar  
 39  19  37  1   
 40  20  38  1   
@<TRIPOS>SUBSTRUCTURE
  1 ****  11 GROUP 4 **** **** 0

# MOE 2024.06 (io_trps.svl 2023.06)
