@<TRIPOS>MOLECULE
NONAME
26 26 1 0 0 
SMALL
USER_CHARGES


@<TRIPOS>ATOM
  1 CL      -0.2920    -0.7890     0.4060 Cl    1 <1>  -0.1770 
  2 C        1.3670    -1.1780     0.0460 C.ar  1 <1>   0.1770 
  3 C        2.0170    -0.5160    -0.9760 C.ar  1 <1>  -0.1500 
  4 C        2.0160    -2.1480     0.7840 C.ar  1 <1>  -0.1500 
  5 C        3.3360    -0.8290    -1.2520 C.ar  1 <1>  -0.1500 
  6 C        3.3350    -2.4530     0.4970 C.ar  1 <1>  -0.1500 
  7 C        4.0380    -1.7930    -0.5200 C.ar  1 <1>   0.0860 
  8 C        5.4210    -2.0630    -0.8610 C.2   1 <1>   0.4230 
  9 O        5.7780    -2.0790    -2.0160 O.2   1 <1>  -0.5700 
 10 C        6.5200    -2.2750     0.2100 C.3   1 <1>   0.3170 
 11 N        7.8120    -1.8350    -0.4000 N.4   1 <1>  -0.2260 
 12 C        6.2840    -1.4330     1.4820 C.3   1 <1>  -0.2400 
 13 C        6.6520    -3.7690     0.5680 C.3   1 <1>  -0.2400 
 14 O        8.8920    -1.9930     0.4240 O.2   1 <1>  -0.7500 
 15 H        1.4930     0.2310    -1.5460 H     1 <1>   0.1500 
 16 H        1.4860    -2.6570     1.5700 H     1 <1>   0.1500 
 17 H        3.8380    -0.3160    -2.0570 H     1 <1>   0.1500 
 18 H        3.8090    -3.2210     1.0770 H     1 <1>   0.1500 
 19 H        7.7540    -0.8510    -0.6770 H     1 <1>   0.3600 
 20 H        7.9620    -2.3730    -1.2630 H     1 <1>   0.3600 
 21 H        7.1190    -1.5330     2.1540 H     1 <1>   0.0800 
 22 H        5.4110    -1.7560     2.0150 H     1 <1>   0.0800 
 23 H        6.1690    -0.3940     1.2320 H     1 <1>   0.0800 
 24 H        7.4610    -3.9150     1.2640 H     1 <1>   0.0800 
 25 H        6.8520    -4.3480    -0.3150 H     1 <1>   0.0800 
 26 H        5.7610    -4.1480     1.0250 H     1 <1>   0.0800 
@<TRIPOS>BOND
  1   1   2  1   
  2   2   3  ar  
  3   2   4  ar  
  4   3   5  ar  
  5   3  15  1   
  6   4   6  ar  
  7   4  16  1   
  8   5   7  ar  
  9   5  17  1   
 10   6   7  ar  
 11   6  18  1   
 12   7   8  1   
 13   8   9  2   
 14   8  10  1   
 15  10  11  1   
 16  10  12  1   
 17  10  13  1   
 18  11  14  2   
 19  11  19  1   
 20  11  20  1   
 21  12  21  1   
 22  12  22  1   
 23  12  23  1   
 24  13  24  1   
 25  13  25  1   
 26  13  26  1   
@<TRIPOS>SUBSTRUCTURE
  1 ****   7 GROUP 4 **** **** 0

# MOE 2024.06 (io_trps.svl 2023.06)
