@<TRIPOS>MOLECULE
NONAME
43 44 1 0 0 
SMALL
USER_CHARGES


@<TRIPOS>ATOM
  1 O      -11.5960     2.4500    -0.1800 O.3   1 <1>  -0.3630 
  2 C      -10.3010     2.3850     0.2420 C.ar  1 <1>   0.0830 
  3 C      -12.6090     1.6030     0.3130 C.3   1 <1>   0.2580 
  4 C       -9.3530     3.3080    -0.2350 C.ar  1 <1>   0.0830 
  5 C       -9.8890     1.4100     1.1500 C.ar  1 <1>  -0.1500 
  6 C      -13.9130     2.0070    -0.3460 C.2   1 <1>  -0.2880 
  7 O       -9.5590     4.3190    -1.1280 O.3   1 <1>  -0.3630 
  8 C       -8.0450     3.2310     0.2130 C.ar  1 <1>  -0.1500 
  9 C       -8.5740     1.3450     1.5790 C.ar  1 <1>  -0.1500 
 10 C      -14.6880     1.2100    -1.0890 C.2   1 <1>  -0.3000 
 11 C      -10.8070     4.5950    -1.7270 C.3   1 <1>   0.0400 
 12 C       -7.6430     2.2560     1.1110 C.ar  1 <1>  -0.1430 
 13 C       -6.2000     2.1930     1.5540 C.3   1 <1>   0.4860 
 14 N       -5.4530     1.5500     0.4550 N.4   1 <1>  -0.9060 
 15 C       -3.9980     1.4550     0.6560 C.3   1 <1>   0.4230 
 16 C       -3.3620     2.8250     0.4350 C.3   1 <1>  -0.1600 
 17 C       -3.4220     0.6320    -0.4900 C.3   1 <1>  -0.1600 
 18 C       -3.2730     3.0050    -1.0850 C.3   1 <1>  -0.1600 
 19 C       -3.3090     1.5920    -1.6810 C.3   1 <1>  -0.1600 
 20 H      -12.6730     1.7290     1.3800 H     1 <1>   0.0800 
 21 H      -12.3570     0.5860     0.0680 H     1 <1>   0.0800 
 22 H      -10.5780     0.6850     1.5410 H     1 <1>   0.1500 
 23 H      -14.1590     3.0370    -0.1520 H     1 <1>   0.1500 
 24 H       -7.3500     3.9620    -0.1620 H     1 <1>   0.1500 
 25 H       -8.2970     0.5780     2.2830 H     1 <1>   0.1500 
 26 H      -15.6090     1.5280    -1.5460 H     1 <1>   0.1500 
 27 H      -14.4710     0.1780    -1.3050 H     1 <1>   0.1500 
 28 H      -10.6850     5.4340    -2.3880 H     1 <1>   0.0800 
 29 H      -11.5180     4.8380    -0.9570 H     1 <1>   0.0800 
 30 H      -11.1260     3.7340    -2.2860 H     1 <1>   0.0800 
 31 H       -6.1120     1.6180     2.4620 H     1 <1>   0.0800 
 32 H       -5.8320     3.1910     1.7330 H     1 <1>   0.0800 
 33 H       -5.6240     2.0770    -0.4070 H     1 <1>   0.4500 
 34 H       -5.8510     0.6200     0.2960 H     1 <1>   0.4500 
 35 H       -3.7590     1.0320     1.6200 H     1 <1>   0.0800 
 36 H       -2.3600     2.7950     0.8310 H     1 <1>   0.0800 
 37 H       -3.8810     3.6340     0.9170 H     1 <1>   0.0800 
 38 H       -4.0000    -0.2470    -0.7170 H     1 <1>   0.0800 
 39 H       -2.4310     0.3160    -0.2120 H     1 <1>   0.0800 
 40 H       -2.3640     3.5180    -1.3570 H     1 <1>   0.0800 
 41 H       -4.1070     3.5800    -1.4500 H     1 <1>   0.0800 
 42 H       -4.1590     1.4890    -2.3350 H     1 <1>   0.0800 
 43 H       -2.4170     1.3870    -2.2520 H     1 <1>   0.0800 
@<TRIPOS>BOND
  1   1   2  1   
  2   1   3  1   
  3   2   4  ar  
  4   2   5  ar  
  5   3   6  1   
  6   3  20  1   
  7   3  21  1   
  8   4   7  1   
  9   4   8  ar  
 10   5   9  ar  
 11   5  22  1   
 12   6  10  2   
 13   6  23  1   
 14   7  11  1   
 15   8  12  ar  
 16   8  24  1   
 17   9  12  ar  
 18   9  25  1   
 19  10  26  1   
 20  10  27  1   
 21  11  28  1   
 22  11  29  1   
 23  11  30  1   
 24  12  13  1   
 25  13  14  1   
 26  13  31  1   
 27  13  32  1   
 28  14  15  1   
 29  14  33  1   
 30  14  34  1   
 31  15  16  1   
 32  15  17  1   
 33  15  35  1   
 34  16  18  1   
 35  16  36  1   
 36  16  37  1   
 37  17  19  1   
 38  17  38  1   
 39  17  39  1   
 40  18  19  1   
 41  18  40  1   
 42  18  41  1   
 43  19  42  1   
 44  19  43  1   
@<TRIPOS>SUBSTRUCTURE
  1 ****   8 GROUP 4 **** **** 0

# MOE 2024.06 (io_trps.svl 2023.06)
