@<TRIPOS>MOLECULE
NONAME
34 34 1 0 0 
SMALL
USER_CHARGES


@<TRIPOS>ATOM
  1 BR       0.1310    -0.0400    -0.9540 Br    1 <1>  -0.1110 
  2 C       -1.7480     0.1860    -0.5930 C.ar  1 <1>   0.1110 
  3 C       -2.5290    -0.9350    -0.4080 C.ar  1 <1>  -0.1500 
  4 C       -2.2630     1.4640    -0.5290 C.ar  1 <1>  -0.1500 
  5 C       -3.8800    -0.7760    -0.1490 C.ar  1 <1>  -0.1440 
  6 C       -3.6130     1.6320    -0.2660 C.ar  1 <1>  -0.1440 
  7 C       -4.4300     0.5100    -0.0760 C.ar  1 <1>   0.1170 
  8 C       -4.7460    -2.0160     0.0380 C.3   1 <1>  -0.0960 
  9 C       -4.1690     3.0490    -0.1930 C.3   1 <1>  -0.0960 
 10 N       -5.7950     0.6520     0.2130 N.am  1 <1>  -0.5470 
 11 C       -6.7980     1.0870    -0.6080 C.2   1 <1>   0.5690 
 12 O       -6.5840     1.4530    -1.7400 O.2   1 <1>  -0.5700 
 13 C       -8.2410     1.0940    -0.0420 C.3   1 <1>   0.0610 
 14 C       -8.3320     2.0300     1.1780 C.3   1 <1>  -0.2400 
 15 C       -9.2650     1.5820    -1.0880 C.3   1 <1>  -0.2400 
 16 C       -8.6540    -0.3270     0.3920 C.3   1 <1>  -0.2400 
 17 H       -2.0790    -1.9090    -0.4710 H     1 <1>   0.1500 
 18 H       -1.6140     2.3060    -0.6850 H     1 <1>   0.1500 
 19 H       -4.1780    -2.9130    -0.1330 H     1 <1>   0.0800 
 20 H       -5.5640    -1.9980    -0.6600 H     1 <1>   0.0800 
 21 H       -5.1370    -2.0470     1.0390 H     1 <1>   0.0800 
 22 H       -3.3770     3.7720    -0.1230 H     1 <1>   0.0800 
 23 H       -4.8040     3.1600     0.6670 H     1 <1>   0.0800 
 24 H       -4.7430     3.2590    -1.0780 H     1 <1>   0.0800 
 25 H       -6.0890     0.2810     1.1120 H     1 <1>   0.3700 
 26 H       -7.6820     1.7010     1.9700 H     1 <1>   0.0800 
 27 H       -9.3370     2.0630     1.5590 H     1 <1>   0.0800 
 28 H       -8.0430     3.0280     0.8980 H     1 <1>   0.0800 
 29 H       -9.0240     2.5810    -1.4070 H     1 <1>   0.0800 
 30 H      -10.2620     1.5830    -0.6860 H     1 <1>   0.0800 
 31 H       -9.2460     0.9440    -1.9550 H     1 <1>   0.0800 
 32 H       -8.0210    -0.6940     1.1790 H     1 <1>   0.0800 
 33 H       -8.5830    -1.0020    -0.4430 H     1 <1>   0.0800 
 34 H       -9.6700    -0.3340     0.7470 H     1 <1>   0.0800 
@<TRIPOS>BOND
  1   1   2  1   
  2   2   3  ar  
  3   2   4  ar  
  4   3   5  ar  
  5   3  17  1   
  6   4   6  ar  
  7   4  18  1   
  8   5   7  ar  
  9   5   8  1   
 10   6   7  ar  
 11   6   9  1   
 12   7  10  1   
 13   8  19  1   
 14   8  20  1   
 15   8  21  1   
 16   9  22  1   
 17   9  23  1   
 18   9  24  1   
 19  10  11  am  
 20  10  25  1   
 21  11  12  2   
 22  11  13  1   
 23  13  14  1   
 24  13  15  1   
 25  13  16  1   
 26  14  26  1   
 27  14  27  1   
 28  14  28  1   
 29  15  29  1   
 30  15  30  1   
 31  15  31  1   
 32  16  32  1   
 33  16  33  1   
 34  16  34  1   
@<TRIPOS>SUBSTRUCTURE
  1 ****   7 GROUP 4 **** **** 0

# MOE 2024.06 (io_trps.svl 2023.06)
