@<TRIPOS>MOLECULE
NONAME
44 44 1 0 0 
SMALL
USER_CHARGES


@<TRIPOS>ATOM
  1 O       -1.5300    -0.5730    -0.2170 O.3   1 <1>  -0.3630 
  2 C       -2.0870     0.6480     0.0210 C.ar  1 <1>   0.0830 
  3 C       -0.1400    -0.7830    -0.3140 C.3   1 <1>   0.1200 
  4 C       -1.4560     1.9020    -0.0750 C.ar  1 <1>   0.0830 
  5 C       -3.4200     0.5850     0.3880 C.ar  1 <1>  -0.1500 
  6 C        0.1100    -2.2880    -0.3270 C.3   1 <1>  -0.2400 
  7 O       -0.1480     1.9870    -0.4570 O.3   1 <1>  -0.3620 
  8 C       -2.1950     3.0470     0.2140 C.ar  1 <1>  -0.1500 
  9 C       -4.1500     1.7300     0.6600 C.ar  1 <1>  -0.1440 
 10 C        0.5470     3.2120    -0.5340 C.3   1 <1>   0.0400 
 11 C       -3.5280     2.9640     0.5770 C.ar  1 <1>  -0.1500 
 12 C       -5.6110     1.6190     1.0250 C.3   1 <1>   0.4860 
 13 N       -6.3380     1.4570    -0.2500 N.4   1 <1>  -0.9060 
 14 C       -7.7850     1.2090    -0.1220 C.3   1 <1>   0.4230 
 15 C       -8.2950     0.6830    -1.4760 C.3   1 <1>  -0.1600 
 16 C       -8.4840     2.5060     0.3300 C.3   1 <1>  -0.1600 
 17 C       -9.2690    -0.4920    -1.3050 C.3   1 <1>  -0.2400 
 18 C       -9.9930     2.3460     0.5670 C.3   1 <1>  -0.2400 
 19 H        0.3360    -0.3240     0.5350 H     1 <1>   0.0800 
 20 H        0.2090    -0.3330    -1.2280 H     1 <1>   0.0800 
 21 H       -3.8680    -0.3910     0.4580 H     1 <1>   0.1500 
 22 H       -0.2540    -2.7310     0.5820 H     1 <1>   0.0800 
 23 H        1.1650    -2.4780    -0.4030 H     1 <1>   0.0800 
 24 H       -0.3820    -2.7370    -1.1710 H     1 <1>   0.0800 
 25 H       -1.7500     4.0230     0.1600 H     1 <1>   0.1500 
 26 H        1.5580     3.0030    -0.8380 H     1 <1>   0.0800 
 27 H        0.5490     3.6770     0.4360 H     1 <1>   0.0800 
 28 H        0.0720     3.8400    -1.2660 H     1 <1>   0.0800 
 29 H       -4.0640     3.8740     0.7930 H     1 <1>   0.1500 
 30 H       -5.9340     2.5070     1.5430 H     1 <1>   0.0800 
 31 H       -5.7660     0.7630     1.6630 H     1 <1>   0.0800 
 32 H       -5.9000     0.6750    -0.7470 H     1 <1>   0.4500 
 33 H       -6.1710     2.2840    -0.8320 H     1 <1>   0.4500 
 34 H       -7.9440     0.4430     0.6220 H     1 <1>   0.0800 
 35 H       -7.4800     0.3310    -2.0840 H     1 <1>   0.0800 
 36 H       -8.7860     1.4700    -2.0230 H     1 <1>   0.0800 
 37 H       -8.3370     3.2780    -0.4070 H     1 <1>   0.0800 
 38 H       -8.0560     2.8450     1.2570 H     1 <1>   0.0800 
 39 H       -8.7910    -1.3180    -0.8080 H     1 <1>   0.0800 
 40 H       -9.6040    -0.8330    -2.2710 H     1 <1>   0.0800 
 41 H      -10.1370    -0.2050    -0.7370 H     1 <1>   0.0800 
 42 H      -10.5130     2.1340    -0.3510 H     1 <1>   0.0800 
 43 H      -10.3990     3.2590     0.9680 H     1 <1>   0.0800 
 44 H      -10.1910     1.5550     1.2710 H     1 <1>   0.0800 
@<TRIPOS>BOND
  1   1   2  1   
  2   1   3  1   
  3   2   4  ar  
  4   2   5  ar  
  5   3   6  1   
  6   3  19  1   
  7   3  20  1   
  8   4   7  1   
  9   4   8  ar  
 10   5   9  ar  
 11   5  21  1   
 12   6  22  1   
 13   6  23  1   
 14   6  24  1   
 15   7  10  1   
 16   8  11  ar  
 17   8  25  1   
 18   9  11  ar  
 19   9  12  1   
 20  10  26  1   
 21  10  27  1   
 22  10  28  1   
 23  11  29  1   
 24  12  13  1   
 25  12  30  1   
 26  12  31  1   
 27  13  14  1   
 28  13  32  1   
 29  13  33  1   
 30  14  15  1   
 31  14  16  1   
 32  14  34  1   
 33  15  17  1   
 34  15  35  1   
 35  15  36  1   
 36  16  18  1   
 37  16  37  1   
 38  16  38  1   
 39  17  39  1   
 40  17  40  1   
 41  17  41  1   
 42  18  42  1   
 43  18  43  1   
 44  18  44  1   
@<TRIPOS>SUBSTRUCTURE
  1 ****   9 GROUP 4 **** **** 0

# MOE 2024.06 (io_trps.svl 2023.06)
