@<TRIPOS>MOLECULE
NONAME
31 31 1 0 0 
SMALL
USER_CHARGES


@<TRIPOS>ATOM
  1 CL      -0.7110    -0.4300     1.4350 Cl    1 <1>  -0.1770 
  2 C       -1.9170     0.6120     0.7110 C.ar  1 <1>   0.1770 
  3 C       -3.2030     0.1540     0.4480 C.ar  1 <1>  -0.1440 
  4 C       -1.5280     1.9070     0.4220 C.ar  1 <1>  -0.1500 
  5 C       -4.1280     1.0420    -0.1110 C.ar  1 <1>   0.1170 
  6 C       -3.6050    -1.2890     0.7620 C.3   1 <1>  -0.0960 
  7 C       -2.4410     2.7790    -0.1380 C.ar  1 <1>  -0.1500 
  8 N       -5.4470     0.6190    -0.3500 N.am  1 <1>  -0.5470 
  9 C       -3.7270     2.3460    -0.3960 C.ar  1 <1>  -0.1500 
 10 C       -6.3880     1.0520    -1.2420 C.2   1 <1>   0.5690 
 11 O       -6.2040     1.9310    -2.0460 O.2   1 <1>  -0.5700 
 12 C       -7.7400     0.3640    -1.2170 C.3   1 <1>  -0.0990 
 13 C       -8.5520     0.7160     0.0410 C.3   1 <1>  -0.1600 
 14 C       -9.9160     0.0140     0.0380 C.3   1 <1>  -0.1600 
 15 C      -10.7170     0.3670     1.2940 C.3   1 <1>  -0.2400 
 16 H       -0.5230     2.2240     0.6350 H     1 <1>   0.1500 
 17 H       -2.7500    -1.9280     0.8800 H     1 <1>   0.0800 
 18 H       -4.1920    -1.7000    -0.0390 H     1 <1>   0.0800 
 19 H       -4.1770    -1.3200     1.6720 H     1 <1>   0.0800 
 20 H       -2.1540     3.7910    -0.3700 H     1 <1>   0.1500 
 21 H       -5.7380    -0.1700     0.2210 H     1 <1>   0.3700 
 22 H       -4.4290     3.0410    -0.8220 H     1 <1>   0.1500 
 23 H       -7.5900    -0.6980    -1.2780 H     1 <1>   0.0800 
 24 H       -8.2900     0.6670    -2.0920 H     1 <1>   0.0800 
 25 H       -8.6980     1.7830     0.0760 H     1 <1>   0.0800 
 26 H       -8.0040     0.4270     0.9210 H     1 <1>   0.0800 
 27 H       -9.7780    -1.0530    -0.0050 H     1 <1>   0.0800 
 28 H      -10.4750     0.3140    -0.8330 H     1 <1>   0.0800 
 29 H      -10.1890     0.0570     2.1790 H     1 <1>   0.0800 
 30 H      -11.6710    -0.1310     1.2730 H     1 <1>   0.0800 
 31 H      -10.8880     1.4280     1.3450 H     1 <1>   0.0800 
@<TRIPOS>BOND
  1   1   2  1   
  2   2   3  ar  
  3   2   4  ar  
  4   3   5  ar  
  5   3   6  1   
  6   4   7  ar  
  7   4  16  1   
  8   5   8  1   
  9   5   9  ar  
 10   6  17  1   
 11   6  18  1   
 12   6  19  1   
 13   7   9  ar  
 14   7  20  1   
 15   8  10  am  
 16   8  21  1   
 17   9  22  1   
 18  10  11  2   
 19  10  12  1   
 20  12  13  1   
 21  12  23  1   
 22  12  24  1   
 23  13  14  1   
 24  13  25  1   
 25  13  26  1   
 26  14  15  1   
 27  14  27  1   
 28  14  28  1   
 29  15  29  1   
 30  15  30  1   
 31  15  31  1   
@<TRIPOS>SUBSTRUCTURE
  1 ****   8 GROUP 4 **** **** 0

# MOE 2024.06 (io_trps.svl 2023.06)
