@<TRIPOS>MOLECULE
NONAME
38 41 1 0 0 
SMALL
USER_CHARGES


@<TRIPOS>ATOM
  1 O       -0.0360     0.3230    -0.6360 O.2   1 <1>  -0.5700 
  2 C       -1.0730     0.9180    -0.4210 C.2   1 <1>   0.7060 
  3 O       -2.1530     0.1680    -0.1720 O.3   1 <1>  -0.2330 
  4 C       -1.2230     2.3460    -0.4590 C.2   1 <1>   0.0290 
  5 C       -3.3970     0.6740    -0.0400 C.ar  1 <1>   0.0830 
  6 C       -0.0470     3.1450    -0.6410 C.2   1 <1>   0.7060 
  7 C       -2.4680     2.8860    -0.3380 C.2   1 <1>  -0.1780 
  8 C       -3.6030     2.0550    -0.1270 C.ar  1 <1>   0.0280 
  9 C       -4.4590    -0.1900     0.1780 C.ar  1 <1>  -0.1500 
 10 O       -0.0430     4.1420    -1.3330 O.2   1 <1>  -0.5700 
 11 O        1.0630     2.8140     0.0160 O.3   1 <1>  -0.4300 
 12 C       -4.9040     2.5410     0.0050 C.ar  1 <1>  -0.1500 
 13 C       -5.7400     0.3110     0.3080 C.ar  1 <1>  -0.1500 
 14 C        2.2730     3.5200    -0.1520 C.3   1 <1>   0.1200 
 15 C       -5.9600     1.6790     0.2200 C.ar  1 <1>  -0.1500 
 16 C        3.3730     2.8030     0.6490 C.3   1 <1>  -0.0800 
 17 C        4.8510     3.5140     0.4420 C.3   1 <1>   0.0580 
 18 C        3.5580     1.1650     0.2200 C.3   1 <1>  -0.1600 
 19 C        6.3460     3.1510    -0.0520 C.2   1 <1>  -0.2880 
 20 C        4.8800     2.2210     0.1180 C.3   1 <1>  -0.1600 
 21 C        5.1270     0.9670    -0.2610 C.3   1 <1>   0.0580 
 22 C        6.4970     1.8140    -0.3950 C.2   1 <1>  -0.2880 
 23 H       -2.6260     3.9510    -0.3910 H     1 <1>   0.1500 
 24 H       -4.2770    -1.2480     0.2430 H     1 <1>   0.1500 
 25 H       -5.0830     3.6000    -0.0620 H     1 <1>   0.1500 
 26 H       -6.5680    -0.3570     0.4770 H     1 <1>   0.1500 
 27 H        2.1340     4.5280     0.2000 H     1 <1>   0.0800 
 28 H        2.5120     3.5360    -1.2020 H     1 <1>   0.0800 
 29 H       -6.9610     2.0630     0.3210 H     1 <1>   0.1500 
 30 H        3.0920     2.8640     1.6910 H     1 <1>   0.0800 
 31 H        5.0560     3.8570     1.4470 H     1 <1>   0.0800 
 32 H        2.8760     0.8930    -0.5730 H     1 <1>   0.0800 
 33 H        3.3350     0.5260     1.0620 H     1 <1>   0.0800 
 34 H        7.0860     3.9350    -0.0660 H     1 <1>   0.1500 
 35 H        5.2070     1.9340     1.2290 H     1 <1>   0.0800 
 36 H        4.6140     2.5160    -1.0060 H     1 <1>   0.0800 
 37 H        4.9920     0.6390    -1.2820 H     1 <1>   0.0800 
 38 H        7.3810     1.3030    -0.7370 H     1 <1>   0.1500 
@<TRIPOS>BOND
  1   1   2  2   
  2   2   3  1   
  3   2   4  1   
  4   3   5  1   
  5   4   6  1   
  6   4   7  2   
  7   5   8  ar  
  8   5   9  ar  
  9   6  10  2   
 10   6  11  1   
 11   7   8  1   
 12   7  23  1   
 13   8  12  ar  
 14   9  13  ar  
 15   9  24  1   
 16  11  14  1   
 17  12  15  ar  
 18  12  25  1   
 19  13  15  ar  
 20  13  26  1   
 21  14  16  1   
 22  14  27  1   
 23  14  28  1   
 24  15  29  1   
 25  16  17  1   
 26  16  18  1   
 27  16  30  1   
 28  17  19  1   
 29  17  20  1   
 30  17  31  1   
 31  18  21  1   
 32  18  32  1   
 33  18  33  1   
 34  19  22  2   
 35  19  34  1   
 36  20  21  1   
 37  20  35  1   
 38  20  36  1   
 39  21  22  1   
 40  21  37  1   
 41  22  38  1   
@<TRIPOS>SUBSTRUCTURE
  1 ****  11 GROUP 4 **** **** 0

# MOE 2024.06 (io_trps.svl 2023.06)
