@<TRIPOS>MOLECULE
NONAME
40 41 1 0 0 
SMALL
USER_CHARGES


@<TRIPOS>ATOM
  1 O        0.1350     0.2500     0.1700 O.2   1 <1>  -0.5700 
  2 C       -0.0490     1.4290    -0.0670 C.2   1 <1>   0.6900 
  3 N        1.0090     2.2980    -0.0770 N.am  1 <1>  -0.6600 
  4 N       -1.2940     1.9180    -0.3470 N.am  1 <1>  -0.5470 
  5 C        2.3840     1.8600     0.2510 C.3   1 <1>   0.1400 
  6 C        0.9260     3.7730    -0.1510 C.3   1 <1>   0.1400 
  7 C       -2.5610     1.3190    -0.3290 C.ar  1 <1>   0.1170 
  8 C        3.1120     3.1350     0.6580 C.3   1 <1>  -0.1600 
  9 C        2.3720     4.2510    -0.0740 C.3   1 <1>  -0.1600 
 10 C       -2.8540     0.1800     0.4130 C.ar  1 <1>  -0.1500 
 11 C       -3.5840     1.8990    -1.0710 C.ar  1 <1>  -0.1500 
 12 C       -4.1250    -0.3640     0.4100 C.ar  1 <1>  -0.1500 
 13 C       -4.8570     1.3580    -1.0750 C.ar  1 <1>  -0.1500 
 14 C       -5.1370     0.2200    -0.3350 C.ar  1 <1>  -0.1430 
 15 C       -6.5340    -0.3790    -0.3390 C.3   1 <1>  -0.0170 
 16 C       -7.3820     0.2270     0.7850 C.3   1 <1>  -0.1600 
 17 C       -8.7970    -0.3630     0.8050 C.3   1 <1>  -0.1600 
 18 C       -9.6330     0.2500     1.9310 C.3   1 <1>  -0.2400 
 19 H       -1.2660     2.8650    -0.6980 H     1 <1>   0.3700 
 20 H        2.8300     1.4280    -0.6290 H     1 <1>   0.0800 
 21 H        2.3800     1.1330     1.0460 H     1 <1>   0.0800 
 22 H        0.3660     4.1380     0.6940 H     1 <1>   0.0800 
 23 H        0.4620     4.0890    -1.0690 H     1 <1>   0.0800 
 24 H        4.1570     3.0960     0.4030 H     1 <1>   0.0800 
 25 H        3.0150     3.2660     1.7210 H     1 <1>   0.0800 
 26 H        2.4550     5.1980     0.4300 H     1 <1>   0.0800 
 27 H        2.7610     4.3510    -1.0730 H     1 <1>   0.0800 
 28 H       -2.0860    -0.2870     1.0020 H     1 <1>   0.1500 
 29 H       -3.3860     2.7790    -1.6530 H     1 <1>   0.1500 
 30 H       -4.3230    -1.2460     0.9930 H     1 <1>   0.1500 
 31 H       -5.6330     1.8240    -1.6570 H     1 <1>   0.1500 
 32 H       -6.4670    -1.4450    -0.2100 H     1 <1>   0.0800 
 33 H       -7.0020    -0.1940    -1.2900 H     1 <1>   0.0800 
 34 H       -7.4360     1.2940     0.6490 H     1 <1>   0.0800 
 35 H       -6.8990     0.0400     1.7290 H     1 <1>   0.0800 
 36 H       -8.7440    -1.4290     0.9450 H     1 <1>   0.0800 
 37 H       -9.2820    -0.1730    -0.1380 H     1 <1>   0.0800 
 38 H       -9.1780     0.0550     2.8860 H     1 <1>   0.0800 
 39 H      -10.6220    -0.1750     1.9300 H     1 <1>   0.0800 
 40 H       -9.7190     1.3150     1.8000 H     1 <1>   0.0800 
@<TRIPOS>BOND
  1   1   2  2   
  2   2   3  am  
  3   2   4  am  
  4   3   5  1   
  5   3   6  1   
  6   4   7  1   
  7   4  19  1   
  8   5   8  1   
  9   5  20  1   
 10   5  21  1   
 11   6   9  1   
 12   6  22  1   
 13   6  23  1   
 14   7  10  ar  
 15   7  11  ar  
 16   8   9  1   
 17   8  24  1   
 18   8  25  1   
 19   9  26  1   
 20   9  27  1   
 21  10  12  ar  
 22  10  28  1   
 23  11  13  ar  
 24  11  29  1   
 25  12  14  ar  
 26  12  30  1   
 27  13  14  ar  
 28  13  31  1   
 29  14  15  1   
 30  15  16  1   
 31  15  32  1   
 32  15  33  1   
 33  16  17  1   
 34  16  34  1   
 35  16  35  1   
 36  17  18  1   
 37  17  36  1   
 38  17  37  1   
 39  18  38  1   
 40  18  39  1   
 41  18  40  1   
@<TRIPOS>SUBSTRUCTURE
  1 ****   7 GROUP 4 **** **** 0

# MOE 2024.06 (io_trps.svl 2023.06)
