@<TRIPOS>MOLECULE
NONAME
43 44 1 0 0 
SMALL
USER_CHARGES


@<TRIPOS>ATOM
  1 O      -10.6980     4.4560    -1.0560 O.3   1 <1>  -0.2170 
  2 N      -11.7730     4.0460    -0.4510 N.2   1 <1>  -0.5130 
  3 C      -10.3690     5.8180    -1.0110 C.3   1 <1>   0.1200 
  4 C      -11.7650     2.8220    -0.0480 C.2   1 <1>   0.2780 
  5 C       -8.8430     5.9090    -1.0850 C.3   1 <1>  -0.1600 
  6 C      -12.9470     2.2440     0.5650 C.ar  1 <1>   0.0860 
  7 C      -10.5830     1.9810    -0.1380 C.ar  1 <1>   0.0860 
  8 C       -8.2120     4.9230    -0.0960 C.3   1 <1>   0.3430 
  9 C      -13.1610     0.8740     0.6750 C.ar  1 <1>  -0.1500 
 10 C      -13.9680     3.0250     1.0930 C.ar  1 <1>  -0.1500 
 11 C      -10.0630     1.5750    -1.3660 C.ar  1 <1>  -0.1500 
 12 C       -9.9210     1.5590     1.0150 C.ar  1 <1>  -0.1500 
 13 N       -6.7480     4.7960    -0.3350 N.4   1 <1>  -0.9590 
 14 C      -14.3030     0.3860     1.2810 C.ar  1 <1>   0.1600 
 15 C      -15.0740     2.4410     1.6780 C.ar  1 <1>   0.1600 
 16 C       -8.9330     0.7820    -1.4430 C.ar  1 <1>  -0.1500 
 17 C       -8.7910     0.7640     0.9460 C.ar  1 <1>  -0.1500 
 18 C       -6.2420     3.5530     0.3210 C.3   1 <1>   0.2630 
 19 C       -5.9890     5.9980     0.1320 C.3   1 <1>   0.2630 
 20 N      -15.2640     1.1370     1.7900 N.ar  1 <1>  -0.6200 
 21 C       -8.2950     0.3730    -0.2850 C.ar  1 <1>  -0.1500 
 22 H      -10.8470     6.3090    -1.8420 H     1 <1>   0.0800 
 23 H      -10.7410     6.2260    -0.0870 H     1 <1>   0.0800 
 24 H       -8.5450     5.6680    -2.0900 H     1 <1>   0.0800 
 25 H       -8.5440     6.9180    -0.8660 H     1 <1>   0.0800 
 26 H       -8.6690     3.9550    -0.2340 H     1 <1>   0.0800 
 27 H       -8.4060     5.2370     0.9170 H     1 <1>   0.0800 
 28 H      -12.4440     0.1750     0.2880 H     1 <1>   0.1500 
 29 H      -13.9020     4.0970     1.0460 H     1 <1>   0.1500 
 30 H      -10.5600     1.8910    -2.2680 H     1 <1>   0.1500 
 31 H      -10.3060     1.8550     1.9760 H     1 <1>   0.1500 
 32 H       -6.6150     4.6920    -1.3530 H     1 <1>   0.4500 
 33 H      -14.4380    -0.6800     1.3510 H     1 <1>   0.1500 
 34 H      -15.8450     3.0780     2.0780 H     1 <1>   0.1500 
 35 H       -8.5550     0.4740    -2.4040 H     1 <1>   0.1500 
 36 H       -8.3050     0.4370     1.8510 H     1 <1>   0.1500 
 37 H       -6.3670     3.6150     1.3900 H     1 <1>   0.0800 
 38 H       -5.1960     3.4120     0.1030 H     1 <1>   0.0800 
 39 H       -6.7870     2.6940    -0.0380 H     1 <1>   0.0800 
 40 H       -6.1270     6.1400     1.1910 H     1 <1>   0.0800 
 41 H       -6.3310     6.8810    -0.3830 H     1 <1>   0.0800 
 42 H       -4.9360     5.8740    -0.0650 H     1 <1>   0.0800 
 43 H       -7.4230    -0.2570    -0.3430 H     1 <1>   0.1500 
@<TRIPOS>BOND
  1   1   2  1   
  2   1   3  1   
  3   2   4  2   
  4   3   5  1   
  5   3  22  1   
  6   3  23  1   
  7   4   6  1   
  8   4   7  1   
  9   5   8  1   
 10   5  24  1   
 11   5  25  1   
 12   6   9  ar  
 13   6  10  ar  
 14   7  11  ar  
 15   7  12  ar  
 16   8  13  1   
 17   8  26  1   
 18   8  27  1   
 19   9  14  ar  
 20   9  28  1   
 21  10  15  ar  
 22  10  29  1   
 23  11  16  ar  
 24  11  30  1   
 25  12  17  ar  
 26  12  31  1   
 27  13  18  1   
 28  13  19  1   
 29  13  32  1   
 30  14  20  ar  
 31  14  33  1   
 32  15  20  ar  
 33  15  34  1   
 34  16  21  ar  
 35  16  35  1   
 36  17  21  ar  
 37  17  36  1   
 38  18  37  1   
 39  18  38  1   
 40  18  39  1   
 41  19  40  1   
 42  19  41  1   
 43  19  42  1   
 44  21  43  1   
@<TRIPOS>SUBSTRUCTURE
  1 ****   7 GROUP 4 **** **** 0

# MOE 2024.06 (io_trps.svl 2023.06)
