@<TRIPOS>MOLECULE
NONAME
35 35 1 0 0 
SMALL
USER_CHARGES


@<TRIPOS>ATOM
  1 O       -0.2060    -0.4650    -0.3610 O.3   1 <1>  -0.3630 
  2 C        0.4120    -1.6520    -0.2460 C.ar  1 <1>   0.7020 
  3 C       -1.6110    -0.3460    -0.3180 C.3   1 <1>   0.1200 
  4 N        1.7120    -1.5970    -0.2930 N.ar  1 <1>  -0.6200 
  5 N       -0.3230    -2.7270    -0.1020 N.ar  1 <1>  -0.6200 
  6 C       -1.9690     1.1300    -0.4700 C.3   1 <1>  -0.2400 
  7 C        2.2840    -2.7660    -0.1770 C.ar  1 <1>   0.7200 
  8 C        0.3850    -3.8160     0.0060 C.ar  1 <1>   0.7200 
  9 N        1.6850    -3.9110    -0.0250 N.ar  1 <1>  -0.6200 
 10 N        3.6330    -2.8360    -0.2080 N.pl3 1 <1>  -0.8690 
 11 N       -0.3430    -4.9450     0.1570 N.pl3 1 <1>  -0.8690 
 12 C        4.5750    -1.7160    -0.1770 C.3   1 <1>   0.2890 
 13 C        0.1810    -6.3130     0.0200 C.3   1 <1>   0.2090 
 14 C        5.6790    -2.0080    -1.1840 C.3   1 <1>  -0.2400 
 15 C        5.1280    -1.6050     1.2380 C.3   1 <1>  -0.2400 
 16 C       -0.9090    -7.2890     0.4410 C.3   1 <1>  -0.2400 
 17 H       -1.9570    -0.7290     0.6270 H     1 <1>   0.0800 
 18 H       -2.0280    -0.9270    -1.1240 H     1 <1>   0.0800 
 19 H       -1.5360     1.6990     0.3320 H     1 <1>   0.0800 
 20 H       -3.0360     1.2510    -0.4410 H     1 <1>   0.0800 
 21 H       -1.6060     1.5020    -1.4120 H     1 <1>   0.0800 
 22 H        4.0110    -3.7580    -0.0100 H     1 <1>   0.4000 
 23 H       -1.3440    -4.8200     0.0280 H     1 <1>   0.4000 
 24 H        4.0780    -0.7980    -0.4470 H     1 <1>   0.0800 
 25 H        1.0490    -6.4320     0.6480 H     1 <1>   0.0800 
 26 H        0.4680    -6.4870    -1.0040 H     1 <1>   0.0800 
 27 H        6.1940    -2.9180    -0.9330 H     1 <1>   0.0800 
 28 H        6.3880    -1.2010    -1.1920 H     1 <1>   0.0800 
 29 H        5.2570    -2.0980    -2.1690 H     1 <1>   0.0800 
 30 H        5.6290    -2.5110     1.5250 H     1 <1>   0.0800 
 31 H        4.3250    -1.4080     1.9260 H     1 <1>   0.0800 
 32 H        5.8270    -0.7900     1.2940 H     1 <1>   0.0800 
 33 H       -1.1930    -7.1070     1.4620 H     1 <1>   0.0800 
 34 H       -0.5410    -8.2950     0.3630 H     1 <1>   0.0800 
 35 H       -1.7690    -7.1890    -0.1980 H     1 <1>   0.0800 
@<TRIPOS>BOND
  1   1   2  1   
  2   1   3  1   
  3   2   4  ar  
  4   2   5  ar  
  5   3   6  1   
  6   3  17  1   
  7   3  18  1   
  8   4   7  ar  
  9   5   8  ar  
 10   6  19  1   
 11   6  20  1   
 12   6  21  1   
 13   7   9  ar  
 14   7  10  1   
 15   8   9  ar  
 16   8  11  1   
 17  10  12  1   
 18  10  22  1   
 19  11  13  1   
 20  11  23  1   
 21  12  14  1   
 22  12  15  1   
 23  12  24  1   
 24  13  16  1   
 25  13  25  1   
 26  13  26  1   
 27  14  27  1   
 28  14  28  1   
 29  14  29  1   
 30  15  30  1   
 31  15  31  1   
 32  15  32  1   
 33  16  33  1   
 34  16  34  1   
 35  16  35  1   
@<TRIPOS>SUBSTRUCTURE
  1 ****   7 GROUP 4 **** **** 0

# MOE 2024.06 (io_trps.svl 2023.06)
