@<TRIPOS>MOLECULE
NONAME
41 41 1 0 0 
SMALL
USER_CHARGES


@<TRIPOS>ATOM
  1 CL       0.8240     0.7660     1.7290 Cl    1 <1>  -0.1770 
  2 C        2.0160     1.4770     0.6620 C.ar  1 <1>   0.1770 
  3 C        1.9050     2.8020     0.2590 C.ar  1 <1>   0.0820 
  4 C        3.0600     0.6740     0.2410 C.ar  1 <1>  -0.1500 
  5 O        0.8490     3.5380     0.6860 O.3   1 <1>  -0.3630 
  6 C        2.8960     3.3320    -0.5800 C.ar  1 <1>   0.0830 
  7 C        4.0300     1.1930    -0.6030 C.ar  1 <1>  -0.1440 
  8 C       -0.3210     3.4450    -0.0920 C.3   1 <1>   0.1200 
  9 O        2.9470     4.6130    -1.0350 O.3   1 <1>  -0.3630 
 10 C        3.9330     2.5170    -1.0090 C.ar  1 <1>  -0.1500 
 11 C        5.1890     0.3390    -1.0690 C.3   1 <1>   0.4860 
 12 C       -1.3810     4.3420     0.5380 C.3   1 <1>  -0.2400 
 13 C        2.4530     5.6850    -0.2570 C.3   1 <1>   0.0400 
 14 N        6.3090     0.6040    -0.1450 N.4   1 <1>  -0.9060 
 15 C        7.5510    -0.1340    -0.4810 C.3   1 <1>   0.3430 
 16 C        8.6680     0.2270     0.5100 C.3   1 <1>  -0.0800 
 17 C        8.9910     1.7310     0.5170 C.3   1 <1>  -0.2400 
 18 C        9.9370    -0.5620     0.1620 C.3   1 <1>  -0.2400 
 19 H        3.0890    -0.3470     0.5830 H     1 <1>   0.1500 
 20 H       -0.6470     2.4190    -0.1030 H     1 <1>   0.0800 
 21 H       -0.0910     3.7660    -1.0940 H     1 <1>   0.0800 
 22 H        4.6620     2.9520    -1.6710 H     1 <1>   0.1500 
 23 H        5.4590     0.6070    -2.0790 H     1 <1>   0.0800 
 24 H        4.9150    -0.7030    -1.0450 H     1 <1>   0.0800 
 25 H       -1.5900     4.0150     1.5410 H     1 <1>   0.0800 
 26 H       -2.2890     4.2900    -0.0350 H     1 <1>   0.0800 
 27 H       -1.0440     5.3620     0.5550 H     1 <1>   0.0800 
 28 H        2.9080     6.5930    -0.6090 H     1 <1>   0.0800 
 29 H        2.7070     5.5220     0.7760 H     1 <1>   0.0800 
 30 H        1.3870     5.7450    -0.3800 H     1 <1>   0.0800 
 31 H        6.0080     0.3810     0.8110 H     1 <1>   0.4500 
 32 H        6.4990     1.6130    -0.1490 H     1 <1>   0.4500 
 33 H        7.8700     0.1190    -1.4800 H     1 <1>   0.0800 
 34 H        7.3710    -1.1970    -0.4420 H     1 <1>   0.0800 
 35 H        8.3650    -0.0700     1.5000 H     1 <1>   0.0800 
 36 H        9.2600     2.0730    -0.4680 H     1 <1>   0.0800 
 37 H        9.8250     1.9240     1.1710 H     1 <1>   0.0800 
 38 H        8.1640     2.3150     0.8770 H     1 <1>   0.0800 
 39 H       10.3030    -0.2970    -0.8160 H     1 <1>   0.0800 
 40 H        9.7480    -1.6220     0.1820 H     1 <1>   0.0800 
 41 H       10.7150    -0.3540     0.8780 H     1 <1>   0.0800 
@<TRIPOS>BOND
  1   1   2  1   
  2   2   3  ar  
  3   2   4  ar  
  4   3   5  1   
  5   3   6  ar  
  6   4   7  ar  
  7   4  19  1   
  8   5   8  1   
  9   6   9  1   
 10   6  10  ar  
 11   7  10  ar  
 12   7  11  1   
 13   8  12  1   
 14   8  20  1   
 15   8  21  1   
 16   9  13  1   
 17  10  22  1   
 18  11  14  1   
 19  11  23  1   
 20  11  24  1   
 21  12  25  1   
 22  12  26  1   
 23  12  27  1   
 24  13  28  1   
 25  13  29  1   
 26  13  30  1   
 27  14  15  1   
 28  14  31  1   
 29  14  32  1   
 30  15  16  1   
 31  15  33  1   
 32  15  34  1   
 33  16  17  1   
 34  16  18  1   
 35  16  35  1   
 36  17  36  1   
 37  17  37  1   
 38  17  38  1   
 39  18  39  1   
 40  18  40  1   
 41  18  41  1   
@<TRIPOS>SUBSTRUCTURE
  1 ****   7 GROUP 4 **** **** 0

# MOE 2024.06 (io_trps.svl 2023.06)
