@<TRIPOS>MOLECULE
NONAME
49 51 1 0 0 
SMALL
USER_CHARGES


@<TRIPOS>ATOM
  1 O       -0.4690    -0.3000     0.6440 O.3   1 <1>  -0.3630 
  2 C       -1.6380    -0.9650     0.4220 C.ar  1 <1>   0.0830 
  3 C        0.4520     0.0140    -0.3770 C.3   1 <1>   0.0400 
  4 C       -2.2180    -1.2760    -0.8200 C.ar  1 <1>   0.0830 
  5 C       -2.2940    -1.3610     1.5760 C.ar  1 <1>  -0.1500 
  6 O       -1.6570    -0.9370    -2.0010 O.3   1 <1>  -0.5330 
  7 C       -3.4250    -1.9590    -0.8700 C.ar  1 <1>  -0.1500 
  8 C       -3.4960    -2.0430     1.5220 C.ar  1 <1>  -0.1500 
  9 C       -4.0740    -2.3380     0.2970 C.ar  1 <1>  -0.1430 
 10 C       -5.4070    -3.0600     0.2450 C.3   1 <1>   0.4860 
 11 N       -6.4790    -2.0690    -0.0330 N.4   1 <1>  -0.9590 
 12 C       -6.5860    -1.0300     1.0610 C.3   1 <1>   0.3430 
 13 C       -7.8130    -2.7340    -0.2680 C.3   1 <1>   0.3430 
 14 C       -7.7050    -0.0040     0.7950 C.3   1 <1>   0.2090 
 15 C       -8.9380    -1.7170    -0.5470 C.3   1 <1>   0.2090 
 16 N       -9.0060    -0.6880     0.5300 N.pl3 1 <1>  -0.8380 
 17 C      -10.1060     0.1780     0.4340 C.ar  1 <1>   0.1000 
 18 C      -10.2810     1.1140    -0.6030 C.ar  1 <1>   0.0830 
 19 C      -11.0690     0.0930     1.4290 C.ar  1 <1>  -0.1500 
 20 O       -9.3230     1.1900    -1.5810 O.3   1 <1>  -0.3620 
 21 C      -11.4110     1.9280    -0.6070 C.ar  1 <1>  -0.1500 
 22 C      -12.1870     0.9060     1.4160 C.ar  1 <1>  -0.1500 
 23 C       -9.4240     2.1330    -2.6280 C.3   1 <1>   0.0400 
 24 C      -12.3580     1.8240     0.3980 C.ar  1 <1>  -0.1500 
 25 H        1.3280     0.4360     0.0800 H     1 <1>   0.0800 
 26 H        0.0050     0.7320    -1.0410 H     1 <1>   0.0800 
 27 H        0.7120    -0.8880    -0.9030 H     1 <1>   0.0800 
 28 H       -1.8440    -1.1300     2.5260 H     1 <1>   0.1500 
 29 H       -2.1140    -1.2920    -2.7830 H     1 <1>   0.4500 
 30 H       -3.8540    -2.1920    -1.8280 H     1 <1>   0.1500 
 31 H       -3.9630    -2.3370     2.4470 H     1 <1>   0.1500 
 32 H       -5.5930    -3.5560     1.1840 H     1 <1>   0.0800 
 33 H       -5.3780    -3.8050    -0.5330 H     1 <1>   0.0800 
 34 H       -6.2200    -1.5590    -0.8860 H     1 <1>   0.4500 
 35 H       -5.6510    -0.5020     1.1610 H     1 <1>   0.0800 
 36 H       -6.7950    -1.5140     2.0010 H     1 <1>   0.0800 
 37 H       -8.0910    -3.3020     0.6040 H     1 <1>   0.0800 
 38 H       -7.7440    -3.4140    -1.1000 H     1 <1>   0.0800 
 39 H       -7.4360     0.6150    -0.0420 H     1 <1>   0.0800 
 40 H       -7.8150     0.6370     1.6540 H     1 <1>   0.0800 
 41 H       -9.8820    -2.2330    -0.5980 H     1 <1>   0.0800 
 42 H       -8.7710    -1.2450    -1.4990 H     1 <1>   0.0800 
 43 H      -10.9360    -0.6200     2.2210 H     1 <1>   0.1500 
 44 H      -11.5820     2.6520    -1.3800 H     1 <1>   0.1500 
 45 H      -12.9220     0.8250     2.1980 H     1 <1>   0.1500 
 46 H       -8.5640     2.0250    -3.2630 H     1 <1>   0.0800 
 47 H       -9.4440     3.1230    -2.2070 H     1 <1>   0.0800 
 48 H      -10.3200     1.9360    -3.1910 H     1 <1>   0.0800 
 49 H      -13.2280     2.4580     0.3860 H     1 <1>   0.1500 
@<TRIPOS>BOND
  1   1   2  1   
  2   1   3  1   
  3   2   4  ar  
  4   2   5  ar  
  5   3  25  1   
  6   3  26  1   
  7   3  27  1   
  8   4   6  1   
  9   4   7  ar  
 10   5   8  ar  
 11   5  28  1   
 12   6  29  1   
 13   7   9  ar  
 14   7  30  1   
 15   8   9  ar  
 16   8  31  1   
 17   9  10  1   
 18  10  11  1   
 19  10  32  1   
 20  10  33  1   
 21  11  12  1   
 22  11  13  1   
 23  11  34  1   
 24  12  14  1   
 25  12  35  1   
 26  12  36  1   
 27  13  15  1   
 28  13  37  1   
 29  13  38  1   
 30  14  16  1   
 31  14  39  1   
 32  14  40  1   
 33  15  16  1   
 34  15  41  1   
 35  15  42  1   
 36  16  17  1   
 37  17  18  ar  
 38  17  19  ar  
 39  18  20  1   
 40  18  21  ar  
 41  19  22  ar  
 42  19  43  1   
 43  20  23  1   
 44  21  24  ar  
 45  21  44  1   
 46  22  24  ar  
 47  22  45  1   
 48  23  46  1   
 49  23  47  1   
 50  23  48  1   
 51  24  49  1   
@<TRIPOS>SUBSTRUCTURE
  1 ****  12 GROUP 4 **** **** 0

# MOE 2024.06 (io_trps.svl 2023.06)
