@<TRIPOS>MOLECULE
NONAME
48 49 1 0 0 
SMALL
USER_CHARGES


@<TRIPOS>ATOM
  1 O       -1.1070    -2.4520     2.3930 O.2   1 <1>  -0.5700 
  2 C       -0.7220    -2.7840     1.2930 C.2   1 <1>   0.7800 
  3 O        0.4100    -3.4720     1.2020 O.3   1 <1>  -0.4300 
  4 N       -1.4510    -2.5280     0.1570 N.am  1 <1>  -0.6600 
  5 C        1.4870    -2.9350     0.4740 C.3   1 <1>   0.1200 
  6 C       -1.5150    -3.5000    -0.9570 C.3   1 <1>   0.1400 
  7 C       -2.5610    -1.5510     0.1930 C.3   1 <1>   0.1400 
  8 C        2.5860    -3.9910     0.4110 C.3   1 <1>  -0.2400 
  9 C       -2.8000    -4.3150    -0.7920 C.3   1 <1>  -0.1600 
 10 C       -3.8680    -2.3210     0.3880 C.3   1 <1>  -0.1600 
 11 C       -4.0340    -3.4110    -0.6800 C.3   1 <1>   0.4230 
 12 N       -5.1900    -4.2680    -0.3370 N.4   1 <1>  -0.9060 
 13 C       -6.5130    -3.5820    -0.4390 C.3   1 <1>   0.3430 
 14 C       -7.6730    -4.5090    -0.0480 C.3   1 <1>   0.0630 
 15 C       -8.9640    -3.7090    -0.1580 C.ar  1 <1>  -0.1440 
 16 C       -7.5240    -5.1160     1.3590 C.3   1 <1>  -0.2400 
 17 C       -9.8870    -4.0220    -1.1470 C.ar  1 <1>  -0.1500 
 18 C       -9.2340    -2.6560     0.7070 C.ar  1 <1>  -0.1500 
 19 C      -11.0550    -3.2900    -1.2740 C.ar  1 <1>  -0.1500 
 20 C      -10.4020    -1.9250     0.5800 C.ar  1 <1>  -0.1500 
 21 C      -11.3130    -2.2410    -0.4120 C.ar  1 <1>  -0.1500 
 22 H        1.8330    -2.0530     0.9880 H     1 <1>   0.0800 
 23 H        1.1550    -2.6690    -0.5150 H     1 <1>   0.0800 
 24 H       -0.6620    -4.1590    -0.9380 H     1 <1>   0.0800 
 25 H       -1.5100    -2.9710    -1.8950 H     1 <1>   0.0800 
 26 H       -2.5760    -0.9920    -0.7270 H     1 <1>   0.0800 
 27 H       -2.4170    -0.8540     1.0040 H     1 <1>   0.0800 
 28 H        2.9050    -4.2500     1.4050 H     1 <1>   0.0800 
 29 H        3.4310    -3.6060    -0.1300 H     1 <1>   0.0800 
 30 H        2.2290    -4.8720    -0.0910 H     1 <1>   0.0800 
 31 H       -2.6950    -4.9170     0.0940 H     1 <1>   0.0800 
 32 H       -2.8980    -4.9700    -1.6390 H     1 <1>   0.0800 
 33 H       -4.6770    -1.6150     0.3400 H     1 <1>   0.0800 
 34 H       -3.8500    -2.7550     1.3730 H     1 <1>   0.0800 
 35 H       -4.1980    -2.9390    -1.6360 H     1 <1>   0.0800 
 36 H       -5.0620    -4.6080     0.6240 H     1 <1>   0.4500 
 37 H       -5.1870    -5.0950    -0.9450 H     1 <1>   0.4500 
 38 H       -6.6720    -3.2340    -1.4470 H     1 <1>   0.0800 
 39 H       -6.5300    -2.7240     0.2130 H     1 <1>   0.0800 
 40 H       -7.7160    -5.3170    -0.7580 H     1 <1>   0.0800 
 41 H       -7.3660    -4.3530     2.1010 H     1 <1>   0.0800 
 42 H       -6.7110    -5.8180     1.4000 H     1 <1>   0.0800 
 43 H       -8.4260    -5.6460     1.6160 H     1 <1>   0.0800 
 44 H       -9.7150    -4.8360    -1.8290 H     1 <1>   0.1500 
 45 H       -8.5490    -2.3890     1.4920 H     1 <1>   0.1500 
 46 H      -11.7670    -3.5380    -2.0420 H     1 <1>   0.1500 
 47 H      -10.6080    -1.1110     1.2530 H     1 <1>   0.1500 
 48 H      -12.2220    -1.6730    -0.5100 H     1 <1>   0.1500 
@<TRIPOS>BOND
  1   1   2  2   
  2   2   3  1   
  3   2   4  am  
  4   3   5  1   
  5   4   6  1   
  6   4   7  1   
  7   5   8  1   
  8   5  22  1   
  9   5  23  1   
 10   6   9  1   
 11   6  24  1   
 12   6  25  1   
 13   7  10  1   
 14   7  26  1   
 15   7  27  1   
 16   8  28  1   
 17   8  29  1   
 18   8  30  1   
 19   9  11  1   
 20   9  31  1   
 21   9  32  1   
 22  10  11  1   
 23  10  33  1   
 24  10  34  1   
 25  11  12  1   
 26  11  35  1   
 27  12  13  1   
 28  12  36  1   
 29  12  37  1   
 30  13  14  1   
 31  13  38  1   
 32  13  39  1   
 33  14  15  1   
 34  14  16  1   
 35  14  40  1   
 36  15  17  ar  
 37  15  18  ar  
 38  16  41  1   
 39  16  42  1   
 40  16  43  1   
 41  17  19  ar  
 42  17  44  1   
 43  18  20  ar  
 44  18  45  1   
 45  19  21  ar  
 46  19  46  1   
 47  20  21  ar  
 48  20  47  1   
 49  21  48  1   
@<TRIPOS>SUBSTRUCTURE
  1 ****  11 GROUP 4 **** **** 0

# MOE 2024.06 (io_trps.svl 2023.06)
