@<TRIPOS>MOLECULE
NONAME
47 48 1 0 0 
SMALL
USER_CHARGES


@<TRIPOS>ATOM
  1 O       -2.0280    -0.6730     1.1070 O.3   1 <1>  -0.3630 
  2 C       -2.3250     0.4060     0.3420 C.ar  1 <1>   0.0830 
  3 C       -0.8700    -1.4010     0.7580 C.3   1 <1>   0.0400 
  4 C       -1.4860     1.5190     0.2210 C.ar  1 <1>   0.0830 
  5 C       -3.5260     0.3770    -0.3450 C.ar  1 <1>  -0.1500 
  6 O       -0.3200     1.6440     0.8990 O.3   1 <1>  -0.3630 
  7 C       -1.8460     2.5550    -0.6240 C.ar  1 <1>  -0.1500 
  8 C       -3.8970     1.4280    -1.1710 C.ar  1 <1>  -0.1430 
  9 C       -0.4210     1.7830     2.3000 C.3   1 <1>   0.0400 
 10 C       -3.0440     2.5120    -1.3160 C.ar  1 <1>  -0.1500 
 11 C       -5.2280     1.3800    -1.9010 C.3   1 <1>  -0.0170 
 12 C       -6.3920     1.5650    -0.9140 C.3   1 <1>   0.4230 
 13 N       -7.6750     1.2390    -1.6050 N.4   1 <1>  -0.6410 
 14 C       -6.4380     2.9900    -0.3550 C.3   1 <1>  -0.2400 
 15 N       -8.8700     0.9730    -0.7560 N.3   1 <1>  -0.3020 
 16 C       -8.6100     0.2120     0.4820 C.3   1 <1>   0.1100 
 17 C       -9.7420     2.1460    -0.5570 C.3   1 <1>   0.1100 
 18 C       -9.9310    -0.2620     1.0980 C.3   1 <1>  -0.1600 
 19 C      -11.0860     1.7080     0.0350 C.3   1 <1>  -0.1600 
 20 C      -10.8950     0.9090     1.3310 C.3   1 <1>  -0.1600 
 21 H       -0.8560    -2.3080     1.3360 H     1 <1>   0.0800 
 22 H        0.0030    -0.8160     0.9810 H     1 <1>   0.0800 
 23 H       -0.9060    -1.6330    -0.2910 H     1 <1>   0.0800 
 24 H       -4.1510    -0.4890    -0.2230 H     1 <1>   0.1500 
 25 H       -1.1830     3.3960    -0.7300 H     1 <1>   0.1500 
 26 H        0.5670     1.9390     2.6940 H     1 <1>   0.0800 
 27 H       -0.8450     0.8890     2.7180 H     1 <1>   0.0800 
 28 H       -1.0430     2.6320     2.5200 H     1 <1>   0.0800 
 29 H       -3.2980     3.3350    -1.9630 H     1 <1>   0.1500 
 30 H       -5.3010     0.4210    -2.3830 H     1 <1>   0.0800 
 31 H       -5.2550     2.1420    -2.6610 H     1 <1>   0.0800 
 32 H       -6.2410     0.8710    -0.1040 H     1 <1>   0.0800 
 33 H       -7.5190     0.4000    -2.1800 H     1 <1>   0.4500 
 34 H       -7.8890     1.9890    -2.2740 H     1 <1>   0.4500 
 35 H       -6.6630     3.7080    -1.1230 H     1 <1>   0.0800 
 36 H       -5.4840     3.2460     0.0730 H     1 <1>   0.0800 
 37 H       -7.1570     3.0650     0.4380 H     1 <1>   0.0800 
 38 H       -8.0910     0.8340     1.1920 H     1 <1>   0.0800 
 39 H       -8.0000    -0.6460     0.2600 H     1 <1>   0.0800 
 40 H       -9.9180     2.6330    -1.5000 H     1 <1>   0.0800 
 41 H       -9.2760     2.8470     0.1120 H     1 <1>   0.0800 
 42 H       -9.7340    -0.7560     2.0340 H     1 <1>   0.0800 
 43 H      -10.3890    -0.9830     0.4420 H     1 <1>   0.0800 
 44 H      -11.6130     1.1070    -0.6870 H     1 <1>   0.0800 
 45 H      -11.6900     2.5760     0.2360 H     1 <1>   0.0800 
 46 H      -10.4990     1.5540     2.0980 H     1 <1>   0.0800 
 47 H      -11.8460     0.5360     1.6740 H     1 <1>   0.0800 
@<TRIPOS>BOND
  1   1   2  1   
  2   1   3  1   
  3   2   4  ar  
  4   2   5  ar  
  5   3  21  1   
  6   3  22  1   
  7   3  23  1   
  8   4   6  1   
  9   4   7  ar  
 10   5   8  ar  
 11   5  24  1   
 12   6   9  1   
 13   7  10  ar  
 14   7  25  1   
 15   8  10  ar  
 16   8  11  1   
 17   9  26  1   
 18   9  27  1   
 19   9  28  1   
 20  10  29  1   
 21  11  12  1   
 22  11  30  1   
 23  11  31  1   
 24  12  13  1   
 25  12  14  1   
 26  12  32  1   
 27  13  15  1   
 28  13  33  1   
 29  13  34  1   
 30  14  35  1   
 31  14  36  1   
 32  14  37  1   
 33  15  16  1   
 34  15  17  1   
 35  16  18  1   
 36  16  38  1   
 37  16  39  1   
 38  17  19  1   
 39  17  40  1   
 40  17  41  1   
 41  18  20  1   
 42  18  42  1   
 43  18  43  1   
 44  19  20  1   
 45  19  44  1   
 46  19  45  1   
 47  20  46  1   
 48  20  47  1   
@<TRIPOS>SUBSTRUCTURE
  1 ****  12 GROUP 4 **** **** 0

# MOE 2024.06 (io_trps.svl 2023.06)
