@<TRIPOS>MOLECULE
NONAME
51 54 1 0 0 
SMALL
USER_CHARGES


@<TRIPOS>ATOM
  1 O       -0.3720     0.5540     0.4380 O.2   1 <1>  -0.5700 
  2 C       -0.4970     1.7540     0.4280 C.2   1 <1>   0.5690 
  3 N        0.2030     2.5320     1.3220 N.am  1 <1>  -0.2370 
  4 C       -1.5200     2.3430    -0.5460 C.3   1 <1>  -0.0190 
  5 C        1.5540     2.8620     1.0680 C.ar  1 <1>   0.1170 
  6 C       -0.2940     2.6060     2.6020 C.2   1 <1>   0.5700 
  7 C       -2.4060     3.4660     0.0380 C.3   1 <1>   0.1960 
  8 C       -0.9810     2.9550    -1.8860 C.3   1 <1>  -0.0800 
  9 C        1.9780     4.1840     1.0730 C.ar  1 <1>  -0.1500 
 10 C        2.4910     1.8700     0.7930 C.ar  1 <1>  -0.1500 
 11 O        0.2080     3.2260     3.5070 O.2   1 <1>  -0.5700 
 12 C       -1.6370     4.6760    -0.4240 C.2   1 <1>  -0.2760 
 13 C       -3.5800     3.6180    -0.9120 C.2   1 <1>  -0.2880 
 14 C       -1.6280     4.3560    -1.9010 C.3   1 <1>   0.1960 
 15 C        0.5440     3.0320    -2.0580 C.3   1 <1>  -0.2400 
 16 C        3.2890     4.5230     0.7920 C.ar  1 <1>   0.0830 
 17 C        3.8070     2.1940     0.5160 C.ar  1 <1>  -0.1500 
 18 C       -1.1600     5.7300     0.2470 C.2   1 <1>  -0.2760 
 19 C       -3.1220     4.1370    -2.0500 C.2   1 <1>  -0.2880 
 20 O        3.5930     5.8450     0.8060 O.3   1 <1>  -0.3630 
 21 C        4.2100     3.5180     0.5120 C.ar  1 <1>  -0.1500 
 22 C       -0.3860     6.8780    -0.3730 C.3   1 <1>  -0.0220 
 23 C       -1.3360     6.0070     1.7300 C.3   1 <1>  -0.0220 
 24 C        4.9160     6.2930     0.6130 C.3   1 <1>   0.0400 
 25 C        0.0620     7.7430     0.8030 C.3   1 <1>  -0.1600 
 26 C       -0.9720     7.4800     1.8940 C.3   1 <1>  -0.1600 
 27 H       -2.1760     1.5290    -0.8040 H     1 <1>   0.0800 
 28 H       -1.2090     2.0740     2.8000 H     1 <1>   0.0600 
 29 H       -2.6580     3.4320     1.0830 H     1 <1>   0.0800 
 30 H       -1.3720     2.3830    -2.7110 H     1 <1>   0.0800 
 31 H        1.2840     4.9690     1.2940 H     1 <1>   0.1500 
 32 H        2.1900     0.8360     0.7950 H     1 <1>   0.1500 
 33 H       -4.5690     3.3120    -0.6200 H     1 <1>   0.1500 
 34 H       -1.1970     5.1030    -2.5440 H     1 <1>   0.0800 
 35 H        0.9710     3.7490    -1.3830 H     1 <1>   0.0800 
 36 H        0.7800     3.3480    -3.0580 H     1 <1>   0.0800 
 37 H        0.9990     2.0700    -1.8970 H     1 <1>   0.0800 
 38 H        4.5170     1.4140     0.3030 H     1 <1>   0.1500 
 39 H       -3.6210     4.3840    -2.9720 H     1 <1>   0.1500 
 40 H        5.2360     3.7450     0.2910 H     1 <1>   0.1500 
 41 H        0.4550     6.5290    -0.9450 H     1 <1>   0.0800 
 42 H       -1.0450     7.4420    -1.0100 H     1 <1>   0.0800 
 43 H       -2.3410     5.8110     2.0580 H     1 <1>   0.0800 
 44 H       -0.6540     5.4110     2.3050 H     1 <1>   0.0800 
 45 H        4.9210     7.3650     0.6970 H     1 <1>   0.0800 
 46 H        5.2430     6.0030    -0.3700 H     1 <1>   0.0800 
 47 H        5.5450     5.8640     1.3720 H     1 <1>   0.0800 
 48 H        1.0300     7.4120     1.1390 H     1 <1>   0.0800 
 49 H        0.1180     8.7850     0.5390 H     1 <1>   0.0800 
 50 H       -1.8450     8.0820     1.7120 H     1 <1>   0.0800 
 51 H       -0.5890     7.6930     2.8770 H     1 <1>   0.0800 
@<TRIPOS>BOND
  1   1   2  2   
  2   2   3  am  
  3   2   4  1   
  4   3   5  1   
  5   3   6  am  
  6   4   7  1   
  7   4   8  1   
  8   4  27  1   
  9   5   9  ar  
 10   5  10  ar  
 11   6  11  2   
 12   6  28  1   
 13   7  12  1   
 14   7  13  1   
 15   7  29  1   
 16   8  14  1   
 17   8  15  1   
 18   8  30  1   
 19   9  16  ar  
 20   9  31  1   
 21  10  17  ar  
 22  10  32  1   
 23  12  14  1   
 24  12  18  2   
 25  13  19  2   
 26  13  33  1   
 27  14  19  1   
 28  14  34  1   
 29  15  35  1   
 30  15  36  1   
 31  15  37  1   
 32  16  20  1   
 33  16  21  ar  
 34  17  21  ar  
 35  17  38  1   
 36  18  22  1   
 37  18  23  1   
 38  19  39  1   
 39  20  24  1   
 40  21  40  1   
 41  22  25  1   
 42  22  41  1   
 43  22  42  1   
 44  23  26  1   
 45  23  43  1   
 46  23  44  1   
 47  24  45  1   
 48  24  46  1   
 49  24  47  1   
 50  25  26  1   
 51  25  48  1   
 52  25  49  1   
 53  26  50  1   
 54  26  51  1   
@<TRIPOS>SUBSTRUCTURE
  1 ****   3 GROUP 4 **** **** 0

# MOE 2024.06 (io_trps.svl 2023.06)
