@<TRIPOS>MOLECULE
NONAME
45 46 1 0 0 
SMALL
USER_CHARGES


@<TRIPOS>ATOM
  1 S       -0.0200    -0.7900     1.5970 S.3   1 <1>  -0.0800 
  2 C        0.0370     0.7860     0.8490 C.2   1 <1>   0.1040 
  3 C       -1.6700    -1.1080     1.0530 C.2   1 <1>  -0.0450 
  4 N        1.1670     1.5690     0.9670 N.am  1 <1>  -0.4940 
  5 C       -1.1460     1.0540     0.2120 C.2   1 <1>  -0.0860 
  6 C       -2.0810    -0.0400     0.3040 C.2   1 <1>  -0.1810 
  7 C       -2.2400    -2.3560     1.4800 C.2   1 <1>   0.5940 
  8 C        2.4120     1.3830     1.5110 C.2   1 <1>   0.5690 
  9 C       -1.3690     2.3140    -0.4550 C.2   1 <1>   0.8060 
 10 C       -3.4100     0.0090    -0.4450 C.3   1 <1>  -0.0590 
 11 O       -1.5910    -3.3310     1.7690 O.2   1 <1>  -0.5700 
 12 C       -3.7400    -2.5040     1.6230 C.3   1 <1>  -0.1790 
 13 O        2.7850     0.3700     2.0480 O.2   1 <1>  -0.5700 
 14 C        3.3750     2.5690     1.4130 C.3   1 <1>   0.1710 
 15 O       -0.4680     2.9920    -0.9130 O.2   1 <1>  -0.5700 
 16 O       -2.6190     2.7810    -0.5540 O.3   1 <1>  -0.4300 
 17 N        2.9140     3.6490     0.4920 N.3   1 <1>  -0.8100 
 18 C       -2.9010     4.0230    -1.1590 C.3   1 <1>   0.1200 
 19 C        3.0780     3.3170    -0.9230 C.3   1 <1>   0.1100 
 20 C        3.6420     4.8970     0.6810 C.3   1 <1>   0.1100 
 21 C       -4.4110     4.2370    -1.1180 C.3   1 <1>  -0.2400 
 22 C        2.9590     4.6570    -1.6340 C.3   1 <1>  -0.1600 
 23 C        3.3700     5.6950    -0.5890 C.3   1 <1>  -0.1600 
 24 H        1.1250     2.4950     0.5120 H     1 <1>   0.3700 
 25 H       -3.2660     0.4060    -1.4340 H     1 <1>   0.0800 
 26 H       -3.8340    -0.9690    -0.5640 H     1 <1>   0.0800 
 27 H       -4.1110     0.6330     0.0810 H     1 <1>   0.0800 
 28 H       -3.9540    -3.1450     2.4590 H     1 <1>   0.0800 
 29 H       -4.1990    -1.5500     1.8010 H     1 <1>   0.0800 
 30 H       -4.1460    -2.9500     0.7360 H     1 <1>   0.0800 
 31 H        4.3410     2.2080     1.1080 H     1 <1>   0.0800 
 32 H        3.4730     2.9740     2.4050 H     1 <1>   0.0800 
 33 H       -2.5420     4.0010    -2.1740 H     1 <1>   0.0800 
 34 H       -2.3870     4.7950    -0.6100 H     1 <1>   0.0800 
 35 H        2.3250     2.6240    -1.2610 H     1 <1>   0.0800 
 36 H        4.0560     2.9000    -1.0950 H     1 <1>   0.0800 
 37 H        4.6980     4.6990     0.7660 H     1 <1>   0.0800 
 38 H        3.2980     5.4160     1.5600 H     1 <1>   0.0800 
 39 H       -4.9120     3.4570    -1.6630 H     1 <1>   0.0800 
 40 H       -4.6550     5.1810    -1.5700 H     1 <1>   0.0800 
 41 H       -4.7570     4.2460    -0.0990 H     1 <1>   0.0800 
 42 H        1.9350     4.8130    -1.9270 H     1 <1>   0.0800 
 43 H        3.5840     4.6870    -2.5080 H     1 <1>   0.0800 
 44 H        4.2460     6.2430    -0.8880 H     1 <1>   0.0800 
 45 H        2.5650     6.3870    -0.4180 H     1 <1>   0.0800 
@<TRIPOS>BOND
  1   1   2  1   
  2   1   3  1   
  3   2   4  1   
  4   2   5  2   
  5   3   6  2   
  6   3   7  1   
  7   4   8  am  
  8   4  24  1   
  9   5   6  1   
 10   5   9  1   
 11   6  10  1   
 12   7  11  2   
 13   7  12  1   
 14   8  13  2   
 15   8  14  1   
 16   9  15  2   
 17   9  16  1   
 18  10  25  1   
 19  10  26  1   
 20  10  27  1   
 21  12  28  1   
 22  12  29  1   
 23  12  30  1   
 24  14  17  1   
 25  14  31  1   
 26  14  32  1   
 27  16  18  1   
 28  17  19  1   
 29  17  20  1   
 30  18  21  1   
 31  18  33  1   
 32  18  34  1   
 33  19  22  1   
 34  19  35  1   
 35  19  36  1   
 36  20  23  1   
 37  20  37  1   
 38  20  38  1   
 39  21  39  1   
 40  21  40  1   
 41  21  41  1   
 42  22  23  1   
 43  22  42  1   
 44  22  43  1   
 45  23  44  1   
 46  23  45  1   
@<TRIPOS>SUBSTRUCTURE
  1 ****   2 GROUP 4 **** **** 0

# MOE 2024.06 (io_trps.svl 2023.06)
