@<TRIPOS>MOLECULE
NONAME
45 46 1 0 0 
SMALL
USER_CHARGES


@<TRIPOS>ATOM
  1 O        0.0600     0.1510     0.1840 O.2   1 <1>  -0.5700 
  2 C       -0.5130     1.2120     0.3450 C.2   1 <1>   0.5440 
  3 N        0.1730     2.3050     0.8080 N.am  1 <1>  -0.4930 
  4 C       -1.9300     1.3250     0.0600 C.ar  1 <1>   0.0860 
  5 C        1.5520     2.4650     1.0970 C.2   1 <1>   0.0630 
  6 C       -2.4910     2.4950    -0.4610 C.ar  1 <1>  -0.1500 
  7 C       -2.7930     0.2550     0.2990 C.ar  1 <1>  -0.1500 
  8 C        2.4280     1.6220     1.7880 C.2   1 <1>   0.1080 
  9 C        2.2990     3.5410     0.7660 C.2   1 <1>  -0.3320 
 10 C       -3.8480     2.6000    -0.7100 C.ar  1 <1>  -0.1500 
 11 C       -4.1490     0.3520     0.0520 C.ar  1 <1>  -0.1500 
 12 N        3.6190     2.1260     1.8800 N.2   1 <1>  -0.7070 
 13 C        2.0930     0.2810     2.4010 C.3   1 <1>  -0.0590 
 14 N        3.5520     3.3030     1.2360 N.pl3 1 <1>   0.3140 
 15 C        1.8860     4.7970     0.0080 C.3   1 <1>  -0.0600 
 16 C       -4.6900     1.5230    -0.4500 C.ar  1 <1>   0.0830 
 17 C        4.7290     4.1790     1.1750 C.3   1 <1>   0.1570 
 18 O       -6.0250     1.5410    -0.6620 O.3   1 <1>  -0.3630 
 19 C        5.1830     4.3310    -0.2520 C.2   1 <1>   0.6590 
 20 C       -6.6810     2.6710    -1.1940 C.3   1 <1>   0.0400 
 21 O        5.0030     5.3590    -0.8550 O.2   1 <1>  -0.5700 
 22 O        5.8080     3.2910    -0.7910 O.3   1 <1>  -0.4300 
 23 C        6.2910     3.2840    -2.1160 C.3   1 <1>   0.1200 
 24 C        7.6920     3.8910    -2.1340 C.3   1 <1>  -0.2400 
 25 H       -0.3700     3.1560     0.9230 H     1 <1>   0.3700 
 26 H       -1.8580     3.3340    -0.6850 H     1 <1>   0.1500 
 27 H       -2.3870    -0.6650     0.6860 H     1 <1>   0.1500 
 28 H       -4.2340     3.5190    -1.1090 H     1 <1>   0.1500 
 29 H       -4.8000    -0.4820     0.2460 H     1 <1>   0.1500 
 30 H        1.0770     0.2730     2.7460 H     1 <1>   0.0800 
 31 H        2.7470     0.0840     3.2300 H     1 <1>   0.0800 
 32 H        2.2210    -0.4890     1.6630 H     1 <1>   0.0800 
 33 H        0.8250     4.8100    -0.1600 H     1 <1>   0.0800 
 34 H        2.3740     4.8290    -0.9510 H     1 <1>   0.0800 
 35 H        2.1530     5.6780     0.5640 H     1 <1>   0.0800 
 36 H        5.5170     3.7450     1.7570 H     1 <1>   0.0800 
 37 H        4.4710     5.1360     1.5810 H     1 <1>   0.0800 
 38 H       -7.7280     2.4410    -1.2750 H     1 <1>   0.0800 
 39 H       -6.2770     2.8830    -2.1680 H     1 <1>   0.0800 
 40 H       -6.5400     3.5030    -0.5270 H     1 <1>   0.0800 
 41 H        5.6120     3.8360    -2.7450 H     1 <1>   0.0800 
 42 H        6.3200     2.2590    -2.4450 H     1 <1>   0.0800 
 43 H        7.6580     4.9190    -1.8200 H     1 <1>   0.0800 
 44 H        8.0880     3.8550    -3.1330 H     1 <1>   0.0800 
 45 H        8.3460     3.3360    -1.4860 H     1 <1>   0.0800 
@<TRIPOS>BOND
  1   1   2  2   
  2   2   3  am  
  3   2   4  1   
  4   3   5  1   
  5   3  25  1   
  6   4   6  ar  
  7   4   7  ar  
  8   5   8  1   
  9   5   9  2   
 10   6  10  ar  
 11   6  26  1   
 12   7  11  ar  
 13   7  27  1   
 14   8  12  2   
 15   8  13  1   
 16   9  14  1   
 17   9  15  1   
 18  10  16  ar  
 19  10  28  1   
 20  11  16  ar  
 21  11  29  1   
 22  12  14  1   
 23  13  30  1   
 24  13  31  1   
 25  13  32  1   
 26  14  17  1   
 27  15  33  1   
 28  15  34  1   
 29  15  35  1   
 30  16  18  1   
 31  17  19  1   
 32  17  36  1   
 33  17  37  1   
 34  18  20  1   
 35  19  21  2   
 36  19  22  1   
 37  20  38  1   
 38  20  39  1   
 39  20  40  1   
 40  22  23  1   
 41  23  24  1   
 42  23  41  1   
 43  23  42  1   
 44  24  43  1   
 45  24  44  1   
 46  24  45  1   
@<TRIPOS>SUBSTRUCTURE
  1 ****   3 GROUP 4 **** **** 0

# MOE 2024.06 (io_trps.svl 2023.06)
