@<TRIPOS>MOLECULE
NONAME
40 41 1 0 0 
SMALL
USER_CHARGES


@<TRIPOS>ATOM
  1 BR       0.3340    -0.7630     1.4780 Br    1 <1>  -0.1110 
  2 C       -1.4600    -0.9000     0.7800 C.ar  1 <1>   0.1110 
  3 C       -2.1810     0.2520     0.5060 C.ar  1 <1>   0.0820 
  4 C       -1.9740    -2.1650     0.5660 C.ar  1 <1>  -0.1500 
  5 O       -1.6290     1.4670     0.7570 O.3   1 <1>  -0.3630 
  6 C       -3.4770     0.1260     0.0020 C.ar  1 <1>   0.0820 
  7 C       -3.2580    -2.2910     0.0580 C.ar  1 <1>  -0.1440 
  8 C       -1.2490     2.2290    -0.3680 C.3   1 <1>   0.2640 
  9 O       -4.1840     1.2640    -0.2490 O.3   1 <1>  -0.3630 
 10 C       -3.9990    -1.1490    -0.2210 C.ar  1 <1>  -0.1500 
 11 C       -3.8550    -3.6660    -0.1910 C.3   1 <1>   0.2640 
 12 C       -1.0870     3.6810     0.0500 C.ar  1 <1>  -0.1430 
 13 C       -5.5600     1.2300    -0.5440 C.3   1 <1>   0.1200 
 14 O       -4.9480    -3.8110     0.6400 O.3   1 <1>  -0.6800 
 15 C        0.1540     4.2990     0.0170 C.ar  1 <1>  -0.1500 
 16 C       -2.1950     4.4040     0.4620 C.ar  1 <1>  -0.1500 
 17 C       -6.0540     2.6710    -0.6350 C.3   1 <1>  -0.2400 
 18 C        0.2920     5.6270     0.3870 C.ar  1 <1>  -0.1430 
 19 C       -2.0650     5.7310     0.8310 C.ar  1 <1>  -0.1500 
 20 C       -0.8240     6.3410     0.7920 C.ar  1 <1>  -0.1500 
 21 C        1.6550     6.2930     0.3470 C.3   1 <1>  -0.0970 
 22 H       -1.3720    -3.0260     0.7950 H     1 <1>   0.1500 
 23 H       -2.0090     2.1510    -1.1250 H     1 <1>   0.0800 
 24 H       -0.3280     1.8250    -0.7450 H     1 <1>   0.0800 
 25 H       -4.9920    -1.2760    -0.6110 H     1 <1>   0.1500 
 26 H       -3.1520    -4.4490     0.0360 H     1 <1>   0.0800 
 27 H       -4.1890    -3.7690    -1.2090 H     1 <1>   0.0800 
 28 H       -6.0660     0.7040     0.2470 H     1 <1>   0.0800 
 29 H       -5.6970     0.7210    -1.4820 H     1 <1>   0.0800 
 30 H       -4.7190    -3.4780     1.5290 H     1 <1>   0.4000 
 31 H        1.0190     3.7420    -0.2960 H     1 <1>   0.1500 
 32 H       -3.1600     3.9260     0.4990 H     1 <1>   0.1500 
 33 H       -5.9000     3.1730     0.3030 H     1 <1>   0.0800 
 34 H       -7.1040     2.6820    -0.8630 H     1 <1>   0.0800 
 35 H       -5.5270     3.1940    -1.4130 H     1 <1>   0.0800 
 36 H       -2.9290     6.2850     1.1500 H     1 <1>   0.1500 
 37 H       -0.7320     7.3730     1.0790 H     1 <1>   0.1500 
 38 H        2.4260     5.5820     0.5830 H     1 <1>   0.0800 
 39 H        1.7040     7.0950     1.0620 H     1 <1>   0.0800 
 40 H        1.8360     6.6910    -0.6350 H     1 <1>   0.0800 
@<TRIPOS>BOND
  1   1   2  1   
  2   2   3  ar  
  3   2   4  ar  
  4   3   5  1   
  5   3   6  ar  
  6   4   7  ar  
  7   4  22  1   
  8   5   8  1   
  9   6   9  1   
 10   6  10  ar  
 11   7  10  ar  
 12   7  11  1   
 13   8  12  1   
 14   8  23  1   
 15   8  24  1   
 16   9  13  1   
 17  10  25  1   
 18  11  14  1   
 19  11  26  1   
 20  11  27  1   
 21  12  15  ar  
 22  12  16  ar  
 23  13  17  1   
 24  13  28  1   
 25  13  29  1   
 26  14  30  1   
 27  15  18  ar  
 28  15  31  1   
 29  16  19  ar  
 30  16  32  1   
 31  17  33  1   
 32  17  34  1   
 33  17  35  1   
 34  18  20  ar  
 35  18  21  1   
 36  19  20  ar  
 37  19  36  1   
 38  20  37  1   
 39  21  38  1   
 40  21  39  1   
 41  21  40  1   
@<TRIPOS>SUBSTRUCTURE
  1 ****   5 GROUP 4 **** **** 0

# MOE 2024.06 (io_trps.svl 2023.06)
