@<TRIPOS>MOLECULE
NONAME
48 50 1 0 0 
SMALL
USER_CHARGES


@<TRIPOS>ATOM
  1 O        0.1140    -0.8700     1.0480 O.2   1 <1>  -0.5700 
  2 C        0.0390    -1.6390     0.1090 C.2   1 <1>   0.5440 
  3 N        1.1520    -1.8570    -0.6750 N.am  1 <1>  -0.6600 
  4 C       -1.2120    -2.3210    -0.1620 C.ar  1 <1>   0.0860 
  5 C        2.4950    -1.3040    -0.3200 C.3   1 <1>   0.1400 
  6 C        1.2250    -2.8880    -1.7580 C.3   1 <1>   0.1400 
  7 C       -1.5810    -3.4930     0.5100 C.ar  1 <1>  -0.1440 
  8 C       -2.0770    -1.8200    -1.1330 C.ar  1 <1>  -0.1500 
  9 C        3.4590    -2.4370     0.0700 C.3   1 <1>   0.2090 
 10 C        2.2070    -4.0140    -1.3860 C.3   1 <1>   0.2090 
 11 C       -2.7700    -4.1310     0.1990 C.ar  1 <1>  -0.1500 
 12 C       -0.6790    -4.0730     1.5930 C.3   1 <1>  -0.0960 
 13 C       -3.2630    -2.4590    -1.4410 C.ar  1 <1>  -0.1500 
 14 N        3.5490    -3.4760    -1.0040 N.pl3 1 <1>  -0.8380 
 15 C       -3.6090    -3.6190    -0.7740 C.ar  1 <1>  -0.1500 
 16 C        4.5300    -4.4560    -0.7930 C.ar  1 <1>   0.1000 
 17 C        4.4930    -5.4050     0.2440 C.ar  1 <1>   0.0820 
 18 C        5.6050    -4.4800    -1.6700 C.ar  1 <1>  -0.1500 
 19 O        3.4500    -5.4010     1.1260 O.3   1 <1>  -0.3630 
 20 C        5.5080    -6.3450     0.3640 C.ar  1 <1>  -0.1500 
 21 C        6.6190    -5.4120    -1.5410 C.ar  1 <1>  -0.1500 
 22 C        3.7350    -5.5330     2.4980 C.3   1 <1>   0.1200 
 23 C        6.5710    -6.3480    -0.5240 C.ar  1 <1>  -0.1500 
 24 C        2.4970    -5.1030     3.2800 C.3   1 <1>  -0.2400 
 25 H        2.4180    -0.6080     0.4960 H     1 <1>   0.0800 
 26 H        2.8950    -0.7770    -1.1670 H     1 <1>   0.0800 
 27 H        1.5660    -2.4180    -2.6630 H     1 <1>   0.0800 
 28 H        0.2590    -3.3150    -1.9530 H     1 <1>   0.0800 
 29 H       -1.8070    -0.9140    -1.6480 H     1 <1>   0.1500 
 30 H        3.1140    -2.8850     0.9840 H     1 <1>   0.0800 
 31 H        4.4380    -2.0280     0.2470 H     1 <1>   0.0800 
 32 H        2.3210    -4.6780    -2.2240 H     1 <1>   0.0800 
 33 H        1.7970    -4.5810    -0.5700 H     1 <1>   0.0800 
 34 H       -3.0540    -5.0320     0.7140 H     1 <1>   0.1500 
 35 H        0.2860    -4.3100     1.1850 H     1 <1>   0.0800 
 36 H       -1.1010    -4.9680     2.0130 H     1 <1>   0.0800 
 37 H       -0.5510    -3.3550     2.3840 H     1 <1>   0.0800 
 38 H       -3.9160    -2.0540    -2.1940 H     1 <1>   0.1500 
 39 H       -4.5320    -4.1220    -1.0090 H     1 <1>   0.1500 
 40 H        5.6350    -3.7520    -2.4600 H     1 <1>   0.1500 
 41 H        5.4770    -7.0870     1.1390 H     1 <1>   0.1500 
 42 H        7.4420    -5.4090    -2.2340 H     1 <1>   0.1500 
 43 H        4.5750    -4.9030     2.7350 H     1 <1>   0.0800 
 44 H        3.9730    -6.5620     2.7030 H     1 <1>   0.0800 
 45 H        7.3560    -7.0770    -0.4260 H     1 <1>   0.1500 
 46 H        2.2550    -4.0790     3.0560 H     1 <1>   0.0800 
 47 H        2.6870    -5.1860     4.3350 H     1 <1>   0.0800 
 48 H        1.6650    -5.7350     3.0300 H     1 <1>   0.0800 
@<TRIPOS>BOND
  1   1   2  2   
  2   2   3  am  
  3   2   4  1   
  4   3   5  1   
  5   3   6  1   
  6   4   7  ar  
  7   4   8  ar  
  8   5   9  1   
  9   5  25  1   
 10   5  26  1   
 11   6  10  1   
 12   6  27  1   
 13   6  28  1   
 14   7  11  ar  
 15   7  12  1   
 16   8  13  ar  
 17   8  29  1   
 18   9  14  1   
 19   9  30  1   
 20   9  31  1   
 21  10  14  1   
 22  10  32  1   
 23  10  33  1   
 24  11  15  ar  
 25  11  34  1   
 26  12  35  1   
 27  12  36  1   
 28  12  37  1   
 29  13  15  ar  
 30  13  38  1   
 31  14  16  1   
 32  15  39  1   
 33  16  17  ar  
 34  16  18  ar  
 35  17  19  1   
 36  17  20  ar  
 37  18  21  ar  
 38  18  40  1   
 39  19  22  1   
 40  20  23  ar  
 41  20  41  1   
 42  21  23  ar  
 43  21  42  1   
 44  22  24  1   
 45  22  43  1   
 46  22  44  1   
 47  23  45  1   
 48  24  46  1   
 49  24  47  1   
 50  24  48  1   
@<TRIPOS>SUBSTRUCTURE
  1 ****  10 GROUP 4 **** **** 0

# MOE 2024.06 (io_trps.svl 2023.06)
