@<TRIPOS>MOLECULE
NONAME
34 35 1 0 0 
SMALL
USER_CHARGES


@<TRIPOS>ATOM
  1 CL       2.5770     1.0800    -0.8290 Cl    1 <1>  -0.1770 
  2 C        3.1730    -0.5590    -0.7500 C.ar  1 <1>   0.1770 
  3 C        2.3810    -1.5910    -1.2220 C.ar  1 <1>  -0.1500 
  4 C        4.4290    -0.7970    -0.2210 C.ar  1 <1>  -0.1500 
  5 C        2.8550    -2.8910    -1.1560 C.ar  1 <1>  -0.1500 
  6 C        4.8990    -2.0980    -0.1570 C.ar  1 <1>  -0.1500 
  7 C        4.1060    -3.1440    -0.6080 C.ar  1 <1>   0.0830 
  8 O        4.5730    -4.4130    -0.5630 O.3   1 <1>  -0.3630 
  9 C        4.4060    -5.2520     0.5830 C.3   1 <1>   0.3410 
 10 C        5.2370    -6.5530     0.3600 C.2   1 <1>   0.5690 
 11 C        4.8510    -4.5380     1.8750 C.3   1 <1>  -0.2400 
 12 C        2.9000    -5.5680     0.6960 C.3   1 <1>  -0.2400 
 13 O        4.7670    -7.6180     0.6880 O.2   1 <1>  -0.5700 
 14 N        6.4740    -6.5890    -0.2090 N.am  1 <1>  -0.4900 
 15 C        7.4030    -5.6360    -0.5240 C.2   1 <1>   0.6510 
 16 S        8.6700    -6.2120    -1.5980 S.3   1 <1>  -0.3710 
 17 N        7.5280    -4.4370    -0.1560 N.2   1 <1>  -0.6960 
 18 C        9.5220    -4.6010    -1.6440 C.3   1 <1>   0.0700 
 19 C        8.6840    -3.7090    -0.7120 C.3   1 <1>   0.0860 
 20 H        1.4130    -1.3760    -1.6360 H     1 <1>   0.1500 
 21 H        5.0270     0.0240     0.1310 H     1 <1>   0.1500 
 22 H        2.2630    -3.7070    -1.5290 H     1 <1>   0.1500 
 23 H        5.8780    -2.3080     0.2370 H     1 <1>   0.1500 
 24 H        4.7560    -5.2130     2.7060 H     1 <1>   0.0800 
 25 H        4.2370    -3.6790     2.0760 H     1 <1>   0.0800 
 26 H        5.8780    -4.2330     1.8170 H     1 <1>   0.0800 
 27 H        2.7260    -6.2470     1.5110 H     1 <1>   0.0800 
 28 H        2.5530    -6.0360    -0.2080 H     1 <1>   0.0800 
 29 H        2.3280    -4.6780     0.8850 H     1 <1>   0.0800 
 30 H        6.7730    -7.5310    -0.4370 H     1 <1>   0.3700 
 31 H        9.5170    -4.2480    -2.6600 H     1 <1>   0.0800 
 32 H       10.5260    -4.7390    -1.2870 H     1 <1>   0.0800 
 33 H        9.2980    -3.3580     0.1000 H     1 <1>   0.0800 
 34 H        8.3260    -2.8530    -1.2570 H     1 <1>   0.0800 
@<TRIPOS>BOND
  1   1   2  1   
  2   2   3  ar  
  3   2   4  ar  
  4   3   5  ar  
  5   3  20  1   
  6   4   6  ar  
  7   4  21  1   
  8   5   7  ar  
  9   5  22  1   
 10   6   7  ar  
 11   6  23  1   
 12   7   8  1   
 13   8   9  1   
 14   9  10  1   
 15   9  11  1   
 16   9  12  1   
 17  10  13  2   
 18  10  14  am  
 19  11  24  1   
 20  11  25  1   
 21  11  26  1   
 22  12  27  1   
 23  12  28  1   
 24  12  29  1   
 25  14  15  1   
 26  14  30  1   
 27  15  16  1   
 28  15  17  2   
 29  16  18  1   
 30  17  19  1   
 31  18  19  1   
 32  18  31  1   
 33  18  32  1   
 34  19  33  1   
 35  19  34  1   
@<TRIPOS>SUBSTRUCTURE
  1 ****   8 GROUP 4 **** **** 0

# MOE 2024.06 (io_trps.svl 2023.06)
