@<TRIPOS>MOLECULE
NONAME
43 46 1 0 0 
SMALL
USER_CHARGES


@<TRIPOS>ATOM
  1 S        0.2290     0.5940     0.0970 S.3   1 <1>  -0.3320 
  2 C        1.6880    -0.4410     0.0630 C.ar  1 <1>   0.7220 
  3 C       -1.1930    -0.5870     0.1500 C.3   1 <1>   0.0700 
  4 N        1.4690    -1.7780     0.0800 N.ar  1 <1>  -0.3100 
  5 N        2.8320     0.1930     0.0240 N.ar  1 <1>  -0.5670 
  6 C       -2.4830     0.2360     0.1660 C.3   1 <1>  -0.0990 
  7 N        2.4780    -2.6000     0.0570 N.ar  1 <1>  -0.2560 
  8 C        3.8570    -0.6630     0.0010 C.ar  1 <1>   0.1050 
  9 C       -3.7330    -0.6270     0.1930 C.2   1 <1>   0.5690 
 10 C        3.6900    -2.0360     0.0170 C.ar  1 <1>   0.2560 
 11 N        5.1960    -0.3700    -0.0410 N.pl3 1 <1>   0.0480 
 12 O       -3.6200    -1.8230     0.3220 O.2   1 <1>  -0.5700 
 13 N       -4.9580    -0.0340     0.0730 N.am  1 <1>  -0.6600 
 14 C        4.9860    -2.6160    -0.0160 C.ar  1 <1>   0.0000 
 15 C        5.8970    -1.5640    -0.0520 C.ar  1 <1>  -0.1520 
 16 C        5.7910     0.9790    -0.0700 C.3   1 <1>   0.0160 
 17 C       -5.2260     1.4140    -0.0700 C.3   1 <1>   0.1400 
 18 C       -6.2140    -0.8120     0.0730 C.3   1 <1>   0.1400 
 19 C        5.4450    -3.9340    -0.0190 C.ar  1 <1>  -0.1500 
 20 C        7.2690    -1.8140    -0.0910 C.ar  1 <1>  -0.1500 
 21 C       -6.7370     1.5450     0.0860 C.3   1 <1>  -0.1600 
 22 C       -7.2890     0.1870    -0.3390 C.3   1 <1>  -0.1600 
 23 C        6.8000    -4.1790    -0.0570 C.ar  1 <1>  -0.1500 
 24 C        7.7110    -3.1200    -0.0930 C.ar  1 <1>  -0.1500 
 25 H       -1.0920    -1.1840     1.0400 H     1 <1>   0.0800 
 26 H       -1.1340    -1.2130    -0.7230 H     1 <1>   0.0800 
 27 H       -2.5110     0.8530    -0.7120 H     1 <1>   0.0800 
 28 H       -2.4870     0.8660     1.0350 H     1 <1>   0.0800 
 29 H        5.0130     1.7210    -0.0520 H     1 <1>   0.0800 
 30 H        6.3710     1.0920    -0.9680 H     1 <1>   0.0800 
 31 H        6.4240     1.1060     0.7890 H     1 <1>   0.0800 
 32 H       -4.9220     1.7330    -1.0520 H     1 <1>   0.0800 
 33 H       -4.7040     1.9830     0.6800 H     1 <1>   0.0800 
 34 H       -6.3980    -1.1800     1.0680 H     1 <1>   0.0800 
 35 H       -6.1530    -1.6410    -0.6120 H     1 <1>   0.0800 
 36 H        4.7310    -4.7390     0.0090 H     1 <1>   0.1500 
 37 H        7.9710    -0.9990    -0.1180 H     1 <1>   0.1500 
 38 H       -7.1320     2.3520    -0.5040 H     1 <1>   0.0800 
 39 H       -6.9670     1.7240     1.1220 H     1 <1>   0.0800 
 40 H       -8.2370    -0.0340     0.1200 H     1 <1>   0.0800 
 41 H       -7.4020     0.1550    -1.4090 H     1 <1>   0.0800 
 42 H        7.1680    -5.1900    -0.0600 H     1 <1>   0.1500 
 43 H        8.7650    -3.3350    -0.1220 H     1 <1>   0.1500 
@<TRIPOS>BOND
  1   1   2  1   
  2   1   3  1   
  3   2   4  ar  
  4   2   5  ar  
  5   3   6  1   
  6   3  25  1   
  7   3  26  1   
  8   4   7  ar  
  9   5   8  ar  
 10   6   9  1   
 11   6  27  1   
 12   6  28  1   
 13   7  10  ar  
 14   8  10  ar  
 15   8  11  1   
 16   9  12  2   
 17   9  13  am  
 18  10  14  1   
 19  11  15  1   
 20  11  16  1   
 21  13  17  1   
 22  13  18  1   
 23  14  15  ar  
 24  14  19  ar  
 25  15  20  ar  
 26  16  29  1   
 27  16  30  1   
 28  16  31  1   
 29  17  21  1   
 30  17  32  1   
 31  17  33  1   
 32  18  22  1   
 33  18  34  1   
 34  18  35  1   
 35  19  23  ar  
 36  19  36  1   
 37  20  24  ar  
 38  20  37  1   
 39  21  22  1   
 40  21  38  1   
 41  21  39  1   
 42  22  40  1   
 43  22  41  1   
 44  23  24  ar  
 45  23  42  1   
 46  24  43  1   
@<TRIPOS>SUBSTRUCTURE
  1 ****   2 GROUP 4 **** **** 0

# MOE 2024.06 (io_trps.svl 2023.06)
