@<TRIPOS>MOLECULE
NONAME
55 57 1 0 0 
SMALL
USER_CHARGES


@<TRIPOS>ATOM
  1 O       -0.9760    -0.6070    -1.5280 O.2   1 <1>  -0.5700 
  2 C       -1.9930    -1.0880    -1.0690 C.2   1 <1>   0.6900 
  3 N       -1.9700    -2.3670    -0.5220 N.am  1 <1>  -0.4200 
  4 N       -3.1730    -0.3600    -1.0920 N.am  1 <1>  -0.4360 
  5 C       -3.1200    -2.9510    -0.0060 C.2   1 <1>   0.7030 
  6 C       -0.6790    -3.1250    -0.5210 C.3   1 <1>   0.0600 
  7 C       -4.3050    -0.9420    -0.5530 C.2   1 <1>   0.4260 
  8 C       -3.2270     1.0170    -1.6660 C.3   1 <1>   0.0600 
  9 O       -3.0910    -4.0830     0.4450 O.2   1 <1>  -0.5700 
 10 C       -4.3350    -2.1870    -0.0190 C.2   1 <1>   0.2770 
 11 N       -5.5470    -0.4130    -0.4550 N.pl3 1 <1>  -0.7000 
 12 N       -5.6510    -2.4050     0.4130 N.pl3 1 <1>  -0.7640 
 13 C       -6.3380    -1.3040     0.1270 C.cat 1 <1>   0.6560 
 14 C       -6.1170    -3.6640     1.0520 C.3   1 <1>   0.3540 
 15 C       -7.8250    -1.0100     0.3800 C.3   1 <1>   0.2540 
 16 C       -6.4840    -4.6770    -0.0340 C.3   1 <1>  -0.1600 
 17 N       -8.1340     0.4360     0.1650 N.3   1 <1>  -0.8100 
 18 C       -6.9990    -5.9890     0.5740 C.3   1 <1>  -0.1600 
 19 C       -8.2070     1.2220     1.4210 C.3   1 <1>   0.1900 
 20 C       -9.3780     0.5740    -0.6200 C.3   1 <1>   0.1100 
 21 C       -7.3670    -6.9920    -0.5230 C.3   1 <1>  -0.2400 
 22 C       -8.4330     2.7070     1.0920 C.3   1 <1>  -0.1600 
 23 C       -6.9200     1.0980     2.2450 C.3   1 <1>  -0.2400 
 24 C       -9.6100     2.0350    -1.0090 C.3   1 <1>  -0.1600 
 25 C       -9.6810     2.9240     0.2330 C.3   1 <1>  -0.1600 
 26 H        0.1390    -2.4660    -0.2860 H     1 <1>   0.0800 
 27 H       -0.5110    -3.5500    -1.4960 H     1 <1>   0.0800 
 28 H       -0.6920    -3.9160     0.2080 H     1 <1>   0.0800 
 29 H       -2.3640     1.2100    -2.2820 H     1 <1>   0.0800 
 30 H       -3.2480     1.7410    -0.8710 H     1 <1>   0.0800 
 31 H       -4.1050     1.1300    -2.2770 H     1 <1>   0.0800 
 32 H       -5.9110     0.5080    -0.7230 H     1 <1>   0.4500 
 33 H       -6.9750    -3.4660     1.6710 H     1 <1>   0.0800 
 34 H       -5.3400    -4.0650     1.6830 H     1 <1>   0.0800 
 35 H       -8.1020    -1.3110     1.3740 H     1 <1>   0.0800 
 36 H       -8.3860    -1.6160    -0.3100 H     1 <1>   0.0800 
 37 H       -5.6130    -4.8890    -0.6300 H     1 <1>   0.0800 
 38 H       -7.2450    -4.2620    -0.6720 H     1 <1>   0.0800 
 39 H       -7.8680    -5.8010     1.1820 H     1 <1>   0.0800 
 40 H       -6.2380    -6.4230     1.2020 H     1 <1>   0.0800 
 41 H       -9.0380     0.8710     2.0130 H     1 <1>   0.0800 
 42 H      -10.2180     0.2160    -0.0460 H     1 <1>   0.0800 
 43 H       -9.3100    -0.0090    -1.5230 H     1 <1>   0.0800 
 44 H       -8.1450    -6.5990    -1.1540 H     1 <1>   0.0800 
 45 H       -7.7200    -7.9070    -0.0800 H     1 <1>   0.0800 
 46 H       -6.5090    -7.2200    -1.1310 H     1 <1>   0.0800 
 47 H       -7.5730     3.0910     0.5720 H     1 <1>   0.0800 
 48 H       -8.5390     3.2670     2.0050 H     1 <1>   0.0800 
 49 H       -6.0670     1.4050     1.6680 H     1 <1>   0.0800 
 50 H       -6.7740     0.1020     2.6150 H     1 <1>   0.0800 
 51 H       -6.9840     1.7430     3.1040 H     1 <1>   0.0800 
 52 H      -10.5290     2.1170    -1.5620 H     1 <1>   0.0800 
 53 H       -8.8100     2.3620    -1.6500 H     1 <1>   0.0800 
 54 H       -9.7540     3.9580    -0.0580 H     1 <1>   0.0800 
 55 H      -10.5590     2.6750     0.8050 H     1 <1>   0.0800 
@<TRIPOS>BOND
  1   1   2  2   
  2   2   3  am  
  3   2   4  am  
  4   3   5  am  
  5   3   6  1   
  6   4   7  1   
  7   4   8  1   
  8   5   9  2   
  9   5  10  1   
 10   6  26  1   
 11   6  27  1   
 12   6  28  1   
 13   7  10  2   
 14   7  11  1   
 15   8  29  1   
 16   8  30  1   
 17   8  31  1   
 18  10  12  1   
 19  11  13  ar  
 20  11  32  1   
 21  12  13  ar  
 22  12  14  1   
 23  13  15  1   
 24  14  16  1   
 25  14  33  1   
 26  14  34  1   
 27  15  17  1   
 28  15  35  1   
 29  15  36  1   
 30  16  18  1   
 31  16  37  1   
 32  16  38  1   
 33  17  19  1   
 34  17  20  1   
 35  18  21  1   
 36  18  39  1   
 37  18  40  1   
 38  19  22  1   
 39  19  23  1   
 40  19  41  1   
 41  20  24  1   
 42  20  42  1   
 43  20  43  1   
 44  21  44  1   
 45  21  45  1   
 46  21  46  1   
 47  22  25  1   
 48  22  47  1   
 49  22  48  1   
 50  23  49  1   
 51  23  50  1   
 52  23  51  1   
 53  24  25  1   
 54  24  52  1   
 55  24  53  1   
 56  25  54  1   
 57  25  55  1   
@<TRIPOS>SUBSTRUCTURE
  1 ****  13 GROUP 4 **** **** 0

# MOE 2024.06 (io_trps.svl 2023.06)
