@<TRIPOS>MOLECULE
NONAME
47 49 1 0 0 
SMALL
USER_CHARGES


@<TRIPOS>ATOM
  1 O        0.5990     0.4840     0.7110 O.3   1 <1>  -0.3630 
  2 C        1.7550     1.1060     0.3350 C.ar  1 <1>   0.0820 
  3 C       -0.6610     1.1170     0.7280 C.3   1 <1>   0.0400 
  4 C        1.9140     2.4480    -0.0530 C.ar  1 <1>   0.0820 
  5 C        2.8600     0.2730     0.3570 C.ar  1 <1>  -0.1500 
  6 O        0.8410     3.2910    -0.0810 O.3   1 <1>  -0.3630 
  7 C        3.1860     2.8970    -0.4030 C.ar  1 <1>  -0.1500 
  8 C        4.1210     0.7260     0.0070 C.ar  1 <1>  -0.1440 
  9 C        0.9350     4.6420    -0.4790 C.3   1 <1>   0.0400 
 10 C        4.2830     2.0500    -0.3750 C.ar  1 <1>  -0.1440 
 11 C        5.2830    -0.2510     0.0450 C.3   1 <1>   0.4860 
 12 C        5.6550     2.5970    -0.7500 C.3   1 <1>  -0.0160 
 13 N        6.5660     0.4890     0.1870 N.4   1 <1>  -0.9590 
 14 C        6.7050     1.4940    -0.9120 C.3   1 <1>   0.3430 
 15 C        7.7210    -0.4320     0.2680 C.3   1 <1>   0.4810 
 16 C        8.9430     0.3940     0.5870 C.2   1 <1>  -0.2880 
 17 C        9.9820     0.5810    -0.2450 C.2   1 <1>  -0.1780 
 18 C       11.1750     1.3670    -0.0150 C.ar  1 <1>   0.0280 
 19 C       12.0230     1.6680    -1.0790 C.ar  1 <1>  -0.1500 
 20 C       11.5250     1.8500     1.2450 C.ar  1 <1>  -0.1500 
 21 C       13.1660     2.4250    -0.8970 C.ar  1 <1>  -0.1500 
 22 C       12.6660     2.6080     1.4330 C.ar  1 <1>  -0.1500 
 23 C       13.4890     2.8990     0.3610 C.ar  1 <1>  -0.1500 
 24 H       -1.3940     0.3950     1.0390 H     1 <1>   0.0800 
 25 H       -0.8900     1.4660    -0.2630 H     1 <1>   0.0800 
 26 H       -0.6330     1.9330     1.4280 H     1 <1>   0.0800 
 27 H        2.7040    -0.7490     0.6560 H     1 <1>   0.1500 
 28 H        3.3420     3.9160    -0.7000 H     1 <1>   0.1500 
 29 H       -0.0480     5.0750    -0.4210 H     1 <1>   0.0800 
 30 H        1.2900     4.6850    -1.4930 H     1 <1>   0.0800 
 31 H        1.5990     5.1590     0.1900 H     1 <1>   0.0800 
 32 H        5.2870    -0.8290    -0.8650 H     1 <1>   0.0800 
 33 H        5.1520    -0.9250     0.8760 H     1 <1>   0.0800 
 34 H        5.9790     3.2820     0.0130 H     1 <1>   0.0800 
 35 H        5.5870     3.1490    -1.6720 H     1 <1>   0.0800 
 36 H        6.5060     1.0110     1.0680 H     1 <1>   0.4500 
 37 H        7.6870     1.9390    -0.8980 H     1 <1>   0.0800 
 38 H        6.5670     1.0080    -1.8640 H     1 <1>   0.0800 
 39 H        7.5680    -1.1670     1.0420 H     1 <1>   0.0800 
 40 H        7.8570    -0.9430    -0.6720 H     1 <1>   0.0800 
 41 H        8.9000     0.8320     1.5690 H     1 <1>   0.1500 
 42 H        9.9770     0.1140    -1.2170 H     1 <1>   0.1500 
 43 H       11.7930     1.3090    -2.0650 H     1 <1>   0.1500 
 44 H       10.9110     1.6330     2.0980 H     1 <1>   0.1500 
 45 H       13.8060     2.6470    -1.7340 H     1 <1>   0.1500 
 46 H       12.9190     2.9720     2.4140 H     1 <1>   0.1500 
 47 H       14.3780     3.4890     0.5050 H     1 <1>   0.1500 
@<TRIPOS>BOND
  1   1   2  1   
  2   1   3  1   
  3   2   4  ar  
  4   2   5  ar  
  5   3  24  1   
  6   3  25  1   
  7   3  26  1   
  8   4   6  1   
  9   4   7  ar  
 10   5   8  ar  
 11   5  27  1   
 12   6   9  1   
 13   7  10  ar  
 14   7  28  1   
 15   8  10  ar  
 16   8  11  1   
 17   9  29  1   
 18   9  30  1   
 19   9  31  1   
 20  10  12  1   
 21  11  13  1   
 22  11  32  1   
 23  11  33  1   
 24  12  14  1   
 25  12  34  1   
 26  12  35  1   
 27  13  14  1   
 28  13  15  1   
 29  13  36  1   
 30  14  37  1   
 31  14  38  1   
 32  15  16  1   
 33  15  39  1   
 34  15  40  1   
 35  16  17  2   
 36  16  41  1   
 37  17  18  1   
 38  17  42  1   
 39  18  19  ar  
 40  18  20  ar  
 41  19  21  ar  
 42  19  43  1   
 43  20  22  ar  
 44  20  44  1   
 45  21  23  ar  
 46  21  45  1   
 47  22  23  ar  
 48  22  46  1   
 49  23  47  1   
@<TRIPOS>SUBSTRUCTURE
  1 ****  14 GROUP 4 **** **** 0

# MOE 2024.06 (io_trps.svl 2023.06)
