@<TRIPOS>MOLECULE
NONAME
41 43 1 0 0 
SMALL
USER_CHARGES


@<TRIPOS>ATOM
  1 BR       0.9000    -0.8610    -1.8010 Br    1 <1>  -0.0570 
  2 C       -0.4080    -1.6230    -0.6050 C.2   1 <1>   0.0570 
  3 C       -0.3860    -1.4780     0.7290 C.2   1 <1>  -0.1100 
  4 C       -1.4800    -2.3960    -1.1450 C.2   1 <1>  -0.1500 
  5 S       -1.7620    -2.3330     1.4130 S.3   1 <1>  -0.0800 
  6 C       -2.3080    -2.8560    -0.1850 C.2   1 <1>  -0.1400 
  7 C       -3.5640    -3.7000    -0.2360 C.3   1 <1>   0.5230 
  8 N       -4.6800    -2.9140     0.3470 N.4   1 <1>  -0.9590 
  9 C       -5.9150    -3.7590     0.5520 C.3   1 <1>   0.3430 
 10 C       -4.9820    -1.6810    -0.4780 C.3   1 <1>   0.3430 
 11 C       -7.1000    -2.9520     1.1230 C.3   1 <1>   0.2090 
 12 C       -6.1580    -0.8590     0.0900 C.3   1 <1>   0.2090 
 13 N       -7.3430    -1.7380     0.2970 N.pl3 1 <1>  -0.8380 
 14 C       -8.6200    -1.1830     0.3290 C.ar  1 <1>   0.1000 
 15 C       -9.6610    -1.8280    -0.3250 C.ar  1 <1>  -0.1500 
 16 C       -8.8920     0.0020     1.0050 C.ar  1 <1>  -0.1500 
 17 C      -10.9450    -1.3160    -0.3110 C.ar  1 <1>   0.0820 
 18 C      -10.1720     0.5260     1.0230 C.ar  1 <1>  -0.1500 
 19 O      -11.8910    -2.0250    -0.9780 O.3   1 <1>  -0.3620 
 20 C      -11.2020    -0.1270     0.3680 C.ar  1 <1>  -0.1500 
 21 C      -13.2260    -1.5750    -1.0480 C.3   1 <1>   0.0400 
 22 H        0.2870    -0.9650     1.3940 H     1 <1>   0.1500 
 23 H       -1.5520    -2.5550    -2.2080 H     1 <1>   0.1500 
 24 H       -3.4060    -4.6020     0.3330 H     1 <1>   0.0800 
 25 H       -3.7870    -3.9690    -1.2560 H     1 <1>   0.0800 
 26 H       -4.3570    -2.5860     1.2660 H     1 <1>   0.4500 
 27 H       -5.6970    -4.5780     1.2170 H     1 <1>   0.0800 
 28 H       -6.2270    -4.1740    -0.3930 H     1 <1>   0.0800 
 29 H       -5.2400    -1.9740    -1.4830 H     1 <1>   0.0800 
 30 H       -4.1100    -1.0500    -0.5330 H     1 <1>   0.0800 
 31 H       -6.8950    -2.6610     2.1390 H     1 <1>   0.0800 
 32 H       -7.9850    -3.5670     1.1290 H     1 <1>   0.0800 
 33 H       -6.4130    -0.0730    -0.6010 H     1 <1>   0.0800 
 34 H       -5.8720    -0.4060     1.0230 H     1 <1>   0.0800 
 35 H       -9.4720    -2.7380    -0.8580 H     1 <1>   0.1500 
 36 H       -8.1070     0.5150     1.5250 H     1 <1>   0.1500 
 37 H      -10.3710     1.4440     1.5500 H     1 <1>   0.1500 
 38 H      -12.1860     0.2990     0.3980 H     1 <1>   0.1500 
 39 H      -13.7870    -2.2840    -1.6300 H     1 <1>   0.0800 
 40 H      -13.2450    -0.6130    -1.5270 H     1 <1>   0.0800 
 41 H      -13.6280    -1.5200    -0.0520 H     1 <1>   0.0800 
@<TRIPOS>BOND
  1   1   2  1   
  2   2   3  2   
  3   2   4  1   
  4   3   5  1   
  5   3  22  1   
  6   4   6  2   
  7   4  23  1   
  8   5   6  1   
  9   6   7  1   
 10   7   8  1   
 11   7  24  1   
 12   7  25  1   
 13   8   9  1   
 14   8  10  1   
 15   8  26  1   
 16   9  11  1   
 17   9  27  1   
 18   9  28  1   
 19  10  12  1   
 20  10  29  1   
 21  10  30  1   
 22  11  13  1   
 23  11  31  1   
 24  11  32  1   
 25  12  13  1   
 26  12  33  1   
 27  12  34  1   
 28  13  14  1   
 29  14  15  ar  
 30  14  16  ar  
 31  15  17  ar  
 32  15  35  1   
 33  16  18  ar  
 34  16  36  1   
 35  17  19  1   
 36  17  20  ar  
 37  18  20  ar  
 38  18  37  1   
 39  19  21  1   
 40  20  38  1   
 41  21  39  1   
 42  21  40  1   
 43  21  41  1   
@<TRIPOS>SUBSTRUCTURE
  1 ****  12 GROUP 4 **** **** 0

# MOE 2024.06 (io_trps.svl 2023.06)
