@<TRIPOS>MOLECULE
NONAME
40 41 1 0 0 
SMALL
USER_CHARGES


@<TRIPOS>ATOM
  1 S       -0.1820     0.2110    -0.0580 S.3   1 <1>  -0.4600 
  2 C        1.2660    -0.8050    -0.4130 C.3   1 <1>   0.1500 
  3 C       -1.5240    -0.8460    -0.6900 C.3   1 <1>   0.1310 
  4 C        1.0740    -2.1240     0.3390 C.3   1 <1>   0.1400 
  5 C        2.4980    -0.0250     0.0510 C.3   1 <1>   0.1200 
  6 C       -1.3270    -2.3460    -0.4610 C.2   1 <1>   0.5690 
  7 N       -0.1070    -2.9150    -0.1270 N.am  1 <1>  -0.4770 
  8 O        3.6260    -0.8240    -0.1200 O.3   1 <1>  -0.5600 
  9 O       -2.3150    -3.0210    -0.6290 O.2   1 <1>  -0.5700 
 10 C        0.0710    -4.3090    -0.0570 C.ar  1 <1>   0.1170 
 11 C        4.8140    -0.2140     0.2630 C.3   1 <1>   0.1200 
 12 C        0.9870    -4.9450    -0.8890 C.ar  1 <1>  -0.1500 
 13 C       -0.6470    -5.0780     0.8510 C.ar  1 <1>  -0.1500 
 14 C        5.9470    -1.2110     0.0300 C.3   1 <1>  -0.1600 
 15 C        1.1880    -6.3110    -0.8080 C.ar  1 <1>  -0.1500 
 16 C       -0.4500    -6.4450     0.9350 C.ar  1 <1>  -0.1500 
 17 C        7.3040    -0.6150     0.4280 C.3   1 <1>  -0.1600 
 18 C        0.4700    -7.0630     0.1070 C.ar  1 <1>  -0.1500 
 19 C        8.4360    -1.6180     0.1920 C.3   1 <1>  -0.2400 
 20 H        1.3060    -0.9640    -1.4760 H     1 <1>   0.0800 
 21 H       -1.5980    -0.6560    -1.7440 H     1 <1>   0.0800 
 22 H       -2.4280    -0.5210    -0.2090 H     1 <1>   0.0800 
 23 H        0.9620    -1.9240     1.3900 H     1 <1>   0.0800 
 24 H        1.9650    -2.7160     0.2190 H     1 <1>   0.0800 
 25 H        2.4100     0.2290     1.0930 H     1 <1>   0.0800 
 26 H        2.6120     0.8690    -0.5370 H     1 <1>   0.0800 
 27 H        4.7500     0.0490     1.3060 H     1 <1>   0.0800 
 28 H        4.9580     0.6710    -0.3330 H     1 <1>   0.0800 
 29 H        1.5410    -4.3650    -1.6040 H     1 <1>   0.1500 
 30 H       -1.3670    -4.5980     1.4890 H     1 <1>   0.1500 
 31 H        5.9660    -1.4810    -1.0120 H     1 <1>   0.0800 
 32 H        5.7600    -2.0960     0.6120 H     1 <1>   0.0800 
 33 H        1.9010    -6.7910    -1.4560 H     1 <1>   0.1500 
 34 H       -1.0150    -7.0260     1.6430 H     1 <1>   0.1500 
 35 H        7.2870    -0.3390     1.4690 H     1 <1>   0.0800 
 36 H        7.4930     0.2730    -0.1510 H     1 <1>   0.0800 
 37 H        0.6240    -8.1260     0.1710 H     1 <1>   0.1500 
 38 H        8.2790    -2.5070     0.7780 H     1 <1>   0.0800 
 39 H        9.3790    -1.1840     0.4770 H     1 <1>   0.0800 
 40 H        8.4860    -1.8920    -0.8470 H     1 <1>   0.0800 
@<TRIPOS>BOND
  1   1   2  1   
  2   1   3  1   
  3   2   4  1   
  4   2   5  1   
  5   2  20  1   
  6   3   6  1   
  7   3  21  1   
  8   3  22  1   
  9   4   7  1   
 10   4  23  1   
 11   4  24  1   
 12   5   8  1   
 13   5  25  1   
 14   5  26  1   
 15   6   7  am  
 16   6   9  2   
 17   7  10  1   
 18   8  11  1   
 19  10  12  ar  
 20  10  13  ar  
 21  11  14  1   
 22  11  27  1   
 23  11  28  1   
 24  12  15  ar  
 25  12  29  1   
 26  13  16  ar  
 27  13  30  1   
 28  14  17  1   
 29  14  31  1   
 30  14  32  1   
 31  15  18  ar  
 32  15  33  1   
 33  16  18  ar  
 34  16  34  1   
 35  17  19  1   
 36  17  35  1   
 37  17  36  1   
 38  18  37  1   
 39  19  38  1   
 40  19  39  1   
 41  19  40  1   
@<TRIPOS>SUBSTRUCTURE
  1 ****   4 GROUP 4 **** **** 0

# MOE 2024.06 (io_trps.svl 2023.06)
