@<TRIPOS>MOLECULE
NONAME
43 44 1 0 0 
SMALL
USER_CHARGES


@<TRIPOS>ATOM
  1 S        0.6780     0.0590     0.3950 S.o2  1 <1>   1.4470 
  2 O        0.6560    -1.2870    -0.1280 O.2   1 <1>  -0.6500 
  3 O        1.1840     0.3140     1.7260 O.2   1 <1>  -0.6500 
  4 N        1.5820     0.9090    -0.7360 N.am  1 <1>  -0.9140 
  5 C       -0.9840     0.7880     0.2180 C.ar  1 <1>  -0.0090 
  6 C        3.0210     0.9530    -0.5730 C.3   1 <1>   0.4190 
  7 C       -1.2940     2.1040     0.5760 C.ar  1 <1>  -0.1440 
  8 C       -2.0090     0.0070    -0.3110 C.ar  1 <1>  -0.1500 
  9 C        3.6440    -0.4350    -0.4290 C.ar  1 <1>  -0.1440 
 10 C        3.4520     1.9810     0.4750 C.3   1 <1>  -0.2400 
 11 C       -2.5790     2.5950     0.4020 C.ar  1 <1>  -0.1500 
 12 C       -0.2450     3.0400     1.1660 C.3   1 <1>  -0.0970 
 13 C       -3.2940     0.4890    -0.4890 C.ar  1 <1>  -0.1430 
 14 C        3.9700    -1.1450    -1.5780 C.ar  1 <1>  -0.1500 
 15 C        3.9030    -1.0150     0.8080 C.ar  1 <1>  -0.1500 
 16 C       -3.5860     1.7970    -0.1300 C.ar  1 <1>   0.0820 
 17 C       -4.3700    -0.4160    -1.0720 C.3   1 <1>  -0.0970 
 18 C        4.5430    -2.4020    -1.4940 C.ar  1 <1>  -0.1500 
 19 C        4.4760    -2.2710     0.8930 C.ar  1 <1>  -0.1500 
 20 O       -4.8580     2.2360    -0.3190 O.3   1 <1>  -0.3620 
 21 C        4.7980    -2.9670    -0.2580 C.ar  1 <1>  -0.1500 
 22 C       -5.2560     3.5430     0.0290 C.3   1 <1>   0.0400 
 23 H        1.4430     0.3320    -1.5610 H     1 <1>   0.4200 
 24 H        3.4030     1.3450    -1.5010 H     1 <1>   0.0800 
 25 H       -1.7930    -1.0100    -0.5910 H     1 <1>   0.1500 
 26 H        3.1470     1.7130     1.4670 H     1 <1>   0.0800 
 27 H        3.0460     2.9440     0.2290 H     1 <1>   0.0800 
 28 H        4.5230     2.0570     0.4710 H     1 <1>   0.0800 
 29 H       -2.7880     3.6070     0.6860 H     1 <1>   0.1500 
 30 H       -0.6550     4.0140     1.3570 H     1 <1>   0.0800 
 31 H        0.1230     2.6480     2.0970 H     1 <1>   0.0800 
 32 H        0.5770     3.1570     0.4840 H     1 <1>   0.0800 
 33 H        3.7800    -0.7270    -2.5500 H     1 <1>   0.1500 
 34 H        3.6550    -0.5010     1.7200 H     1 <1>   0.1500 
 35 H       -3.9830    -1.3940    -1.2920 H     1 <1>   0.0800 
 36 H       -4.7550     0.0150    -1.9790 H     1 <1>   0.0800 
 37 H       -5.1790    -0.5160    -0.3700 H     1 <1>   0.0800 
 38 H        4.7900    -2.9430    -2.3910 H     1 <1>   0.1500 
 39 H        4.6660    -2.7090     1.8570 H     1 <1>   0.1500 
 40 H        5.2410    -3.9440    -0.1910 H     1 <1>   0.1500 
 41 H       -6.3000     3.6470    -0.2080 H     1 <1>   0.0800 
 42 H       -4.6800     4.2480    -0.5430 H     1 <1>   0.0800 
 43 H       -5.1050     3.6840     1.0850 H     1 <1>   0.0800 
@<TRIPOS>BOND
  1   1   2  2   
  2   1   3  2   
  3   1   4  am  
  4   1   5  1   
  5   4   6  1   
  6   4  23  1   
  7   5   7  ar  
  8   5   8  ar  
  9   6   9  1   
 10   6  10  1   
 11   6  24  1   
 12   7  11  ar  
 13   7  12  1   
 14   8  13  ar  
 15   8  25  1   
 16   9  14  ar  
 17   9  15  ar  
 18  10  26  1   
 19  10  27  1   
 20  10  28  1   
 21  11  16  ar  
 22  11  29  1   
 23  12  30  1   
 24  12  31  1   
 25  12  32  1   
 26  13  16  ar  
 27  13  17  1   
 28  14  18  ar  
 29  14  33  1   
 30  15  19  ar  
 31  15  34  1   
 32  16  20  1   
 33  17  35  1   
 34  17  36  1   
 35  17  37  1   
 36  18  21  ar  
 37  18  38  1   
 38  19  21  ar  
 39  19  39  1   
 40  20  22  1   
 41  21  40  1   
 42  22  41  1   
 43  22  42  1   
 44  22  43  1   
@<TRIPOS>SUBSTRUCTURE
  1 ****   1 GROUP 4 **** **** 0

# MOE 2024.06 (io_trps.svl 2023.06)
