@<TRIPOS>MOLECULE
NONAME
30 30 1 0 0 
SMALL
USER_CHARGES


@<TRIPOS>ATOM
  1 S        0.7180    -1.8480    -0.4540 S.3   1 <1>  -0.4600 
  2 C        0.2660    -0.4150     0.5890 C.3   1 <1>   0.2700 
  3 C        1.1750    -1.0940    -2.0570 C.3   1 <1>   0.1310 
  4 C        0.5780    -0.7250     2.0140 C.1   1 <1>   0.3570 
  5 C        2.3360    -0.1310    -1.8740 C.2   1 <1>   0.5690 
  6 N        0.8310    -0.9430     3.1020 N.1   1 <1>  -0.5570 
  7 O        2.2610     0.9530    -2.3970 O.2   1 <1>  -0.5700 
  8 N        3.3720    -0.5310    -1.0760 N.am  1 <1>  -0.5470 
  9 C        4.5310     0.1360    -0.6500 C.ar  1 <1>   0.1170 
 10 C        5.1370    -0.2330     0.5520 C.ar  1 <1>  -0.1430 
 11 C        5.1080     1.1530    -1.4040 C.ar  1 <1>  -0.1500 
 12 C        6.2880     0.4150     0.9720 C.ar  1 <1>  -0.1500 
 13 C        4.5550    -1.3360     1.4310 C.3   1 <1>  -0.0970 
 14 C        6.2550     1.7940    -0.9780 C.ar  1 <1>  -0.1500 
 15 C        6.8540     1.4270     0.2140 C.ar  1 <1>  -0.1430 
 16 C        8.1130     2.1280     0.6900 C.3   1 <1>  -0.0970 
 17 H       -0.7840    -0.2350     0.4550 H     1 <1>   0.0800 
 18 H        0.8350     0.4370     0.2640 H     1 <1>   0.0800 
 19 H        0.3100    -0.5800    -2.4350 H     1 <1>   0.0800 
 20 H        1.4480    -1.8910    -2.7240 H     1 <1>   0.0800 
 21 H        3.2270    -1.4320    -0.6190 H     1 <1>   0.3700 
 22 H        4.6630     1.4500    -2.3360 H     1 <1>   0.1500 
 23 H        6.7540     0.1340     1.9000 H     1 <1>   0.1500 
 24 H        4.5480    -2.2710     0.9000 H     1 <1>   0.0800 
 25 H        3.5510    -1.0860     1.7230 H     1 <1>   0.0800 
 26 H        5.1370    -1.4640     2.3260 H     1 <1>   0.0800 
 27 H        6.6780     2.5790    -1.5790 H     1 <1>   0.1500 
 28 H        8.7480     1.4400     1.2190 H     1 <1>   0.0800 
 29 H        7.8510     2.9370     1.3480 H     1 <1>   0.0800 
 30 H        8.6630     2.5240    -0.1450 H     1 <1>   0.0800 
@<TRIPOS>BOND
  1   1   2  1   
  2   1   3  1   
  3   2   4  1   
  4   2  17  1   
  5   2  18  1   
  6   3   5  1   
  7   3  19  1   
  8   3  20  1   
  9   4   6  3   
 10   5   7  2   
 11   5   8  am  
 12   8   9  1   
 13   8  21  1   
 14   9  10  ar  
 15   9  11  ar  
 16  10  12  ar  
 17  10  13  1   
 18  11  14  ar  
 19  11  22  1   
 20  12  15  ar  
 21  12  23  1   
 22  13  24  1   
 23  13  25  1   
 24  13  26  1   
 25  14  15  ar  
 26  14  27  1   
 27  15  16  1   
 28  16  28  1   
 29  16  29  1   
 30  16  30  1   
@<TRIPOS>SUBSTRUCTURE
  1 ****   9 GROUP 4 **** **** 0

# MOE 2024.06 (io_trps.svl 2023.06)
