@<TRIPOS>MOLECULE
NONAME
55 57 1 0 0 
SMALL
USER_CHARGES


@<TRIPOS>ATOM
  1 S       -1.8160    -0.8760     1.2030 S.o2  1 <1>   1.3330 
  2 O       -3.1560    -0.8710     1.7380 O.2   1 <1>  -0.6500 
  3 O       -0.7680    -0.1540     1.8790 O.2   1 <1>  -0.6500 
  4 N       -1.3370    -2.5360     1.0890 N.am  1 <1>  -0.6930 
  5 C       -1.8600    -0.3600    -0.5010 C.3   1 <1>  -0.1350 
  6 C       -0.0100    -2.9180     0.9110 C.ar  1 <1>   0.1990 
  7 C       -2.4270    -3.5600     0.9930 C.3   1 <1>   0.2570 
  8 C        0.9380    -2.6570     1.8940 C.ar  1 <1>  -0.1500 
  9 C        0.3970    -3.5790    -0.2480 C.ar  1 <1>  -0.1500 
 10 C       -3.3350    -3.4190    -0.2430 C.2   1 <1>   0.5690 
 11 C        2.2430    -3.0590     1.6960 C.ar  1 <1>   0.1900 
 12 C        1.7130    -3.9760    -0.4300 C.ar  1 <1>  -0.1500 
 13 O       -2.7970    -3.5300    -1.3230 O.2   1 <1>  -0.5700 
 14 N       -4.6910    -3.1990    -0.1620 N.am  1 <1>  -0.6600 
 15 F        3.1270    -2.8130     2.6260 F     1 <1>  -0.1900 
 16 C        2.6530    -3.7150     0.5520 C.ar  1 <1>  -0.1500 
 17 C       -5.5570    -3.2370    -1.3890 C.3   1 <1>   0.1400 
 18 C       -5.4690    -2.8180     1.0670 C.3   1 <1>   0.1400 
 19 C       -6.3170    -1.9170    -1.6030 C.3   1 <1>   0.2090 
 20 C       -6.2270    -1.4900     0.8780 C.3   1 <1>   0.2090 
 21 N       -7.0370    -1.4730    -0.3750 N.pl3 1 <1>  -0.8380 
 22 C       -8.4110    -1.7030    -0.2790 C.ar  1 <1>   0.1000 
 23 C       -9.3300    -0.6530    -0.3750 C.ar  1 <1>  -0.1430 
 24 C       -8.8770    -2.9970    -0.0800 C.ar  1 <1>  -0.1500 
 25 C      -10.6950    -0.9130    -0.2630 C.ar  1 <1>  -0.1430 
 26 C       -8.7880     0.7590    -0.5970 C.3   1 <1>  -0.0970 
 27 C      -10.2270    -3.2550     0.0260 C.ar  1 <1>  -0.1500 
 28 C      -11.1320    -2.2150    -0.0650 C.ar  1 <1>  -0.1500 
 29 C      -11.7450     0.1860    -0.3460 C.3   1 <1>  -0.0970 
 30 H       -2.6000    -0.9120    -1.0450 H     1 <1>   0.0800 
 31 H       -0.9040    -0.5200    -0.9590 H     1 <1>   0.0800 
 32 H       -2.1000     0.6820    -0.5610 H     1 <1>   0.0800 
 33 H       -3.0000    -3.5330     1.8970 H     1 <1>   0.0800 
 34 H       -1.9770    -4.5340     0.9450 H     1 <1>   0.0800 
 35 H        0.6610    -2.1460     2.7970 H     1 <1>   0.1500 
 36 H       -0.3210    -3.7820    -1.0210 H     1 <1>   0.1500 
 37 H        2.0040    -4.4840    -1.3340 H     1 <1>   0.1500 
 38 H        3.6800    -4.0120     0.4370 H     1 <1>   0.1500 
 39 H       -6.2690    -4.0360    -1.2880 H     1 <1>   0.0800 
 40 H       -4.9710    -3.4430    -2.2670 H     1 <1>   0.0800 
 41 H       -4.8350    -2.7170     1.9250 H     1 <1>   0.0800 
 42 H       -6.1830    -3.5920     1.2820 H     1 <1>   0.0800 
 43 H       -7.0240    -2.0380    -2.4060 H     1 <1>   0.0800 
 44 H       -5.6190    -1.1510    -1.8920 H     1 <1>   0.0800 
 45 H       -5.5240    -0.6770     0.8460 H     1 <1>   0.0800 
 46 H       -6.8740    -1.3250     1.7230 H     1 <1>   0.0800 
 47 H       -8.1750    -3.8030    -0.0050 H     1 <1>   0.1500 
 48 H       -8.1090     0.7570    -1.4310 H     1 <1>   0.0800 
 49 H       -8.2480     1.0740     0.2770 H     1 <1>   0.0800 
 50 H       -9.5540     1.4790    -0.8040 H     1 <1>   0.0800 
 51 H      -10.5760    -4.2600     0.1800 H     1 <1>   0.1500 
 52 H      -12.1830    -2.4280     0.0210 H     1 <1>   0.1500 
 53 H      -11.7270     0.6360    -1.3220 H     1 <1>   0.0800 
 54 H      -11.5490     0.9380     0.3960 H     1 <1>   0.0800 
 55 H      -12.7320    -0.2050    -0.1740 H     1 <1>   0.0800 
@<TRIPOS>BOND
  1   1   2  2   
  2   1   3  2   
  3   1   4  am  
  4   1   5  1   
  5   4   6  1   
  6   4   7  1   
  7   5  30  1   
  8   5  31  1   
  9   5  32  1   
 10   6   8  ar  
 11   6   9  ar  
 12   7  10  1   
 13   7  33  1   
 14   7  34  1   
 15   8  11  ar  
 16   8  35  1   
 17   9  12  ar  
 18   9  36  1   
 19  10  13  2   
 20  10  14  am  
 21  11  15  1   
 22  11  16  ar  
 23  12  16  ar  
 24  12  37  1   
 25  14  17  1   
 26  14  18  1   
 27  16  38  1   
 28  17  19  1   
 29  17  39  1   
 30  17  40  1   
 31  18  20  1   
 32  18  41  1   
 33  18  42  1   
 34  19  21  1   
 35  19  43  1   
 36  19  44  1   
 37  20  21  1   
 38  20  45  1   
 39  20  46  1   
 40  21  22  1   
 41  22  23  ar  
 42  22  24  ar  
 43  23  25  ar  
 44  23  26  1   
 45  24  27  ar  
 46  24  47  1   
 47  25  28  ar  
 48  25  29  1   
 49  26  48  1   
 50  26  49  1   
 51  26  50  1   
 52  27  28  ar  
 53  27  51  1   
 54  28  52  1   
 55  29  53  1   
 56  29  54  1   
 57  29  55  1   
@<TRIPOS>SUBSTRUCTURE
  1 ****  14 GROUP 4 **** **** 0

# MOE 2024.06 (io_trps.svl 2023.06)
