@<TRIPOS>MOLECULE
NONAME
45 47 1 0 0 
SMALL
USER_CHARGES


@<TRIPOS>ATOM
  1 O       -0.0550     0.2620    -1.2910 O.2   1 <1>  -0.5700 
  2 C       -0.1020     1.2570    -0.5960 C.2   1 <1>   0.5440 
  3 N       -1.2910     1.6680    -0.0380 N.am  1 <1>  -0.5470 
  4 C        1.1050     2.0180    -0.3360 C.ar  1 <1>   0.0860 
  5 C       -2.6040     1.1730    -0.1370 C.ar  1 <1>   0.1170 
  6 C        2.3340     1.3730    -0.2040 C.ar  1 <1>  -0.1500 
  7 C        1.0870     3.4100    -0.2070 C.ar  1 <1>  -0.1500 
  8 C       -3.6510     2.0310     0.1790 C.ar  1 <1>  -0.1500 
  9 C       -2.9070    -0.1330    -0.5180 C.ar  1 <1>  -0.1500 
 10 C        3.5000     2.0800     0.0640 C.ar  1 <1>   0.0830 
 11 C        2.2420     4.1220     0.0610 C.ar  1 <1>  -0.1500 
 12 C       -4.9640     1.6030     0.1110 C.ar  1 <1>   0.0830 
 13 C       -4.2190    -0.5720    -0.5840 C.ar  1 <1>  -0.1500 
 14 O        4.7180     1.5030     0.2050 O.3   1 <1>  -0.3630 
 15 C        3.4450     3.4570     0.2000 C.ar  1 <1>  -0.1500 
 16 O       -5.9550     2.4810     0.4130 O.3   1 <1>  -0.3630 
 17 C       -5.2520     0.2900    -0.2640 C.ar  1 <1>   0.0830 
 18 C        4.9000     0.1170     0.0170 C.3   1 <1>   0.1200 
 19 C       -7.2690     2.1160     0.0310 C.3   1 <1>   0.1200 
 20 O       -6.5330    -0.1640    -0.3190 O.3   1 <1>  -0.3620 
 21 C        6.3830    -0.2010     0.2060 C.3   1 <1>  -0.1600 
 22 C       -7.5140     0.6290     0.3220 C.3   1 <1>   0.1200 
 23 C        6.6590    -1.6980     0.0160 C.3   1 <1>  -0.1600 
 24 C        8.1460    -2.0110     0.2060 C.3   1 <1>  -0.2400 
 25 H       -1.2080     2.4920     0.5520 H     1 <1>   0.3700 
 26 H        2.3490     0.3050    -0.3150 H     1 <1>   0.1500 
 27 H        0.1640     3.9470    -0.3300 H     1 <1>   0.1500 
 28 H       -3.4560     3.0440     0.4730 H     1 <1>   0.1500 
 29 H       -2.1200    -0.8220    -0.7620 H     1 <1>   0.1500 
 30 H        2.2090     5.1940     0.1590 H     1 <1>   0.1500 
 31 H       -4.4440    -1.5810    -0.8780 H     1 <1>   0.1500 
 32 H        4.3510     3.9990     0.4090 H     1 <1>   0.1500 
 33 H        4.5810    -0.1350    -0.9800 H     1 <1>   0.0800 
 34 H        4.3030    -0.4060     0.7440 H     1 <1>   0.0800 
 35 H       -7.3780     2.3140    -1.0210 H     1 <1>   0.0800 
 36 H       -7.9570     2.7320     0.5800 H     1 <1>   0.0800 
 37 H        6.6810     0.0960     1.1970 H     1 <1>   0.0800 
 38 H        6.9550     0.3630    -0.5100 H     1 <1>   0.0800 
 39 H       -8.4770     0.3210    -0.0420 H     1 <1>   0.0800 
 40 H       -7.4580     0.4410     1.3790 H     1 <1>   0.0800 
 41 H        6.3580    -1.9990    -0.9730 H     1 <1>   0.0800 
 42 H        6.0840    -2.2660     0.7280 H     1 <1>   0.0800 
 43 H        8.7390    -1.4700    -0.5100 H     1 <1>   0.0800 
 44 H        8.3210    -3.0640     0.0690 H     1 <1>   0.0800 
 45 H        8.4640    -1.7380     1.1970 H     1 <1>   0.0800 
@<TRIPOS>BOND
  1   1   2  2   
  2   2   3  am  
  3   2   4  1   
  4   3   5  1   
  5   3  25  1   
  6   4   6  ar  
  7   4   7  ar  
  8   5   8  ar  
  9   5   9  ar  
 10   6  10  ar  
 11   6  26  1   
 12   7  11  ar  
 13   7  27  1   
 14   8  12  ar  
 15   8  28  1   
 16   9  13  ar  
 17   9  29  1   
 18  10  14  1   
 19  10  15  ar  
 20  11  15  ar  
 21  11  30  1   
 22  12  16  1   
 23  12  17  ar  
 24  13  17  ar  
 25  13  31  1   
 26  14  18  1   
 27  15  32  1   
 28  16  19  1   
 29  17  20  1   
 30  18  21  1   
 31  18  33  1   
 32  18  34  1   
 33  19  22  1   
 34  19  35  1   
 35  19  36  1   
 36  20  22  1   
 37  21  23  1   
 38  21  37  1   
 39  21  38  1   
 40  22  39  1   
 41  22  40  1   
 42  23  24  1   
 43  23  41  1   
 44  23  42  1   
 45  24  43  1   
 46  24  44  1   
 47  24  45  1   
@<TRIPOS>SUBSTRUCTURE
  1 ****   2 GROUP 4 **** **** 0

# MOE 2024.06 (io_trps.svl 2023.06)
