@<TRIPOS>MOLECULE
NONAME
28 30 1 0 0 
SMALL
USER_CHARGES


@<TRIPOS>ATOM
  1 O       -0.1930    -0.2270    -0.0420 O.3   1 <1>  -0.5600 
  2 C        1.1440    -0.0230    -0.4020 C.3   1 <1>   0.4800 
  3 C       -0.6310    -1.4630    -0.4860 C.3   1 <1>   0.3440 
  4 O        1.9420    -1.0270     0.1750 O.3   1 <1>  -0.5600 
  5 C        1.5880     1.3180     0.1510 C.3   1 <1>  -0.2400 
  6 C       -2.0530    -1.8720    -0.2060 C.ar  1 <1>  -0.1430 
  7 C        0.1430    -2.5150     0.2820 C.3   1 <1>  -0.0800 
  8 C        1.6000    -2.3550    -0.1190 C.3   1 <1>   0.1200 
  9 C       -2.0770    -3.2240     0.0670 C.ar  1 <1>  -0.1440 
 10 C       -3.2170    -1.1260    -0.2210 C.ar  1 <1>  -0.1500 
 11 C       -0.6690    -3.7990     0.0690 C.3   1 <1>  -0.0170 
 12 C       -3.2750    -3.8670     0.3210 C.ar  1 <1>  -0.1500 
 13 C       -4.4200    -1.7650     0.0360 C.ar  1 <1>  -0.1500 
 14 C       -4.4480    -3.1280     0.3020 C.ar  1 <1>  -0.1500 
 15 H        1.2420    -0.0570    -1.4750 H     1 <1>   0.0800 
 16 H       -0.4580    -1.5340    -1.5470 H     1 <1>   0.0800 
 17 H        1.4810     1.3230     1.2200 H     1 <1>   0.0800 
 18 H        0.9880     2.1010    -0.2720 H     1 <1>   0.0800 
 19 H        2.6160     1.4920    -0.1060 H     1 <1>   0.0800 
 20 H        0.0650    -2.2810     1.3310 H     1 <1>   0.0800 
 21 H        2.2370    -3.0020     0.4580 H     1 <1>   0.0800 
 22 H        1.7540    -2.5320    -1.1700 H     1 <1>   0.0800 
 23 H       -3.1800    -0.0710    -0.4280 H     1 <1>   0.1500 
 24 H       -0.5210    -4.5010     0.8710 H     1 <1>   0.0800 
 25 H       -0.4510    -4.2550    -0.8800 H     1 <1>   0.0800 
 26 H       -3.2960    -4.9200     0.5350 H     1 <1>   0.1500 
 27 H       -5.3360    -1.2010     0.0290 H     1 <1>   0.1500 
 28 H       -5.3880    -3.6140     0.4980 H     1 <1>   0.1500 
@<TRIPOS>BOND
  1   1   2  1   
  2   1   3  1   
  3   2   4  1   
  4   2   5  1   
  5   2  15  1   
  6   3   6  1   
  7   3   7  1   
  8   3  16  1   
  9   4   8  1   
 10   5  17  1   
 11   5  18  1   
 12   5  19  1   
 13   6   9  ar  
 14   6  10  ar  
 15   7   8  1   
 16   7  11  1   
 17   7  20  1   
 18   8  21  1   
 19   8  22  1   
 20   9  11  1   
 21   9  12  ar  
 22  10  13  ar  
 23  10  23  1   
 24  11  24  1   
 25  11  25  1   
 26  12  14  ar  
 27  12  26  1   
 28  13  14  ar  
 29  13  27  1   
 30  14  28  1   
@<TRIPOS>SUBSTRUCTURE
  1 ****   3 GROUP 4 **** **** 0

# MOE 2024.06 (io_trps.svl 2023.06)
