@<TRIPOS>MOLECULE
NONAME
37 39 1 0 0 
SMALL
USER_CHARGES


@<TRIPOS>ATOM
  1 BR       0.1700     0.0180     1.1410 Br    1 <1>  -0.1110 
  2 C        2.0380    -0.0520     0.6760 C.ar  1 <1>   0.1110 
  3 C        2.6690     1.1110     0.2820 C.ar  1 <1>  -0.1500 
  4 C        2.7000    -1.2630     0.7500 C.ar  1 <1>  -0.1500 
  5 C        4.0090     1.0330    -0.0470 C.ar  1 <1>   0.1770 
  6 C        4.0440    -1.3130     0.4150 C.ar  1 <1>  -0.1500 
  7 CL       4.8290     2.5020    -0.5380 Cl    1 <1>  -0.1770 
  8 C        4.7240    -0.1660     0.0020 C.ar  1 <1>   0.1170 
  9 N        6.0880    -0.1660    -0.3450 N.am  1 <1>  -0.5470 
 10 C        6.9460    -1.1620    -0.7150 C.2   1 <1>   0.6900 
 11 O        6.5420    -2.2960    -0.8900 O.2   1 <1>  -0.5700 
 12 N        8.2710    -0.8570    -0.9130 N.am  1 <1>  -0.6600 
 13 C        9.2040    -1.8450    -1.5280 C.3   1 <1>   0.1400 
 14 C        8.9450     0.3840    -0.4310 C.3   1 <1>   0.1400 
 15 C       10.2650    -2.2500    -0.5040 C.3   1 <1>  -0.1600 
 16 C       10.0020     0.0120     0.6090 C.3   1 <1>  -0.1600 
 17 C       10.9790    -1.0120     0.0430 C.3   1 <1>   0.5600 
 18 O       11.8850    -1.3660     1.0300 O.3   1 <1>  -0.5600 
 19 O       11.7380    -0.4100    -0.9540 O.3   1 <1>  -0.5600 
 20 C       13.1180    -1.5900     0.4500 C.3   1 <1>   0.1200 
 21 C       13.0320    -0.8950    -0.8950 C.3   1 <1>   0.1200 
 22 H        2.1370     2.0430     0.2330 H     1 <1>   0.1500 
 23 H        2.1760    -2.1490     1.0630 H     1 <1>   0.1500 
 24 H        4.5620    -2.2530     0.4780 H     1 <1>   0.1500 
 25 H        6.4850     0.7570    -0.4900 H     1 <1>   0.3700 
 26 H        9.6760    -1.3930    -2.3840 H     1 <1>   0.0800 
 27 H        8.6730    -2.7180    -1.8660 H     1 <1>   0.0800 
 28 H        8.2440     1.0690     0.0100 H     1 <1>   0.0800 
 29 H        9.4150     0.8750    -1.2670 H     1 <1>   0.0800 
 30 H       10.9690    -2.9200    -0.9590 H     1 <1>   0.0800 
 31 H        9.7790    -2.7650     0.3040 H     1 <1>   0.0800 
 32 H        9.5130    -0.4040     1.4700 H     1 <1>   0.0800 
 33 H       10.5430     0.8890     0.9140 H     1 <1>   0.0800 
 34 H       13.2660    -2.6500     0.3390 H     1 <1>   0.0800 
 35 H       13.8840    -1.1700     1.0770 H     1 <1>   0.0800 
 36 H       13.7170    -0.0690    -0.9650 H     1 <1>   0.0800 
 37 H       13.1890    -1.5820    -1.7080 H     1 <1>   0.0800 
@<TRIPOS>BOND
  1   1   2  1   
  2   2   3  ar  
  3   2   4  ar  
  4   3   5  ar  
  5   3  22  1   
  6   4   6  ar  
  7   4  23  1   
  8   5   7  1   
  9   5   8  ar  
 10   6   8  ar  
 11   6  24  1   
 12   8   9  1   
 13   9  10  am  
 14   9  25  1   
 15  10  11  2   
 16  10  12  am  
 17  12  13  1   
 18  12  14  1   
 19  13  15  1   
 20  13  26  1   
 21  13  27  1   
 22  14  16  1   
 23  14  28  1   
 24  14  29  1   
 25  15  17  1   
 26  15  30  1   
 27  15  31  1   
 28  16  17  1   
 29  16  32  1   
 30  16  33  1   
 31  17  18  1   
 32  17  19  1   
 33  18  20  1   
 34  19  21  1   
 35  20  21  1   
 36  20  34  1   
 37  20  35  1   
 38  21  36  1   
 39  21  37  1   
@<TRIPOS>SUBSTRUCTURE
  1 ****  10 GROUP 4 **** **** 0

# MOE 2024.06 (io_trps.svl 2023.06)
