@<TRIPOS>MOLECULE
NONAME
36 37 1 0 0 
SMALL
USER_CHARGES


@<TRIPOS>ATOM
  1 CL       0.4050     1.6740     2.6970 Cl    1 <1>  -0.1770 
  2 C        0.1530     1.2450     1.0210 C.ar  1 <1>   0.1770 
  3 C        0.1870     2.2140     0.0260 C.ar  1 <1>  -0.1440 
  4 C       -0.0880    -0.0850     0.7300 C.ar  1 <1>  -0.1500 
  5 C       -0.0430     1.8140    -1.2840 C.ar  1 <1>  -0.1500 
  6 C        0.4410     3.6800     0.3630 C.3   1 <1>   0.2140 
  7 C       -0.3080    -0.4690    -0.5810 C.ar  1 <1>  -0.1500 
  8 C       -0.2860     0.4840    -1.5860 C.ar  1 <1>  -0.1500 
  9 S        1.6300     4.3860    -0.8220 S.3   1 <1>  -0.4600 
 10 C        2.9610     5.0490     0.2490 C.3   1 <1>   0.1310 
 11 C        3.8110     3.9500     0.8740 C.2   1 <1>   0.5690 
 12 O        4.4670     4.2190     1.8510 O.2   1 <1>  -0.5700 
 13 N        3.8240     2.7140     0.3140 N.am  1 <1>  -0.7300 
 14 C        4.6660     1.5820     0.7320 C.3   1 <1>   0.2200 
 15 C        5.5300     1.1580    -0.4500 C.3   1 <1>  -0.1600 
 16 C        3.7810     0.3660     0.9680 C.3   1 <1>  -0.1600 
 17 C        4.6380     0.2670    -1.3240 C.3   1 <1>  -0.1600 
 18 C        3.4890    -0.2040    -0.4240 C.3   1 <1>  -0.1600 
 19 H       -0.1040    -0.8100     1.5240 H     1 <1>   0.1500 
 20 H       -0.0360     2.5380    -2.0820 H     1 <1>   0.1500 
 21 H        0.8610     3.8100     1.3430 H     1 <1>   0.0800 
 22 H       -0.4650     4.2530     0.2800 H     1 <1>   0.0800 
 23 H       -0.4960    -1.5020    -0.8190 H     1 <1>   0.1500 
 24 H       -0.4590     0.1900    -2.6070 H     1 <1>   0.1500 
 25 H        2.4980     5.6440     1.0130 H     1 <1>   0.0800 
 26 H        3.5780     5.6740    -0.3690 H     1 <1>   0.0800 
 27 H        3.2100     2.5260    -0.4820 H     1 <1>   0.3700 
 28 H        5.2520     1.8400     1.5990 H     1 <1>   0.0800 
 29 H        6.3500     0.5700    -0.0760 H     1 <1>   0.0800 
 30 H        5.9290     2.0020    -0.9850 H     1 <1>   0.0800 
 31 H        2.8910     0.6130     1.5180 H     1 <1>   0.0800 
 32 H        4.3420    -0.3580     1.5320 H     1 <1>   0.0800 
 33 H        5.1970    -0.5650    -1.7150 H     1 <1>   0.0800 
 34 H        4.2420     0.8380    -2.1470 H     1 <1>   0.0800 
 35 H        2.5610     0.1970    -0.7910 H     1 <1>   0.0800 
 36 H        3.4170    -1.2780    -0.3970 H     1 <1>   0.0800 
@<TRIPOS>BOND
  1   1   2  1   
  2   2   3  ar  
  3   2   4  ar  
  4   3   5  ar  
  5   3   6  1   
  6   4   7  ar  
  7   4  19  1   
  8   5   8  ar  
  9   5  20  1   
 10   6   9  1   
 11   6  21  1   
 12   6  22  1   
 13   7   8  ar  
 14   7  23  1   
 15   8  24  1   
 16   9  10  1   
 17  10  11  1   
 18  10  25  1   
 19  10  26  1   
 20  11  12  2   
 21  11  13  am  
 22  13  14  1   
 23  13  27  1   
 24  14  15  1   
 25  14  16  1   
 26  14  28  1   
 27  15  17  1   
 28  15  29  1   
 29  15  30  1   
 30  16  18  1   
 31  16  31  1   
 32  16  32  1   
 33  17  18  1   
 34  17  33  1   
 35  17  34  1   
 36  18  35  1   
 37  18  36  1   
@<TRIPOS>SUBSTRUCTURE
  1 ****  13 GROUP 4 **** **** 0

# MOE 2024.06 (io_trps.svl 2023.06)
