@<TRIPOS>MOLECULE
NONAME
42 44 1 0 0 
SMALL
USER_CHARGES


@<TRIPOS>ATOM
  1 O        0.9310    -1.6770    -0.0710 O.co2 1 <1>  -0.9000 
  2 C       -0.2660    -1.6730     0.2230 C.2   1 <1>   0.9060 
  3 O       -0.7000    -1.2370     1.2940 O.co2 1 <1>  -0.9000 
  4 C       -1.2620    -2.2400    -0.7560 C.3   1 <1>  -0.2660 
  5 C       -1.8370    -3.5760    -0.2480 C.3   1 <1>  -0.0990 
  6 C       -3.0820    -4.0190    -1.0070 C.2   1 <1>   0.4480 
  7 O       -2.9620    -4.6220    -2.0350 O.2   1 <1>  -0.5700 
  8 C       -4.4740    -3.7150    -0.3990 C.3   1 <1>   0.0610 
  9 C       -4.6050    -2.2360     0.0470 C.3   1 <1>  -0.1600 
 10 C       -4.7310    -4.6250     0.8280 C.3   1 <1>  -0.1600 
 11 C       -5.5940    -3.9920    -1.4360 C.3   1 <1>  -0.1600 
 12 C       -5.9920    -1.9500     0.6560 C.3   1 <1>   0.0000 
 13 C       -6.1210    -4.3620     1.4430 C.3   1 <1>   0.0000 
 14 C       -6.9880    -3.7220    -0.8430 C.3   1 <1>  -0.0800 
 15 C       -6.2030    -2.8810     1.8680 C.3   1 <1>  -0.1600 
 16 C       -7.0730    -2.2510    -0.4000 C.3   1 <1>  -0.1600 
 17 C       -6.0780    -0.4830     1.0970 C.3   1 <1>  -0.2400 
 18 C       -7.2010    -4.6350     0.3770 C.3   1 <1>  -0.1600 
 19 C       -6.3400    -5.2720     2.6580 C.3   1 <1>  -0.2400 
 20 H       -0.7770    -2.3810    -1.7030 H     1 <1>   0.0800 
 21 H       -2.0350    -1.5090    -0.8760 H     1 <1>   0.0800 
 22 H       -2.0560    -3.4930     0.8000 H     1 <1>   0.0800 
 23 H       -1.0800    -4.3330    -0.3520 H     1 <1>   0.0800 
 24 H       -4.4430    -1.5930    -0.8000 H     1 <1>   0.0800 
 25 H       -3.8510    -2.0010     0.7790 H     1 <1>   0.0800 
 26 H       -3.9780    -4.4510     1.5750 H     1 <1>   0.0800 
 27 H       -4.6550    -5.6550     0.5260 H     1 <1>   0.0800 
 28 H       -5.4430    -3.3720    -2.3030 H     1 <1>   0.0800 
 29 H       -5.5400    -5.0160    -1.7630 H     1 <1>   0.0800 
 30 H       -7.7430    -3.9230    -1.5840 H     1 <1>   0.0800 
 31 H       -5.4530    -2.6770     2.6120 H     1 <1>   0.0800 
 32 H       -7.1630    -2.6850     2.3110 H     1 <1>   0.0800 
 33 H       -6.9380    -1.6110    -1.2540 H     1 <1>   0.0800 
 34 H       -8.0490    -2.0540     0.0070 H     1 <1>   0.0800 
 35 H       -5.3200    -0.2680     1.8290 H     1 <1>   0.0800 
 36 H       -7.0400    -0.2740     1.5290 H     1 <1>   0.0800 
 37 H       -5.9300     0.1700     0.2560 H     1 <1>   0.0800 
 38 H       -8.1780    -4.4590     0.7910 H     1 <1>   0.0800 
 39 H       -7.1580    -5.6640     0.0660 H     1 <1>   0.0800 
 40 H       -5.5920    -5.0840     3.4080 H     1 <1>   0.0800 
 41 H       -6.2800    -6.3060     2.3690 H     1 <1>   0.0800 
 42 H       -7.3090    -5.0950     3.0910 H     1 <1>   0.0800 
@<TRIPOS>BOND
  1   1   2  ar  
  2   2   3  ar  
  3   2   4  1   
  4   4   5  1   
  5   4  20  1   
  6   4  21  1   
  7   5   6  1   
  8   5  22  1   
  9   5  23  1   
 10   6   7  2   
 11   6   8  1   
 12   8   9  1   
 13   8  10  1   
 14   8  11  1   
 15   9  12  1   
 16   9  24  1   
 17   9  25  1   
 18  10  13  1   
 19  10  26  1   
 20  10  27  1   
 21  11  14  1   
 22  11  28  1   
 23  11  29  1   
 24  12  15  1   
 25  12  16  1   
 26  12  17  1   
 27  13  15  1   
 28  13  18  1   
 29  13  19  1   
 30  14  16  1   
 31  14  18  1   
 32  14  30  1   
 33  15  31  1   
 34  15  32  1   
 35  16  33  1   
 36  16  34  1   
 37  17  35  1   
 38  17  36  1   
 39  17  37  1   
 40  18  38  1   
 41  18  39  1   
 42  19  40  1   
 43  19  41  1   
 44  19  42  1   
@<TRIPOS>SUBSTRUCTURE
  1 ****   8 GROUP 4 **** **** 0

# MOE 2024.06 (io_trps.svl 2023.06)
