@<TRIPOS>MOLECULE
NONAME
42 44 1 0 0 
SMALL
USER_CHARGES


@<TRIPOS>ATOM
  1 S        0.1460     0.0630    -0.6390 S.o2  1 <1>   1.5010 
  2 O        0.8820    -0.3450    -1.8160 O.2   1 <1>  -0.6500 
  3 O        0.5050     1.2920     0.0330 O.2   1 <1>  -0.6500 
  4 N        0.2860    -1.1880     0.4960 N.am  1 <1>  -0.8490 
  5 C       -1.6250     0.0900    -1.0140 C.2   1 <1>  -0.0630 
  6 C        1.5430    -1.0930     1.2540 C.3   1 <1>   0.1960 
  7 C        0.1860    -2.5260    -0.1130 C.3   1 <1>   0.1960 
  8 C       -2.1690     0.3780    -2.2140 C.2   1 <1>  -0.1100 
  9 C       -2.6250    -0.1660    -0.0210 C.2   1 <1>  -0.1500 
 10 C        1.6660    -2.2360     2.2770 C.3   1 <1>   0.1200 
 11 C        0.3290    -3.6280     0.9510 C.3   1 <1>   0.1200 
 12 S       -3.9140     0.3270    -2.1530 S.3   1 <1>  -0.0800 
 13 C       -3.9150    -0.0990    -0.4390 C.2   1 <1>  -0.0450 
 14 O        1.5330    -3.4800     1.6480 O.3   1 <1>  -0.5600 
 15 C       -5.1510    -0.2740     0.2910 C.2   1 <1>   0.7150 
 16 O       -5.1130    -0.2220     1.5070 O.2   1 <1>  -0.5700 
 17 N       -6.3640    -0.5200    -0.3360 N.am  1 <1>  -0.4770 
 18 C       -7.5930    -0.0330     0.1350 C.ar  1 <1>   0.1170 
 19 C       -6.4550    -1.4930    -1.4560 C.3   1 <1>   0.0600 
 20 C       -8.3420     0.8330    -0.6540 C.ar  1 <1>  -0.1500 
 21 C       -8.1000    -0.4080     1.3750 C.ar  1 <1>  -0.1500 
 22 C       -9.5670     1.3080    -0.2200 C.ar  1 <1>  -0.1500 
 23 C       -9.3240     0.0640     1.8130 C.ar  1 <1>  -0.1500 
 24 C      -10.0600     0.9230     1.0150 C.ar  1 <1>  -0.1500 
 25 H        1.5780    -0.1540     1.7810 H     1 <1>   0.0800 
 26 H        2.3850    -1.1280     0.5810 H     1 <1>   0.0800 
 27 H        0.9590    -2.6600    -0.8520 H     1 <1>   0.0800 
 28 H       -0.7660    -2.6310    -0.6030 H     1 <1>   0.0800 
 29 H       -1.7080     0.6240    -3.1560 H     1 <1>   0.1500 
 30 H       -2.3390    -0.3870     0.9950 H     1 <1>   0.1500 
 31 H        0.9040    -2.1490     3.0320 H     1 <1>   0.0800 
 32 H        2.6300    -2.2090     2.7530 H     1 <1>   0.0800 
 33 H        0.3370    -4.5980     0.4860 H     1 <1>   0.0800 
 34 H       -0.4850    -3.5850     1.6540 H     1 <1>   0.0800 
 35 H       -6.5820    -0.9670    -2.3850 H     1 <1>   0.0800 
 36 H       -7.3010    -2.1410    -1.3030 H     1 <1>   0.0800 
 37 H       -5.5650    -2.0970    -1.5050 H     1 <1>   0.0800 
 38 H       -7.9600     1.1380    -1.6100 H     1 <1>   0.1500 
 39 H       -7.5280    -1.0720     1.9980 H     1 <1>   0.1500 
 40 H      -10.1370     1.9780    -0.8400 H     1 <1>   0.1500 
 41 H       -9.7010    -0.2340     2.7760 H     1 <1>   0.1500 
 42 H      -11.0120     1.2920     1.3560 H     1 <1>   0.1500 
@<TRIPOS>BOND
  1   1   2  2   
  2   1   3  2   
  3   1   4  am  
  4   1   5  1   
  5   4   6  1   
  6   4   7  1   
  7   5   8  2   
  8   5   9  1   
  9   6  10  1   
 10   6  25  1   
 11   6  26  1   
 12   7  11  1   
 13   7  27  1   
 14   7  28  1   
 15   8  12  1   
 16   8  29  1   
 17   9  13  2   
 18   9  30  1   
 19  10  14  1   
 20  10  31  1   
 21  10  32  1   
 22  11  14  1   
 23  11  33  1   
 24  11  34  1   
 25  12  13  1   
 26  13  15  1   
 27  15  16  2   
 28  15  17  am  
 29  17  18  1   
 30  17  19  1   
 31  18  20  ar  
 32  18  21  ar  
 33  19  35  1   
 34  19  36  1   
 35  19  37  1   
 36  20  22  ar  
 37  20  38  1   
 38  21  23  ar  
 39  21  39  1   
 40  22  24  ar  
 41  22  40  1   
 42  23  24  ar  
 43  23  41  1   
 44  24  42  1   
@<TRIPOS>SUBSTRUCTURE
  1 ****  13 GROUP 4 **** **** 0

# MOE 2024.06 (io_trps.svl 2023.06)
