@<TRIPOS>MOLECULE
NONAME
21 20 1 0 0 
SMALL
USER_CHARGES


@<TRIPOS>ATOM
  1 F        1.0430    -2.6550    -2.1360 F     1 <1>  -0.3400 
  2 C        1.0500    -2.4350    -0.8290 C.3   1 <1>   1.1580 
  3 F        0.2490    -3.3620    -0.3070 F     1 <1>  -0.3400 
  4 F        0.4340    -1.2770    -0.6170 F     1 <1>  -0.3400 
  5 C        2.4880    -2.5030    -0.1990 C.2   1 <1>  -0.0380 
  6 N        2.8300    -3.6150     0.5500 N.pl3 1 <1>  -0.9000 
  7 C        3.3700    -1.4470    -0.3770 C.2   1 <1>   0.0290 
  8 C        3.0550    -0.2640    -1.1100 C.2   1 <1>   0.4950 
  9 C        4.7020    -1.4690     0.1330 C.2   1 <1>   0.4950 
 10 O        2.7210    -0.2980    -2.2680 O.2   1 <1>  -0.5700 
 11 C        3.1170     1.1050    -0.4630 C.3   1 <1>  -0.1790 
 12 O        5.1600    -0.6060     0.8400 O.2   1 <1>  -0.5700 
 13 C        5.6420    -2.6010    -0.2340 C.3   1 <1>  -0.1790 
 14 H        3.7200    -3.7490     1.0500 H     1 <1>   0.4000 
 15 H        2.1780    -4.4010     0.7090 H     1 <1>   0.4000 
 16 H        2.3090     1.7140    -0.8280 H     1 <1>   0.0800 
 17 H        4.0490     1.5780    -0.7110 H     1 <1>   0.0800 
 18 H        3.0350     1.0250     0.6050 H     1 <1>   0.0800 
 19 H        5.1990    -3.2470    -0.9700 H     1 <1>   0.0800 
 20 H        5.8850    -3.1690     0.6440 H     1 <1>   0.0800 
 21 H        6.5480    -2.1900    -0.6390 H     1 <1>   0.0800 
@<TRIPOS>BOND
  1   1   2  1   
  2   2   3  1   
  3   2   4  1   
  4   2   5  1   
  5   5   6  1   
  6   5   7  2   
  7   6  14  1   
  8   6  15  1   
  9   7   8  1   
 10   7   9  1   
 11   8  10  2   
 12   8  11  1   
 13   9  12  2   
 14   9  13  1   
 15  11  16  1   
 16  11  17  1   
 17  11  18  1   
 18  13  19  1   
 19  13  20  1   
 20  13  21  1   
@<TRIPOS>SUBSTRUCTURE
  1 ****   7 GROUP 4 **** **** 0

# MOE 2024.06 (io_trps.svl 2023.06)
