@<TRIPOS>MOLECULE
NONAME
47 50 1 0 0 
SMALL
USER_CHARGES


@<TRIPOS>ATOM
  1 F       -1.2780    -0.8870     1.5670 F     1 <1>  -0.1900 
  2 C       -2.5220    -0.7020     1.2050 C.ar  1 <1>   0.1900 
  3 C       -2.9800    -1.3190     0.0560 C.ar  1 <1>  -0.1500 
  4 C       -3.3320     0.1010     1.9860 C.ar  1 <1>  -0.1500 
  5 C       -4.2970    -1.1200    -0.3210 C.ar  1 <1>  -0.1500 
  6 C       -4.6460     0.2890     1.5950 C.ar  1 <1>  -0.1500 
  7 C       -5.1410    -0.3150     0.4440 C.ar  1 <1>   0.1000 
  8 N       -6.4650    -0.1030     0.0830 N.pl3 1 <1>  -0.8380 
  9 C       -6.6870     0.6800    -1.1670 C.3   1 <1>   0.2090 
 10 C       -7.3620    -1.2940     0.1440 C.3   1 <1>   0.2090 
 11 C       -8.1720     1.0590    -1.3240 C.3   1 <1>   0.1100 
 12 C       -8.8370    -0.8880    -0.0410 C.3   1 <1>   0.1100 
 13 N       -9.0570    -0.1270    -1.2970 N.3   1 <1>  -0.8100 
 14 C      -10.4780     0.2670    -1.4460 C.3   1 <1>   0.2900 
 15 C      -11.4320    -0.9210    -1.5270 C.2   1 <1>   0.2980 
 16 O      -11.3390    -1.7310    -2.5490 O.3   1 <1>  -0.0190 
 17 N      -12.3340    -1.2130    -0.6810 N.2   1 <1>  -0.5650 
 18 N      -12.2610    -2.6160    -2.3350 N.2   1 <1>  -0.4100 
 19 C      -12.8510    -2.3170    -1.2310 C.2   1 <1>   0.4620 
 20 C      -13.9430    -3.0620    -0.6260 C.ar  1 <1>   0.0540 
 21 C      -14.5470    -2.6480     0.5640 C.ar  1 <1>  -0.1500 
 22 C      -14.4340    -4.2300    -1.2130 C.ar  1 <1>  -0.1500 
 23 C      -15.5870    -3.3550     1.1430 C.ar  1 <1>  -0.1430 
 24 C      -15.4700    -4.9460    -0.6430 C.ar  1 <1>  -0.1500 
 25 C      -16.0470    -4.5100     0.5350 C.ar  1 <1>  -0.1500 
 26 C      -16.2190    -2.8750     2.4380 C.3   1 <1>  -0.0970 
 27 H       -2.3200    -1.9360    -0.5250 H     1 <1>   0.1500 
 28 H       -2.9410     0.5640     2.8730 H     1 <1>   0.1500 
 29 H       -4.6800    -1.5860    -1.2090 H     1 <1>   0.1500 
 30 H       -5.3070     0.9070     2.1760 H     1 <1>   0.1500 
 31 H       -6.3790     0.0990    -2.0190 H     1 <1>   0.0800 
 32 H       -6.0890     1.5740    -1.1350 H     1 <1>   0.0800 
 33 H       -7.2410    -1.7800     1.0960 H     1 <1>   0.0800 
 34 H       -7.0910    -1.9930    -0.6280 H     1 <1>   0.0800 
 35 H       -8.2970     1.5770    -2.2590 H     1 <1>   0.0800 
 36 H       -8.4370     1.7330    -0.5270 H     1 <1>   0.0800 
 37 H       -9.1380    -0.2950     0.8060 H     1 <1>   0.0800 
 38 H       -9.4330    -1.7850    -0.0490 H     1 <1>   0.0800 
 39 H      -10.5900     0.8430    -2.3470 H     1 <1>   0.0800 
 40 H      -10.7690     0.8870    -0.6150 H     1 <1>   0.0800 
 41 H      -14.1910    -1.7530     1.0420 H     1 <1>   0.1500 
 42 H      -13.9970    -4.5830    -2.1310 H     1 <1>   0.1500 
 43 H      -15.8290    -5.8430    -1.1170 H     1 <1>   0.1500 
 44 H      -16.8530    -5.0720     0.9750 H     1 <1>   0.1500 
 45 H      -16.0700    -1.8180     2.5640 H     1 <1>   0.0800 
 46 H      -15.7750    -3.3890     3.2710 H     1 <1>   0.0800 
 47 H      -17.2760    -3.0700     2.4320 H     1 <1>   0.0800 
@<TRIPOS>BOND
  1   1   2  1   
  2   2   3  ar  
  3   2   4  ar  
  4   3   5  ar  
  5   3  27  1   
  6   4   6  ar  
  7   4  28  1   
  8   5   7  ar  
  9   5  29  1   
 10   6   7  ar  
 11   6  30  1   
 12   7   8  1   
 13   8   9  1   
 14   8  10  1   
 15   9  11  1   
 16   9  31  1   
 17   9  32  1   
 18  10  12  1   
 19  10  33  1   
 20  10  34  1   
 21  11  13  1   
 22  11  35  1   
 23  11  36  1   
 24  12  13  1   
 25  12  37  1   
 26  12  38  1   
 27  13  14  1   
 28  14  15  1   
 29  14  39  1   
 30  14  40  1   
 31  15  16  1   
 32  15  17  2   
 33  16  18  1   
 34  17  19  1   
 35  18  19  2   
 36  19  20  1   
 37  20  21  ar  
 38  20  22  ar  
 39  21  23  ar  
 40  21  41  1   
 41  22  24  ar  
 42  22  42  1   
 43  23  25  ar  
 44  23  26  1   
 45  24  25  ar  
 46  24  43  1   
 47  25  44  1   
 48  26  45  1   
 49  26  46  1   
 50  26  47  1   
@<TRIPOS>SUBSTRUCTURE
  1 ****  12 GROUP 4 **** **** 0

# MOE 2024.06 (io_trps.svl 2023.06)
