@<TRIPOS>MOLECULE
NONAME
38 39 1 0 0 
SMALL
USER_CHARGES


@<TRIPOS>ATOM
  1 O        0.1580    -1.0100     1.8090 O.2   1 <1>  -0.5700 
  2 C        0.1000    -1.8510     0.9420 C.2   1 <1>   0.4950 
  3 C        1.2240    -2.2360     0.1410 C.2   1 <1>   0.0290 
  4 C       -1.2670    -2.4780     0.7490 C.3   1 <1>  -0.0990 
  5 C        1.0290    -3.2290    -0.8820 C.2   1 <1>   0.4950 
  6 C        2.4480    -1.6440     0.3780 C.2   1 <1>  -0.0500 
  7 C       -1.1640    -3.8900     0.1750 C.3   1 <1>   0.0640 
  8 O        1.8920    -3.6300    -1.6300 O.2   1 <1>  -0.5700 
  9 C       -0.3340    -3.8580    -1.1070 C.3   1 <1>  -0.0990 
 10 N        3.6030    -1.8930    -0.2830 N.pl3 1 <1>  -0.8690 
 11 C       -2.5430    -4.4960    -0.0670 C.ar  1 <1>  -0.1430 
 12 C        4.9060    -1.2710    -0.0420 C.3   1 <1>   0.2890 
 13 C       -3.4450    -3.9210    -0.9530 C.ar  1 <1>  -0.1500 
 14 C       -2.9140    -5.6490     0.6110 C.ar  1 <1>  -0.1500 
 15 C        5.3260    -0.5560    -1.3190 C.3   1 <1>  -0.2400 
 16 C        5.8880    -2.3720     0.3340 C.3   1 <1>  -0.2400 
 17 C       -4.6910    -4.4870    -1.1580 C.ar  1 <1>  -0.1500 
 18 C       -4.1590    -6.2170     0.4080 C.ar  1 <1>  -0.1500 
 19 C       -5.0490    -5.6360    -0.4770 C.ar  1 <1>  -0.1500 
 20 H       -1.8410    -1.8420     0.1010 H     1 <1>   0.0800 
 21 H       -1.7730    -2.5210     1.6980 H     1 <1>   0.0800 
 22 H        2.5120    -0.9060     1.1650 H     1 <1>   0.1500 
 23 H       -0.6400    -4.5010     0.8920 H     1 <1>   0.0800 
 24 H       -0.2020    -4.8650    -1.4620 H     1 <1>   0.0800 
 25 H       -0.8380    -3.3040    -1.8770 H     1 <1>   0.0800 
 26 H        3.5990    -2.5900    -1.0490 H     1 <1>   0.4000 
 27 H        4.8250    -0.5610     0.7650 H     1 <1>   0.0800 
 28 H       -3.1900    -3.0270    -1.4950 H     1 <1>   0.1500 
 29 H       -2.2370    -6.1190     1.3040 H     1 <1>   0.1500 
 30 H        5.4030    -1.2530    -2.1350 H     1 <1>   0.0800 
 31 H        6.2800    -0.0820    -1.1780 H     1 <1>   0.0800 
 32 H        4.6030     0.2000    -1.5670 H     1 <1>   0.0800 
 33 H        5.9720    -3.0910    -0.4610 H     1 <1>   0.0800 
 34 H        5.5520    -2.8680     1.2270 H     1 <1>   0.0800 
 35 H        6.8580    -1.9500     0.5230 H     1 <1>   0.0800 
 36 H       -5.3830    -4.0350    -1.8460 H     1 <1>   0.1500 
 37 H       -4.4370    -7.1120     0.9380 H     1 <1>   0.1500 
 38 H       -6.0180    -6.0780    -0.6350 H     1 <1>   0.1500 
@<TRIPOS>BOND
  1   1   2  2   
  2   2   3  1   
  3   2   4  1   
  4   3   5  1   
  5   3   6  2   
  6   4   7  1   
  7   4  20  1   
  8   4  21  1   
  9   5   8  2   
 10   5   9  1   
 11   6  10  1   
 12   6  22  1   
 13   7   9  1   
 14   7  11  1   
 15   7  23  1   
 16   9  24  1   
 17   9  25  1   
 18  10  12  1   
 19  10  26  1   
 20  11  13  ar  
 21  11  14  ar  
 22  12  15  1   
 23  12  16  1   
 24  12  27  1   
 25  13  17  ar  
 26  13  28  1   
 27  14  18  ar  
 28  14  29  1   
 29  15  30  1   
 30  15  31  1   
 31  15  32  1   
 32  16  33  1   
 33  16  34  1   
 34  16  35  1   
 35  17  19  ar  
 36  17  36  1   
 37  18  19  ar  
 38  18  37  1   
 39  19  38  1   
@<TRIPOS>SUBSTRUCTURE
  1 ****   5 GROUP 4 **** **** 0

# MOE 2024.06 (io_trps.svl 2023.06)
