@<TRIPOS>MOLECULE
NONAME
23 23 1 0 0 
SMALL
USER_CHARGES


@<TRIPOS>ATOM
  1 O       -0.1540    -0.9680    -1.8540 O.3   1 <1>  -0.6800 
  2 C        0.0960    -1.6870    -0.7060 C.3   1 <1>   0.4240 
  3 C       -1.2620    -2.1320    -0.1340 C.ar  1 <1>  -0.1440 
  4 C        0.7940    -0.7620     0.3030 C.3   1 <1>   0.0400 
  5 C        0.9760    -2.8620    -1.1570 C.3   1 <1>  -0.2400 
  6 C       -1.4330    -3.3720     0.4770 C.ar  1 <1>  -0.1500 
  7 C       -2.3600    -1.2780    -0.1950 C.ar  1 <1>  -0.1500 
  8 C        2.1230    -0.2710    -0.1500 C.1   1 <1>   0.3570 
  9 C       -2.6610    -3.7480     0.9950 C.ar  1 <1>  -0.1500 
 10 C       -3.5880    -1.6510     0.3220 C.ar  1 <1>  -0.1500 
 11 N        3.1600     0.0850    -0.4530 N.1   1 <1>  -0.5570 
 12 C       -3.7400    -2.8890     0.9170 C.ar  1 <1>  -0.1500 
 13 H       -0.7420    -1.4990    -2.4240 H     1 <1>   0.4000 
 14 H        0.9340    -1.2970     1.2240 H     1 <1>   0.0800 
 15 H        0.1640     0.0820     0.5100 H     1 <1>   0.0800 
 16 H        0.4070    -3.5440    -1.7620 H     1 <1>   0.0800 
 17 H        1.3560    -3.3960    -0.3060 H     1 <1>   0.0800 
 18 H        1.8180    -2.5130    -1.7290 H     1 <1>   0.0800 
 19 H       -0.6200    -4.0690     0.5660 H     1 <1>   0.1500 
 20 H       -2.2700    -0.3040    -0.6480 H     1 <1>   0.1500 
 21 H       -2.7770    -4.7110     1.4610 H     1 <1>   0.1500 
 22 H       -4.4250    -0.9770     0.2610 H     1 <1>   0.1500 
 23 H       -4.6950    -3.1810     1.3190 H     1 <1>   0.1500 
@<TRIPOS>BOND
  1   1   2  1   
  2   1  13  1   
  3   2   3  1   
  4   2   4  1   
  5   2   5  1   
  6   3   6  ar  
  7   3   7  ar  
  8   4   8  1   
  9   4  14  1   
 10   4  15  1   
 11   5  16  1   
 12   5  17  1   
 13   5  18  1   
 14   6   9  ar  
 15   6  19  1   
 16   7  10  ar  
 17   7  20  1   
 18   8  11  3   
 19   9  12  ar  
 20   9  21  1   
 21  10  12  ar  
 22  10  22  1   
 23  12  23  1   
@<TRIPOS>SUBSTRUCTURE
  1 ****   3 GROUP 4 **** **** 0

# MOE 2024.06 (io_trps.svl 2023.06)
