@<TRIPOS>MOLECULE
NONAME
42 43 1 0 0 
SMALL
USER_CHARGES


@<TRIPOS>ATOM
  1 S       -0.3860    -0.2520     0.6560 S.3   1 <1>  -0.2860 
  2 C        1.3500     0.0190     0.2890 C.2   1 <1>   0.2420 
  3 C       -0.5120    -2.1090     0.6870 C.3   1 <1>   0.1310 
  4 N        2.1930    -0.9300     0.0940 N.2   1 <1>  -0.3380 
  5 N        1.8800     1.2360     0.1890 N.pl3 1 <1>   0.0480 
  6 C       -1.9530    -2.5690     0.8450 C.2   1 <1>   0.5690 
  7 N        3.3590    -0.3270    -0.1550 N.2   1 <1>  -0.3380 
  8 C        3.1600     0.9510    -0.0980 C.2   1 <1>   0.0060 
  9 C        1.2010     2.5380     0.3490 C.3   1 <1>   0.0160 
 10 O       -2.1480    -3.6750     1.2880 O.2   1 <1>  -0.5700 
 11 N       -2.9530    -1.7160     0.4690 N.am  1 <1>  -0.5470 
 12 C        4.2250     2.0200    -0.3240 C.3   1 <1>   0.0200 
 13 C       -4.3570    -1.7970     0.4560 C.ar  1 <1>   0.1170 
 14 C        5.5850     1.4440    -0.7360 C.3   1 <1>  -0.2400 
 15 C       -5.0740    -0.6540     0.0830 C.ar  1 <1>   0.0830 
 16 C       -5.0590    -2.9500     0.7900 C.ar  1 <1>  -0.1500 
 17 O       -4.3460     0.4570    -0.2400 O.3   1 <1>  -0.3630 
 18 C       -6.4650    -0.6820     0.0530 C.ar  1 <1>  -0.1500 
 19 C       -6.4420    -2.9720     0.7580 C.ar  1 <1>  -0.1500 
 20 C       -4.9700     1.6670    -0.6000 C.3   1 <1>   0.1200 
 21 C       -7.1450    -1.8400     0.3910 C.ar  1 <1>  -0.1500 
 22 C       -3.8770     2.6950    -0.8720 C.3   1 <1>  -0.2400 
 23 H        0.0860    -2.4550     1.5100 H     1 <1>   0.0800 
 24 H       -0.1050    -2.4740    -0.2370 H     1 <1>   0.0800 
 25 H        0.5370     2.4930     1.1940 H     1 <1>   0.0800 
 26 H        0.6340     2.7520    -0.5390 H     1 <1>   0.0800 
 27 H        1.9240     3.3150     0.5110 H     1 <1>   0.0800 
 28 H       -2.6320    -0.7900     0.1710 H     1 <1>   0.3700 
 29 H        4.3480     2.5840     0.5840 H     1 <1>   0.0800 
 30 H        3.8870     2.6910    -1.0940 H     1 <1>   0.0800 
 31 H        5.9580     0.7880     0.0310 H     1 <1>   0.0800 
 32 H        6.2960     2.2360    -0.8890 H     1 <1>   0.0800 
 33 H        5.4890     0.8830    -1.6490 H     1 <1>   0.0800 
 34 H       -4.5320    -3.8410     1.0770 H     1 <1>   0.1500 
 35 H       -7.0390     0.1790    -0.2290 H     1 <1>   0.1500 
 36 H       -6.9690    -3.8730     1.0210 H     1 <1>   0.1500 
 37 H       -5.5970     1.9840     0.2160 H     1 <1>   0.0800 
 38 H       -5.5620     1.4960    -1.4830 H     1 <1>   0.0800 
 39 H       -8.2210    -1.8600     0.3670 H     1 <1>   0.1500 
 40 H       -3.2830     2.8440     0.0120 H     1 <1>   0.0800 
 41 H       -4.3210     3.6330    -1.1500 H     1 <1>   0.0800 
 42 H       -3.2480     2.3600    -1.6770 H     1 <1>   0.0800 
@<TRIPOS>BOND
  1   1   2  1   
  2   1   3  1   
  3   2   4  2   
  4   2   5  1   
  5   3   6  1   
  6   3  23  1   
  7   3  24  1   
  8   4   7  1   
  9   5   8  1   
 10   5   9  1   
 11   6  10  2   
 12   6  11  am  
 13   7   8  2   
 14   8  12  1   
 15   9  25  1   
 16   9  26  1   
 17   9  27  1   
 18  11  13  1   
 19  11  28  1   
 20  12  14  1   
 21  12  29  1   
 22  12  30  1   
 23  13  15  ar  
 24  13  16  ar  
 25  14  31  1   
 26  14  32  1   
 27  14  33  1   
 28  15  17  1   
 29  15  18  ar  
 30  16  19  ar  
 31  16  34  1   
 32  17  20  1   
 33  18  21  ar  
 34  18  35  1   
 35  19  21  ar  
 36  19  36  1   
 37  20  22  1   
 38  20  37  1   
 39  20  38  1   
 40  21  39  1   
 41  22  40  1   
 42  22  41  1   
 43  22  42  1   
@<TRIPOS>SUBSTRUCTURE
  1 ****   1 GROUP 4 **** **** 0

# MOE 2024.06 (io_trps.svl 2023.06)
