@<TRIPOS>MOLECULE
NONAME
32 32 1 0 0 
SMALL
USER_CHARGES


@<TRIPOS>ATOM
  1 O        0.5990     1.3020    -1.0870 O.2   1 <1>  -0.5700 
  2 C        0.2320     2.0000    -0.1620 C.2   1 <1>   0.5440 
  3 N        1.1100     2.2550     0.8540 N.am  1 <1>  -0.7300 
  4 C       -1.1020     2.5720    -0.1190 C.ar  1 <1>   0.0860 
  5 C        2.4730     1.6740     0.9730 C.3   1 <1>   0.1400 
  6 C       -2.2680     1.8030    -0.2190 C.ar  1 <1>  -0.1430 
  7 C       -1.2460     3.9500     0.0410 C.ar  1 <1>  -0.1500 
  8 C        3.4280     2.3270    -0.0260 C.3   1 <1>   0.1200 
  9 C       -3.5140     2.4080    -0.1560 C.ar  1 <1>  -0.1500 
 10 C       -2.1950     0.2910    -0.3950 C.3   1 <1>  -0.0970 
 11 C       -2.4910     4.5480     0.1060 C.ar  1 <1>  -0.1500 
 12 O        4.7290     1.9250     0.2770 O.3   1 <1>  -0.5600 
 13 C       -3.6350     3.7770     0.0060 C.ar  1 <1>  -0.1430 
 14 C        5.6800     2.3830    -0.6290 C.3   1 <1>   0.0400 
 15 C       -5.0080     4.4210     0.0750 C.3   1 <1>  -0.0970 
 16 H        0.7780     2.7830     1.6630 H     1 <1>   0.3700 
 17 H        2.4270     0.6170     0.7780 H     1 <1>   0.0800 
 18 H        2.8370     1.8320     1.9730 H     1 <1>   0.0800 
 19 H       -0.3650     4.5630     0.1100 H     1 <1>   0.1500 
 20 H        3.3780     3.3990     0.0520 H     1 <1>   0.0800 
 21 H        3.1860     2.0110    -1.0260 H     1 <1>   0.0800 
 22 H       -4.4040     1.8090    -0.2340 H     1 <1>   0.1500 
 23 H       -1.5500    -0.1410     0.3490 H     1 <1>   0.0800 
 24 H       -1.8010     0.0570    -1.3690 H     1 <1>   0.0800 
 25 H       -3.1660    -0.1600    -0.3040 H     1 <1>   0.0800 
 26 H       -2.5650     5.6140     0.2310 H     1 <1>   0.1500 
 27 H        6.6440     2.0280    -0.3100 H     1 <1>   0.0800 
 28 H        5.6730     3.4590    -0.6400 H     1 <1>   0.0800 
 29 H        5.4550     1.9910    -1.6070 H     1 <1>   0.0800 
 30 H       -5.6870     3.9220    -0.5940 H     1 <1>   0.0800 
 31 H       -4.9560     5.4570    -0.2080 H     1 <1>   0.0800 
 32 H       -5.3930     4.3520     1.0760 H     1 <1>   0.0800 
@<TRIPOS>BOND
  1   1   2  2   
  2   2   3  am  
  3   2   4  1   
  4   3   5  1   
  5   3  16  1   
  6   4   6  ar  
  7   4   7  ar  
  8   5   8  1   
  9   5  17  1   
 10   5  18  1   
 11   6   9  ar  
 12   6  10  1   
 13   7  11  ar  
 14   7  19  1   
 15   8  12  1   
 16   8  20  1   
 17   8  21  1   
 18   9  13  ar  
 19   9  22  1   
 20  10  23  1   
 21  10  24  1   
 22  10  25  1   
 23  11  13  ar  
 24  11  26  1   
 25  12  14  1   
 26  13  15  1   
 27  14  27  1   
 28  14  28  1   
 29  14  29  1   
 30  15  30  1   
 31  15  31  1   
 32  15  32  1   
@<TRIPOS>SUBSTRUCTURE
  1 ****   2 GROUP 4 **** **** 0

# MOE 2024.06 (io_trps.svl 2023.06)
