@<TRIPOS>MOLECULE
NONAME
34 33 1 0 0 
SMALL
USER_CHARGES


@<TRIPOS>ATOM
  1 O       -1.7140    -1.2090    -1.8890 O.2   1 <1>  -0.5700 
  2 C       -2.1300    -1.2160    -0.7500 C.2   1 <1>   0.7060 
  3 O       -1.6600    -2.1230     0.1090 O.3   1 <1>  -0.4300 
  4 C       -3.1080    -0.2800    -0.2590 C.2   1 <1>   0.0790 
  5 C       -0.6930    -3.0750    -0.2750 C.3   1 <1>   0.1200 
  6 C       -2.6310     1.0610    -0.4110 C.1   1 <1>   0.4920 
  7 C       -4.3200    -0.5820     0.2840 C.2   1 <1>  -0.2760 
  8 C       -0.4070    -3.9680     0.9280 C.3   1 <1>  -0.2400 
  9 N       -2.2700     2.1400    -0.4970 N.1   1 <1>  -0.5570 
 10 C       -4.8480    -2.0140     0.4480 C.3   1 <1>  -0.0220 
 11 C       -5.2800     0.4890     0.8160 C.3   1 <1>  -0.0220 
 12 C       -6.0580    -2.3010    -0.4480 C.3   1 <1>  -0.1600 
 13 C       -6.0550     1.1790    -0.3160 C.3   1 <1>  -0.1600 
 14 C       -6.4650    -3.7760    -0.3840 C.3   1 <1>  -0.2400 
 15 C       -7.0250     2.2290     0.2340 C.3   1 <1>  -0.2400 
 16 H       -1.0860    -3.6500    -1.0980 H     1 <1>   0.0800 
 17 H        0.1950    -2.5530    -0.5910 H     1 <1>   0.0800 
 18 H       -1.3040    -4.4740     1.2370 H     1 <1>   0.0800 
 19 H       -0.0250    -3.3800     1.7430 H     1 <1>   0.0800 
 20 H        0.3290    -4.7060     0.6640 H     1 <1>   0.0800 
 21 H       -4.0850    -2.7310     0.2090 H     1 <1>   0.0800 
 22 H       -5.1150    -2.1810     1.4780 H     1 <1>   0.0800 
 23 H       -5.9720     0.0530     1.5170 H     1 <1>   0.0800 
 24 H       -4.7240     1.2350     1.3580 H     1 <1>   0.0800 
 25 H       -6.8940    -1.7010    -0.1360 H     1 <1>   0.0800 
 26 H       -5.8180    -2.0430    -1.4660 H     1 <1>   0.0800 
 27 H       -5.3660     1.6610    -0.9880 H     1 <1>   0.0800 
 28 H       -6.6090     0.4540    -0.8840 H     1 <1>   0.0800 
 29 H       -6.7210    -4.0540     0.6230 H     1 <1>   0.0800 
 30 H       -5.6610    -4.4060    -0.7240 H     1 <1>   0.0800 
 31 H       -7.3200    -3.9490    -1.0130 H     1 <1>   0.0800 
 32 H       -6.4900     2.9870     0.7790 H     1 <1>   0.0800 
 33 H       -7.7460     1.7720     0.8900 H     1 <1>   0.0800 
 34 H       -7.5530     2.7010    -0.5760 H     1 <1>   0.0800 
@<TRIPOS>BOND
  1   1   2  2   
  2   2   3  1   
  3   2   4  1   
  4   3   5  1   
  5   4   6  1   
  6   4   7  2   
  7   5   8  1   
  8   5  16  1   
  9   5  17  1   
 10   6   9  3   
 11   7  10  1   
 12   7  11  1   
 13   8  18  1   
 14   8  19  1   
 15   8  20  1   
 16  10  12  1   
 17  10  21  1   
 18  10  22  1   
 19  11  13  1   
 20  11  23  1   
 21  11  24  1   
 22  12  14  1   
 23  12  25  1   
 24  12  26  1   
 25  13  15  1   
 26  13  27  1   
 27  13  28  1   
 28  14  29  1   
 29  14  30  1   
 30  14  31  1   
 31  15  32  1   
 32  15  33  1   
 33  15  34  1   
@<TRIPOS>SUBSTRUCTURE
  1 ****   4 GROUP 4 **** **** 0

# MOE 2024.06 (io_trps.svl 2023.06)
