@<TRIPOS>MOLECULE
NONAME
37 38 1 0 0 
SMALL
USER_CHARGES


@<TRIPOS>ATOM
  1 S        0.1330    -1.3810    -0.8700 S.o2  1 <1>   1.5010 
  2 O        0.9090    -1.9500    -1.9450 O.2   1 <1>  -0.6500 
  3 O       -0.7400    -2.2150    -0.0790 O.2   1 <1>  -0.6500 
  4 N       -0.8770    -0.2510    -1.6680 N.am  1 <1>  -0.7570 
  5 C        1.1610    -0.3340     0.1610 C.2   1 <1>  -0.0630 
  6 C       -1.9150     0.4130    -1.0290 C.ar  1 <1>   0.1990 
  7 C        0.8310     0.0500     1.4530 C.2   1 <1>   0.1390 
  8 C        2.3410     0.2940    -0.0700 C.2   1 <1>  -0.3020 
  9 C       -1.7950     1.7450    -0.6260 C.ar  1 <1>  -0.1430 
 10 C       -3.1050    -0.2630    -0.7880 C.ar  1 <1>  -0.1500 
 11 N        1.7150     0.8380     1.9850 N.2   1 <1>  -0.7070 
 12 N        2.6560     0.9880     1.0390 N.pl3 1 <1>   0.3140 
 13 C       -2.8590     2.3610     0.0120 C.ar  1 <1>  -0.1500 
 14 C       -0.5250     2.5560    -0.8600 C.3   1 <1>  -0.0970 
 15 C       -4.1640     0.3590    -0.1540 C.ar  1 <1>  -0.1500 
 16 C        3.8500     1.8320     1.2480 C.3   1 <1>   0.0960 
 17 C       -4.0430     1.6830     0.2520 C.ar  1 <1>   0.0830 
 18 C        3.6810     3.2020     0.5790 C.3   1 <1>  -0.2400 
 19 O       -5.0280     2.3770     0.8840 O.3   1 <1>  -0.3620 
 20 C       -6.2430     1.7510     1.2320 C.3   1 <1>   0.0400 
 21 H       -1.0880    -0.6270    -2.5850 H     1 <1>   0.4200 
 22 H       -0.0660    -0.2660     1.9640 H     1 <1>   0.1500 
 23 H        2.9530     0.2810    -0.9530 H     1 <1>   0.1500 
 24 H       -3.1970    -1.2910    -1.0920 H     1 <1>   0.1500 
 25 H       -2.7840     3.3840     0.3350 H     1 <1>   0.1500 
 26 H       -0.0060     2.2220    -1.7400 H     1 <1>   0.0800 
 27 H        0.1290     2.4620    -0.0130 H     1 <1>   0.0800 
 28 H       -0.7650     3.5950    -0.9910 H     1 <1>   0.0800 
 29 H       -5.0650    -0.2000     0.0160 H     1 <1>   0.1500 
 30 H        4.7050     1.3210     0.8440 H     1 <1>   0.0800 
 31 H        3.9930     1.9550     2.3070 H     1 <1>   0.0800 
 32 H        3.5510     3.0900    -0.4830 H     1 <1>   0.0800 
 33 H        4.5550     3.8030     0.7560 H     1 <1>   0.0800 
 34 H        2.8280     3.7100     0.9930 H     1 <1>   0.0800 
 35 H       -6.8560     2.4730     1.7410 H     1 <1>   0.0800 
 36 H       -6.0340     0.9230     1.8870 H     1 <1>   0.0800 
 37 H       -6.7350     1.4200     0.3350 H     1 <1>   0.0800 
@<TRIPOS>BOND
  1   1   2  2   
  2   1   3  2   
  3   1   4  am  
  4   1   5  1   
  5   4   6  1   
  6   4  21  1   
  7   5   7  1   
  8   5   8  2   
  9   6   9  ar  
 10   6  10  ar  
 11   7  11  2   
 12   7  22  1   
 13   8  12  1   
 14   8  23  1   
 15   9  13  ar  
 16   9  14  1   
 17  10  15  ar  
 18  10  24  1   
 19  11  12  1   
 20  12  16  1   
 21  13  17  ar  
 22  13  25  1   
 23  14  26  1   
 24  14  27  1   
 25  14  28  1   
 26  15  17  ar  
 27  15  29  1   
 28  16  18  1   
 29  16  30  1   
 30  16  31  1   
 31  17  19  1   
 32  18  32  1   
 33  18  33  1   
 34  18  34  1   
 35  19  20  1   
 36  20  35  1   
 37  20  36  1   
 38  20  37  1   
@<TRIPOS>SUBSTRUCTURE
  1 ****   6 GROUP 4 **** **** 0

# MOE 2024.06 (io_trps.svl 2023.06)
