@<TRIPOS>MOLECULE
NONAME
28 28 1 0 0 
SMALL
USER_CHARGES


@<TRIPOS>ATOM
  1 I       -0.3020     0.2690     0.1620 I     1 <1>  -0.0810 
  2 C        1.5340    -0.7980     0.1140 C.ar  1 <1>   0.0810 
  3 C        2.7120    -0.1090     0.3260 C.ar  1 <1>  -0.1500 
  4 C        1.5080    -2.1590    -0.1230 C.ar  1 <1>  -0.1500 
  5 C        3.9030    -0.8130     0.2920 C.ar  1 <1>  -0.1500 
  6 C        2.7100    -2.8430    -0.1540 C.ar  1 <1>  -0.1500 
  7 C        3.9320    -2.1910     0.0450 C.ar  1 <1>   0.0860 
  8 C        5.1810    -2.9320    -0.0040 C.2   1 <1>   0.5440 
  9 O        5.2180    -4.1080     0.2970 O.2   1 <1>  -0.5700 
 10 N        6.3360    -2.3220    -0.4090 N.am  1 <1>  -0.7300 
 11 C        7.6730    -2.9570    -0.4630 C.3   1 <1>   0.1400 
 12 C        8.7410    -2.0120     0.1110 C.3   1 <1>  -0.0800 
 13 C        8.8450    -0.6960    -0.6770 C.3   1 <1>  -0.2400 
 14 C       10.1060    -2.7110     0.1200 C.3   1 <1>  -0.2400 
 15 H        2.6990     0.9500     0.5150 H     1 <1>   0.1500 
 16 H        0.5760    -2.6730    -0.2800 H     1 <1>   0.1500 
 17 H        4.8240    -0.2870     0.4700 H     1 <1>   0.1500 
 18 H        2.7140    -3.9050    -0.3340 H     1 <1>   0.1500 
 19 H        6.2950    -1.3760    -0.7860 H     1 <1>   0.3700 
 20 H        7.9050    -3.2000    -1.4860 H     1 <1>   0.0800 
 21 H        7.6600    -3.8730     0.1030 H     1 <1>   0.0800 
 22 H        8.4770    -1.7900     1.1320 H     1 <1>   0.0800 
 23 H        9.0600    -0.8920    -1.7130 H     1 <1>   0.0800 
 24 H        9.6330    -0.0840    -0.2750 H     1 <1>   0.0800 
 25 H        7.9290    -0.1370    -0.6130 H     1 <1>   0.0800 
 26 H       10.4150    -2.9560    -0.8810 H     1 <1>   0.0800 
 27 H       10.0560    -3.6190     0.6950 H     1 <1>   0.0800 
 28 H       10.8510    -2.0740     0.5630 H     1 <1>   0.0800 
@<TRIPOS>BOND
  1   1   2  1   
  2   2   3  ar  
  3   2   4  ar  
  4   3   5  ar  
  5   3  15  1   
  6   4   6  ar  
  7   4  16  1   
  8   5   7  ar  
  9   5  17  1   
 10   6   7  ar  
 11   6  18  1   
 12   7   8  1   
 13   8   9  2   
 14   8  10  am  
 15  10  11  1   
 16  10  19  1   
 17  11  12  1   
 18  11  20  1   
 19  11  21  1   
 20  12  13  1   
 21  12  14  1   
 22  12  22  1   
 23  13  23  1   
 24  13  24  1   
 25  13  25  1   
 26  14  26  1   
 27  14  27  1   
 28  14  28  1   
@<TRIPOS>SUBSTRUCTURE
  1 ****   7 GROUP 4 **** **** 0

# MOE 2024.06 (io_trps.svl 2023.06)
