@<TRIPOS>MOLECULE
NONAME
48 51 1 0 0 
SMALL
USER_CHARGES


@<TRIPOS>ATOM
  1 O       -1.2940     0.4390    -0.2490 O.2   1 <1>  -0.5700 
  2 C       -1.3550    -0.6070     0.3490 C.2   1 <1>   0.5690 
  3 N       -0.6850    -1.7350     0.0160 N.am  1 <1>  -0.4200 
  4 C       -2.1750    -0.8110     1.6110 C.3   1 <1>  -0.0190 
  5 C       -0.8970    -2.7270     0.9110 C.2   1 <1>   0.5690 
  6 C        0.2430    -1.8390    -1.1180 C.3   1 <1>   0.2840 
  7 C       -1.8490    -2.2810     2.0070 C.3   1 <1>  -0.0190 
  8 C       -3.6640    -0.5260     1.3350 C.3   1 <1>  -0.0220 
  9 O       -0.3810    -3.8160     0.8720 O.2   1 <1>  -0.5700 
 10 C        1.6280    -1.4080    -0.6710 C.ar  1 <1>  -0.1440 
 11 C       -3.0710    -3.2140     2.0710 C.3   1 <1>  -0.0220 
 12 C       -4.3000    -1.6750     0.5560 C.2   1 <1>  -0.2760 
 13 C        2.5090    -2.3300    -0.1260 C.ar  1 <1>   0.1600 
 14 C        2.0280    -0.0920    -0.7910 C.ar  1 <1>  -0.1500 
 15 C       -3.9970    -2.9330     0.9000 C.2   1 <1>  -0.2760 
 16 C       -5.2610    -1.3120    -0.5870 C.3   1 <1>   0.1380 
 17 N        3.7360    -2.0510     0.2870 N.ar  1 <1>  -0.6200 
 18 C        3.3020     0.2160    -0.3630 C.ar  1 <1>  -0.1500 
 19 C       -4.5320    -4.1710     0.1940 C.3   1 <1>  -0.0220 
 20 C       -6.0340    -2.5690    -1.0490 C.3   1 <1>  -0.1600 
 21 C       -4.4480    -0.7380    -1.7580 C.3   1 <1>  -0.2400 
 22 C       -6.3010    -0.2740    -0.1340 C.3   1 <1>  -0.2400 
 23 C        4.1020    -0.7860     0.1580 C.ar  1 <1>   0.1600 
 24 C       -5.1460    -3.8160    -1.1640 C.3   1 <1>  -0.1600 
 25 H       -1.8100    -0.1320     2.3580 H     1 <1>   0.0800 
 26 H       -0.1010    -1.2090    -1.9210 H     1 <1>   0.0800 
 27 H        0.2650    -2.8550    -1.4730 H     1 <1>   0.0800 
 28 H       -1.3190    -2.3110     2.9410 H     1 <1>   0.0800 
 29 H       -3.7370     0.4070     0.8050 H     1 <1>   0.0800 
 30 H       -4.1920    -0.4100     2.2640 H     1 <1>   0.0800 
 31 H       -3.6120    -3.0460     2.9850 H     1 <1>   0.0800 
 32 H       -2.7400    -4.2380     2.0710 H     1 <1>   0.0800 
 33 H        2.1880    -3.3540    -0.0200 H     1 <1>   0.1500 
 34 H        1.3750     0.6650    -1.1940 H     1 <1>   0.1500 
 35 H        3.6710     1.2220    -0.4310 H     1 <1>   0.1500 
 36 H       -5.2750    -4.6340     0.8200 H     1 <1>   0.0800 
 37 H       -3.7380    -4.8790     0.0340 H     1 <1>   0.0800 
 38 H       -6.5150    -2.3800    -1.9920 H     1 <1>   0.0800 
 39 H       -6.8080    -2.7870    -0.3330 H     1 <1>   0.0800 
 40 H       -3.6790    -1.4270    -2.0530 H     1 <1>   0.0800 
 41 H       -3.9740     0.1860    -1.4810 H     1 <1>   0.0800 
 42 H       -5.0840    -0.5470    -2.6030 H     1 <1>   0.0800 
 43 H       -6.8030    -0.6190     0.7530 H     1 <1>   0.0800 
 44 H       -7.0350    -0.1200    -0.9050 H     1 <1>   0.0800 
 45 H       -5.8460     0.6750     0.0800 H     1 <1>   0.0800 
 46 H        5.0960    -0.5340     0.4870 H     1 <1>   0.1500 
 47 H       -5.7260    -4.6470    -1.5230 H     1 <1>   0.0800 
 48 H       -4.3580    -3.6340    -1.8720 H     1 <1>   0.0800 
@<TRIPOS>BOND
  1   1   2  2   
  2   2   3  am  
  3   2   4  1   
  4   3   5  am  
  5   3   6  1   
  6   4   7  1   
  7   4   8  1   
  8   4  25  1   
  9   5   7  1   
 10   5   9  2   
 11   6  10  1   
 12   6  26  1   
 13   6  27  1   
 14   7  11  1   
 15   7  28  1   
 16   8  12  1   
 17   8  29  1   
 18   8  30  1   
 19  10  13  ar  
 20  10  14  ar  
 21  11  15  1   
 22  11  31  1   
 23  11  32  1   
 24  12  15  2   
 25  12  16  1   
 26  13  17  ar  
 27  13  33  1   
 28  14  18  ar  
 29  14  34  1   
 30  15  19  1   
 31  16  20  1   
 32  16  21  1   
 33  16  22  1   
 34  17  23  ar  
 35  18  23  ar  
 36  18  35  1   
 37  19  24  1   
 38  19  36  1   
 39  19  37  1   
 40  20  24  1   
 41  20  38  1   
 42  20  39  1   
 43  21  40  1   
 44  21  41  1   
 45  21  42  1   
 46  22  43  1   
 47  22  44  1   
 48  22  45  1   
 49  23  46  1   
 50  24  47  1   
 51  24  48  1   
@<TRIPOS>SUBSTRUCTURE
  1 ****   3 GROUP 4 **** **** 0

# MOE 2024.06 (io_trps.svl 2023.06)
