@<TRIPOS>MOLECULE
NONAME
36 36 1 0 0 
SMALL
USER_CHARGES


@<TRIPOS>ATOM
  1 O        0.5640     3.4030     0.9420 O.2   1 <1>  -0.5700 
  2 C        0.9770     2.3040     0.6170 C.2   1 <1>   0.5440 
  3 N        0.0480     1.3270     0.3940 N.am  1 <1>  -0.7300 
  4 C        2.4090     2.0570     0.4920 C.ar  1 <1>   0.0860 
  5 C       -1.4170     1.4730     0.4320 C.3   1 <1>   0.1400 
  6 C        2.9770     0.9130    -0.1070 C.ar  1 <1>   0.0820 
  7 C        3.3010     3.0110     0.9960 C.ar  1 <1>  -0.1500 
  8 C       -2.0030     0.7580    -0.7790 C.3   1 <1>  -0.2400 
  9 O        2.1550    -0.0410    -0.6200 O.3   1 <1>  -0.3630 
 10 C        4.3600     0.7650    -0.1740 C.ar  1 <1>  -0.1500 
 11 C        4.6710     2.8620     0.9260 C.ar  1 <1>  -0.1500 
 12 C        2.6190    -1.1690    -1.3270 C.3   1 <1>   0.1200 
 13 C        5.2110     1.7260     0.3350 C.ar  1 <1>   0.0820 
 14 C        1.4010    -1.9600    -1.7920 C.3   1 <1>  -0.2400 
 15 O        6.5380     1.4930     0.2230 O.3   1 <1>  -0.3630 
 16 C        7.4960     2.4070     0.7050 C.3   1 <1>   0.1200 
 17 C        8.8810     1.8370     0.4160 C.3   1 <1>  -0.2400 
 18 H        0.4080     0.4300     0.0520 H     1 <1>   0.3700 
 19 H       -1.6850     2.5170     0.4120 H     1 <1>   0.0800 
 20 H       -1.7930     1.0390     1.3420 H     1 <1>   0.0800 
 21 H        2.9030     3.8990     1.4580 H     1 <1>   0.1500 
 22 H       -1.6220     1.1950    -1.6850 H     1 <1>   0.0800 
 23 H       -3.0730     0.8600    -0.7750 H     1 <1>   0.0800 
 24 H       -1.7580    -0.2890    -0.7530 H     1 <1>   0.0800 
 25 H        4.8170    -0.0960    -0.6200 H     1 <1>   0.1500 
 26 H        5.2970     3.6330     1.3320 H     1 <1>   0.1500 
 27 H        3.2290    -1.7610    -0.6660 H     1 <1>   0.0800 
 28 H        3.1990    -0.8300    -2.1690 H     1 <1>   0.0800 
 29 H        0.8240    -2.2850    -0.9450 H     1 <1>   0.0800 
 30 H        1.7190    -2.8260    -2.3430 H     1 <1>   0.0800 
 31 H        0.7880    -1.3520    -2.4350 H     1 <1>   0.0800 
 32 H        7.3480     2.5280     1.7640 H     1 <1>   0.0800 
 33 H        7.3570     3.3460     0.1970 H     1 <1>   0.0800 
 34 H        9.0030     0.8910     0.9140 H     1 <1>   0.0800 
 35 H        9.6360     2.5130     0.7730 H     1 <1>   0.0800 
 36 H        9.0120     1.7040    -0.6430 H     1 <1>   0.0800 
@<TRIPOS>BOND
  1   1   2  2   
  2   2   3  am  
  3   2   4  1   
  4   3   5  1   
  5   3  18  1   
  6   4   6  ar  
  7   4   7  ar  
  8   5   8  1   
  9   5  19  1   
 10   5  20  1   
 11   6   9  1   
 12   6  10  ar  
 13   7  11  ar  
 14   7  21  1   
 15   8  22  1   
 16   8  23  1   
 17   8  24  1   
 18   9  12  1   
 19  10  13  ar  
 20  10  25  1   
 21  11  13  ar  
 22  11  26  1   
 23  12  14  1   
 24  12  27  1   
 25  12  28  1   
 26  13  15  1   
 27  14  29  1   
 28  14  30  1   
 29  14  31  1   
 30  15  16  1   
 31  16  17  1   
 32  16  32  1   
 33  16  33  1   
 34  17  34  1   
 35  17  35  1   
 36  17  36  1   
@<TRIPOS>SUBSTRUCTURE
  1 ****   6 GROUP 4 **** **** 0

# MOE 2024.06 (io_trps.svl 2023.06)
