@<TRIPOS>MOLECULE
Structure1942
21 21 1 0 0 
SMALL
USER_CHARGES


@<TRIPOS>ATOM
  1 O       -0.0890    -0.1440     0.0110 O.2   1 <1>  -0.5700 
  2 C       -0.0090    -1.3570     0.0100 C.2   1 <1>   0.8060 
  3 O       -1.1360    -2.0760     0.0100 O.3   1 <1>  -0.4300 
  4 C        1.2380    -2.0820     0.0090 C.2   1 <1>  -0.0860 
  5 C       -2.4040    -1.4610     0.0110 C.3   1 <1>   0.1200 
  6 C        2.5480    -1.6870     0.0080 C.2   1 <1>  -0.3320 
  7 C        1.3300    -3.4780     0.0080 C.2   1 <1>   0.1390 
  8 C       -3.4620    -2.5600     0.0110 C.3   1 <1>  -0.2400 
  9 N        3.3020    -2.7990     0.0070 N.pl3 1 <1>   0.3000 
 10 C        3.1460    -0.2880     0.0080 C.3   1 <1>  -0.0600 
 11 N        2.5500    -3.9110     0.0070 N.2   1 <1>  -0.7070 
 12 H       -2.4870    -0.8450    -0.8690 H     1 <1>   0.0800 
 13 H       -2.4860    -0.8470     0.8920 H     1 <1>   0.0800 
 14 H        0.4750    -4.1340     0.0080 H     1 <1>   0.1500 
 15 H       -3.3620    -3.1710    -0.8690 H     1 <1>   0.0800 
 16 H       -4.4420    -2.1200     0.0110 H     1 <1>   0.0800 
 17 H       -3.3610    -3.1730     0.8890 H     1 <1>   0.0800 
 18 H        4.3290    -2.8390     0.0060 H     1 <1>   0.2700 
 19 H        2.3770     0.4630     0.0090 H     1 <1>   0.0800 
 20 H        3.7540    -0.1440    -0.8670 H     1 <1>   0.0800 
 21 H        3.7550    -0.1450     0.8830 H     1 <1>   0.0800 
@<TRIPOS>BOND
  1   1   2  2   
  2   2   3  1   
  3   2   4  1   
  4   3   5  1   
  5   4   6  2   
  6   4   7  1   
  7   5   8  1   
  8   5  12  1   
  9   5  13  1   
 10   6   9  1   
 11   6  10  1   
 12   7  11  2   
 13   7  14  1   
 14   8  15  1   
 15   8  16  1   
 16   8  17  1   
 17   9  11  1   
 18   9  18  1   
 19  10  19  1   
 20  10  20  1   
 21  10  21  1   
@<TRIPOS>SUBSTRUCTURE
  1 ****   4 GROUP 4 **** **** 0

# MOE 2024.06 (io_trps.svl 2023.06)
