@<TRIPOS>MOLECULE
NONAME
40 43 1 0 0 
SMALL
USER_CHARGES


@<TRIPOS>ATOM
  1 CL      -3.6610    -2.1120     2.3840 Cl    1 <1>  -0.1770 
  2 C       -2.9400    -2.3400     0.8050 C.ar  1 <1>   0.1770 
  3 C       -3.0790    -1.3450    -0.1650 C.ar  1 <1>   0.1170 
  4 C       -2.2450    -3.5140     0.5710 C.ar  1 <1>  -0.1500 
  5 N       -3.8060    -0.1750     0.1320 N.am  1 <1>  -0.5470 
  6 C       -2.4930    -1.5740    -1.4080 C.ar  1 <1>  -0.1500 
  7 C       -1.6660    -3.7220    -0.6700 C.ar  1 <1>  -0.1500 
  8 C       -3.7900     1.0710    -0.4410 C.2   1 <1>   0.5690 
  9 C       -1.7990    -2.7470    -1.6420 C.ar  1 <1>   0.1770 
 10 O       -3.0670     1.3590    -1.3620 O.2   1 <1>  -0.5700 
 11 C       -4.6970     2.1600     0.1280 C.3   1 <1>   0.2010 
 12 CL      -1.0750    -3.0120    -3.2070 Cl    1 <1>  -0.1770 
 13 N       -6.1450     1.8090     0.0850 N.am  1 <1>  -0.4200 
 14 C       -7.0780     2.4900    -0.6720 C.2   1 <1>   0.5690 
 15 C       -6.7090     0.7890     0.8220 C.2   1 <1>   0.5690 
 16 O       -6.8560     3.3190    -1.5140 O.2   1 <1>  -0.5700 
 17 C       -8.4450     2.0790    -0.1820 C.3   1 <1>  -0.0190 
 18 O       -6.1600     0.1550     1.6860 O.2   1 <1>  -0.5700 
 19 C       -8.0950     0.5480     0.2790 C.3   1 <1>  -0.0190 
 20 C      -10.0360     2.1370    -0.5830 C.3   1 <1>  -0.0800 
 21 C       -9.5070    -0.2150     0.6240 C.3   1 <1>  -0.0800 
 22 C       -9.8080     0.9520     0.0200 C.3   1 <1>  -0.1600 
 23 C      -11.4640     1.3410    -0.3800 C.3   1 <1>  -0.1600 
 24 C      -11.1320    -0.1340     0.3630 C.3   1 <1>  -0.1600 
 25 H       -2.1610    -4.2520     1.3490 H     1 <1>   0.1500 
 26 H       -4.4360    -0.2690     0.9450 H     1 <1>   0.3700 
 27 H       -2.5720    -0.8530    -2.2000 H     1 <1>   0.1500 
 28 H       -1.1190    -4.6230    -0.8840 H     1 <1>   0.1500 
 29 H       -4.5350     3.0650    -0.4310 H     1 <1>   0.0800 
 30 H       -4.4130     2.3460     1.1480 H     1 <1>   0.0800 
 31 H       -8.4230     2.6960     0.7150 H     1 <1>   0.0800 
 32 H       -7.7680     0.0130    -0.6120 H     1 <1>   0.0800 
 33 H      -10.3010     3.0500    -0.0720 H     1 <1>   0.0800 
 34 H       -9.3210    -1.1460     0.1100 H     1 <1>   0.0800 
 35 H       -9.9490     1.4080     1.1000 H     1 <1>   0.0800 
 36 H       -9.6930     0.4910    -1.0620 H     1 <1>   0.0800 
 37 H      -11.9450     1.1850    -1.3340 H     1 <1>   0.0800 
 38 H      -12.1440     1.9150     0.2320 H     1 <1>   0.0800 
 39 H      -11.6670    -0.2170     1.2970 H     1 <1>   0.0800 
 40 H      -11.4640    -0.9460    -0.2690 H     1 <1>   0.0800 
@<TRIPOS>BOND
  1   1   2  1   
  2   2   3  ar  
  3   2   4  ar  
  4   3   5  1   
  5   3   6  ar  
  6   4   7  ar  
  7   4  25  1   
  8   5   8  am  
  9   5  26  1   
 10   6   9  ar  
 11   6  27  1   
 12   7   9  ar  
 13   7  28  1   
 14   8  10  2   
 15   8  11  1   
 16   9  12  1   
 17  11  13  1   
 18  11  29  1   
 19  11  30  1   
 20  13  14  am  
 21  13  15  am  
 22  14  16  2   
 23  14  17  1   
 24  15  18  2   
 25  15  19  1   
 26  17  19  1   
 27  17  20  1   
 28  17  31  1   
 29  19  21  1   
 30  19  32  1   
 31  20  22  1   
 32  20  23  1   
 33  20  33  1   
 34  21  22  1   
 35  21  24  1   
 36  21  34  1   
 37  22  35  1   
 38  22  36  1   
 39  23  24  1   
 40  23  37  1   
 41  23  38  1   
 42  24  39  1   
 43  24  40  1   
@<TRIPOS>SUBSTRUCTURE
  1 ****  15 GROUP 4 **** **** 0

# MOE 2024.06 (io_trps.svl 2023.06)
