@<TRIPOS>MOLECULE
NONAME
53 55 1 0 0 
SMALL
USER_CHARGES


@<TRIPOS>ATOM
  1 O        0.0690     0.5320     2.2450 O.2   1 <1>  -0.5700 
  2 C        0.1160     1.6650     1.8080 C.2   1 <1>   0.5440 
  3 N        1.2810     2.3910     1.9540 N.am  1 <1>  -0.6600 
  4 C       -1.0470     2.2230     1.1440 C.ar  1 <1>   0.0860 
  5 C        2.5810     1.7250     2.2280 C.3   1 <1>   0.1400 
  6 C        1.3360     3.8770     1.9290 C.3   1 <1>   0.1400 
  7 C       -0.9470     2.7790    -0.1300 C.ar  1 <1>  -0.1500 
  8 C       -2.2980     2.2200     1.7590 C.ar  1 <1>  -0.1500 
  9 C        3.5970     2.1540     1.1650 C.3   1 <1>  -0.1600 
 10 C        2.3390     4.3310     0.8660 C.3   1 <1>  -0.1600 
 11 C       -2.0500     3.3410    -0.7610 C.ar  1 <1>   0.0830 
 12 C       -3.4040     2.7710     1.1370 C.ar  1 <1>  -0.1500 
 13 C        3.7250     3.6870     1.0740 C.3   1 <1>  -0.0190 
 14 O       -2.0040     3.9080    -1.9910 O.3   1 <1>  -0.3630 
 15 C       -3.2780     3.3350    -0.1190 C.ar  1 <1>  -0.1500 
 16 C        4.7090     4.0830    -0.0270 C.2   1 <1>   0.5690 
 17 C       -0.8100     3.9360    -2.7440 C.3   1 <1>   0.0400 
 18 O        4.3320     4.0830    -1.1740 O.2   1 <1>  -0.5700 
 19 N        5.9850     4.4010     0.3540 N.am  1 <1>  -0.5470 
 20 C        7.1030     4.8130    -0.3890 C.ar  1 <1>   0.1170 
 21 C        7.0130     5.3580    -1.6660 C.ar  1 <1>  -0.1500 
 22 C        8.3620     4.6850     0.1860 C.ar  1 <1>  -0.1500 
 23 C        8.1450     5.7580    -2.3540 C.ar  1 <1>  -0.1430 
 24 C        9.5030     5.0860    -0.4880 C.ar  1 <1>  -0.1430 
 25 C        9.3880     5.6210    -1.7600 C.ar  1 <1>  -0.1500 
 26 C        8.0290     6.3470    -3.7480 C.3   1 <1>  -0.0970 
 27 C       10.8750     4.9410     0.1460 C.3   1 <1>  -0.0970 
 28 H        2.4700     0.6540     2.2060 H     1 <1>   0.0800 
 29 H        2.9210     2.0060     3.2100 H     1 <1>   0.0800 
 30 H        1.6490     4.2270     2.8980 H     1 <1>   0.0800 
 31 H        0.3670     4.2970     1.7250 H     1 <1>   0.0800 
 32 H        0.0130     2.7560    -0.6090 H     1 <1>   0.1500 
 33 H       -2.3940     1.7750     2.7350 H     1 <1>   0.1500 
 34 H        3.2850     1.7610     0.2130 H     1 <1>   0.0800 
 35 H        4.5540     1.7190     1.3960 H     1 <1>   0.0800 
 36 H        2.4300     5.4020     0.8960 H     1 <1>   0.0800 
 37 H        1.9560     4.0680    -0.1050 H     1 <1>   0.0800 
 38 H       -4.3620     2.7610     1.6290 H     1 <1>   0.1500 
 39 H        4.1090     4.0450     2.0120 H     1 <1>   0.0800 
 40 H       -4.1290     3.7690    -0.6120 H     1 <1>   0.1500 
 41 H       -1.0170     4.4210    -3.6810 H     1 <1>   0.0800 
 42 H       -0.4840     2.9260    -2.9200 H     1 <1>   0.0800 
 43 H       -0.0660     4.4920    -2.2020 H     1 <1>   0.0800 
 44 H        6.1770     4.2830     1.3450 H     1 <1>   0.3700 
 45 H        6.0510     5.4750    -2.1280 H     1 <1>   0.1500 
 46 H        8.4520     4.2660     1.1700 H     1 <1>   0.1500 
 47 H       10.2700     5.9320    -2.2910 H     1 <1>   0.1500 
 48 H        7.1010     6.0550    -4.2070 H     1 <1>   0.0800 
 49 H        8.8360     6.0000    -4.3670 H     1 <1>   0.0800 
 50 H        8.0660     7.4200    -3.6940 H     1 <1>   0.0800 
 51 H       10.7930     4.7330     1.1970 H     1 <1>   0.0800 
 52 H       11.4360     5.8500     0.0210 H     1 <1>   0.0800 
 53 H       11.4090     4.1350    -0.3250 H     1 <1>   0.0800 
@<TRIPOS>BOND
  1   1   2  2   
  2   2   3  am  
  3   2   4  1   
  4   3   5  1   
  5   3   6  1   
  6   4   7  ar  
  7   4   8  ar  
  8   5   9  1   
  9   5  28  1   
 10   5  29  1   
 11   6  10  1   
 12   6  30  1   
 13   6  31  1   
 14   7  11  ar  
 15   7  32  1   
 16   8  12  ar  
 17   8  33  1   
 18   9  13  1   
 19   9  34  1   
 20   9  35  1   
 21  10  13  1   
 22  10  36  1   
 23  10  37  1   
 24  11  14  1   
 25  11  15  ar  
 26  12  15  ar  
 27  12  38  1   
 28  13  16  1   
 29  13  39  1   
 30  14  17  1   
 31  15  40  1   
 32  16  18  2   
 33  16  19  am  
 34  17  41  1   
 35  17  42  1   
 36  17  43  1   
 37  19  20  1   
 38  19  44  1   
 39  20  21  ar  
 40  20  22  ar  
 41  21  23  ar  
 42  21  45  1   
 43  22  24  ar  
 44  22  46  1   
 45  23  25  ar  
 46  23  26  1   
 47  24  25  ar  
 48  24  27  1   
 49  25  47  1   
 50  26  48  1   
 51  26  49  1   
 52  26  50  1   
 53  27  51  1   
 54  27  52  1   
 55  27  53  1   
@<TRIPOS>SUBSTRUCTURE
  1 ****  13 GROUP 4 **** **** 0

# MOE 2024.06 (io_trps.svl 2023.06)
