@<TRIPOS>MOLECULE
NONAME
37 38 1 0 0 
SMALL
USER_CHARGES


@<TRIPOS>ATOM
  1 CL      -0.4750     0.7700     2.0200 Cl    1 <1>  -0.1770 
  2 C       -1.2030     1.6360     0.6850 C.ar  1 <1>   0.1770 
  3 C       -2.5680     1.8980     0.6630 C.ar  1 <1>  -0.1440 
  4 C       -0.3620     2.0410    -0.3350 C.ar  1 <1>  -0.1500 
  5 C       -3.0980     2.5720    -0.4440 C.ar  1 <1>   0.1170 
  6 C       -3.4460     1.4520     1.8310 C.3   1 <1>  -0.0960 
  7 C       -0.8870     2.7230    -1.4160 C.ar  1 <1>  -0.1500 
  8 N       -4.4590     2.8740    -0.5810 N.am  1 <1>  -0.5470 
  9 C       -2.2440     2.9820    -1.4630 C.ar  1 <1>  -0.1500 
 10 C       -5.5040     2.0120    -0.6870 C.2   1 <1>   0.6900 
 11 O       -5.3830     0.8090    -0.5680 O.2   1 <1>  -0.5700 
 12 N       -6.7460     2.5300    -0.9060 N.am  1 <1>  -0.6600 
 13 C       -7.6290     1.7970    -1.8610 C.3   1 <1>   0.1400 
 14 C       -7.4750     3.0460     0.2860 C.3   1 <1>   0.1400 
 15 C       -8.3680     0.6480    -1.1460 C.3   1 <1>   0.3430 
 16 C       -8.2150     1.8930     1.0000 C.3   1 <1>   0.3430 
 17 N       -9.1240     1.1280     0.0700 N.4   1 <1>  -0.9590 
 18 C       -9.7540    -0.0260     0.7790 C.3   1 <1>   0.2630 
 19 H        0.6890     1.8210    -0.2790 H     1 <1>   0.1500 
 20 H       -2.9160     1.5250     2.7630 H     1 <1>   0.0800 
 21 H       -3.7480     0.4300     1.6830 H     1 <1>   0.0800 
 22 H       -4.3230     2.0650     1.9160 H     1 <1>   0.0800 
 23 H       -0.2420     3.0450    -2.2170 H     1 <1>   0.1500 
 24 H       -4.6700     3.8050    -0.9290 H     1 <1>   0.3700 
 25 H       -2.6460     3.5050    -2.3120 H     1 <1>   0.1500 
 26 H       -7.0290     1.3870    -2.6580 H     1 <1>   0.0800 
 27 H       -8.3350     2.4800    -2.3000 H     1 <1>   0.0800 
 28 H       -8.1740     3.8060    -0.0190 H     1 <1>   0.0800 
 29 H       -6.7760     3.4970     0.9710 H     1 <1>   0.0800 
 30 H       -7.6350    -0.0860    -0.8490 H     1 <1>   0.0800 
 31 H       -9.0440     0.1760    -1.8390 H     1 <1>   0.0800 
 32 H       -8.7840     2.2940     1.8230 H     1 <1>   0.0800 
 33 H       -7.4740     1.2230     1.4070 H     1 <1>   0.0800 
 34 H       -9.8640     1.7680    -0.2520 H     1 <1>   0.4500 
 35 H       -8.9960    -0.7130     1.1200 H     1 <1>   0.0800 
 36 H      -10.4220    -0.5530     0.1170 H     1 <1>   0.0800 
 37 H      -10.3160     0.3180     1.6320 H     1 <1>   0.0800 
@<TRIPOS>BOND
  1   1   2  1   
  2   2   3  ar  
  3   2   4  ar  
  4   3   5  ar  
  5   3   6  1   
  6   4   7  ar  
  7   4  19  1   
  8   5   8  1   
  9   5   9  ar  
 10   6  20  1   
 11   6  21  1   
 12   6  22  1   
 13   7   9  ar  
 14   7  23  1   
 15   8  10  am  
 16   8  24  1   
 17   9  25  1   
 18  10  11  2   
 19  10  12  am  
 20  12  13  1   
 21  12  14  1   
 22  13  15  1   
 23  13  26  1   
 24  13  27  1   
 25  14  16  1   
 26  14  28  1   
 27  14  29  1   
 28  15  17  1   
 29  15  30  1   
 30  15  31  1   
 31  16  17  1   
 32  16  32  1   
 33  16  33  1   
 34  17  18  1   
 35  17  34  1   
 36  18  35  1   
 37  18  36  1   
 38  18  37  1   
@<TRIPOS>SUBSTRUCTURE
  1 ****  10 GROUP 4 **** **** 0

# MOE 2024.06 (io_trps.svl 2023.06)
