@<TRIPOS>MOLECULE
NONAME
35 37 1 0 0 
SMALL
USER_CHARGES


@<TRIPOS>ATOM
  1 O        0.0960     1.1100     1.1690 O.2   1 <1>  -0.5700 
  2 C        0.0060     1.7450     0.1470 C.2   1 <1>   0.5690 
  3 N       -1.1360     1.7880    -0.6040 N.am  1 <1>  -0.5470 
  4 C        1.2110     2.5560    -0.3410 C.3   1 <1>  -0.0190 
  5 C       -2.3600     1.1440    -0.3860 C.ar  1 <1>   0.1170 
  6 C        2.4200     1.6490    -0.6240 C.3   1 <1>  -0.2400 
  7 C        1.5990     3.6500     0.6670 C.3   1 <1>  -0.2400 
  8 C       -2.4550    -0.2720    -0.2640 C.ar  1 <1>   0.0000 
  9 C       -3.5060     1.9150    -0.3270 C.ar  1 <1>  -0.1500 
 10 C       -3.7420    -0.7930    -0.0870 C.ar  1 <1>   0.0000 
 11 C       -1.4190    -1.2330    -0.3170 C.ar  1 <1>  -0.1500 
 12 C       -4.7770     1.3520    -0.1430 C.ar  1 <1>  -0.1500 
 13 C       -4.8810    -0.0050    -0.0250 C.ar  1 <1>  -0.1440 
 14 C       -4.0070    -2.1500     0.0360 C.ar  1 <1>  -0.1440 
 15 C       -1.6740    -2.5790    -0.1970 C.ar  1 <1>  -0.1500 
 16 C       -6.0870    -0.9050     0.1770 C.3   1 <1>  -0.0170 
 17 C       -2.9840    -3.0540    -0.0170 C.ar  1 <1>  -0.1500 
 18 C       -5.5020    -2.3400     0.2160 C.3   1 <1>  -0.0170 
 19 H       -1.1330     2.4530    -1.3730 H     1 <1>   0.3700 
 20 H        0.9440     3.0400    -1.2630 H     1 <1>   0.0800 
 21 H        2.7330     1.1530     0.2790 H     1 <1>   0.0800 
 22 H        3.2450     2.2240    -1.0060 H     1 <1>   0.0800 
 23 H        2.1590     0.8990    -1.3500 H     1 <1>   0.0800 
 24 H        1.8910     3.2050     1.6040 H     1 <1>   0.0800 
 25 H        0.7630     4.3010     0.8490 H     1 <1>   0.0800 
 26 H        2.4190     4.2370     0.2930 H     1 <1>   0.0800 
 27 H       -3.4350     2.9830    -0.4160 H     1 <1>   0.1500 
 28 H       -0.4100    -0.8910    -0.4480 H     1 <1>   0.1500 
 29 H       -5.6450     1.9860    -0.0970 H     1 <1>   0.1500 
 30 H       -0.8670    -3.2890    -0.2360 H     1 <1>   0.1500 
 31 H       -6.7770    -0.7940    -0.6410 H     1 <1>   0.0800 
 32 H       -6.5780    -0.6660     1.1040 H     1 <1>   0.0800 
 33 H       -3.1610    -4.1110     0.0760 H     1 <1>   0.1500 
 34 H       -5.7050    -2.8110     1.1620 H     1 <1>   0.0800 
 35 H       -5.9000    -2.9390    -0.5830 H     1 <1>   0.0800 
@<TRIPOS>BOND
  1   1   2  2   
  2   2   3  am  
  3   2   4  1   
  4   3   5  1   
  5   3  19  1   
  6   4   6  1   
  7   4   7  1   
  8   4  20  1   
  9   5   8  ar  
 10   5   9  ar  
 11   6  21  1   
 12   6  22  1   
 13   6  23  1   
 14   7  24  1   
 15   7  25  1   
 16   7  26  1   
 17   8  10  ar  
 18   8  11  ar  
 19   9  12  ar  
 20   9  27  1   
 21  10  13  ar  
 22  10  14  ar  
 23  11  15  ar  
 24  11  28  1   
 25  12  13  ar  
 26  12  29  1   
 27  13  16  1   
 28  14  17  ar  
 29  14  18  1   
 30  15  17  ar  
 31  15  30  1   
 32  16  18  1   
 33  16  31  1   
 34  16  32  1   
 35  17  33  1   
 36  18  34  1   
 37  18  35  1   
@<TRIPOS>SUBSTRUCTURE
  1 ****   8 GROUP 4 **** **** 0

# MOE 2024.06 (io_trps.svl 2023.06)
