@<TRIPOS>MOLECULE
NONAME
53 55 1 0 0 
SMALL
USER_CHARGES


@<TRIPOS>ATOM
  1 O       -0.1340    -0.2620     1.2670 O.3   1 <1>  -0.3630 
  2 C       -0.3150    -1.0030     0.1410 C.ar  1 <1>   0.0830 
  3 C       -1.1280     0.6270     1.7300 C.3   1 <1>   0.0400 
  4 C        0.6230    -1.9940    -0.1460 C.ar  1 <1>  -0.1440 
  5 C       -1.3860    -0.8000    -0.7280 C.ar  1 <1>  -0.1500 
  6 C        0.4830    -2.7580    -1.2940 C.ar  1 <1>  -0.1500 
  7 C        1.8060    -2.2580     0.7780 C.3   1 <1>   0.2540 
  8 C       -1.5160    -1.5730    -1.8680 C.ar  1 <1>  -0.1500 
  9 C       -0.5820    -2.5510    -2.1520 C.ar  1 <1>  -0.1500 
 10 N        3.0600    -1.7260     0.2020 N.3   1 <1>  -0.8100 
 11 C        4.2170    -2.0800     1.0430 C.3   1 <1>   0.1100 
 12 C        2.9730    -0.2630    -0.0100 C.3   1 <1>   0.1100 
 13 C        5.5320    -1.5520     0.4350 C.3   1 <1>   0.3430 
 14 C        4.2690     0.2970    -0.6210 C.3   1 <1>   0.3430 
 15 N        5.4780    -0.0700     0.1980 N.4   1 <1>  -0.9590 
 16 C        6.7280     0.4450    -0.4140 C.3   1 <1>   0.4860 
 17 C        6.6720     1.9590    -0.4070 C.ar  1 <1>  -0.1430 
 18 C        6.4090     2.6550    -1.5770 C.ar  1 <1>  -0.1500 
 19 C        6.8760     2.6620     0.7720 C.ar  1 <1>  -0.1500 
 20 C        6.3350     4.0360    -1.5650 C.ar  1 <1>  -0.1500 
 21 C        6.8010     4.0440     0.7800 C.ar  1 <1>  -0.1500 
 22 C        6.5270     4.7380    -0.3870 C.ar  1 <1>  -0.1430 
 23 C        6.4470     6.2570    -0.3760 C.3   1 <1>  -0.0170 
 24 C        7.8230     6.8680    -0.6500 C.3   1 <1>  -0.2400 
 25 H       -2.0460     0.0830     1.8680 H     1 <1>   0.0800 
 26 H       -1.2540     1.4180     1.0120 H     1 <1>   0.0800 
 27 H       -0.8020     1.0360     2.6690 H     1 <1>   0.0800 
 28 H       -2.1260    -0.0470    -0.5380 H     1 <1>   0.1500 
 29 H        1.2090    -3.5190    -1.5220 H     1 <1>   0.1500 
 30 H        1.8990    -3.3220     0.9080 H     1 <1>   0.0800 
 31 H        1.6330    -1.8280     1.7500 H     1 <1>   0.0800 
 32 H       -2.3440    -1.4130    -2.5360 H     1 <1>   0.1500 
 33 H       -0.6830    -3.1520    -3.0400 H     1 <1>   0.1500 
 34 H        4.2790    -3.1530     1.1230 H     1 <1>   0.0800 
 35 H        4.0890    -1.6800     2.0350 H     1 <1>   0.0800 
 36 H        2.7600     0.2350     0.9200 H     1 <1>   0.0800 
 37 H        2.1680    -0.0430    -0.6900 H     1 <1>   0.0800 
 38 H        5.6970    -2.0630    -0.5000 H     1 <1>   0.0800 
 39 H        6.3480    -1.7910     1.0960 H     1 <1>   0.0800 
 40 H        4.1860     1.3690    -0.6970 H     1 <1>   0.0800 
 41 H        4.3700    -0.1010    -1.6170 H     1 <1>   0.0800 
 42 H        5.3660     0.4040     1.1010 H     1 <1>   0.4500 
 43 H        6.8280     0.0830    -1.4250 H     1 <1>   0.0800 
 44 H        7.5840     0.1200     0.1540 H     1 <1>   0.0800 
 45 H        6.2600     2.1380    -2.5100 H     1 <1>   0.1500 
 46 H        7.0980     2.1530     1.6940 H     1 <1>   0.1500 
 47 H        6.1320     4.5700    -2.4780 H     1 <1>   0.1500 
 48 H        6.9620     4.5830     1.6980 H     1 <1>   0.1500 
 49 H        6.0870     6.5960     0.5800 H     1 <1>   0.0800 
 50 H        5.7490     6.5910    -1.1240 H     1 <1>   0.0800 
 51 H        8.5250     6.5570     0.1020 H     1 <1>   0.0800 
 52 H        7.7590     7.9410    -0.6410 H     1 <1>   0.0800 
 53 H        8.1860     6.5520    -1.6120 H     1 <1>   0.0800 
@<TRIPOS>BOND
  1   1   2  1   
  2   1   3  1   
  3   2   4  ar  
  4   2   5  ar  
  5   3  25  1   
  6   3  26  1   
  7   3  27  1   
  8   4   6  ar  
  9   4   7  1   
 10   5   8  ar  
 11   5  28  1   
 12   6   9  ar  
 13   6  29  1   
 14   7  10  1   
 15   7  30  1   
 16   7  31  1   
 17   8   9  ar  
 18   8  32  1   
 19   9  33  1   
 20  10  11  1   
 21  10  12  1   
 22  11  13  1   
 23  11  34  1   
 24  11  35  1   
 25  12  14  1   
 26  12  36  1   
 27  12  37  1   
 28  13  15  1   
 29  13  38  1   
 30  13  39  1   
 31  14  15  1   
 32  14  40  1   
 33  14  41  1   
 34  15  16  1   
 35  15  42  1   
 36  16  17  1   
 37  16  43  1   
 38  16  44  1   
 39  17  18  ar  
 40  17  19  ar  
 41  18  20  ar  
 42  18  45  1   
 43  19  21  ar  
 44  19  46  1   
 45  20  22  ar  
 46  20  47  1   
 47  21  22  ar  
 48  21  48  1   
 49  22  23  1   
 50  23  24  1   
 51  23  49  1   
 52  23  50  1   
 53  24  51  1   
 54  24  52  1   
 55  24  53  1   
@<TRIPOS>SUBSTRUCTURE
  1 ****  14 GROUP 4 **** **** 0

# MOE 2024.06 (io_trps.svl 2023.06)
