@<TRIPOS>MOLECULE
NONAME
41 42 1 0 0 
SMALL
USER_CHARGES


@<TRIPOS>ATOM
  1 S        0.2150     0.0490    -1.2440 S.3   1 <1>  -0.3320 
  2 C        0.1160    -1.5830    -0.4850 C.ar  1 <1>   0.1020 
  3 C        0.0440     1.2190     0.2010 C.3   1 <1>  -0.0360 
  4 C       -1.0930    -2.3000    -0.6070 C.ar  1 <1>   0.0000 
  5 C        1.1840    -2.1250     0.1810 C.ar  1 <1>  -0.1440 
  6 C        1.0670     2.3400     0.1850 C.2   1 <1>   0.9060 
  7 C       -1.1380    -3.5780    -0.0080 C.ar  1 <1>   0.3100 
  8 C       -2.2430    -1.8290    -1.2780 C.ar  1 <1>  -0.1500 
  9 C        1.0200    -3.4090     0.7400 C.ar  1 <1>   0.1670 
 10 C        2.5200    -1.3790     0.3060 C.3   1 <1>  -0.0170 
 11 O        2.1490     2.1690     0.7620 O.co2 1 <1>  -0.9000 
 12 O        0.7660     3.4160    -0.3440 O.co2 1 <1>  -0.9000 
 13 N       -0.0750    -4.1000     0.6560 N.ar  1 <1>  -0.6200 
 14 C       -2.3290    -4.3380    -0.1040 C.ar  1 <1>  -0.1440 
 15 C       -3.3810    -2.5810    -1.3570 C.ar  1 <1>  -0.1500 
 16 C        2.1480    -4.0860     1.5000 C.3   1 <1>  -0.0970 
 17 C        3.4250    -1.6760    -0.8990 C.3   1 <1>  -0.1600 
 18 C       -3.4240    -3.8450    -0.7660 C.ar  1 <1>  -0.1500 
 19 C       -2.3990    -5.7210     0.5330 C.3   1 <1>  -0.0970 
 20 C        4.7460    -0.8930    -0.8610 C.3   1 <1>  -0.1600 
 21 C        5.6840    -1.3530     0.2620 C.3   1 <1>  -0.2400 
 22 H        0.1620     0.6440     1.0980 H     1 <1>   0.0800 
 23 H       -0.9420     1.6360     0.1560 H     1 <1>   0.0800 
 24 H       -2.2220    -0.8570    -1.7380 H     1 <1>   0.1500 
 25 H        3.0130    -1.6380     1.2220 H     1 <1>   0.0800 
 26 H        2.3580    -0.3210     0.3610 H     1 <1>   0.0800 
 27 H       -4.2510    -2.2110    -1.8710 H     1 <1>   0.1500 
 28 H        2.3370    -3.5580     2.4160 H     1 <1>   0.0800 
 29 H        3.0410    -4.1090     0.9060 H     1 <1>   0.0800 
 30 H        1.8810    -5.0990     1.7430 H     1 <1>   0.0800 
 31 H        2.8940    -1.3940    -1.7920 H     1 <1>   0.0800 
 32 H        3.6250    -2.7300    -0.9620 H     1 <1>   0.0800 
 33 H       -4.3320    -4.4180    -0.8430 H     1 <1>   0.1500 
 34 H       -2.2200    -5.6440     1.5910 H     1 <1>   0.0800 
 35 H       -1.6460    -6.3580     0.1040 H     1 <1>   0.0800 
 36 H       -3.3610    -6.1760     0.3800 H     1 <1>   0.0800 
 37 H        4.5340     0.1580    -0.7460 H     1 <1>   0.0800 
 38 H        5.2480    -1.0210    -1.8040 H     1 <1>   0.0800 
 39 H        5.2610    -1.1310     1.2250 H     1 <1>   0.0800 
 40 H        6.6230    -0.8340     0.1840 H     1 <1>   0.0800 
 41 H        5.8680    -2.4100     0.1920 H     1 <1>   0.0800 
@<TRIPOS>BOND
  1   1   2  1   
  2   1   3  1   
  3   2   4  ar  
  4   2   5  ar  
  5   3   6  1   
  6   3  22  1   
  7   3  23  1   
  8   4   7  ar  
  9   4   8  ar  
 10   5   9  ar  
 11   5  10  1   
 12   6  11  ar  
 13   6  12  ar  
 14   7  13  ar  
 15   7  14  ar  
 16   8  15  ar  
 17   8  24  1   
 18   9  13  ar  
 19   9  16  1   
 20  10  17  1   
 21  10  25  1   
 22  10  26  1   
 23  14  18  ar  
 24  14  19  1   
 25  15  18  ar  
 26  15  27  1   
 27  16  28  1   
 28  16  29  1   
 29  16  30  1   
 30  17  20  1   
 31  17  31  1   
 32  17  32  1   
 33  18  33  1   
 34  19  34  1   
 35  19  35  1   
 36  19  36  1   
 37  20  21  1   
 38  20  37  1   
 39  20  38  1   
 40  21  39  1   
 41  21  40  1   
 42  21  41  1   
@<TRIPOS>SUBSTRUCTURE
  1 ****   2 GROUP 4 **** **** 0

# MOE 2024.06 (io_trps.svl 2023.06)
