@<TRIPOS>MOLECULE
NONAME
36 37 1 0 0 
SMALL
USER_CHARGES


@<TRIPOS>ATOM
  1 O       -1.0610     2.0540     2.2930 O.2   1 <1>  -0.5700 
  2 C       -2.1200     2.0970     1.7020 C.2   1 <1>   0.7060 
  3 O       -2.9820     1.0920     1.8620 O.3   1 <1>  -0.2330 
  4 C       -2.4920     3.1730     0.8410 C.2   1 <1>  -0.1360 
  5 C       -4.1840     1.0540     1.2410 C.ar  1 <1>   0.0820 
  6 C       -3.6770     3.1940     0.1920 C.2   1 <1>  -0.1670 
  7 C       -4.5800     2.0900     0.3800 C.ar  1 <1>   0.0280 
  8 C       -5.0090    -0.0340     1.4790 C.ar  1 <1>  -0.1500 
  9 C       -4.0600     4.3560    -0.7160 C.3   1 <1>  -0.1020 
 10 C       -5.8310     1.9820    -0.2340 C.ar  1 <1>  -0.1500 
 11 C       -6.2440    -0.1100     0.8690 C.ar  1 <1>  -0.1500 
 12 C       -6.6630     0.8990     0.0130 C.ar  1 <1>   0.0830 
 13 O       -7.9010     0.7440    -0.5270 O.3   1 <1>  -0.3630 
 14 C       -8.5030     1.7360    -1.3480 C.3   1 <1>   0.2610 
 15 C       -8.7960     3.0550    -0.6000 C.2   1 <1>   0.6590 
 16 C       -9.7540     1.1120    -1.9800 C.3   1 <1>  -0.2400 
 17 O       -8.3880     4.0920    -1.0570 O.2   1 <1>  -0.5700 
 18 O       -9.5230     3.0800     0.5170 O.3   1 <1>  -0.4300 
 19 C       -9.6410     2.0250     1.4430 C.3   1 <1>   0.1200 
 20 C      -10.5250     2.5070     2.5880 C.3   1 <1>  -0.2400 
 21 H       -1.7660     3.9580     0.7530 H     1 <1>   0.1500 
 22 H       -4.6780    -0.8140     2.1420 H     1 <1>   0.1500 
 23 H       -4.9670     4.8180    -0.3650 H     1 <1>   0.0800 
 24 H       -4.2120     4.0080    -1.7220 H     1 <1>   0.0800 
 25 H       -3.2870     5.1030    -0.7310 H     1 <1>   0.0800 
 26 H       -6.1310     2.7630    -0.9020 H     1 <1>   0.1500 
 27 H       -6.8900    -0.9510     1.0500 H     1 <1>   0.1500 
 28 H       -7.8100     1.9510    -2.1410 H     1 <1>   0.0800 
 29 H      -10.4790     0.8570    -1.2310 H     1 <1>   0.0800 
 30 H      -10.2030     1.8150    -2.6590 H     1 <1>   0.0800 
 31 H       -9.4850     0.2300    -2.5330 H     1 <1>   0.0800 
 32 H       -8.6580     1.7760     1.8050 H     1 <1>   0.0800 
 33 H      -10.0820     1.1730     0.9580 H     1 <1>   0.0800 
 34 H      -10.0800     3.3620     3.0640 H     1 <1>   0.0800 
 35 H      -10.6330     1.7260     3.3180 H     1 <1>   0.0800 
 36 H      -11.5010     2.7690     2.2180 H     1 <1>   0.0800 
@<TRIPOS>BOND
  1   1   2  2   
  2   2   3  1   
  3   2   4  1   
  4   3   5  1   
  5   4   6  2   
  6   4  21  1   
  7   5   7  ar  
  8   5   8  ar  
  9   6   7  1   
 10   6   9  1   
 11   7  10  ar  
 12   8  11  ar  
 13   8  22  1   
 14   9  23  1   
 15   9  24  1   
 16   9  25  1   
 17  10  12  ar  
 18  10  26  1   
 19  11  12  ar  
 20  11  27  1   
 21  12  13  1   
 22  13  14  1   
 23  14  15  1   
 24  14  16  1   
 25  14  28  1   
 26  15  17  2   
 27  15  18  1   
 28  16  29  1   
 29  16  30  1   
 30  16  31  1   
 31  18  19  1   
 32  19  20  1   
 33  19  32  1   
 34  19  33  1   
 35  20  34  1   
 36  20  35  1   
 37  20  36  1   
@<TRIPOS>SUBSTRUCTURE
  1 ****  10 GROUP 4 **** **** 0

# MOE 2024.06 (io_trps.svl 2023.06)
