@<TRIPOS>MOLECULE
NONAME
40 42 1 0 0 
SMALL
USER_CHARGES


@<TRIPOS>ATOM
  1 O        0.2380    -0.4960    -0.1630 O.2   1 <1>  -0.5700 
  2 C        0.3850    -1.6770    -0.3700 C.2   1 <1>   0.4950 
  3 C        1.5950    -2.3060    -0.8590 C.2   1 <1>   0.0140 
  4 C       -0.8420    -2.5470    -0.1320 C.3   1 <1>  -0.0990 
  5 C        2.8090    -1.5590    -1.1480 C.2   1 <1>   0.1000 
  6 C        1.6240    -3.6480    -1.0920 C.2   1 <1>  -0.0610 
  7 C       -0.5010    -4.0010     0.2440 C.3   1 <1>   0.0000 
  8 N        2.7970    -0.1760    -1.0270 N.pl3 1 <1>  -0.9000 
  9 C        3.9380    -2.2100    -1.5170 C.2   1 <1>  -0.0730 
 10 O        2.6800    -4.2760    -1.6040 O.3   1 <1>  -0.3570 
 11 C        0.4610    -4.5850    -0.8090 C.3   1 <1>  -0.0220 
 12 C        0.1510    -4.0480     1.6400 C.3   1 <1>  -0.2400 
 13 C       -1.7890    -4.8370     0.2870 C.3   1 <1>  -0.2400 
 14 C        5.1760    -1.6080    -1.8630 C.1   1 <1>   0.4920 
 15 C        3.9900    -3.7270    -1.5620 C.3   1 <1>   0.5180 
 16 N        6.1680    -1.1380    -2.1710 N.1   1 <1>  -0.5570 
 17 C        4.7030    -4.3040    -0.3450 C.2   1 <1>  -0.0400 
 18 O        5.1020    -5.5620    -0.3810 O.3   1 <1>  -0.2800 
 19 C        5.0300    -3.7450     0.8430 C.2   1 <1>  -0.1500 
 20 C        5.6870    -5.8330     0.7670 C.2   1 <1>  -0.0400 
 21 C        5.6760    -4.7510     1.5710 C.2   1 <1>  -0.1500 
 22 C        6.2400    -7.2230     0.9860 C.3   1 <1>  -0.0600 
 23 H       -1.4270    -2.5320    -1.0340 H     1 <1>   0.0800 
 24 H       -1.4370    -2.1010     0.6460 H     1 <1>   0.0800 
 25 H        3.4000     0.4190    -1.6050 H     1 <1>   0.4000 
 26 H        1.8830     0.2540    -0.7870 H     1 <1>   0.4000 
 27 H        0.8410    -5.5310    -0.4610 H     1 <1>   0.0800 
 28 H       -0.0590    -4.7650    -1.7340 H     1 <1>   0.0800 
 29 H        1.0720    -3.4920     1.6670 H     1 <1>   0.0800 
 30 H        0.3710    -5.0630     1.9190 H     1 <1>   0.0800 
 31 H       -0.5110    -3.6330     2.3800 H     1 <1>   0.0800 
 32 H       -2.2830    -4.8300    -0.6680 H     1 <1>   0.0800 
 33 H       -2.4710    -4.4440     1.0220 H     1 <1>   0.0800 
 34 H       -1.5690    -5.8580     0.5450 H     1 <1>   0.0800 
 35 H        4.4920    -4.0540    -2.4560 H     1 <1>   0.0800 
 36 H        4.8500    -2.7440     1.1970 H     1 <1>   0.1500 
 37 H        6.0710    -4.6450     2.5660 H     1 <1>   0.1500 
 38 H        5.4490    -7.9450     0.9030 H     1 <1>   0.0800 
 39 H        6.6840    -7.2980     1.9610 H     1 <1>   0.0800 
 40 H        6.9870    -7.4370     0.2430 H     1 <1>   0.0800 
@<TRIPOS>BOND
  1   1   2  2   
  2   2   3  1   
  3   2   4  1   
  4   3   5  1   
  5   3   6  2   
  6   4   7  1   
  7   4  23  1   
  8   4  24  1   
  9   5   8  1   
 10   5   9  2   
 11   6  10  1   
 12   6  11  1   
 13   7  11  1   
 14   7  12  1   
 15   7  13  1   
 16   8  25  1   
 17   8  26  1   
 18   9  14  1   
 19   9  15  1   
 20  10  15  1   
 21  11  27  1   
 22  11  28  1   
 23  12  29  1   
 24  12  30  1   
 25  12  31  1   
 26  13  32  1   
 27  13  33  1   
 28  13  34  1   
 29  14  16  3   
 30  15  17  1   
 31  15  35  1   
 32  17  18  1   
 33  17  19  2   
 34  18  20  1   
 35  19  21  1   
 36  19  36  1   
 37  20  21  2   
 38  20  22  1   
 39  21  37  1   
 40  22  38  1   
 41  22  39  1   
 42  22  40  1   
@<TRIPOS>SUBSTRUCTURE
  1 ****   6 GROUP 4 **** **** 0

# MOE 2024.06 (io_trps.svl 2023.06)
