@<TRIPOS>MOLECULE
NONAME
48 49 1 0 0 
SMALL
USER_CHARGES


@<TRIPOS>ATOM
  1 S        0.3860    -0.5470     0.2470 S.o2  1 <1>   1.0900 
  2 O       -0.3140    -0.5820    -1.0170 O.2   1 <1>  -0.6500 
  3 O       -0.0700    -1.3310     1.3700 O.2   1 <1>  -0.6500 
  4 C        2.1140    -0.8490    -0.0440 C.3   1 <1>  -0.0550 
  5 C        0.5660     1.1620     0.7320 C.3   1 <1>  -0.0550 
  6 C        2.8020     0.5240    -0.1590 C.3   1 <1>   0.3000 
  7 C        2.0640     1.4920     0.7900 C.3   1 <1>  -0.1600 
  8 N        4.2710     0.4540     0.2160 N.am  1 <1>  -0.6600 
  9 C        2.6140     1.0110    -1.6150 C.3   1 <1>  -0.2400 
 10 C        4.7170    -0.1830     1.3640 C.2   1 <1>   0.5690 
 11 C        5.2550     1.1560    -0.6780 C.3   1 <1>   0.0600 
 12 O        3.9700    -0.4630     2.2730 O.2   1 <1>  -0.5700 
 13 C        6.1850    -0.5530     1.5780 C.3   1 <1>   0.1810 
 14 O        6.7170    -1.2380     0.4530 O.3   1 <1>  -0.3630 
 15 C        8.0300    -1.5660     0.3890 C.ar  1 <1>   0.0820 
 16 C        8.4750    -2.1160    -0.8010 C.ar  1 <1>  -0.1500 
 17 C        8.9300    -1.3780     1.4330 C.ar  1 <1>  -0.1500 
 18 C        9.8030    -2.4700    -0.9560 C.ar  1 <1>  -0.1500 
 19 C       10.2580    -1.7340     1.2730 C.ar  1 <1>  -0.1500 
 20 C       10.7090    -2.2810     0.0800 C.ar  1 <1>  -0.1430 
 21 C       12.1790    -2.6660    -0.0750 C.3   1 <1>   0.0630 
 22 C       12.8410    -1.8590    -1.1960 C.3   1 <1>  -0.2400 
 23 C       12.3270    -4.1700    -0.3260 C.3   1 <1>  -0.2400 
 24 H        2.2540    -1.4290    -0.9350 H     1 <1>   0.0800 
 25 H        2.4890    -1.4170     0.7790 H     1 <1>   0.0800 
 26 H        0.1020     1.3420     1.6840 H     1 <1>   0.0800 
 27 H        0.0920     1.7880     0.0000 H     1 <1>   0.0800 
 28 H        2.3880     1.3420     1.8030 H     1 <1>   0.0800 
 29 H        2.2430     2.5200     0.5310 H     1 <1>   0.0800 
 30 H        1.5800     0.9960    -1.9050 H     1 <1>   0.0800 
 31 H        3.1410     0.3690    -2.2990 H     1 <1>   0.0800 
 32 H        2.9500     2.0230    -1.7410 H     1 <1>   0.0800 
 33 H        4.9390     2.1690    -0.8560 H     1 <1>   0.0800 
 34 H        5.3400     0.6330    -1.6150 H     1 <1>   0.0800 
 35 H        6.2330     1.2060    -0.2370 H     1 <1>   0.0800 
 36 H        6.2670    -1.2040     2.4300 H     1 <1>   0.0800 
 37 H        6.7610     0.3370     1.7470 H     1 <1>   0.0800 
 38 H        7.7770    -2.2660    -1.6040 H     1 <1>   0.1500 
 39 H        8.6230    -0.9640     2.3730 H     1 <1>   0.1500 
 40 H       10.1280    -2.8950    -1.8880 H     1 <1>   0.1500 
 41 H       10.9430    -1.5830     2.0880 H     1 <1>   0.1500 
 42 H       12.6950    -2.4360     0.8420 H     1 <1>   0.0800 
 43 H       12.3970    -2.0890    -2.1480 H     1 <1>   0.0800 
 44 H       13.8920    -2.0800    -1.2440 H     1 <1>   0.0800 
 45 H       12.7200    -0.8060    -1.0080 H     1 <1>   0.0800 
 46 H       11.8730    -4.4500    -1.2590 H     1 <1>   0.0800 
 47 H       11.8510    -4.7210     0.4650 H     1 <1>   0.0800 
 48 H       13.3670    -4.4420    -0.3550 H     1 <1>   0.0800 
@<TRIPOS>BOND
  1   1   2  2   
  2   1   3  2   
  3   1   4  1   
  4   1   5  1   
  5   4   6  1   
  6   4  24  1   
  7   4  25  1   
  8   5   7  1   
  9   5  26  1   
 10   5  27  1   
 11   6   7  1   
 12   6   8  1   
 13   6   9  1   
 14   7  28  1   
 15   7  29  1   
 16   8  10  am  
 17   8  11  1   
 18   9  30  1   
 19   9  31  1   
 20   9  32  1   
 21  10  12  2   
 22  10  13  1   
 23  11  33  1   
 24  11  34  1   
 25  11  35  1   
 26  13  14  1   
 27  13  36  1   
 28  13  37  1   
 29  14  15  1   
 30  15  16  ar  
 31  15  17  ar  
 32  16  18  ar  
 33  16  38  1   
 34  17  19  ar  
 35  17  39  1   
 36  18  20  ar  
 37  18  40  1   
 38  19  20  ar  
 39  19  41  1   
 40  20  21  1   
 41  21  22  1   
 42  21  23  1   
 43  21  42  1   
 44  22  43  1   
 45  22  44  1   
 46  22  45  1   
 47  23  46  1   
 48  23  47  1   
 49  23  48  1   
@<TRIPOS>SUBSTRUCTURE
  1 ****  14 GROUP 4 **** **** 0

# MOE 2024.06 (io_trps.svl 2023.06)
