@<TRIPOS>MOLECULE
NONAME
40 42 1 0 0 
SMALL
USER_CHARGES


@<TRIPOS>ATOM
  1 O       -0.0320     0.5770    -2.1510 O.2   1 <1>  -0.5700 
  2 C       -0.1710     1.5420    -1.4110 C.2   1 <1>   0.5440 
  3 N       -1.4260     1.8750    -0.9200 N.am  1 <1>  -0.2980 
  4 C        0.9490     2.3440    -1.0040 C.ar  1 <1>   0.0860 
  5 N       -1.6330     2.8740     0.0020 N.2   1 <1>  -0.5120 
  6 C       -2.6170     1.0980    -1.4030 C.3   1 <1>   0.2010 
  7 C        0.7190     3.3850    -0.0900 C.ar  1 <1>   0.0860 
  8 C        2.2460     2.1240    -1.4810 C.ar  1 <1>  -0.1500 
  9 C       -0.6270     3.5760     0.3810 C.2   1 <1>   0.3030 
 10 C       -3.9390     1.8690    -1.4440 C.2   1 <1>   0.5690 
 11 C        1.8120     4.1700     0.3090 C.ar  1 <1>  -0.1500 
 12 C        3.3020     2.9080    -1.0730 C.ar  1 <1>  -0.1500 
 13 C       -0.9140     4.6720     1.3930 C.3   1 <1>  -0.1790 
 14 O       -4.2720     2.3270    -2.5160 O.2   1 <1>  -0.5700 
 15 N       -4.7540     1.9830    -0.3370 N.am  1 <1>  -0.6600 
 16 C        3.0820     3.9380    -0.1730 C.ar  1 <1>  -0.1500 
 17 C       -4.3650     1.5840     1.0440 C.3   1 <1>   0.1400 
 18 C       -6.0810     2.6520    -0.4180 C.3   1 <1>   0.1400 
 19 C       -5.4240     0.6420     1.6270 C.3   1 <1>  -0.1600 
 20 C       -7.1610     1.7270     0.1530 C.3   1 <1>  -0.1600 
 21 C       -6.8240     1.2710     1.5800 C.3   1 <1>  -0.1600 
 22 H       -2.7320     0.2240    -0.7930 H     1 <1>   0.0800 
 23 H       -2.4280     0.7610    -2.4060 H     1 <1>   0.0800 
 24 H        2.4130     1.3220    -2.1820 H     1 <1>   0.1500 
 25 H        1.6720     4.9770     1.0060 H     1 <1>   0.1500 
 26 H        4.2940     2.7250    -1.4500 H     1 <1>   0.1500 
 27 H       -0.3480     4.5040     2.2910 H     1 <1>   0.0800 
 28 H       -1.9600     4.6800     1.6490 H     1 <1>   0.0800 
 29 H       -0.6630     5.6310     0.9790 H     1 <1>   0.0800 
 30 H        3.9080     4.5510     0.1450 H     1 <1>   0.1500 
 31 H       -4.2930     2.4710     1.6500 H     1 <1>   0.0800 
 32 H       -3.4050     1.1020     1.0600 H     1 <1>   0.0800 
 33 H       -6.3240     2.8990    -1.4380 H     1 <1>   0.0800 
 34 H       -6.0440     3.5680     0.1460 H     1 <1>   0.0800 
 35 H       -5.1680     0.4060     2.6440 H     1 <1>   0.0800 
 36 H       -5.4190    -0.2760     1.0650 H     1 <1>   0.0800 
 37 H       -7.2550     0.8700    -0.4910 H     1 <1>   0.0800 
 38 H       -8.1060     2.2420     0.1510 H     1 <1>   0.0800 
 39 H       -6.8550     2.1200     2.2410 H     1 <1>   0.0800 
 40 H       -7.5560     0.5580     1.9180 H     1 <1>   0.0800 
@<TRIPOS>BOND
  1   1   2  2   
  2   2   3  am  
  3   2   4  1   
  4   3   5  1   
  5   3   6  1   
  6   4   7  ar  
  7   4   8  ar  
  8   5   9  2   
  9   6  10  1   
 10   6  22  1   
 11   6  23  1   
 12   7   9  1   
 13   7  11  ar  
 14   8  12  ar  
 15   8  24  1   
 16   9  13  1   
 17  10  14  2   
 18  10  15  am  
 19  11  16  ar  
 20  11  25  1   
 21  12  16  ar  
 22  12  26  1   
 23  13  27  1   
 24  13  28  1   
 25  13  29  1   
 26  15  17  1   
 27  15  18  1   
 28  16  30  1   
 29  17  19  1   
 30  17  31  1   
 31  17  32  1   
 32  18  20  1   
 33  18  33  1   
 34  18  34  1   
 35  19  21  1   
 36  19  35  1   
 37  19  36  1   
 38  20  21  1   
 39  20  37  1   
 40  20  38  1   
 41  21  39  1   
 42  21  40  1   
@<TRIPOS>SUBSTRUCTURE
  1 ****   5 GROUP 4 **** **** 0

# MOE 2024.06 (io_trps.svl 2023.06)
