@<TRIPOS>MOLECULE
NONAME
38 40 1 0 0 
SMALL
USER_CHARGES


@<TRIPOS>ATOM
  1 S        0.3250     0.2080    -0.2820 S.3   1 <1>  -0.3320 
  2 C       -1.2080    -0.6840    -0.1050 C.ar  1 <1>   0.7220 
  3 C        1.2920    -0.7960    -1.5090 C.3   1 <1>   0.1310 
  4 N       -1.3160    -1.7890    -0.8260 N.ar  1 <1>  -0.6200 
  5 N       -2.0670    -0.1420     0.7390 N.ar  1 <1>  -0.6200 
  6 C        2.7150    -0.2750    -1.6520 C.2   1 <1>   0.5690 
  7 C       -2.4550    -2.4240    -0.6770 C.ar  1 <1>   0.1660 
  8 C       -3.1950    -0.8000     0.8670 C.ar  1 <1>   0.1660 
  9 O        2.9950     0.2490    -2.7050 O.2   1 <1>  -0.5700 
 10 N        3.6320    -0.4480    -0.6300 N.am  1 <1>  -0.4770 
 11 C       -3.4380    -1.9620     0.1690 C.ar  1 <1>  -0.1500 
 12 C       -2.6430    -3.6940    -1.4810 C.3   1 <1>  -0.0970 
 13 C       -4.2200    -0.2210     1.8190 C.3   1 <1>  -0.0970 
 14 C        4.9900    -0.0980    -0.6020 C.ar  1 <1>   0.1170 
 15 C        3.2820    -1.0740     0.6790 C.3   1 <1>   0.1400 
 16 C        5.5910    -0.4890     0.5770 C.ar  1 <1>  -0.1430 
 17 C        5.7530     0.5570    -1.5620 C.ar  1 <1>  -0.1500 
 18 C        4.5930    -1.1750     1.4730 C.3   1 <1>  -0.0170 
 19 C        6.9280    -0.2510     0.8280 C.ar  1 <1>  -0.1500 
 20 C        7.0950     0.8040    -1.3250 C.ar  1 <1>  -0.1500 
 21 C        7.6830     0.4020    -0.1340 C.ar  1 <1>  -0.1500 
 22 H        0.7720    -0.7240    -2.4470 H     1 <1>   0.0800 
 23 H        1.2920    -1.8150    -1.1750 H     1 <1>   0.0800 
 24 H       -4.3650    -2.4900     0.2830 H     1 <1>   0.1500 
 25 H       -1.8760    -4.4010    -1.2230 H     1 <1>   0.0800 
 26 H       -2.5690    -3.4700    -2.5290 H     1 <1>   0.0800 
 27 H       -3.6030    -4.1360    -1.2870 H     1 <1>   0.0800 
 28 H       -3.8010    -0.1640     2.8070 H     1 <1>   0.0800 
 29 H       -5.1060    -0.8270     1.8510 H     1 <1>   0.0800 
 30 H       -4.4860     0.7700     1.5000 H     1 <1>   0.0800 
 31 H        2.8560    -2.0500     0.5280 H     1 <1>   0.0800 
 32 H        2.5860    -0.4450     1.2060 H     1 <1>   0.0800 
 33 H        5.3080     0.8750    -2.4860 H     1 <1>   0.1500 
 34 H        4.8660    -2.2030     1.6300 H     1 <1>   0.0800 
 35 H        4.5090    -0.6710     2.4190 H     1 <1>   0.0800 
 36 H        7.3790    -0.5640     1.7530 H     1 <1>   0.1500 
 37 H        7.6830     1.3110    -2.0690 H     1 <1>   0.1500 
 38 H        8.7260     0.5970     0.0420 H     1 <1>   0.1500 
@<TRIPOS>BOND
  1   1   2  1   
  2   1   3  1   
  3   2   4  ar  
  4   2   5  ar  
  5   3   6  1   
  6   3  22  1   
  7   3  23  1   
  8   4   7  ar  
  9   5   8  ar  
 10   6   9  2   
 11   6  10  am  
 12   7  11  ar  
 13   7  12  1   
 14   8  11  ar  
 15   8  13  1   
 16  10  14  1   
 17  10  15  1   
 18  11  24  1   
 19  12  25  1   
 20  12  26  1   
 21  12  27  1   
 22  13  28  1   
 23  13  29  1   
 24  13  30  1   
 25  14  16  ar  
 26  14  17  ar  
 27  15  18  1   
 28  15  31  1   
 29  15  32  1   
 30  16  18  1   
 31  16  19  ar  
 32  17  20  ar  
 33  17  33  1   
 34  18  34  1   
 35  18  35  1   
 36  19  21  ar  
 37  19  36  1   
 38  20  21  ar  
 39  20  37  1   
 40  21  38  1   
@<TRIPOS>SUBSTRUCTURE
  1 ****   3 GROUP 4 **** **** 0

# MOE 2024.06 (io_trps.svl 2023.06)
