@<TRIPOS>MOLECULE
NONAME
51 53 1 0 0 
SMALL
USER_CHARGES


@<TRIPOS>ATOM
  1 S       -0.6880    -1.0060    -1.3620 S.o2  1 <1>   1.4470 
  2 O       -1.9020    -1.3090    -2.0870 O.2   1 <1>  -0.6500 
  3 O        0.5360    -0.8470    -2.1180 O.2   1 <1>  -0.6500 
  4 N       -0.4170    -2.2260    -0.2110 N.am  1 <1>  -0.8490 
  5 C       -0.9220     0.4970    -0.3690 C.ar  1 <1>  -0.0090 
  6 C       -1.5020    -2.8960     0.5090 C.3   1 <1>   0.2760 
  7 C        0.8620    -2.9780    -0.2640 C.3   1 <1>   0.2570 
  8 C       -1.8730     1.4460    -0.7280 C.ar  1 <1>  -0.1500 
  9 C       -0.1510     0.7500     0.7620 C.ar  1 <1>  -0.1500 
 10 C       -2.2050    -3.9530    -0.3590 C.3   1 <1>  -0.1600 
 11 C       -2.5130    -1.9100     1.1130 C.3   1 <1>  -0.1600 
 12 C        1.8170    -2.6260     0.8880 C.2   1 <1>   0.5690 
 13 C       -2.0530     2.6020     0.0130 C.ar  1 <1>  -0.1500 
 14 C       -0.3240     1.9030     1.5080 C.ar  1 <1>  -0.1500 
 15 C       -3.2820    -4.6950     0.4470 C.3   1 <1>  -0.1600 
 16 C       -3.5860    -2.6530     1.9220 C.3   1 <1>  -0.1600 
 17 O        1.6810    -3.2570     1.9130 O.2   1 <1>  -0.5700 
 18 N        2.7700    -1.6360     0.7910 N.am  1 <1>  -0.6600 
 19 C       -1.2770     2.8310     1.1340 C.ar  1 <1>  -0.1500 
 20 C       -4.2880    -3.7140     1.0630 C.3   1 <1>  -0.1600 
 21 C        3.1200    -0.8700    -0.4490 C.3   1 <1>   0.1400 
 22 C        3.5200    -1.1730     2.0010 C.3   1 <1>   0.1400 
 23 C        4.6400    -0.6800    -0.5880 C.3   1 <1>   0.1200 
 24 C        5.0150    -0.9950     1.6990 C.3   1 <1>   0.1200 
 25 O        5.1930    -0.1660     0.5880 O.3   1 <1>  -0.5600 
 26 H       -1.0570    -3.4170     1.3430 H     1 <1>   0.0800 
 27 H        1.3510    -2.8560    -1.2090 H     1 <1>   0.0800 
 28 H        0.6520    -4.0290    -0.1830 H     1 <1>   0.0800 
 29 H       -2.4820     1.2770    -1.6010 H     1 <1>   0.1500 
 30 H        0.5920     0.0350     1.0680 H     1 <1>   0.1500 
 31 H       -1.4900    -4.6670    -0.7250 H     1 <1>   0.0800 
 32 H       -2.6770    -3.4860    -1.2030 H     1 <1>   0.0800 
 33 H       -3.0070    -1.3570     0.3340 H     1 <1>   0.0800 
 34 H       -2.0020    -1.2220     1.7620 H     1 <1>   0.0800 
 35 H       -2.7960     3.3220    -0.2840 H     1 <1>   0.1500 
 36 H        0.2830     2.0760     2.3810 H     1 <1>   0.1500 
 37 H       -2.8130    -5.2650     1.2320 H     1 <1>   0.0800 
 38 H       -3.8000    -5.3850    -0.1960 H     1 <1>   0.0800 
 39 H       -4.3120    -1.9480     2.2890 H     1 <1>   0.0800 
 40 H       -3.1280    -3.1280     2.7730 H     1 <1>   0.0800 
 41 H       -1.4150     3.7280     1.7120 H     1 <1>   0.1500 
 42 H       -4.9960    -4.2550     1.6670 H     1 <1>   0.0800 
 43 H       -4.8360    -3.2260     0.2740 H     1 <1>   0.0800 
 44 H        2.6460     0.0960    -0.4180 H     1 <1>   0.0800 
 45 H        2.7770    -1.3800    -1.3270 H     1 <1>   0.0800 
 46 H        3.4100    -1.8740     2.8100 H     1 <1>   0.0800 
 47 H        3.1150    -0.2300     2.3260 H     1 <1>   0.0800 
 48 H        4.8540     0.0130    -1.3820 H     1 <1>   0.0800 
 49 H        5.1190    -1.6170    -0.8120 H     1 <1>   0.0800 
 50 H        5.4790    -1.9460     1.5030 H     1 <1>   0.0800 
 51 H        5.5100    -0.5350     2.5350 H     1 <1>   0.0800 
@<TRIPOS>BOND
  1   1   2  2   
  2   1   3  2   
  3   1   4  am  
  4   1   5  1   
  5   4   6  1   
  6   4   7  1   
  7   5   8  ar  
  8   5   9  ar  
  9   6  10  1   
 10   6  11  1   
 11   6  26  1   
 12   7  12  1   
 13   7  27  1   
 14   7  28  1   
 15   8  13  ar  
 16   8  29  1   
 17   9  14  ar  
 18   9  30  1   
 19  10  15  1   
 20  10  31  1   
 21  10  32  1   
 22  11  16  1   
 23  11  33  1   
 24  11  34  1   
 25  12  17  2   
 26  12  18  am  
 27  13  19  ar  
 28  13  35  1   
 29  14  19  ar  
 30  14  36  1   
 31  15  20  1   
 32  15  37  1   
 33  15  38  1   
 34  16  20  1   
 35  16  39  1   
 36  16  40  1   
 37  18  21  1   
 38  18  22  1   
 39  19  41  1   
 40  20  42  1   
 41  20  43  1   
 42  21  23  1   
 43  21  44  1   
 44  21  45  1   
 45  22  24  1   
 46  22  46  1   
 47  22  47  1   
 48  23  25  1   
 49  23  48  1   
 50  23  49  1   
 51  24  25  1   
 52  24  50  1   
 53  24  51  1   
@<TRIPOS>SUBSTRUCTURE
  1 ****   4 GROUP 4 **** **** 0

# MOE 2024.06 (io_trps.svl 2023.06)
