@<TRIPOS>MOLECULE
NONAME
45 48 1 0 0 
SMALL
USER_CHARGES


@<TRIPOS>ATOM
  1 O       -1.7640    -0.9060    -0.9830 O.2   1 <1>  -0.5700 
  2 C       -2.3450    -0.0150    -0.4250 C.2   1 <1>   0.6670 
  3 O       -2.7180     1.1820    -0.8770 O.3   1 <1>  -0.4080 
  4 C       -2.9020     0.1980     0.9650 C.3   1 <1>   0.0530 
  5 C       -3.4220     1.5080     0.3450 C.3   1 <1>   0.2580 
  6 C       -4.9690     1.6040     0.0890 C.3   1 <1>   0.0000 
  7 C       -2.7360     2.7450     0.9540 C.3   1 <1>  -0.2400 
  8 C       -5.5120     0.3930    -0.7260 C.3   1 <1>  -0.1600 
  9 C       -5.3230     2.8860    -0.7110 C.3   1 <1>  -0.1600 
 10 C       -5.7360     1.6670     1.4350 C.3   1 <1>  -0.1600 
 11 C       -7.0370     0.4780    -0.9530 C.3   1 <1>   0.0000 
 12 C       -6.8400     3.0110    -0.9520 C.3   1 <1>   0.0000 
 13 C       -7.2580     1.7670     1.2080 C.3   1 <1>  -0.0800 
 14 C       -7.7820     0.5510     0.4100 C.3   1 <1>  -0.0800 
 15 C       -7.3260     1.7770    -1.7350 C.3   1 <1>  -0.1600 
 16 C       -7.5020    -0.7190    -1.8000 C.3   1 <1>  -0.2400 
 17 C       -7.5550     3.0510     0.4120 C.3   1 <1>  -0.1600 
 18 C       -7.1450     4.2890    -1.7440 C.3   1 <1>  -0.2400 
 19 C       -7.7290    -0.7400     1.2530 C.3   1 <1>  -0.2400 
 20 H       -2.1380     0.3300     1.7100 H     1 <1>   0.0000 
 21 H       -3.6540    -0.5140     1.2510 H     1 <1>   0.0000 
 22 H       -1.6840     2.5670     1.0910 H     1 <1>   0.0800 
 23 H       -3.1610     2.9780     1.9120 H     1 <1>   0.0800 
 24 H       -2.8450     3.5990     0.3120 H     1 <1>   0.0800 
 25 H       -5.2890    -0.5330    -0.2340 H     1 <1>   0.0800 
 26 H       -5.0250     0.3620    -1.6860 H     1 <1>   0.0800 
 27 H       -4.8060     2.8730    -1.6560 H     1 <1>   0.0800 
 28 H       -5.0000     3.7610    -0.1770 H     1 <1>   0.0800 
 29 H       -5.4220     2.5280     1.9980 H     1 <1>   0.0800 
 30 H       -5.5170     0.8020     2.0330 H     1 <1>   0.0800 
 31 H       -7.7620     1.8220     2.1570 H     1 <1>   0.0800 
 32 H       -8.8250     0.7260     0.2040 H     1 <1>   0.0800 
 33 H       -6.8310     1.7440    -2.6900 H     1 <1>   0.0800 
 34 H       -8.3820     1.8590    -1.9210 H     1 <1>   0.0800 
 35 H       -7.0470    -0.6900    -2.7740 H     1 <1>   0.0800 
 36 H       -8.5700    -0.6990    -1.9230 H     1 <1>   0.0800 
 37 H       -7.2270    -1.6500    -1.3370 H     1 <1>   0.0800 
 38 H       -8.6170     3.1480     0.2670 H     1 <1>   0.0800 
 39 H       -7.2260     3.9080     0.9740 H     1 <1>   0.0800 
 40 H       -6.6450     4.2690    -2.6960 H     1 <1>   0.0800 
 41 H       -6.8120     5.1570    -1.2030 H     1 <1>   0.0800 
 42 H       -8.2020     4.3810    -1.9160 H     1 <1>   0.0800 
 43 H       -6.7220    -1.0600     1.4410 H     1 <1>   0.0800 
 44 H       -8.2500    -1.5360     0.7540 H     1 <1>   0.0800 
 45 H       -8.2140    -0.5800     2.2000 H     1 <1>   0.0800 
@<TRIPOS>BOND
  1   1   2  2   
  2   2   3  1   
  3   2   4  1   
  4   3   5  1   
  5   4   5  1   
  6   4  20  1   
  7   4  21  1   
  8   5   6  1   
  9   5   7  1   
 10   6   8  1   
 11   6   9  1   
 12   6  10  1   
 13   7  22  1   
 14   7  23  1   
 15   7  24  1   
 16   8  11  1   
 17   8  25  1   
 18   8  26  1   
 19   9  12  1   
 20   9  27  1   
 21   9  28  1   
 22  10  13  1   
 23  10  29  1   
 24  10  30  1   
 25  11  14  1   
 26  11  15  1   
 27  11  16  1   
 28  12  15  1   
 29  12  17  1   
 30  12  18  1   
 31  13  14  1   
 32  13  17  1   
 33  13  31  1   
 34  14  19  1   
 35  14  32  1   
 36  15  33  1   
 37  15  34  1   
 38  16  35  1   
 39  16  36  1   
 40  16  37  1   
 41  17  38  1   
 42  17  39  1   
 43  18  40  1   
 44  18  41  1   
 45  18  42  1   
 46  19  43  1   
 47  19  44  1   
 48  19  45  1   
@<TRIPOS>SUBSTRUCTURE
  1 ****   6 GROUP 4 **** **** 0

# MOE 2024.06 (io_trps.svl 2023.06)
