@<TRIPOS>MOLECULE
NONAME
29 29 1 0 0 
SMALL
USER_CHARGES


@<TRIPOS>ATOM
  1 BR       0.5120     0.8000    -2.0540 Br    1 <1>  -0.1110 
  2 C        1.9640     1.4720    -0.9750 C.ar  1 <1>   0.1110 
  3 C        1.9640     2.7970    -0.5620 C.ar  1 <1>   0.0820 
  4 C        2.9710     0.5850    -0.6410 C.ar  1 <1>  -0.1500 
  5 O        0.9270     3.6000    -0.9040 O.3   1 <1>  -0.3630 
  6 C        3.0480     3.2470     0.2030 C.ar  1 <1>   0.0820 
  7 C        4.0300     1.0330     0.1350 C.ar  1 <1>  -0.1440 
  8 C       -0.1200     3.6740     0.0390 C.3   1 <1>   0.0400 
  9 O        3.2140     4.5200     0.6520 O.3   1 <1>  -0.3630 
 10 C        4.0530     2.3570     0.5540 C.ar  1 <1>  -0.1500 
 11 C        5.1570     0.0980     0.5140 C.3   1 <1>   0.4860 
 12 C        2.8350     5.6150    -0.1570 C.3   1 <1>   0.0400 
 13 N        6.2220     0.2900    -0.4950 N.4   1 <1>  -0.9060 
 14 C        7.4310    -0.5500    -0.2540 C.3   1 <1>   0.2630 
 15 H        2.9030    -0.4310    -0.9900 H     1 <1>   0.1500 
 16 H       -0.8640     4.3530    -0.3360 H     1 <1>   0.0800 
 17 H        0.2740     4.0350     0.9720 H     1 <1>   0.0800 
 18 H       -0.5470     2.6950     0.1650 H     1 <1>   0.0800 
 19 H        4.8560     2.7350     1.1640 H     1 <1>   0.1500 
 20 H        4.8100    -0.9230     0.5100 H     1 <1>   0.0800 
 21 H        5.5200     0.3410     1.5000 H     1 <1>   0.0800 
 22 H        3.3850     6.4790     0.1690 H     1 <1>   0.0800 
 23 H        1.7820     5.7940    -0.0360 H     1 <1>   0.0800 
 24 H        3.0660     5.3970    -1.1840 H     1 <1>   0.0800 
 25 H        6.4660     1.2900    -0.5040 H     1 <1>   0.4500 
 26 H        5.8180     0.0980    -1.4210 H     1 <1>   0.4500 
 27 H        7.8660    -0.3190     0.7060 H     1 <1>   0.0800 
 28 H        8.1710    -0.3660    -1.0170 H     1 <1>   0.0800 
 29 H        7.1730    -1.5970    -0.2750 H     1 <1>   0.0800 
@<TRIPOS>BOND
  1   1   2  1   
  2   2   3  ar  
  3   2   4  ar  
  4   3   5  1   
  5   3   6  ar  
  6   4   7  ar  
  7   4  15  1   
  8   5   8  1   
  9   6   9  1   
 10   6  10  ar  
 11   7  10  ar  
 12   7  11  1   
 13   8  16  1   
 14   8  17  1   
 15   8  18  1   
 16   9  12  1   
 17  10  19  1   
 18  11  13  1   
 19  11  20  1   
 20  11  21  1   
 21  12  22  1   
 22  12  23  1   
 23  12  24  1   
 24  13  14  1   
 25  13  25  1   
 26  13  26  1   
 27  14  27  1   
 28  14  28  1   
 29  14  29  1   
@<TRIPOS>SUBSTRUCTURE
  1 ****   6 GROUP 4 **** **** 0

# MOE 2024.06 (io_trps.svl 2023.06)
