@<TRIPOS>MOLECULE
NONAME
31 31 1 0 0 
SMALL
USER_CHARGES


@<TRIPOS>ATOM
  1 CL       1.3980    -0.8950     2.3260 Cl    1 <1>  -0.1770 
  2 C        2.3620     0.2370     1.4140 C.ar  1 <1>   0.1770 
  3 C        3.6550    -0.1000     1.0700 C.ar  1 <1>  -0.1500 
  4 C        1.8140     1.4510     1.0520 C.ar  1 <1>  -0.1500 
  5 C        4.4500     0.7830     0.3390 C.ar  1 <1>   0.0860 
  6 C        2.5850     2.3450     0.3320 C.ar  1 <1>  -0.1500 
  7 C        5.8090     0.4220    -0.0270 C.2   1 <1>   0.5440 
  8 C        3.8840     2.0130    -0.0160 C.ar  1 <1>  -0.1500 
  9 O        6.4540    -0.3570     0.6480 O.2   1 <1>  -0.5700 
 10 N        6.4170     0.9520    -1.1330 N.am  1 <1>  -0.7300 
 11 C        7.6680     0.4440    -1.7780 C.3   1 <1>   0.1400 
 12 C        8.9500     0.9520    -1.0820 C.3   1 <1>   0.3430 
 13 N        9.0630     0.4360     0.3160 N.4   1 <1>  -0.9590 
 14 C        9.7690     1.3840     1.2240 C.3   1 <1>   0.2630 
 15 C        9.6490    -0.9350     0.3790 C.3   1 <1>   0.2630 
 16 H        4.0460    -1.0550     1.3730 H     1 <1>   0.1500 
 17 H        0.8030     1.6890     1.3330 H     1 <1>   0.1500 
 18 H        2.1720     3.2980     0.0460 H     1 <1>   0.1500 
 19 H        4.4650     2.7320    -0.5650 H     1 <1>   0.1500 
 20 H        5.8280     1.5230    -1.7480 H     1 <1>   0.3700 
 21 H        7.6800     0.7680    -2.8040 H     1 <1>   0.0800 
 22 H        7.6580    -0.6330    -1.7790 H     1 <1>   0.0800 
 23 H        8.9180     2.0290    -1.0720 H     1 <1>   0.0800 
 24 H        9.8140     0.6520    -1.6510 H     1 <1>   0.0800 
 25 H        8.0750     0.3320     0.6460 H     1 <1>   0.4500 
 26 H       10.7920     1.5150     0.9110 H     1 <1>   0.0800 
 27 H        9.7600     1.0060     2.2330 H     1 <1>   0.0800 
 28 H        9.2770     2.3440     1.2150 H     1 <1>   0.0800 
 29 H       10.6630    -0.9310     0.0150 H     1 <1>   0.0800 
 30 H        9.0640    -1.6170    -0.2170 H     1 <1>   0.0800 
 31 H        9.6460    -1.2910     1.3970 H     1 <1>   0.0800 
@<TRIPOS>BOND
  1   1   2  1   
  2   2   3  ar  
  3   2   4  ar  
  4   3   5  ar  
  5   3  16  1   
  6   4   6  ar  
  7   4  17  1   
  8   5   7  1   
  9   5   8  ar  
 10   6   8  ar  
 11   6  18  1   
 12   7   9  2   
 13   7  10  am  
 14   8  19  1   
 15  10  11  1   
 16  10  20  1   
 17  11  12  1   
 18  11  21  1   
 19  11  22  1   
 20  12  13  1   
 21  12  23  1   
 22  12  24  1   
 23  13  14  1   
 24  13  15  1   
 25  13  25  1   
 26  14  26  1   
 27  14  27  1   
 28  14  28  1   
 29  15  29  1   
 30  15  30  1   
 31  15  31  1   
@<TRIPOS>SUBSTRUCTURE
  1 ****   7 GROUP 4 **** **** 0

# MOE 2024.06 (io_trps.svl 2023.06)
