@<TRIPOS>MOLECULE
NONAME
32 33 1 0 0 
SMALL
USER_CHARGES


@<TRIPOS>ATOM
  1 CL       0.1060     0.2120    -1.0180 Cl    1 <1>  -0.1770 
  2 C       -0.1420     1.8100    -0.3480 C.ar  1 <1>   0.1770 
  3 C       -1.2350     2.5860    -0.7190 C.ar  1 <1>  -0.1440 
  4 C        0.7940     2.2540     0.5660 C.ar  1 <1>  -0.1500 
  5 C       -1.3890     3.8450    -0.1310 C.ar  1 <1>   0.1170 
  6 C       -2.2500     2.0820    -1.7480 C.3   1 <1>  -0.0970 
  7 C        0.6440     3.5030     1.1380 C.ar  1 <1>  -0.1500 
  8 N       -2.5030     4.6370    -0.4450 N.am  1 <1>  -0.5470 
  9 C       -0.4410     4.2850     0.7910 C.ar  1 <1>  -0.1500 
 10 C       -2.6640     5.9920    -0.4810 C.2   1 <1>   0.6900 
 11 O       -1.7160     6.7430    -0.3560 O.2   1 <1>  -0.5700 
 12 N       -3.9220     6.4910    -0.6890 N.am  1 <1>  -0.6600 
 13 C       -5.1600     5.8450    -0.1580 C.3   1 <1>   0.1400 
 14 C       -4.1310     7.9200    -1.0740 C.3   1 <1>   0.1400 
 15 C       -5.8130     6.7340     0.9160 C.3   1 <1>   0.1200 
 16 C       -4.8360     8.6850     0.0570 C.3   1 <1>   0.1200 
 17 O       -6.0170     8.0290     0.4290 O.3   1 <1>  -0.5600 
 18 H        1.6290     1.6280     0.8250 H     1 <1>   0.1500 
 19 H       -1.8580     1.2750    -2.3380 H     1 <1>   0.0800 
 20 H       -2.5130     2.8680    -2.4330 H     1 <1>   0.0800 
 21 H       -3.1360     1.7370    -1.2480 H     1 <1>   0.0800 
 22 H        1.3660     3.8660     1.8500 H     1 <1>   0.1500 
 23 H       -3.2810     4.1460    -0.8690 H     1 <1>   0.3700 
 24 H       -0.5530     5.2530     1.2460 H     1 <1>   0.1500 
 25 H       -4.9380     4.8870     0.2760 H     1 <1>   0.0800 
 26 H       -5.8570     5.6970    -0.9650 H     1 <1>   0.0800 
 27 H       -4.7370     7.9620    -1.9610 H     1 <1>   0.0800 
 28 H       -3.1910     8.3960    -1.2960 H     1 <1>   0.0800 
 29 H       -5.1900     6.7890     1.7920 H     1 <1>   0.0800 
 30 H       -6.7710     6.3350     1.1970 H     1 <1>   0.0800 
 31 H       -5.0980     9.6750    -0.2720 H     1 <1>   0.0800 
 32 H       -4.1940     8.7630     0.9170 H     1 <1>   0.0800 
@<TRIPOS>BOND
  1   1   2  1   
  2   2   3  ar  
  3   2   4  ar  
  4   3   5  ar  
  5   3   6  1   
  6   4   7  ar  
  7   4  18  1   
  8   5   8  1   
  9   5   9  ar  
 10   6  19  1   
 11   6  20  1   
 12   6  21  1   
 13   7   9  ar  
 14   7  22  1   
 15   8  10  am  
 16   8  23  1   
 17   9  24  1   
 18  10  11  2   
 19  10  12  am  
 20  12  13  1   
 21  12  14  1   
 22  13  15  1   
 23  13  25  1   
 24  13  26  1   
 25  14  16  1   
 26  14  27  1   
 27  14  28  1   
 28  15  17  1   
 29  15  29  1   
 30  15  30  1   
 31  16  17  1   
 32  16  31  1   
 33  16  32  1   
@<TRIPOS>SUBSTRUCTURE
  1 ****   8 GROUP 4 **** **** 0

# MOE 2024.06 (io_trps.svl 2023.06)
