@<TRIPOS>MOLECULE
NONAME
41 43 1 0 0 
SMALL
USER_CHARGES


@<TRIPOS>ATOM
  1 O       -0.5590    -0.2610     0.1250 O.2   1 <1>  -0.5700 
  2 C       -1.6320    -0.8300     0.0180 C.2   1 <1>   0.6900 
  3 N       -1.6720    -2.2070    -0.1690 N.am  1 <1>  -0.4200 
  4 N       -2.8150    -0.1000     0.0910 N.am  1 <1>  -0.4240 
  5 C       -2.8840    -2.8920    -0.2170 C.2   1 <1>   0.7160 
  6 C       -0.3940    -2.9730    -0.2710 C.3   1 <1>   0.0600 
  7 C       -4.0330    -0.7760     0.0310 C.2   1 <1>  -0.0880 
  8 C       -2.7790     1.3770     0.2760 C.3   1 <1>   0.0600 
  9 O       -2.8740    -4.1090    -0.3350 O.2   1 <1>  -0.5700 
 10 C       -4.1010    -2.1270    -0.1170 C.2   1 <1>   0.1410 
 11 N       -5.2900    -0.3240     0.1050 N.pl3 1 <1>   0.0330 
 12 N       -5.4070    -2.5150    -0.1370 N.2   1 <1>  -0.5650 
 13 C       -6.1000    -1.4170    -0.0050 C.2   1 <1>   0.1330 
 14 C       -7.5420    -1.3340     0.0400 C.ar  1 <1>   0.0530 
 15 C       -8.2370    -0.1750    -0.3150 C.ar  1 <1>  -0.1500 
 16 C       -8.3000    -2.4320     0.4480 C.ar  1 <1>  -0.1500 
 17 C       -9.6170    -0.1090    -0.2510 C.ar  1 <1>  -0.1500 
 18 C       -9.6790    -2.3740     0.5140 C.ar  1 <1>  -0.1500 
 19 C      -10.3510    -1.2140     0.1690 C.ar  1 <1>   0.0830 
 20 O      -11.7020    -1.2370     0.2620 O.3   1 <1>  -0.3630 
 21 C      -12.4850    -0.1210    -0.0910 C.3   1 <1>   0.1200 
 22 C      -13.9560    -0.4840     0.1180 C.3   1 <1>  -0.1600 
 23 C      -14.8770     0.6860    -0.2460 C.3   1 <1>  -0.2400 
 24 H        0.3920    -2.3520    -0.6640 H     1 <1>   0.0800 
 25 H       -0.5140    -3.8170    -0.9290 H     1 <1>   0.0800 
 26 H       -0.1090    -3.3250     0.7040 H     1 <1>   0.0800 
 27 H       -1.8700     1.7840    -0.1340 H     1 <1>   0.0800 
 28 H       -2.8210     1.6080     1.3260 H     1 <1>   0.0800 
 29 H       -3.6100     1.8360    -0.2290 H     1 <1>   0.0800 
 30 H       -5.6020     0.6370     0.2520 H     1 <1>   0.2700 
 31 H       -7.6980     0.6890    -0.6560 H     1 <1>   0.1500 
 32 H       -7.7930    -3.3430     0.7160 H     1 <1>   0.1500 
 33 H      -10.1070     0.8040    -0.5330 H     1 <1>   0.1500 
 34 H      -10.2440    -3.2310     0.8330 H     1 <1>   0.1500 
 35 H      -12.2950     0.1150    -1.1230 H     1 <1>   0.0800 
 36 H      -12.2040     0.7040     0.5410 H     1 <1>   0.0800 
 37 H      -14.1110    -0.7500     1.1490 H     1 <1>   0.0800 
 38 H      -14.2000    -1.3330    -0.4970 H     1 <1>   0.0800 
 39 H      -14.6620     1.5420     0.3690 H     1 <1>   0.0800 
 40 H      -15.9040     0.4040    -0.0910 H     1 <1>   0.0800 
 41 H      -14.7510     0.9580    -1.2800 H     1 <1>   0.0800 
@<TRIPOS>BOND
  1   1   2  2   
  2   2   3  am  
  3   2   4  am  
  4   3   5  am  
  5   3   6  1   
  6   4   7  1   
  7   4   8  1   
  8   5   9  2   
  9   5  10  1   
 10   6  24  1   
 11   6  25  1   
 12   6  26  1   
 13   7  10  2   
 14   7  11  1   
 15   8  27  1   
 16   8  28  1   
 17   8  29  1   
 18  10  12  1   
 19  11  13  1   
 20  11  30  1   
 21  12  13  2   
 22  13  14  1   
 23  14  15  ar  
 24  14  16  ar  
 25  15  17  ar  
 26  15  31  1   
 27  16  18  ar  
 28  16  32  1   
 29  17  19  ar  
 30  17  33  1   
 31  18  19  ar  
 32  18  34  1   
 33  19  20  1   
 34  20  21  1   
 35  21  22  1   
 36  21  35  1   
 37  21  36  1   
 38  22  23  1   
 39  22  37  1   
 40  22  38  1   
 41  23  39  1   
 42  23  40  1   
 43  23  41  1   
@<TRIPOS>SUBSTRUCTURE
  1 ****  13 GROUP 4 **** **** 0

# MOE 2024.06 (io_trps.svl 2023.06)
