@<TRIPOS>MOLECULE
NONAME
48 50 1 0 0 
SMALL
USER_CHARGES


@<TRIPOS>ATOM
  1 O       -0.5830    -0.5250    -1.6530 O.2   1 <1>  -0.5700 
  2 C       -1.3170    -0.8860    -0.7620 C.2   1 <1>   0.5690 
  3 N       -1.0220    -1.9660     0.0190 N.am  1 <1>  -0.7300 
  4 C       -2.6210    -0.0940    -0.5100 C.3   1 <1>   0.0610 
  5 C        0.1510    -2.8570    -0.0420 C.3   1 <1>   0.2200 
  6 C       -3.4620    -0.6700     0.6620 C.3   1 <1>  -0.1600 
  7 C       -2.2810     1.3780    -0.1760 C.3   1 <1>  -0.1600 
  8 C       -3.4990    -0.1160    -1.7840 C.3   1 <1>  -0.1600 
  9 C        1.4270    -2.0660     0.2350 C.3   1 <1>  -0.2400 
 10 C        0.1970    -3.5750    -1.3880 C.3   1 <1>  -0.2400 
 11 C       -4.7510     0.1450     0.8820 C.3   1 <1>   0.0000 
 12 C       -3.5580     2.2160     0.0350 C.3   1 <1>   0.0000 
 13 C       -4.7890     0.7050    -1.5910 C.3   1 <1>   0.0000 
 14 C       -4.3690     1.6050     1.1940 C.3   1 <1>  -0.1600 
 15 C       -5.5870     0.1120    -0.4130 C.3   1 <1>  -0.1600 
 16 C       -5.5580    -0.4480     2.0440 C.3   1 <1>  -0.2400 
 17 C       -4.4060     2.1590    -1.2510 C.3   1 <1>  -0.1600 
 18 C       -3.1860     3.6680     0.3590 C.3   1 <1>  -0.2400 
 19 C       -5.6330     0.6670    -2.8710 C.3   1 <1>  -0.2400 
 20 H       -1.6890    -2.2090     0.7500 H     1 <1>   0.3700 
 21 H        0.0420    -3.6000     0.7310 H     1 <1>   0.0800 
 22 H       -2.8780    -0.6540     1.5660 H     1 <1>   0.0800 
 23 H       -3.7240    -1.6910     0.4500 H     1 <1>   0.0800 
 24 H       -1.7040     1.8010    -0.9800 H     1 <1>   0.0800 
 25 H       -1.6700     1.4120     0.7090 H     1 <1>   0.0800 
 26 H       -3.7450    -1.1340    -2.0300 H     1 <1>   0.0800 
 27 H       -2.9380     0.2870    -2.6100 H     1 <1>   0.0800 
 28 H        1.6050    -1.3450    -0.5420 H     1 <1>   0.0800 
 29 H        2.2680    -2.7330     0.2740 H     1 <1>   0.0800 
 30 H        1.3510    -1.5570     1.1790 H     1 <1>   0.0800 
 31 H        0.3580    -2.8750    -2.1880 H     1 <1>   0.0800 
 32 H       -0.7240    -4.1020    -1.5600 H     1 <1>   0.0800 
 33 H        1.0030    -4.2850    -1.3960 H     1 <1>   0.0800 
 34 H       -5.2620     2.1860     1.3530 H     1 <1>   0.0800 
 35 H       -3.7910     1.6440     2.1000 H     1 <1>   0.0800 
 36 H       -6.4930     0.6760    -0.2720 H     1 <1>   0.0800 
 37 H       -5.8660    -0.9020    -0.6390 H     1 <1>   0.0800 
 38 H       -4.9820    -0.4280     2.9520 H     1 <1>   0.0800 
 39 H       -5.8300    -1.4670     1.8340 H     1 <1>   0.0800 
 40 H       -6.4590     0.1180     2.2020 H     1 <1>   0.0800 
 41 H       -3.8500     2.5860    -2.0690 H     1 <1>   0.0800 
 42 H       -5.2980     2.7470    -1.1220 H     1 <1>   0.0800 
 43 H       -2.5930     3.7150     1.2540 H     1 <1>   0.0800 
 44 H       -4.0730     4.2600     0.5050 H     1 <1>   0.0800 
 45 H       -2.6190     4.0990    -0.4470 H     1 <1>   0.0800 
 46 H       -5.9030    -0.3450    -3.1140 H     1 <1>   0.0800 
 47 H       -5.0810     1.0800    -3.6970 H     1 <1>   0.0800 
 48 H       -6.5350     1.2400    -2.7450 H     1 <1>   0.0800 
@<TRIPOS>BOND
  1   1   2  2   
  2   2   3  am  
  3   2   4  1   
  4   3   5  1   
  5   3  20  1   
  6   4   6  1   
  7   4   7  1   
  8   4   8  1   
  9   5   9  1   
 10   5  10  1   
 11   5  21  1   
 12   6  11  1   
 13   6  22  1   
 14   6  23  1   
 15   7  12  1   
 16   7  24  1   
 17   7  25  1   
 18   8  13  1   
 19   8  26  1   
 20   8  27  1   
 21   9  28  1   
 22   9  29  1   
 23   9  30  1   
 24  10  31  1   
 25  10  32  1   
 26  10  33  1   
 27  11  14  1   
 28  11  15  1   
 29  11  16  1   
 30  12  14  1   
 31  12  17  1   
 32  12  18  1   
 33  13  15  1   
 34  13  17  1   
 35  13  19  1   
 36  14  34  1   
 37  14  35  1   
 38  15  36  1   
 39  15  37  1   
 40  16  38  1   
 41  16  39  1   
 42  16  40  1   
 43  17  41  1   
 44  17  42  1   
 45  18  43  1   
 46  18  44  1   
 47  18  45  1   
 48  19  46  1   
 49  19  47  1   
 50  19  48  1   
@<TRIPOS>SUBSTRUCTURE
  1 ****   4 GROUP 4 **** **** 0

# MOE 2024.06 (io_trps.svl 2023.06)
