@<TRIPOS>MOLECULE
NONAME
38 39 1 0 0 
SMALL
USER_CHARGES


@<TRIPOS>ATOM
  1 O        0.0040    -0.4080    -0.0140 O.3   1 <1>  -0.3630 
  2 C       -1.2330    -0.9630    -0.0440 C.ar  1 <1>   0.0820 
  3 C        1.1700    -1.1900    -0.0250 C.3   1 <1>   0.1200 
  4 C       -2.3080    -0.1150    -0.0310 C.ar  1 <1>  -0.1500 
  5 C       -1.4510    -2.3540    -0.0870 C.ar  1 <1>  -0.1500 
  6 C        2.3560    -0.2260     0.0160 C.3   1 <1>  -0.1600 
  7 C       -3.6310    -0.5940    -0.0590 C.ar  1 <1>   0.0000 
  8 C       -2.7280    -2.8450    -0.1150 C.ar  1 <1>  -0.1500 
  9 C        3.6780    -0.9850     0.0090 C.3   1 <1>   0.3430 
 10 C       -3.8470    -1.9880    -0.1020 C.ar  1 <1>   0.0000 
 11 C       -4.7500     0.2640    -0.0460 C.ar  1 <1>  -0.1500 
 12 N        4.7930    -0.0070     0.0490 N.4   1 <1>  -0.9060 
 13 C       -5.1720    -2.4680    -0.1300 C.ar  1 <1>  -0.1500 
 14 C       -6.0250    -0.2300    -0.0740 C.ar  1 <1>  -0.1500 
 15 C        6.1280    -0.6790     0.0450 C.3   1 <1>   0.3430 
 16 C       -6.2380    -1.6120    -0.1170 C.ar  1 <1>  -0.1500 
 17 C        7.2800     0.3330     0.0870 C.3   1 <1>   0.1200 
 18 O        8.4610    -0.3860     0.0790 O.3   1 <1>  -0.6800 
 19 H        1.1710    -1.7780    -0.9270 H     1 <1>   0.0800 
 20 H        1.1520    -1.8290     0.8420 H     1 <1>   0.0800 
 21 H       -2.1460     0.9460     0.0020 H     1 <1>   0.1500 
 22 H       -0.6290    -3.0420    -0.0980 H     1 <1>   0.1500 
 23 H        2.2790     0.3650     0.9120 H     1 <1>   0.0800 
 24 H        2.2980     0.4160    -0.8450 H     1 <1>   0.0800 
 25 H       -2.9020    -3.9050    -0.1480 H     1 <1>   0.1500 
 26 H        3.7470    -1.5870    -0.8840 H     1 <1>   0.0800 
 27 H        3.7280    -1.6380     0.8660 H     1 <1>   0.0800 
 28 H       -4.5800     1.3250    -0.0130 H     1 <1>   0.1500 
 29 H        4.7000     0.5750     0.8920 H     1 <1>   0.4500 
 30 H        4.7180     0.6230    -0.7600 H     1 <1>   0.4500 
 31 H       -5.3300    -3.5310    -0.1630 H     1 <1>   0.1500 
 32 H       -6.8740     0.4310    -0.0640 H     1 <1>   0.1500 
 33 H        6.2300    -1.2770    -0.8470 H     1 <1>   0.0800 
 34 H        6.2110    -1.3280     0.9010 H     1 <1>   0.0800 
 35 H       -7.2480    -1.9850    -0.1390 H     1 <1>   0.1500 
 36 H        7.2550     0.9190     0.9890 H     1 <1>   0.0800 
 37 H        7.2740     0.9710    -0.7810 H     1 <1>   0.0800 
 38 H        9.2490     0.2000     0.1050 H     1 <1>   0.4000 
@<TRIPOS>BOND
  1   1   2  1   
  2   1   3  1   
  3   2   4  ar  
  4   2   5  ar  
  5   3   6  1   
  6   3  19  1   
  7   3  20  1   
  8   4   7  ar  
  9   4  21  1   
 10   5   8  ar  
 11   5  22  1   
 12   6   9  1   
 13   6  23  1   
 14   6  24  1   
 15   7  10  ar  
 16   7  11  ar  
 17   8  10  ar  
 18   8  25  1   
 19   9  12  1   
 20   9  26  1   
 21   9  27  1   
 22  10  13  ar  
 23  11  14  ar  
 24  11  28  1   
 25  12  15  1   
 26  12  29  1   
 27  12  30  1   
 28  13  16  ar  
 29  13  31  1   
 30  14  16  ar  
 31  14  32  1   
 32  15  17  1   
 33  15  33  1   
 34  15  34  1   
 35  16  35  1   
 36  17  18  1   
 37  17  36  1   
 38  17  37  1   
 39  18  38  1   
@<TRIPOS>SUBSTRUCTURE
  1 ****   1 GROUP 4 **** **** 0

# MOE 2024.06 (io_trps.svl 2023.06)
