@<TRIPOS>MOLECULE
NONAME
49 51 1 0 0 
SMALL
USER_CHARGES


@<TRIPOS>ATOM
  1 S       -0.0390     0.0730    -1.5810 S.o2  1 <1>   1.4470 
  2 O       -0.9760     1.1370    -1.8770 O.2   1 <1>  -0.6500 
  3 O        0.4280    -0.7780    -2.6540 O.2   1 <1>  -0.6500 
  4 N        1.3290     0.8160    -0.9040 N.am  1 <1>  -0.8490 
  5 C       -0.6620    -0.9580    -0.2240 C.ar  1 <1>  -0.0090 
  6 C        0.9660     1.7900     0.1290 C.3   1 <1>   0.1960 
  7 C        2.1630     1.4290    -1.9420 C.3   1 <1>   0.1960 
  8 C       -1.9680    -0.8380     0.2360 C.ar  1 <1>  -0.1500 
  9 C        0.1590    -1.8930     0.3950 C.ar  1 <1>  -0.1500 
 10 C        2.2260     2.3070     0.8260 C.3   1 <1>  -0.1600 
 11 C        3.4680     1.9450    -1.3310 C.3   1 <1>  -0.1600 
 12 C       -2.4360    -1.6180     1.2790 C.ar  1 <1>  -0.1500 
 13 C       -0.3030    -2.6770     1.4380 C.ar  1 <1>  -0.1500 
 14 C        3.1950     2.9380    -0.1880 C.3   1 <1>  -0.0190 
 15 C       -1.6040    -2.5410     1.8880 C.ar  1 <1>  -0.1440 
 16 C        4.4790     3.4230     0.4760 C.2   1 <1>   0.5690 
 17 C       -2.1170    -3.4000     3.0300 C.3   1 <1>  -0.0970 
 18 O        4.7320     4.6030     0.4690 O.2   1 <1>  -0.5700 
 19 N        5.3080     2.5250     1.0580 N.am  1 <1>  -0.7300 
 20 C        6.6180     2.8360     1.6690 C.3   1 <1>   0.2840 
 21 C        7.6450     1.7930     1.2420 C.ar  1 <1>   0.1670 
 22 N        7.3820     0.5300     1.5600 N.ar  1 <1>  -0.6200 
 23 C        8.7800     2.1970     0.5530 C.ar  1 <1>  -0.1500 
 24 C        8.2910    -0.3570     1.1830 C.ar  1 <1>   0.1600 
 25 C        9.7150     1.2610     0.1660 C.ar  1 <1>  -0.1500 
 26 C        9.4530    -0.0510     0.4970 C.ar  1 <1>  -0.1500 
 27 H        0.3290     1.3250     0.8640 H     1 <1>   0.0800 
 28 H        0.4250     2.6130    -0.3110 H     1 <1>   0.0800 
 29 H        1.6260     2.2350    -2.4150 H     1 <1>   0.0800 
 30 H        2.4040     0.6980    -2.6970 H     1 <1>   0.0800 
 31 H       -2.6280    -0.1240    -0.2280 H     1 <1>   0.1500 
 32 H        1.1750    -2.0060     0.0530 H     1 <1>   0.1500 
 33 H        2.6990     1.4860     1.3370 H     1 <1>   0.0800 
 34 H        1.9500     3.0400     1.5630 H     1 <1>   0.0800 
 35 H        4.0520     2.4270    -2.0950 H     1 <1>   0.0800 
 36 H        4.0310     1.1020    -0.9700 H     1 <1>   0.0800 
 37 H       -3.4530    -1.5040     1.6130 H     1 <1>   0.1500 
 38 H        0.3570    -3.3940     1.8970 H     1 <1>   0.1500 
 39 H        2.7120     3.8020    -0.6110 H     1 <1>   0.0800 
 40 H       -2.8590    -2.8680     3.5970 H     1 <1>   0.0800 
 41 H       -1.3120    -3.6670     3.6920 H     1 <1>   0.0800 
 42 H       -2.5570    -4.2990     2.6390 H     1 <1>   0.0800 
 43 H        5.1230     1.5190     1.0110 H     1 <1>   0.3700 
 44 H        6.5200     2.8140     2.7400 H     1 <1>   0.0800 
 45 H        6.9360     3.8220     1.3770 H     1 <1>   0.0800 
 46 H        8.9320     3.2350     0.3180 H     1 <1>   0.1500 
 47 H        8.0990    -1.3860     1.4350 H     1 <1>   0.1500 
 48 H       10.6060     1.5410    -0.3680 H     1 <1>   0.1500 
 49 H       10.1420    -0.8300     0.2260 H     1 <1>   0.1500 
@<TRIPOS>BOND
  1   1   2  2   
  2   1   3  2   
  3   1   4  am  
  4   1   5  1   
  5   4   6  1   
  6   4   7  1   
  7   5   8  ar  
  8   5   9  ar  
  9   6  10  1   
 10   6  27  1   
 11   6  28  1   
 12   7  11  1   
 13   7  29  1   
 14   7  30  1   
 15   8  12  ar  
 16   8  31  1   
 17   9  13  ar  
 18   9  32  1   
 19  10  14  1   
 20  10  33  1   
 21  10  34  1   
 22  11  14  1   
 23  11  35  1   
 24  11  36  1   
 25  12  15  ar  
 26  12  37  1   
 27  13  15  ar  
 28  13  38  1   
 29  14  16  1   
 30  14  39  1   
 31  15  17  1   
 32  16  18  2   
 33  16  19  am  
 34  17  40  1   
 35  17  41  1   
 36  17  42  1   
 37  19  20  1   
 38  19  43  1   
 39  20  21  1   
 40  20  44  1   
 41  20  45  1   
 42  21  22  ar  
 43  21  23  ar  
 44  22  24  ar  
 45  23  25  ar  
 46  23  46  1   
 47  24  26  ar  
 48  24  47  1   
 49  25  26  ar  
 50  25  48  1   
 51  26  49  1   
@<TRIPOS>SUBSTRUCTURE
  1 ****  10 GROUP 4 **** **** 0

# MOE 2024.06 (io_trps.svl 2023.06)
