@<TRIPOS>MOLECULE
NONAME
33 35 1 0 0 
SMALL
USER_CHARGES


@<TRIPOS>ATOM
  1 O        0.3260    -0.9470     0.7110 O.2   1 <1>  -0.5700 
  2 C       -0.2530    -1.9890     0.5410 C.2   1 <1>   0.5690 
  3 N        0.2310    -3.0660    -0.1490 N.am  1 <1>  -0.4200 
  4 C       -1.6480    -2.2550     1.0850 C.3   1 <1>  -0.0190 
  5 C       -0.6460    -4.1140    -0.2220 C.2   1 <1>   0.5690 
  6 C        1.5710    -3.0800    -0.7840 C.3   1 <1>   0.1400 
  7 C       -1.9360    -3.8140     0.5250 C.3   1 <1>  -0.0190 
  8 C       -2.8500    -1.2920     0.4890 C.3   1 <1>   0.0580 
  9 O       -0.4520    -5.1550    -0.7960 O.2   1 <1>  -0.5700 
 10 C        2.6890    -3.3250     0.2480 C.3   1 <1>  -0.0800 
 11 C       -3.3060    -3.7580    -0.3960 C.3   1 <1>   0.0580 
 12 C       -4.2590    -1.4240    -0.3120 C.2   1 <1>  -0.2880 
 13 C       -3.0370    -2.5320     0.0460 C.3   1 <1>  -0.1600 
 14 C        4.0570    -3.2620    -0.4430 C.3   1 <1>  -0.2400 
 15 C        2.5390    -4.6780     0.9620 C.3   1 <1>  -0.2400 
 16 C       -4.4990    -2.7200    -0.7770 C.2   1 <1>  -0.2880 
 17 H       -1.6170    -2.2210     2.1610 H     1 <1>   0.0800 
 18 H        1.7320    -2.1310    -1.2670 H     1 <1>   0.0800 
 19 H        1.6010    -3.8460    -1.5400 H     1 <1>   0.0800 
 20 H       -2.0410    -4.5130     1.3380 H     1 <1>   0.0800 
 21 H       -2.3170    -0.5600    -0.1030 H     1 <1>   0.0800 
 22 H        2.6550    -2.5370     0.9820 H     1 <1>   0.0800 
 23 H       -2.9690    -4.0880    -1.3700 H     1 <1>   0.0800 
 24 H       -4.8740    -0.5450    -0.4210 H     1 <1>   0.1500 
 25 H       -3.6380    -2.7910     1.0760 H     1 <1>   0.0800 
 26 H       -2.4240    -2.2980    -0.9220 H     1 <1>   0.0800 
 27 H        4.1440    -4.0350    -1.1860 H     1 <1>   0.0800 
 28 H        4.8460    -3.3900     0.2780 H     1 <1>   0.0800 
 29 H        4.1920    -2.3070    -0.9200 H     1 <1>   0.0800 
 30 H        2.5120    -5.4820     0.2470 H     1 <1>   0.0800 
 31 H        1.6330    -4.7060     1.5400 H     1 <1>   0.0800 
 32 H        3.3640    -4.8410     1.6320 H     1 <1>   0.0800 
 33 H       -5.3440    -3.0900    -1.3350 H     1 <1>   0.1500 
@<TRIPOS>BOND
  1   1   2  2   
  2   2   3  am  
  3   2   4  1   
  4   3   5  am  
  5   3   6  1   
  6   4   7  1   
  7   4   8  1   
  8   4  17  1   
  9   5   7  1   
 10   5   9  2   
 11   6  10  1   
 12   6  18  1   
 13   6  19  1   
 14   7  11  1   
 15   7  20  1   
 16   8  12  1   
 17   8  13  1   
 18   8  21  1   
 19  10  14  1   
 20  10  15  1   
 21  10  22  1   
 22  11  13  1   
 23  11  16  1   
 24  11  23  1   
 25  12  16  2   
 26  12  24  1   
 27  13  25  1   
 28  13  26  1   
 29  14  27  1   
 30  14  28  1   
 31  14  29  1   
 32  15  30  1   
 33  15  31  1   
 34  15  32  1   
 35  16  33  1   
@<TRIPOS>SUBSTRUCTURE
  1 ****   3 GROUP 4 **** **** 0

# MOE 2024.06 (io_trps.svl 2023.06)
