@<TRIPOS>MOLECULE
NONAME
35 37 1 0 0 
SMALL
USER_CHARGES


@<TRIPOS>ATOM
  1 O        0.0350    -0.4960    -0.5220 O.2   1 <1>  -0.5700 
  2 C        0.0270    -1.6860    -0.2720 C.2   1 <1>   0.6160 
  3 N       -1.1690    -2.3730    -0.3280 N.am  1 <1>  -0.6600 
  4 C        1.2600    -2.3450     0.0530 C.2   1 <1>   0.0790 
  5 C       -2.4340    -1.7310    -0.8070 C.3   1 <1>   0.1400 
  6 C       -1.3930    -3.7270     0.2690 C.3   1 <1>   0.1400 
  7 C        1.8520    -1.8390     1.2490 C.1   1 <1>   0.4920 
  8 C        1.7680    -3.3610    -0.6980 C.2   1 <1>  -0.1780 
  9 C       -3.5240    -1.8090     0.2730 C.3   1 <1>   0.1200 
 10 C       -2.5470    -3.6860     1.2860 C.3   1 <1>   0.1200 
 11 N        2.3260    -1.4770     2.2220 N.1   1 <1>  -0.5570 
 12 C        2.9640    -4.1460    -0.5390 C.ar  1 <1>   0.0280 
 13 O       -3.6920    -3.1290     0.7080 O.3   1 <1>  -0.5600 
 14 C        4.1460    -3.6390     0.0160 C.ar  1 <1>  -0.1500 
 15 C        2.9600    -5.4810    -0.9720 C.ar  1 <1>  -0.1500 
 16 C        5.2430    -4.4660     0.1290 C.ar  1 <1>   0.0820 
 17 C        4.0730    -6.3000    -0.8530 C.ar  1 <1>  -0.1500 
 18 O        6.4500    -4.1760     0.6280 O.3   1 <1>  -0.3630 
 19 C        5.2120    -5.7630    -0.2900 C.ar  1 <1>   0.0820 
 20 C        7.2320    -5.3650     0.5260 C.3   1 <1>   0.4000 
 21 O        6.3900    -6.3480    -0.0730 O.3   1 <1>  -0.3630 
 22 H       -2.2700    -0.7000    -1.0690 H     1 <1>   0.0800 
 23 H       -2.7770    -2.2420    -1.6900 H     1 <1>   0.0800 
 24 H       -1.6420    -4.4220    -0.5150 H     1 <1>   0.0800 
 25 H       -0.5080    -4.0840     0.7640 H     1 <1>   0.0800 
 26 H        1.1960    -3.6550    -1.5620 H     1 <1>   0.1500 
 27 H       -4.4650    -1.4710    -0.1240 H     1 <1>   0.0800 
 28 H       -3.2650    -1.1940     1.1180 H     1 <1>   0.0800 
 29 H       -2.2750    -3.1010     2.1470 H     1 <1>   0.0800 
 30 H       -2.7940    -4.6820     1.6090 H     1 <1>   0.0800 
 31 H        4.2330    -2.6210     0.3470 H     1 <1>   0.1500 
 32 H        2.0660    -5.8890    -1.4100 H     1 <1>   0.1500 
 33 H        4.0650    -7.3240    -1.1830 H     1 <1>   0.1500 
 34 H        8.0840    -5.1850    -0.1050 H     1 <1>   0.0800 
 35 H        7.5240    -5.6900     1.5090 H     1 <1>   0.0800 
@<TRIPOS>BOND
  1   1   2  2   
  2   2   3  am  
  3   2   4  1   
  4   3   5  1   
  5   3   6  1   
  6   4   7  1   
  7   4   8  2   
  8   5   9  1   
  9   5  22  1   
 10   5  23  1   
 11   6  10  1   
 12   6  24  1   
 13   6  25  1   
 14   7  11  3   
 15   8  12  1   
 16   8  26  1   
 17   9  13  1   
 18   9  27  1   
 19   9  28  1   
 20  10  13  1   
 21  10  29  1   
 22  10  30  1   
 23  12  14  ar  
 24  12  15  ar  
 25  14  16  ar  
 26  14  31  1   
 27  15  17  ar  
 28  15  32  1   
 29  16  18  1   
 30  16  19  ar  
 31  17  19  ar  
 32  17  33  1   
 33  18  20  1   
 34  19  21  1   
 35  20  21  1   
 36  20  34  1   
 37  20  35  1   
@<TRIPOS>SUBSTRUCTURE
  1 ****   8 GROUP 4 **** **** 0

# MOE 2024.06 (io_trps.svl 2023.06)
