@<TRIPOS>MOLECULE
NONAME
43 45 1 0 0 
SMALL
USER_CHARGES


@<TRIPOS>ATOM
  1 CL       0.2400     0.5290    -1.5100 Cl    1 <1>  -0.1770 
  2 C        1.7480     1.0300    -0.7860 C.ar  1 <1>   0.1770 
  3 C        2.8940     0.3060    -1.0420 C.ar  1 <1>  -0.1500 
  4 C        1.7660     2.1450     0.0310 C.ar  1 <1>  -0.1500 
  5 C        4.1000     0.6900    -0.4710 C.ar  1 <1>   0.1000 
  6 C        2.9650     2.5380     0.6020 C.ar  1 <1>  -0.1500 
  7 N        5.2510    -0.0540    -0.7260 N.pl3 1 <1>  -0.8380 
  8 C        4.1190     1.8150     0.3520 C.ar  1 <1>  -0.1500 
  9 C        6.5500     0.6150    -1.0420 C.3   1 <1>   0.2090 
 10 C        5.3180    -1.4690    -0.2520 C.3   1 <1>   0.2090 
 11 C        7.5870     0.3930     0.0790 C.3   1 <1>   0.3430 
 12 C        6.3760    -1.6370     0.8590 C.3   1 <1>   0.3430 
 13 N        7.7150    -1.0590     0.4780 N.4   1 <1>  -0.9590 
 14 C        8.7310    -1.2490     1.5480 C.3   1 <1>   0.4860 
 15 C       10.0730    -0.7920     1.0150 C.ar  1 <1>  -0.1430 
 16 C       10.7510    -1.5570     0.0750 C.ar  1 <1>  -0.1500 
 17 C       10.6290     0.4000     1.4560 C.ar  1 <1>  -0.1500 
 18 C       11.9660    -1.1300    -0.4340 C.ar  1 <1>  -0.1430 
 19 C       11.8420     0.8290     0.9480 C.ar  1 <1>  -0.1500 
 20 C       12.5060     0.0670     0.0040 C.ar  1 <1>  -0.1500 
 21 C       12.7100    -1.9630    -1.4630 C.3   1 <1>  -0.0970 
 22 H        2.8500    -0.5490    -1.6900 H     1 <1>   0.1500 
 23 H        0.8580     2.6920     0.2120 H     1 <1>   0.1500 
 24 H        2.9940     3.4060     1.2400 H     1 <1>   0.1500 
 25 H        5.0380     2.1300     0.8060 H     1 <1>   0.1500 
 26 H        6.3930     1.6700    -1.1870 H     1 <1>   0.0800 
 27 H        6.9310     0.2190    -1.9680 H     1 <1>   0.0800 
 28 H        5.5550    -2.1090    -1.0840 H     1 <1>   0.0800 
 29 H        4.3560    -1.7700     0.1280 H     1 <1>   0.0800 
 30 H        7.2860     0.9750     0.9340 H     1 <1>   0.0800 
 31 H        8.5420     0.7680    -0.2540 H     1 <1>   0.0800 
 32 H        6.4780    -2.6860     1.0870 H     1 <1>   0.0800 
 33 H        6.0090    -1.1420     1.7430 H     1 <1>   0.0800 
 34 H        8.0630    -1.5560    -0.3510 H     1 <1>   0.4500 
 35 H        8.7940    -2.2890     1.8240 H     1 <1>   0.0800 
 36 H        8.4670    -0.6770     2.4220 H     1 <1>   0.0800 
 37 H       10.3450    -2.4930    -0.2680 H     1 <1>   0.1500 
 38 H       10.1340     1.0070     2.1950 H     1 <1>   0.1500 
 39 H       12.2770     1.7540     1.2880 H     1 <1>   0.1500 
 40 H       13.4500     0.4090    -0.3850 H     1 <1>   0.1500 
 41 H       12.4450    -3.0020    -1.3800 H     1 <1>   0.0800 
 42 H       13.7720    -1.8760    -1.3160 H     1 <1>   0.0800 
 43 H       12.4710    -1.6210    -2.4540 H     1 <1>   0.0800 
@<TRIPOS>BOND
  1   1   2  1   
  2   2   3  ar  
  3   2   4  ar  
  4   3   5  ar  
  5   3  22  1   
  6   4   6  ar  
  7   4  23  1   
  8   5   7  1   
  9   5   8  ar  
 10   6   8  ar  
 11   6  24  1   
 12   7   9  1   
 13   7  10  1   
 14   8  25  1   
 15   9  11  1   
 16   9  26  1   
 17   9  27  1   
 18  10  12  1   
 19  10  28  1   
 20  10  29  1   
 21  11  13  1   
 22  11  30  1   
 23  11  31  1   
 24  12  13  1   
 25  12  32  1   
 26  12  33  1   
 27  13  14  1   
 28  13  34  1   
 29  14  15  1   
 30  14  35  1   
 31  14  36  1   
 32  15  16  ar  
 33  15  17  ar  
 34  16  18  ar  
 35  16  37  1   
 36  17  19  ar  
 37  17  38  1   
 38  18  20  ar  
 39  18  21  1   
 40  19  20  ar  
 41  19  39  1   
 42  20  40  1   
 43  21  41  1   
 44  21  42  1   
 45  21  43  1   
@<TRIPOS>SUBSTRUCTURE
  1 ****  11 GROUP 4 **** **** 0

# MOE 2024.06 (io_trps.svl 2023.06)
