@<TRIPOS>MOLECULE
NONAME
59 61 1 0 0 
SMALL
USER_CHARGES


@<TRIPOS>ATOM
  1 S        1.0350    -1.9450     1.3820 S.o2  1 <1>   1.3330 
  2 O        0.1270    -1.5230     2.4230 O.2   1 <1>  -0.6500 
  3 O        1.8040    -3.1500     1.5890 O.2   1 <1>  -0.6500 
  4 N        0.1630    -2.1450    -0.0600 N.am  1 <1>  -0.8490 
  5 C        2.1230    -0.5650     1.0860 C.3   1 <1>  -0.1350 
  6 C       -1.2460    -2.5240     0.1810 C.3   1 <1>   0.2760 
  7 C        0.9090    -2.9110    -1.1050 C.3   1 <1>   0.2570 
  8 C       -1.8490    -3.5320    -0.8210 C.3   1 <1>  -0.1600 
  9 C       -2.0860    -1.2370     0.1720 C.3   1 <1>  -0.1600 
 10 C        2.2550    -2.3140    -1.5650 C.2   1 <1>   0.5690 
 11 C       -3.3170    -3.8370    -0.4880 C.3   1 <1>  -0.1600 
 12 C       -3.5620    -1.5170     0.4910 C.3   1 <1>  -0.1600 
 13 O        2.1980    -1.2340    -2.1100 O.2   1 <1>  -0.5700 
 14 N        3.4680    -2.9520    -1.4030 N.am  1 <1>  -0.6600 
 15 C       -4.1550    -2.5530    -0.4720 C.3   1 <1>  -0.1600 
 16 C        4.7090    -2.3900    -2.0140 C.3   1 <1>   0.1400 
 17 C        3.7070    -4.2310    -0.6690 C.3   1 <1>   0.1400 
 18 C        5.7670    -2.1530    -0.9350 C.3   1 <1>  -0.1600 
 19 C        4.7700    -4.0240     0.4150 C.3   1 <1>  -0.1600 
 20 C        6.0750    -3.4410    -0.1510 C.3   1 <1>  -0.0800 
 21 C        7.0900    -3.1970     0.9810 C.3   1 <1>  -0.0170 
 22 C        8.4300    -2.6980     0.4570 C.ar  1 <1>  -0.1440 
 23 C        8.7690    -1.3570     0.5550 C.ar  1 <1>  -0.1500 
 24 C        9.3250    -3.5830    -0.1250 C.ar  1 <1>  -0.1500 
 25 C        9.9860    -0.9050     0.0740 C.ar  1 <1>  -0.1500 
 26 C       10.5430    -3.1330    -0.6050 C.ar  1 <1>  -0.1500 
 27 C       10.8740    -1.7930    -0.5060 C.ar  1 <1>  -0.1500 
 28 H        2.9070    -0.8240     0.4060 H     1 <1>   0.0800 
 29 H        2.5720    -0.2540     2.0080 H     1 <1>   0.0800 
 30 H        1.5690     0.2580     0.6790 H     1 <1>   0.0800 
 31 H       -1.3290    -2.9800     1.1550 H     1 <1>   0.0800 
 32 H        0.3180    -2.9330    -2.0000 H     1 <1>   0.0800 
 33 H        1.0280    -3.9260    -0.7820 H     1 <1>   0.0800 
 34 H       -1.3010    -4.4560    -0.7890 H     1 <1>   0.0800 
 35 H       -1.8140    -3.1270    -1.8170 H     1 <1>   0.0800 
 36 H       -2.0130    -0.7760    -0.7970 H     1 <1>   0.0800 
 37 H       -1.7040    -0.5450     0.9000 H     1 <1>   0.0800 
 38 H       -3.3760    -4.3140     0.4760 H     1 <1>   0.0800 
 39 H       -3.7200    -4.5180    -1.2180 H     1 <1>   0.0800 
 40 H       -4.1240    -0.6010     0.4280 H     1 <1>   0.0800 
 41 H       -3.6410    -1.8810     1.5020 H     1 <1>   0.0800 
 42 H       -5.1640    -2.7830    -0.1770 H     1 <1>   0.0800 
 43 H       -4.1890    -2.1360    -1.4640 H     1 <1>   0.0800 
 44 H        4.5070    -1.4610    -2.5210 H     1 <1>   0.0800 
 45 H        5.0850    -3.0850    -2.7450 H     1 <1>   0.0800 
 46 H        4.0470    -4.9740    -1.3700 H     1 <1>   0.0800 
 47 H        2.8140    -4.6000    -0.2040 H     1 <1>   0.0800 
 48 H        5.4180    -1.3850    -0.2680 H     1 <1>   0.0800 
 49 H        6.6620    -1.7920    -1.4110 H     1 <1>   0.0800 
 50 H        4.9700    -4.9700     0.8880 H     1 <1>   0.0800 
 51 H        4.3730    -3.3660     1.1670 H     1 <1>   0.0800 
 52 H        6.4990    -4.1580    -0.8340 H     1 <1>   0.0800 
 53 H        7.2540    -4.1140     1.5190 H     1 <1>   0.0800 
 54 H        6.6880    -2.4860     1.6810 H     1 <1>   0.0800 
 55 H        8.0860    -0.6580     1.0040 H     1 <1>   0.1500 
 56 H        9.0780    -4.6260    -0.2060 H     1 <1>   0.1500 
 57 H       10.2410     0.1370     0.1530 H     1 <1>   0.1500 
 58 H       11.2320    -3.8250    -1.0560 H     1 <1>   0.1500 
 59 H       11.8200    -1.4420    -0.8800 H     1 <1>   0.1500 
@<TRIPOS>BOND
  1   1   2  2   
  2   1   3  2   
  3   1   4  am  
  4   1   5  1   
  5   4   6  1   
  6   4   7  1   
  7   5  28  1   
  8   5  29  1   
  9   5  30  1   
 10   6   8  1   
 11   6   9  1   
 12   6  31  1   
 13   7  10  1   
 14   7  32  1   
 15   7  33  1   
 16   8  11  1   
 17   8  34  1   
 18   8  35  1   
 19   9  12  1   
 20   9  36  1   
 21   9  37  1   
 22  10  13  2   
 23  10  14  am  
 24  11  15  1   
 25  11  38  1   
 26  11  39  1   
 27  12  15  1   
 28  12  40  1   
 29  12  41  1   
 30  14  16  1   
 31  14  17  1   
 32  15  42  1   
 33  15  43  1   
 34  16  18  1   
 35  16  44  1   
 36  16  45  1   
 37  17  19  1   
 38  17  46  1   
 39  17  47  1   
 40  18  20  1   
 41  18  48  1   
 42  18  49  1   
 43  19  20  1   
 44  19  50  1   
 45  19  51  1   
 46  20  21  1   
 47  20  52  1   
 48  21  22  1   
 49  21  53  1   
 50  21  54  1   
 51  22  23  ar  
 52  22  24  ar  
 53  23  25  ar  
 54  23  55  1   
 55  24  26  ar  
 56  24  56  1   
 57  25  27  ar  
 58  25  57  1   
 59  26  27  ar  
 60  26  58  1   
 61  27  59  1   
@<TRIPOS>SUBSTRUCTURE
  1 ****  14 GROUP 4 **** **** 0

# MOE 2024.06 (io_trps.svl 2023.06)
