@<TRIPOS>MOLECULE
NONAME
41 42 1 0 0 
SMALL
USER_CHARGES


@<TRIPOS>ATOM
  1 CL       1.1420     0.4940     2.7200 Cl    1 <1>  -0.1770 
  2 C        2.4120     0.6870     1.5310 C.ar  1 <1>   0.1770 
  3 C        2.3710     1.7210     0.6060 C.ar  1 <1>   0.0830 
  4 C        3.4590    -0.2100     1.5380 C.ar  1 <1>  -0.1500 
  5 O        1.3630     2.6220     0.5800 O.3   1 <1>  -0.3630 
  6 C        3.4020     1.8540    -0.3070 C.ar  1 <1>  -0.1500 
  7 C        4.4900    -0.0730     0.6090 C.ar  1 <1>   0.0830 
  8 C        0.1760     2.2110    -0.0610 C.3   1 <1>   0.0400 
  9 C        4.4730     0.9650    -0.3240 C.ar  1 <1>  -0.0090 
 10 O        5.5410    -0.9310     0.5750 O.3   1 <1>  -0.3630 
 11 S        5.8090     1.1690    -1.5360 S.o2  1 <1>   1.4470 
 12 C        5.6540    -2.0300     1.4520 C.3   1 <1>   0.0400 
 13 O        5.5990     2.4080    -2.2580 O.2   1 <1>  -0.6500 
 14 O        5.9570    -0.0450    -2.3100 O.2   1 <1>  -0.6500 
 15 N        7.2130     1.4080    -0.6090 N.am  1 <1>  -0.8490 
 16 C        7.1720     2.6900     0.1000 C.3   1 <1>   0.1960 
 17 C        8.4280     1.2280    -1.4100 C.3   1 <1>   0.1960 
 18 C        8.2700     2.8340     1.1610 C.3   1 <1>  -0.1600 
 19 C        9.5860     0.7650    -0.5210 C.3   1 <1>  -0.1600 
 20 C        9.6510     3.1340     0.5610 C.3   1 <1>  -0.1600 
 21 C       10.4260     1.8880     0.1100 C.3   1 <1>  -0.1600 
 22 H        3.4490    -0.9950     2.2680 H     1 <1>   0.1500 
 23 H        3.3650     2.6660    -1.0140 H     1 <1>   0.1500 
 24 H       -0.5230     3.0280    -0.0290 H     1 <1>   0.0800 
 25 H       -0.2310     1.3610     0.4560 H     1 <1>   0.0800 
 26 H        0.4000     1.9580    -1.0820 H     1 <1>   0.0800 
 27 H        4.8110    -2.6820     1.3060 H     1 <1>   0.0800 
 28 H        5.6970    -1.6690     2.4640 H     1 <1>   0.0800 
 29 H        6.5630    -2.5520     1.2120 H     1 <1>   0.0800 
 30 H        6.2260     2.7730     0.6080 H     1 <1>   0.0800 
 31 H        7.2310     3.5040    -0.6040 H     1 <1>   0.0800 
 32 H        8.6740     2.1270    -1.9500 H     1 <1>   0.0800 
 33 H        8.2690     0.4490    -2.1360 H     1 <1>   0.0800 
 34 H        8.2970     1.9640     1.7930 H     1 <1>   0.0800 
 35 H        7.9990     3.6690     1.7830 H     1 <1>   0.0800 
 36 H       10.2460     0.1600    -1.1170 H     1 <1>   0.0800 
 37 H        9.1910     0.1250     0.2490 H     1 <1>   0.0800 
 38 H       10.2480     3.6450     1.2970 H     1 <1>   0.0800 
 39 H        9.5390     3.8070    -0.2710 H     1 <1>   0.0800 
 40 H       11.1770     2.2010    -0.5950 H     1 <1>   0.0800 
 41 H       10.9440     1.4750     0.9580 H     1 <1>   0.0800 
@<TRIPOS>BOND
  1   1   2  1   
  2   2   3  ar  
  3   2   4  ar  
  4   3   5  1   
  5   3   6  ar  
  6   4   7  ar  
  7   4  22  1   
  8   5   8  1   
  9   6   9  ar  
 10   6  23  1   
 11   7   9  ar  
 12   7  10  1   
 13   8  24  1   
 14   8  25  1   
 15   8  26  1   
 16   9  11  1   
 17  10  12  1   
 18  11  13  2   
 19  11  14  2   
 20  11  15  am  
 21  12  27  1   
 22  12  28  1   
 23  12  29  1   
 24  15  16  1   
 25  15  17  1   
 26  16  18  1   
 27  16  30  1   
 28  16  31  1   
 29  17  19  1   
 30  17  32  1   
 31  17  33  1   
 32  18  20  1   
 33  18  34  1   
 34  18  35  1   
 35  19  21  1   
 36  19  36  1   
 37  19  37  1   
 38  20  21  1   
 39  20  38  1   
 40  20  39  1   
 41  21  40  1   
 42  21  41  1   
@<TRIPOS>SUBSTRUCTURE
  1 ****   9 GROUP 4 **** **** 0

# MOE 2024.06 (io_trps.svl 2023.06)
