@<TRIPOS>MOLECULE
NONAME
31 32 1 0 0 
SMALL
USER_CHARGES


@<TRIPOS>ATOM
  1 F       -2.0140     2.6960    -1.5540 F     1 <1>  -0.1900 
  2 C       -2.5320     1.8000    -0.7580 C.ar  1 <1>   0.1900 
  3 C       -2.5070     0.4740    -1.1460 C.ar  1 <1>  -0.1500 
  4 C       -3.0810     2.2100     0.4410 C.ar  1 <1>  -0.1500 
  5 C       -3.0470    -0.4840    -0.2990 C.ar  1 <1>  -0.1440 
  6 C       -3.6250     1.2530     1.2790 C.ar  1 <1>  -0.1500 
  7 C       -3.6080    -0.0840     0.9080 C.ar  1 <1>  -0.1500 
  8 C       -3.0240    -1.9560    -0.6850 C.3   1 <1>  -0.0160 
  9 C       -1.9320    -2.7280     0.0810 C.3   1 <1>  -0.0800 
 10 C       -0.5270    -2.1500    -0.1770 C.3   1 <1>  -0.1600 
 11 C       -1.9600    -4.2220    -0.2870 C.3   1 <1>  -0.1600 
 12 C        0.5630    -2.9650     0.5180 C.3   1 <1>   0.3430 
 13 C       -0.8450    -5.0020     0.4120 C.3   1 <1>   0.3430 
 14 N        0.4710    -4.3870     0.0900 N.4   1 <1>  -0.9060 
 15 H       -2.0720     0.2110    -2.0920 H     1 <1>   0.1500 
 16 H       -3.0820     3.2520     0.7060 H     1 <1>   0.1500 
 17 H       -4.0640     1.5470     2.2170 H     1 <1>   0.1500 
 18 H       -4.0390    -0.8140     1.5710 H     1 <1>   0.1500 
 19 H       -2.8670    -2.0470    -1.7460 H     1 <1>   0.0800 
 20 H       -3.9890    -2.3810    -0.4680 H     1 <1>   0.0800 
 21 H       -2.1450    -2.6360     1.1350 H     1 <1>   0.0800 
 22 H       -0.4770    -1.1410     0.1950 H     1 <1>   0.0800 
 23 H       -0.3270    -2.1110    -1.2340 H     1 <1>   0.0800 
 24 H       -1.8660    -4.3450    -1.3520 H     1 <1>   0.0800 
 25 H       -2.9080    -4.6430     0.0020 H     1 <1>   0.0800 
 26 H        0.4340    -2.8960     1.5870 H     1 <1>   0.0800 
 27 H        1.5320    -2.5620     0.2680 H     1 <1>   0.0800 
 28 H       -0.8640    -6.0310     0.0880 H     1 <1>   0.0800 
 29 H       -1.0060    -4.9800     1.4790 H     1 <1>   0.0800 
 30 H        1.2260    -4.9300     0.5300 H     1 <1>   0.4500 
 31 H        0.6200    -4.4350    -0.9250 H     1 <1>   0.4500 
@<TRIPOS>BOND
  1   1   2  1   
  2   2   3  ar  
  3   2   4  ar  
  4   3   5  ar  
  5   3  15  1   
  6   4   6  ar  
  7   4  16  1   
  8   5   7  ar  
  9   5   8  1   
 10   6   7  ar  
 11   6  17  1   
 12   7  18  1   
 13   8   9  1   
 14   8  19  1   
 15   8  20  1   
 16   9  10  1   
 17   9  11  1   
 18   9  21  1   
 19  10  12  1   
 20  10  22  1   
 21  10  23  1   
 22  11  13  1   
 23  11  24  1   
 24  11  25  1   
 25  12  14  1   
 26  12  26  1   
 27  12  27  1   
 28  13  14  1   
 29  13  28  1   
 30  13  29  1   
 31  14  30  1   
 32  14  31  1   
@<TRIPOS>SUBSTRUCTURE
  1 ****   5 GROUP 4 **** **** 0

# MOE 2024.06 (io_trps.svl 2023.06)
