@<TRIPOS>MOLECULE
NONAME
40 41 1 0 0 
SMALL
USER_CHARGES


@<TRIPOS>ATOM
  1 S       -3.0080    -1.4630    -0.5920 S.o2  1 <1>   1.5880 
  2 O       -3.3830    -0.9160     0.7380 O.co2 1 <1>  -0.8170 
  3 O       -1.5770    -1.3660    -0.9500 O.co2 1 <1>  -0.8170 
  4 O       -3.9550    -1.0980    -1.6690 O.co2 1 <1>  -0.8170 
  5 N       -3.2650    -3.1460    -0.4240 N.am  1 <1>  -0.8490 
  6 C       -4.3740    -3.5180     0.4730 C.3   1 <1>   0.1960 
  7 C       -3.2640    -3.7990    -1.7280 C.3   1 <1>   0.1960 
  8 C       -5.7490    -2.8880     0.1490 C.3   1 <1>   0.2000 
  9 C       -2.9650    -5.2930    -1.6020 C.3   1 <1>  -0.2400 
 10 O       -5.9090    -1.7490     0.9310 O.3   1 <1>  -0.6800 
 11 C       -6.8900    -3.8700     0.4470 C.3   1 <1>   0.1200 
 12 O       -8.1200    -3.3820    -0.0550 O.3   1 <1>  -0.3630 
 13 C       -9.2360    -4.1490    -0.0630 C.ar  1 <1>   0.0830 
 14 C      -10.2930    -3.7210    -0.8180 C.ar  1 <1>  -0.1500 
 15 C       -9.3450    -5.3510     0.6630 C.ar  1 <1>  -0.1500 
 16 C      -11.4900    -4.4560    -0.9020 C.ar  1 <1>   0.0000 
 17 C      -10.4970    -6.0850     0.5990 C.ar  1 <1>  -0.1500 
 18 C      -11.5940    -5.6650    -0.1800 C.ar  1 <1>   0.0000 
 19 C      -12.5880    -4.0340    -1.6790 C.ar  1 <1>  -0.1500 
 20 C      -12.7920    -6.4040    -0.2660 C.ar  1 <1>  -0.1500 
 21 C      -13.7380    -4.7710    -1.7440 C.ar  1 <1>  -0.1500 
 22 C      -13.8410    -5.9700    -1.0300 C.ar  1 <1>  -0.1500 
 23 H       -4.1010    -3.2420     1.4780 H     1 <1>   0.0800 
 24 H       -4.4660    -4.5860     0.4740 H     1 <1>   0.0800 
 25 H       -2.4880    -3.3550    -2.3310 H     1 <1>   0.0800 
 26 H       -4.2010    -3.6310    -2.2310 H     1 <1>   0.0800 
 27 H       -5.7930    -2.6000    -0.8860 H     1 <1>   0.0800 
 28 H       -2.0790    -5.4360    -1.0100 H     1 <1>   0.0800 
 29 H       -2.7910    -5.7010    -2.5800 H     1 <1>   0.0800 
 30 H       -3.7890    -5.8220    -1.1630 H     1 <1>   0.0800 
 31 H       -5.0570    -1.2220     0.8770 H     1 <1>   0.4000 
 32 H       -6.9830    -4.0150     1.5090 H     1 <1>   0.0800 
 33 H       -6.6940    -4.8080    -0.0380 H     1 <1>   0.0800 
 34 H      -10.2070    -2.8000    -1.3650 H     1 <1>   0.1500 
 35 H       -8.5300    -5.6930     1.2720 H     1 <1>   0.1500 
 36 H      -10.5860    -7.0030     1.1510 H     1 <1>   0.1500 
 37 H      -12.5010    -3.1120    -2.2250 H     1 <1>   0.1500 
 38 H      -12.8660    -7.3240     0.2850 H     1 <1>   0.1500 
 39 H      -14.5720    -4.4440    -2.3390 H     1 <1>   0.1500 
 40 H      -14.7530    -6.5390    -1.0910 H     1 <1>   0.1500 
@<TRIPOS>BOND
  1   1   2  ar  
  2   1   3  ar  
  3   1   4  ar  
  4   1   5  am  
  5   5   6  1   
  6   5   7  1   
  7   6   8  1   
  8   6  23  1   
  9   6  24  1   
 10   7   9  1   
 11   7  25  1   
 12   7  26  1   
 13   8  10  1   
 14   8  11  1   
 15   8  27  1   
 16   9  28  1   
 17   9  29  1   
 18   9  30  1   
 19  10  31  1   
 20  11  12  1   
 21  11  32  1   
 22  11  33  1   
 23  12  13  1   
 24  13  14  ar  
 25  13  15  ar  
 26  14  16  ar  
 27  14  34  1   
 28  15  17  ar  
 29  15  35  1   
 30  16  18  ar  
 31  16  19  ar  
 32  17  18  ar  
 33  17  36  1   
 34  18  20  ar  
 35  19  21  ar  
 36  19  37  1   
 37  20  22  ar  
 38  20  38  1   
 39  21  22  ar  
 40  21  39  1   
 41  22  40  1   
@<TRIPOS>SUBSTRUCTURE
  1 ****  12 GROUP 4 **** **** 0

# MOE 2024.06 (io_trps.svl 2023.06)
