@<TRIPOS>MOLECULE
NONAME
33 34 1 0 0 
SMALL
USER_CHARGES


@<TRIPOS>ATOM
  1 F       -0.5610     0.0770    -1.4290 F     1 <1>  -0.1900 
  2 C       -1.4290    -0.7180    -0.8660 C.ar  1 <1>   0.1900 
  3 C       -1.0020    -1.9370    -0.3420 C.ar  1 <1>   0.0860 
  4 C       -2.7410    -0.2800    -0.8070 C.ar  1 <1>  -0.1500 
  5 C       -2.0000    -2.6930     0.2710 C.ar  1 <1>   0.1900 
  6 C        0.3650    -2.3820    -0.4310 C.2   1 <1>   0.5440 
  7 C       -3.6980    -1.0740    -0.1940 C.ar  1 <1>  -0.1500 
  8 F       -1.6910    -3.8420     0.8060 F     1 <1>  -0.1900 
  9 C       -3.3220    -2.2900     0.3520 C.ar  1 <1>  -0.1500 
 10 O        0.9050    -2.4860    -1.5140 O.2   1 <1>  -0.5700 
 11 N        1.0630    -2.6960     0.7040 N.am  1 <1>  -0.7300 
 12 C        2.4680    -3.1790     0.8060 C.3   1 <1>   0.2200 
 13 C        3.4700    -2.3480    -0.0320 C.3   1 <1>   0.2000 
 14 C        2.4910    -4.6630     0.4410 C.3   1 <1>  -0.2400 
 15 O        4.7770    -2.6870     0.3130 O.3   1 <1>  -0.5600 
 16 C        3.4130    -0.8410     0.1990 C.3   1 <1>  -0.1600 
 17 C        5.6420    -1.6880    -0.1150 C.3   1 <1>   0.1200 
 18 C        4.8430    -0.3880    -0.0550 C.3   1 <1>  -0.1600 
 19 H       -3.0070     0.6710    -1.2350 H     1 <1>   0.1500 
 20 H       -4.7230    -0.7470    -0.1420 H     1 <1>   0.1500 
 21 H       -4.0470    -2.9230     0.8360 H     1 <1>   0.1500 
 22 H        0.5440    -2.7630     1.5800 H     1 <1>   0.3700 
 23 H        2.7660    -3.0770     1.8350 H     1 <1>   0.0800 
 24 H        3.3530    -2.5690    -1.0800 H     1 <1>   0.0800 
 25 H        2.2090    -4.7970    -0.5880 H     1 <1>   0.0800 
 26 H        1.8190    -5.2160     1.0710 H     1 <1>   0.0800 
 27 H        3.4840    -5.0540     0.5740 H     1 <1>   0.0800 
 28 H        3.1310    -0.6370     1.2160 H     1 <1>   0.0800 
 29 H        2.7060    -0.3750    -0.4660 H     1 <1>   0.0800 
 30 H        5.9390    -1.9150    -1.1240 H     1 <1>   0.0800 
 31 H        6.5020    -1.6730     0.5320 H     1 <1>   0.0800 
 32 H        5.1980     0.2430     0.7410 H     1 <1>   0.0800 
 33 H        4.9290     0.1390    -0.9880 H     1 <1>   0.0800 
@<TRIPOS>BOND
  1   1   2  1   
  2   2   3  ar  
  3   2   4  ar  
  4   3   5  ar  
  5   3   6  1   
  6   4   7  ar  
  7   4  19  1   
  8   5   8  1   
  9   5   9  ar  
 10   6  10  2   
 11   6  11  am  
 12   7   9  ar  
 13   7  20  1   
 14   9  21  1   
 15  11  12  1   
 16  11  22  1   
 17  12  13  1   
 18  12  14  1   
 19  12  23  1   
 20  13  15  1   
 21  13  16  1   
 22  13  24  1   
 23  14  25  1   
 24  14  26  1   
 25  14  27  1   
 26  15  17  1   
 27  16  18  1   
 28  16  28  1   
 29  16  29  1   
 30  17  18  1   
 31  17  30  1   
 32  17  31  1   
 33  18  32  1   
 34  18  33  1   
@<TRIPOS>SUBSTRUCTURE
  1 ****   6 GROUP 4 **** **** 0

# MOE 2024.06 (io_trps.svl 2023.06)
