@<TRIPOS>MOLECULE
NONAME
29 30 1 0 0 
SMALL
USER_CHARGES


@<TRIPOS>ATOM
  1 BR       1.2980    -0.4220     1.2010 Br    1 <1>  -0.1110 
  2 C        0.4210    -1.9060     0.3380 C.ar  1 <1>   0.1110 
  3 C        0.8970    -2.4010    -0.8620 C.ar  1 <1>   0.1900 
  4 C       -0.6930    -2.4590     0.9430 C.ar  1 <1>  -0.1500 
  5 F        1.9470    -1.8670    -1.4260 F     1 <1>  -0.1900 
  6 C        0.2700    -3.4650    -1.4830 C.ar  1 <1>  -0.1500 
  7 C       -1.3390    -3.5250     0.3230 C.ar  1 <1>  -0.1440 
  8 C       -0.8500    -4.0250    -0.8830 C.ar  1 <1>  -0.1500 
  9 C       -2.5720    -4.1410     0.9630 C.3   1 <1>   0.4870 
 10 N       -3.7780    -3.7080     0.2030 N.4   1 <1>  -0.9590 
 11 C       -3.9930    -2.2190     0.3260 C.3   1 <1>   0.3430 
 12 C       -4.9820    -4.5070     0.6260 C.3   1 <1>   0.3430 
 13 C       -5.0830    -1.6970    -0.6190 C.3   1 <1>   0.0700 
 14 C       -6.1970    -4.2750    -0.2820 C.3   1 <1>   0.0700 
 15 S       -6.6470    -2.5220    -0.2270 S.3   1 <1>  -0.4600 
 16 H       -1.0290    -2.0530     1.8810 H     1 <1>   0.1500 
 17 H        0.6580    -3.8430    -2.4140 H     1 <1>   0.1500 
 18 H       -1.3250    -4.8610    -1.3710 H     1 <1>   0.1500 
 19 H       -2.6480    -3.8320     1.9930 H     1 <1>   0.0800 
 20 H       -2.4820    -5.2150     0.9360 H     1 <1>   0.0800 
 21 H       -3.5870    -3.9040    -0.7880 H     1 <1>   0.4500 
 22 H       -3.0760    -1.7010     0.0970 H     1 <1>   0.0800 
 23 H       -4.2660    -1.9730     1.3400 H     1 <1>   0.0800 
 24 H       -5.2540    -4.2460     1.6370 H     1 <1>   0.0800 
 25 H       -4.7430    -5.5580     0.6090 H     1 <1>   0.0800 
 26 H       -4.8510    -1.8940    -1.6500 H     1 <1>   0.0800 
 27 H       -5.2420    -0.6410    -0.4810 H     1 <1>   0.0800 
 28 H       -7.0530    -4.8280     0.0640 H     1 <1>   0.0800 
 29 H       -5.9930    -4.5330    -1.3060 H     1 <1>   0.0800 
@<TRIPOS>BOND
  1   1   2  1   
  2   2   3  ar  
  3   2   4  ar  
  4   3   5  1   
  5   3   6  ar  
  6   4   7  ar  
  7   4  16  1   
  8   6   8  ar  
  9   6  17  1   
 10   7   8  ar  
 11   7   9  1   
 12   8  18  1   
 13   9  10  1   
 14   9  19  1   
 15   9  20  1   
 16  10  11  1   
 17  10  12  1   
 18  10  21  1   
 19  11  13  1   
 20  11  22  1   
 21  11  23  1   
 22  12  14  1   
 23  12  24  1   
 24  12  25  1   
 25  13  15  1   
 26  13  26  1   
 27  13  27  1   
 28  14  15  1   
 29  14  28  1   
 30  14  29  1   
@<TRIPOS>SUBSTRUCTURE
  1 ****   7 GROUP 4 **** **** 0

# MOE 2024.06 (io_trps.svl 2023.06)
