@<TRIPOS>MOLECULE
NONAME
47 48 1 0 0 
SMALL
USER_CHARGES


@<TRIPOS>ATOM
  1 O        2.2050     0.8230     1.2900 O.2   1 <1>  -0.5700 
  2 C        1.5360     0.8730     0.2870 C.2   1 <1>   0.6590 
  3 O        0.9480    -0.2070    -0.2120 O.3   1 <1>  -0.4300 
  4 C        1.3700     2.1370    -0.5290 C.3   1 <1>   0.0420 
  5 C        0.8940    -1.4480     0.4550 C.3   1 <1>   0.1200 
  6 C        2.6430     2.9670    -0.4180 C.2   1 <1>   0.5690 
  7 C        0.1070     2.9100    -0.0960 C.3   1 <1>  -0.0170 
  8 C        2.1370    -2.2610     0.1000 C.3   1 <1>  -0.2400 
  9 O        2.5740     4.0400     0.1350 O.2   1 <1>  -0.5700 
 10 N        3.8550     2.5340    -0.9160 N.am  1 <1>  -0.6600 
 11 C       -1.1500     2.0680    -0.2550 C.ar  1 <1>  -0.1430 
 12 C        5.0900     3.3310    -0.6450 C.3   1 <1>   0.1400 
 13 C        4.1820     1.1390    -1.3420 C.3   1 <1>   0.1400 
 14 C       -1.7150     1.4370     0.8430 C.ar  1 <1>  -0.1500 
 15 C       -1.7370     1.9170    -1.5030 C.ar  1 <1>  -0.1500 
 16 C        5.8800     2.6630     0.4950 C.3   1 <1>   0.3430 
 17 C        4.9950     0.4360    -0.2310 C.3   1 <1>   0.3430 
 18 C       -2.8490     0.6580     0.6940 C.ar  1 <1>  -0.1500 
 19 C       -2.8700     1.1370    -1.6520 C.ar  1 <1>  -0.1500 
 20 N        6.2180     1.2230     0.1830 N.4   1 <1>  -0.9590 
 21 C       -3.4260     0.5060    -0.5540 C.ar  1 <1>  -0.1500 
 22 C        6.8750     0.5790     1.3600 C.3   1 <1>   0.2630 
 23 H        1.2530     1.8610    -1.5590 H     1 <1>   0.0800 
 24 H        0.0040    -1.9540     0.1210 H     1 <1>   0.0800 
 25 H        0.8190    -1.2770     1.5170 H     1 <1>   0.0800 
 26 H        0.0090     3.8030    -0.6880 H     1 <1>   0.0800 
 27 H        0.2050     3.2180     0.9320 H     1 <1>   0.0800 
 28 H        2.2100    -2.3830    -0.9650 H     1 <1>   0.0800 
 29 H        2.0620    -3.2350     0.5490 H     1 <1>   0.0800 
 30 H        3.0190    -1.7830     0.4830 H     1 <1>   0.0800 
 31 H        4.8460     4.3420    -0.3640 H     1 <1>   0.0800 
 32 H        5.6920     3.3850    -1.5350 H     1 <1>   0.0800 
 33 H        4.7630     1.1720    -2.2490 H     1 <1>   0.0800 
 34 H        3.2940     0.5750    -1.5600 H     1 <1>   0.0800 
 35 H       -1.2770     1.5480     1.8200 H     1 <1>   0.1500 
 36 H       -1.3170     2.4060    -2.3640 H     1 <1>   0.1500 
 37 H        5.2770     2.7090     1.3880 H     1 <1>   0.0800 
 38 H        6.7830     3.2230     0.6770 H     1 <1>   0.0800 
 39 H        5.2880    -0.5430    -0.5720 H     1 <1>   0.0800 
 40 H        4.3530     0.3040     0.6250 H     1 <1>   0.0800 
 41 H       -3.2820     0.1710     1.5500 H     1 <1>   0.1500 
 42 H       -3.3210     1.0230    -2.6220 H     1 <1>   0.1500 
 43 H        6.8780     1.2220    -0.6080 H     1 <1>   0.4500 
 44 H       -4.3070    -0.1000    -0.6700 H     1 <1>   0.1500 
 45 H        6.2020     0.5670     2.2030 H     1 <1>   0.0800 
 46 H        7.7640     1.1220     1.6380 H     1 <1>   0.0800 
 47 H        7.1530    -0.4360     1.1280 H     1 <1>   0.0800 
@<TRIPOS>BOND
  1   1   2  2   
  2   2   3  1   
  3   2   4  1   
  4   3   5  1   
  5   4   6  1   
  6   4   7  1   
  7   4  23  1   
  8   5   8  1   
  9   5  24  1   
 10   5  25  1   
 11   6   9  2   
 12   6  10  am  
 13   7  11  1   
 14   7  26  1   
 15   7  27  1   
 16   8  28  1   
 17   8  29  1   
 18   8  30  1   
 19  10  12  1   
 20  10  13  1   
 21  11  14  ar  
 22  11  15  ar  
 23  12  16  1   
 24  12  31  1   
 25  12  32  1   
 26  13  17  1   
 27  13  33  1   
 28  13  34  1   
 29  14  18  ar  
 30  14  35  1   
 31  15  19  ar  
 32  15  36  1   
 33  16  20  1   
 34  16  37  1   
 35  16  38  1   
 36  17  20  1   
 37  17  39  1   
 38  17  40  1   
 39  18  21  ar  
 40  18  41  1   
 41  19  21  ar  
 42  19  42  1   
 43  20  22  1   
 44  20  43  1   
 45  21  44  1   
 46  22  45  1   
 47  22  46  1   
 48  22  47  1   
@<TRIPOS>SUBSTRUCTURE
  1 ****   2 GROUP 4 **** **** 0

# MOE 2024.06 (io_trps.svl 2023.06)
