@<TRIPOS>MOLECULE
NONAME
46 47 1 0 0 
SMALL
USER_CHARGES


@<TRIPOS>ATOM
  1 S       -0.1170     0.2970     1.1960 S.o2  1 <1>   1.4470 
  2 O       -0.8540    -0.9010     1.5400 O.2   1 <1>  -0.6500 
  3 O        0.0180     1.3560     2.1740 O.2   1 <1>  -0.6500 
  4 N       -0.8560     0.9410    -0.1910 N.am  1 <1>  -0.8490 
  5 C        1.5470    -0.1390     0.6150 C.ar  1 <1>  -0.0090 
  6 C       -2.0340     1.7690     0.1540 C.3   1 <1>   0.2760 
  7 C       -1.0240    -0.0940    -1.2280 C.3   1 <1>   0.1960 
  8 C        2.0530    -1.4240     0.7650 C.ar  1 <1>  -0.1500 
  9 C        2.3540     0.8080    -0.0020 C.ar  1 <1>  -0.1500 
 10 C       -3.3830     1.0290     0.1060 C.3   1 <1>  -0.1600 
 11 C       -2.0630     3.0550    -0.6850 C.3   1 <1>  -0.1600 
 12 C       -1.1920     0.4980    -2.6250 C.3   1 <1>  -0.2400 
 13 C        3.3170    -1.7670     0.3120 C.ar  1 <1>  -0.1430 
 14 C        3.6190     0.4870    -0.4600 C.ar  1 <1>  -0.1500 
 15 C       -4.5260     1.9520     0.5540 C.3   1 <1>  -0.1600 
 16 C       -3.2130     3.9730    -0.2420 C.3   1 <1>  -0.1600 
 17 C        4.1100    -0.8060    -0.3070 C.ar  1 <1>   0.0830 
 18 C        3.8280    -3.1880     0.4990 C.3   1 <1>  -0.0970 
 19 C       -4.5600     3.2380    -0.2840 C.3   1 <1>  -0.1600 
 20 O        5.3420    -1.1830    -0.7380 O.3   1 <1>  -0.3620 
 21 C        6.2290    -0.2720    -1.3480 C.3   1 <1>   0.0400 
 22 H       -1.9290     2.1140     1.1680 H     1 <1>   0.0800 
 23 H       -1.8400    -0.7540    -0.9880 H     1 <1>   0.0800 
 24 H       -0.1370    -0.7040    -1.2610 H     1 <1>   0.0800 
 25 H        1.4410    -2.1680     1.2460 H     1 <1>   0.1500 
 26 H        1.9800     1.8110    -0.1250 H     1 <1>   0.1500 
 27 H       -3.3470     0.1720     0.7570 H     1 <1>   0.0800 
 28 H       -3.5960     0.6990    -0.8930 H     1 <1>   0.0800 
 29 H       -2.1930     2.8310    -1.7240 H     1 <1>   0.0800 
 30 H       -1.1290     3.5740    -0.5640 H     1 <1>   0.0800 
 31 H       -2.1790     0.8960    -2.7600 H     1 <1>   0.0800 
 32 H       -1.0530    -0.2770    -3.3560 H     1 <1>   0.0800 
 33 H       -0.4560     1.2630    -2.7970 H     1 <1>   0.0800 
 34 H        4.2030     1.2540    -0.9310 H     1 <1>   0.1500 
 35 H       -4.3940     2.2050     1.5920 H     1 <1>   0.0800 
 36 H       -5.4650     1.4340     0.4600 H     1 <1>   0.0800 
 37 H       -3.2520     4.8370    -0.8820 H     1 <1>   0.0800 
 38 H       -3.0270     4.3170     0.7620 H     1 <1>   0.0800 
 39 H        3.0990    -3.8050     0.9920 H     1 <1>   0.0800 
 40 H        4.7260    -3.1770     1.0900 H     1 <1>   0.0800 
 41 H        4.0540    -3.6220    -0.4590 H     1 <1>   0.0800 
 42 H       -5.3350     3.8870     0.0870 H     1 <1>   0.0800 
 43 H       -4.8000     2.9920    -1.3050 H     1 <1>   0.0800 
 44 H        5.7770     0.1060    -2.2480 H     1 <1>   0.0800 
 45 H        7.1350    -0.7990    -1.5870 H     1 <1>   0.0800 
 46 H        6.4410     0.5240    -0.6560 H     1 <1>   0.0800 
@<TRIPOS>BOND
  1   1   2  2   
  2   1   3  2   
  3   1   4  am  
  4   1   5  1   
  5   4   6  1   
  6   4   7  1   
  7   5   8  ar  
  8   5   9  ar  
  9   6  10  1   
 10   6  11  1   
 11   6  22  1   
 12   7  12  1   
 13   7  23  1   
 14   7  24  1   
 15   8  13  ar  
 16   8  25  1   
 17   9  14  ar  
 18   9  26  1   
 19  10  15  1   
 20  10  27  1   
 21  10  28  1   
 22  11  16  1   
 23  11  29  1   
 24  11  30  1   
 25  12  31  1   
 26  12  32  1   
 27  12  33  1   
 28  13  17  ar  
 29  13  18  1   
 30  14  17  ar  
 31  14  34  1   
 32  15  19  1   
 33  15  35  1   
 34  15  36  1   
 35  16  19  1   
 36  16  37  1   
 37  16  38  1   
 38  17  20  1   
 39  18  39  1   
 40  18  40  1   
 41  18  41  1   
 42  19  42  1   
 43  19  43  1   
 44  20  21  1   
 45  21  44  1   
 46  21  45  1   
 47  21  46  1   
@<TRIPOS>SUBSTRUCTURE
  1 ****   1 GROUP 4 **** **** 0

# MOE 2024.06 (io_trps.svl 2023.06)
