@<TRIPOS>MOLECULE
NONAME
30 30 1 0 0 
SMALL
USER_CHARGES


@<TRIPOS>ATOM
  1 CL      -0.0130    -0.6650    -0.8640 Cl    1 <1>  -0.1770 
  2 C        1.6540    -1.1700    -0.7670 C.ar  1 <1>   0.1770 
  3 C        2.1870    -1.9420    -1.7830 C.ar  1 <1>  -0.1500 
  4 C        2.4130    -0.7870     0.3260 C.ar  1 <1>  -0.1500 
  5 C        3.5110    -2.3420    -1.7030 C.ar  1 <1>  -0.1500 
  6 C        3.7380    -1.1860     0.4070 C.ar  1 <1>  -0.1500 
  7 C        4.2760    -1.9620    -0.6110 C.ar  1 <1>   0.1020 
  8 S        5.9860    -2.5230    -0.5870 S.3   1 <1>  -0.3320 
  9 C        6.7470    -1.8500     0.9760 C.3   1 <1>   0.1310 
 10 C        8.2120    -2.2380     1.1060 C.2   1 <1>   0.5690 
 11 O        8.8720    -1.6910     1.9550 O.2   1 <1>  -0.5700 
 12 N        8.7460    -3.1740     0.2780 N.am  1 <1>  -0.7300 
 13 C       10.1490    -3.6540     0.3190 C.3   1 <1>   0.1400 
 14 C       11.0650    -2.6810    -0.4220 C.3   1 <1>   0.1200 
 15 O       12.3300    -3.2550    -0.5250 O.3   1 <1>  -0.5600 
 16 C       13.2770    -2.4250    -1.1160 C.3   1 <1>   0.0400 
 17 H        1.5740    -2.2240    -2.6200 H     1 <1>   0.1500 
 18 H        1.9680    -0.1860     1.0990 H     1 <1>   0.1500 
 19 H        3.9500    -2.9430    -2.4800 H     1 <1>   0.1500 
 20 H        4.3200    -0.8870     1.2560 H     1 <1>   0.1500 
 21 H        6.1890    -2.2480     1.8030 H     1 <1>   0.0800 
 22 H        6.6550    -0.7810     0.9420 H     1 <1>   0.0800 
 23 H        8.1500    -3.5670    -0.4580 H     1 <1>   0.3700 
 24 H       10.2040    -4.6260    -0.1410 H     1 <1>   0.0800 
 25 H       10.4710    -3.7320     1.3440 H     1 <1>   0.0800 
 26 H       11.1430    -1.7590     0.1300 H     1 <1>   0.0800 
 27 H       10.6940    -2.4960    -1.4140 H     1 <1>   0.0800 
 28 H       14.2110    -2.9570    -1.1550 H     1 <1>   0.0800 
 29 H       13.3900    -1.5360    -0.5210 H     1 <1>   0.0800 
 30 H       12.9590    -2.1770    -2.1140 H     1 <1>   0.0800 
@<TRIPOS>BOND
  1   1   2  1   
  2   2   3  ar  
  3   2   4  ar  
  4   3   5  ar  
  5   3  17  1   
  6   4   6  ar  
  7   4  18  1   
  8   5   7  ar  
  9   5  19  1   
 10   6   7  ar  
 11   6  20  1   
 12   7   8  1   
 13   8   9  1   
 14   9  10  1   
 15   9  21  1   
 16   9  22  1   
 17  10  11  2   
 18  10  12  am  
 19  12  13  1   
 20  12  23  1   
 21  13  14  1   
 22  13  24  1   
 23  13  25  1   
 24  14  15  1   
 25  14  26  1   
 26  14  27  1   
 27  15  16  1   
 28  16  28  1   
 29  16  29  1   
 30  16  30  1   
@<TRIPOS>SUBSTRUCTURE
  1 ****   8 GROUP 4 **** **** 0

# MOE 2024.06 (io_trps.svl 2023.06)
