@<TRIPOS>MOLECULE
NONAME
40 42 1 0 0 
SMALL
USER_CHARGES


@<TRIPOS>ATOM
  1 S        0.6370    -0.8640     0.3710 S.3   1 <1>  -0.0800 
  2 C        1.6710     0.4750    -0.1340 C.2   1 <1>   0.1660 
  3 C       -0.7520     0.2060     0.3570 C.2   1 <1>  -0.1400 
  4 N        2.9990     0.3260    -0.3300 N.2   1 <1>  -0.5760 
  5 C        0.9620     1.6270    -0.2880 C.2   1 <1>  -0.0860 
  6 C       -0.4290     1.4400     0.0030 C.2   1 <1>  -0.1810 
  7 C       -2.1920    -0.0440     0.6720 C.3   1 <1>   0.0200 
  8 C        3.6100     1.4020    -0.6970 C.2   1 <1>   0.6510 
  9 C        1.6810     2.7830    -0.6930 C.2   1 <1>   0.7160 
 10 C       -1.6410     2.3320     0.0010 C.3   1 <1>   0.0210 
 11 C       -2.7870     1.3710     0.4350 C.3   1 <1>  -0.1600 
 12 S        5.3720     1.2570    -0.9580 S.3   1 <1>  -0.3710 
 13 N        3.0410     2.6440    -0.9040 N.am  1 <1>  -0.4200 
 14 O        1.1290     3.8650    -0.8530 O.2   1 <1>  -0.5700 
 15 C        5.7610    -0.5080    -0.5560 C.3   1 <1>   0.0700 
 16 C        3.8320     3.8350    -1.3310 C.3   1 <1>   0.1400 
 17 C        7.2690    -0.7400    -0.7020 C.3   1 <1>  -0.1600 
 18 C        4.3830     4.5660    -0.1060 C.3   1 <1>  -0.2400 
 19 C        8.0870    -0.0020     0.3680 C.3   1 <1>  -0.1600 
 20 C        9.5800    -0.3130     0.2310 C.3   1 <1>  -0.2400 
 21 H       -2.3090    -0.3610     1.6930 H     1 <1>   0.0800 
 22 H       -2.6080    -0.7710    -0.0020 H     1 <1>   0.0800 
 23 H       -1.8120     2.7310    -0.9830 H     1 <1>   0.0800 
 24 H       -1.5140     3.1370     0.7040 H     1 <1>   0.0800 
 25 H       -3.2430     1.7320     1.3400 H     1 <1>   0.0800 
 26 H       -3.5370     1.3280    -0.3340 H     1 <1>   0.0800 
 27 H        5.2030    -1.1160    -1.2460 H     1 <1>   0.0800 
 28 H        5.4240    -0.6960     0.4490 H     1 <1>   0.0800 
 29 H        3.2050     4.5060    -1.8950 H     1 <1>   0.0800 
 30 H        4.6350     3.5430    -1.9850 H     1 <1>   0.0800 
 31 H        7.5810    -0.4300    -1.6840 H     1 <1>   0.0800 
 32 H        7.4550    -1.7970    -0.6170 H     1 <1>   0.0800 
 33 H        3.5760     4.9020     0.5220 H     1 <1>   0.0800 
 34 H        4.9450     5.4250    -0.4220 H     1 <1>   0.0800 
 35 H        5.0340     3.9240     0.4590 H     1 <1>   0.0800 
 36 H        7.7520    -0.2980     1.3480 H     1 <1>   0.0800 
 37 H        7.9410     1.0610     0.2750 H     1 <1>   0.0800 
 38 H        9.7580    -1.3680     0.3480 H     1 <1>   0.0800 
 39 H       10.1360     0.2140     0.9860 H     1 <1>   0.0800 
 40 H        9.9400    -0.0050    -0.7350 H     1 <1>   0.0800 
@<TRIPOS>BOND
  1   1   2  1   
  2   1   3  1   
  3   2   4  1   
  4   2   5  2   
  5   3   6  2   
  6   3   7  1   
  7   4   8  2   
  8   5   6  1   
  9   5   9  1   
 10   6  10  1   
 11   7  11  1   
 12   7  21  1   
 13   7  22  1   
 14   8  12  1   
 15   8  13  1   
 16   9  13  am  
 17   9  14  2   
 18  10  11  1   
 19  10  23  1   
 20  10  24  1   
 21  11  25  1   
 22  11  26  1   
 23  12  15  1   
 24  13  16  1   
 25  15  17  1   
 26  15  27  1   
 27  15  28  1   
 28  16  18  1   
 29  16  29  1   
 30  16  30  1   
 31  17  19  1   
 32  17  31  1   
 33  17  32  1   
 34  18  33  1   
 35  18  34  1   
 36  18  35  1   
 37  19  20  1   
 38  19  36  1   
 39  19  37  1   
 40  20  38  1   
 41  20  39  1   
 42  20  40  1   
@<TRIPOS>SUBSTRUCTURE
  1 ****   4 GROUP 4 **** **** 0

# MOE 2024.06 (io_trps.svl 2023.06)
