@<TRIPOS>MOLECULE
NONAME
44 45 1 0 0 
SMALL
USER_CHARGES


@<TRIPOS>ATOM
  1 O        0.1910    -0.5650     1.5780 O.3   1 <1>  -0.6800 
  2 C        0.0270    -1.6190     0.6940 C.3   1 <1>   0.1200 
  3 C        1.3430    -2.4050     0.6410 C.3   1 <1>  -0.0800 
  4 C        2.5310    -1.4430     0.5140 C.3   1 <1>   0.3430 
  5 C        1.3330    -3.4200    -0.5130 C.3   1 <1>  -0.1600 
  6 N        3.8240    -2.2000     0.4520 N.4   1 <1>  -0.9590 
  7 C        2.6950    -4.1170    -0.6350 C.3   1 <1>  -0.1600 
  8 C        4.9890    -1.2770     0.6020 C.3   1 <1>   0.4230 
  9 C        3.8470    -3.1140    -0.7360 C.3   1 <1>   0.3430 
 10 C        5.2140    -0.3990    -0.6350 C.3   1 <1>  -0.1600 
 11 C        6.2580    -2.0640     0.9310 C.3   1 <1>  -0.1600 
 12 C        6.3990     0.5400    -0.4100 C.3   1 <1>   0.3430 
 13 C        7.4370    -1.1120     1.1410 C.3   1 <1>   0.3430 
 14 N        7.6200    -0.2440    -0.0630 N.4   1 <1>  -0.9590 
 15 C        8.7760     0.6840     0.1090 C.3   1 <1>   0.3430 
 16 C       10.0830    -0.0960     0.0210 C.3   1 <1>  -0.2400 
 17 H       -0.6660    -0.1150     1.7450 H     1 <1>   0.4000 
 18 H       -0.2290    -1.2090    -0.2690 H     1 <1>   0.0800 
 19 H       -0.7800    -2.2420     1.0450 H     1 <1>   0.0800 
 20 H        1.4310    -2.9380     1.5730 H     1 <1>   0.0800 
 21 H        2.5300    -0.7820     1.3660 H     1 <1>   0.0800 
 22 H        2.4050    -0.8460    -0.3740 H     1 <1>   0.0800 
 23 H        1.1080    -2.9180    -1.4400 H     1 <1>   0.0800 
 24 H        0.5640    -4.1580    -0.3470 H     1 <1>   0.0800 
 25 H        3.8050    -2.8130     1.2790 H     1 <1>   0.4500 
 26 H        2.6950    -4.7390    -1.5150 H     1 <1>   0.0800 
 27 H        2.8550    -4.7640     0.2100 H     1 <1>   0.0800 
 28 H        4.7870    -0.6240     1.4380 H     1 <1>   0.0800 
 29 H        4.7800    -3.6530    -0.7780 H     1 <1>   0.0800 
 30 H        3.7410    -2.5410    -1.6430 H     1 <1>   0.0800 
 31 H        4.3440     0.2040    -0.8250 H     1 <1>   0.0800 
 32 H        5.4090    -0.9950    -1.5080 H     1 <1>   0.0800 
 33 H        6.5080    -2.7520     0.1440 H     1 <1>   0.0800 
 34 H        6.1130    -2.6240     1.8380 H     1 <1>   0.0800 
 35 H        6.1700     1.2290     0.3880 H     1 <1>   0.0800 
 36 H        6.5750     1.1170    -1.3060 H     1 <1>   0.0800 
 37 H        8.3310    -1.6870     1.3230 H     1 <1>   0.0800 
 38 H        7.2570    -0.4960     2.0090 H     1 <1>   0.0800 
 39 H        7.8630    -0.8440    -0.8660 H     1 <1>   0.4500 
 40 H        8.7130     1.1970     1.0560 H     1 <1>   0.0800 
 41 H        8.7680     1.4260    -0.6760 H     1 <1>   0.0800 
 42 H       10.1950    -0.7820     0.8410 H     1 <1>   0.0800 
 43 H       10.9060     0.5960     0.0680 H     1 <1>   0.0800 
 44 H       10.1550    -0.6270    -0.9110 H     1 <1>   0.0800 
@<TRIPOS>BOND
  1   1   2  1   
  2   1  17  1   
  3   2   3  1   
  4   2  18  1   
  5   2  19  1   
  6   3   4  1   
  7   3   5  1   
  8   3  20  1   
  9   4   6  1   
 10   4  21  1   
 11   4  22  1   
 12   5   7  1   
 13   5  23  1   
 14   5  24  1   
 15   6   8  1   
 16   6   9  1   
 17   6  25  1   
 18   7   9  1   
 19   7  26  1   
 20   7  27  1   
 21   8  10  1   
 22   8  11  1   
 23   8  28  1   
 24   9  29  1   
 25   9  30  1   
 26  10  12  1   
 27  10  31  1   
 28  10  32  1   
 29  11  13  1   
 30  11  33  1   
 31  11  34  1   
 32  12  14  1   
 33  12  35  1   
 34  12  36  1   
 35  13  14  1   
 36  13  37  1   
 37  13  38  1   
 38  14  15  1   
 39  14  39  1   
 40  15  16  1   
 41  15  40  1   
 42  15  41  1   
 43  16  42  1   
 44  16  43  1   
 45  16  44  1   
@<TRIPOS>SUBSTRUCTURE
  1 ****   8 GROUP 4 **** **** 0

# MOE 2024.06 (io_trps.svl 2023.06)
