@<TRIPOS>MOLECULE
NONAME
46 47 1 0 0 
SMALL
USER_CHARGES


@<TRIPOS>ATOM
  1 S       -0.2120    -0.5390     0.3750 S.o2  1 <1>   1.4470 
  2 O       -0.4620    -1.9640     0.3370 O.2   1 <1>  -0.6500 
  3 O       -0.7320     0.2440     1.4750 O.2   1 <1>  -0.6500 
  4 N       -0.8680     0.1220    -1.0480 N.am  1 <1>  -0.8490 
  5 C        1.5710    -0.2430     0.1910 C.ar  1 <1>  -0.0090 
  6 C       -2.2320    -0.3540    -1.2940 C.3   1 <1>   0.1160 
  7 C       -0.8390     1.5880    -1.0660 C.3   1 <1>   0.1160 
  8 C        2.3130     0.3580     1.2010 C.ar  1 <1>  -0.1500 
  9 C        2.2470    -0.6180    -0.9630 C.ar  1 <1>  -0.1500 
 10 C        3.6720     0.5800     1.0590 C.ar  1 <1>  -0.1500 
 11 C        3.6050    -0.3950    -1.1050 C.ar  1 <1>  -0.1500 
 12 C        4.3540     0.2160    -0.1010 C.ar  1 <1>   0.0860 
 13 C        5.7810     0.4510    -0.2600 C.2   1 <1>   0.5440 
 14 O        6.4330    -0.2760    -0.9860 O.2   1 <1>  -0.5700 
 15 N        6.3950     1.5150     0.3680 N.am  1 <1>  -0.6600 
 16 C        7.8060     1.5140     0.8480 C.3   1 <1>   0.2200 
 17 C        5.8890     2.8860     0.1050 C.3   1 <1>   0.1400 
 18 C        8.7030     2.1070    -0.2440 C.3   1 <1>  -0.1600 
 19 C        8.2820     0.1380     1.3210 C.3   1 <1>  -0.2400 
 20 C        6.7530     3.5370    -0.9830 C.3   1 <1>  -0.1600 
 21 C        8.2480     3.5290    -0.6160 C.3   1 <1>  -0.0800 
 22 C        9.0910     4.0810    -1.7710 C.3   1 <1>  -0.2400 
 23 H       -2.2370    -1.4280    -1.3840 H     1 <1>   0.0800 
 24 H       -2.6130     0.0600    -2.2120 H     1 <1>   0.0800 
 25 H       -2.8810    -0.0730    -0.4810 H     1 <1>   0.0800 
 26 H        0.1690     1.9400    -0.9250 H     1 <1>   0.0800 
 27 H       -1.4600     1.9890    -0.2810 H     1 <1>   0.0800 
 28 H       -1.1940     1.9520    -2.0150 H     1 <1>   0.0800 
 29 H        1.8200     0.6530     2.1130 H     1 <1>   0.1500 
 30 H        1.6980    -1.0940    -1.7590 H     1 <1>   0.1500 
 31 H        4.2190     1.0400     1.8640 H     1 <1>   0.1500 
 32 H        4.1040    -0.7010    -2.0100 H     1 <1>   0.1500 
 33 H        7.8520     2.1660     1.7050 H     1 <1>   0.0800 
 34 H        5.9360     3.4640     1.0120 H     1 <1>   0.0800 
 35 H        4.8650     2.8540    -0.2230 H     1 <1>   0.0800 
 36 H        8.6680     1.4660    -1.1080 H     1 <1>   0.0800 
 37 H        9.7200     2.1340     0.1060 H     1 <1>   0.0800 
 38 H        8.4210    -0.5320     0.4910 H     1 <1>   0.0800 
 39 H        7.5720    -0.2850     2.0080 H     1 <1>   0.0800 
 40 H        9.2260     0.2360     1.8240 H     1 <1>   0.0800 
 41 H        6.4230     4.5490    -1.1380 H     1 <1>   0.0800 
 42 H        6.6040     2.9990    -1.9030 H     1 <1>   0.0800 
 43 H        8.3900     4.1660     0.2410 H     1 <1>   0.0800 
 44 H        8.9780     3.4670    -2.6470 H     1 <1>   0.0800 
 45 H       10.1310     4.0990    -1.4980 H     1 <1>   0.0800 
 46 H        8.7850     5.0830    -2.0120 H     1 <1>   0.0800 
@<TRIPOS>BOND
  1   1   2  2   
  2   1   3  2   
  3   1   4  am  
  4   1   5  1   
  5   4   6  1   
  6   4   7  1   
  7   5   8  ar  
  8   5   9  ar  
  9   6  23  1   
 10   6  24  1   
 11   6  25  1   
 12   7  26  1   
 13   7  27  1   
 14   7  28  1   
 15   8  10  ar  
 16   8  29  1   
 17   9  11  ar  
 18   9  30  1   
 19  10  12  ar  
 20  10  31  1   
 21  11  12  ar  
 22  11  32  1   
 23  12  13  1   
 24  13  14  2   
 25  13  15  am  
 26  15  16  1   
 27  15  17  1   
 28  16  18  1   
 29  16  19  1   
 30  16  33  1   
 31  17  20  1   
 32  17  34  1   
 33  17  35  1   
 34  18  21  1   
 35  18  36  1   
 36  18  37  1   
 37  19  38  1   
 38  19  39  1   
 39  19  40  1   
 40  20  21  1   
 41  20  41  1   
 42  20  42  1   
 43  21  22  1   
 44  21  43  1   
 45  22  44  1   
 46  22  45  1   
 47  22  46  1   
@<TRIPOS>SUBSTRUCTURE
  1 ****  12 GROUP 4 **** **** 0

# MOE 2024.06 (io_trps.svl 2023.06)
