@<TRIPOS>MOLECULE
NONAME
32 32 1 0 0 
SMALL
USER_CHARGES


@<TRIPOS>ATOM
  1 S       -0.2860    -0.0230     0.1440 S.o2  1 <1>   1.4470 
  2 O       -0.7480     0.0740     1.5100 O.2   1 <1>  -0.6500 
  3 O       -0.7910    -1.0790    -0.7050 O.2   1 <1>  -0.6500 
  4 N       -0.7140     1.3650    -0.7060 N.am  1 <1>  -0.9140 
  5 C        1.5380    -0.0170     0.1300 C.ar  1 <1>  -0.0090 
  6 C       -1.9710     2.0310    -0.4250 C.3   1 <1>   0.2760 
  7 C        2.2910    -1.1760     0.3370 C.ar  1 <1>  -0.1430 
  8 C        2.2320     1.1740    -0.0650 C.ar  1 <1>  -0.1500 
  9 C       -1.8730     2.8720     0.8460 C.3   1 <1>  -0.2400 
 10 C       -3.1570     1.0680    -0.4090 C.3   1 <1>  -0.2400 
 11 C        3.6780    -1.1280     0.3180 C.ar  1 <1>  -0.1500 
 12 C        1.6230    -2.5220     0.5950 C.3   1 <1>  -0.0970 
 13 C        3.6140     1.2190    -0.0820 C.ar  1 <1>  -0.1500 
 14 C        4.3470     0.0630     0.1060 C.ar  1 <1>  -0.1430 
 15 C        5.8640     0.0990     0.0890 C.3   1 <1>  -0.0970 
 16 H       -0.7940     1.0060    -1.6550 H     1 <1>   0.4200 
 17 H       -2.1370     2.7240    -1.2340 H     1 <1>   0.0800 
 18 H        1.6890     2.0920    -0.2050 H     1 <1>   0.1500 
 19 H       -1.8420     2.2600     1.7280 H     1 <1>   0.0800 
 20 H       -2.7340     3.5090     0.9220 H     1 <1>   0.0800 
 21 H       -0.9960     3.4920     0.8130 H     1 <1>   0.0800 
 22 H       -3.1270     0.4210     0.4490 H     1 <1>   0.0800 
 23 H       -3.1740     0.4730    -1.3040 H     1 <1>   0.0800 
 24 H       -4.0730     1.6290    -0.3610 H     1 <1>   0.0800 
 25 H        4.2480    -2.0270     0.4720 H     1 <1>   0.1500 
 26 H        0.8870    -2.4350     1.3740 H     1 <1>   0.0800 
 27 H        2.3420    -3.2590     0.9030 H     1 <1>   0.0800 
 28 H        1.1430    -2.8750    -0.3010 H     1 <1>   0.0800 
 29 H        4.1150     2.1590    -0.2380 H     1 <1>   0.1500 
 30 H        6.2550    -0.8050    -0.3410 H     1 <1>   0.0800 
 31 H        6.2360     0.1970     1.0930 H     1 <1>   0.0800 
 32 H        6.2160     0.9310    -0.4940 H     1 <1>   0.0800 
@<TRIPOS>BOND
  1   1   2  2   
  2   1   3  2   
  3   1   4  am  
  4   1   5  1   
  5   4   6  1   
  6   4  16  1   
  7   5   7  ar  
  8   5   8  ar  
  9   6   9  1   
 10   6  10  1   
 11   6  17  1   
 12   7  11  ar  
 13   7  12  1   
 14   8  13  ar  
 15   8  18  1   
 16   9  19  1   
 17   9  20  1   
 18   9  21  1   
 19  10  22  1   
 20  10  23  1   
 21  10  24  1   
 22  11  14  ar  
 23  11  25  1   
 24  12  26  1   
 25  12  27  1   
 26  12  28  1   
 27  13  14  ar  
 28  13  29  1   
 29  14  15  1   
 30  15  30  1   
 31  15  31  1   
 32  15  32  1   
@<TRIPOS>SUBSTRUCTURE
  1 ****   5 GROUP 4 **** **** 0

# MOE 2024.06 (io_trps.svl 2023.06)
