@<TRIPOS>MOLECULE
NONAME
43 43 1 0 0 
SMALL
USER_CHARGES


@<TRIPOS>ATOM
  1 O        3.4520    -5.8490     0.1890 O.3   1 <1>  -0.3630 
  2 C        2.0980    -5.8860     0.1000 C.ar  1 <1>   0.0830 
  3 C        4.1520    -4.6320     0.1690 C.3   1 <1>   0.1200 
  4 C        1.5020    -7.1330     0.1250 C.ar  1 <1>  -0.1500 
  5 C        1.2940    -4.7580    -0.0130 C.ar  1 <1>  -0.1500 
  6 C        5.6390    -4.9670     0.2810 C.3   1 <1>  -0.1600 
  7 C        0.1270    -7.2610     0.0390 C.ar  1 <1>  -0.1500 
  8 C       -0.0800    -4.8930    -0.0980 C.ar  1 <1>  -0.1500 
  9 C        6.4850    -3.6970     0.2560 C.3   1 <1>   0.3430 
 10 C       -0.6940    -6.1420    -0.0740 C.ar  1 <1>  -0.1440 
 11 N        7.9260    -4.0250     0.4690 N.4   1 <1>  -0.9590 
 12 C       -2.2340    -6.2350    -0.1730 C.3   1 <1>   0.1440 
 13 C        8.7070    -2.7890     0.7820 C.3   1 <1>   0.2630 
 14 C        8.5290    -4.7340    -0.7060 C.3   1 <1>   0.2630 
 15 C       -2.7020    -5.6090    -1.4960 C.3   1 <1>  -0.2400 
 16 C       -2.8710    -5.4790     1.0030 C.3   1 <1>  -0.2400 
 17 C       -2.7580    -7.6800    -0.1330 C.3   1 <1>  -0.2400 
 18 H        3.8190    -4.0390     1.0040 H     1 <1>   0.0800 
 19 H        3.9310    -4.1340    -0.7600 H     1 <1>   0.0800 
 20 H        2.1200    -8.0080     0.2130 H     1 <1>   0.1500 
 21 H        1.7100    -3.7700    -0.0360 H     1 <1>   0.1500 
 22 H        5.8990    -5.6050    -0.5450 H     1 <1>   0.0800 
 23 H        5.7980    -5.4920     1.2060 H     1 <1>   0.0800 
 24 H       -0.2780    -8.2550     0.0640 H     1 <1>   0.1500 
 25 H       -0.6750    -4.0020    -0.1840 H     1 <1>   0.1500 
 26 H        6.1480    -3.0410     1.0430 H     1 <1>   0.0800 
 27 H        6.3570    -3.1860    -0.6860 H     1 <1>   0.0800 
 28 H        7.9830    -4.6540     1.2860 H     1 <1>   0.4500 
 29 H        8.6710    -2.1000    -0.0470 H     1 <1>   0.0800 
 30 H        9.7380    -3.0370     0.9780 H     1 <1>   0.0800 
 31 H        8.3030    -2.3000     1.6540 H     1 <1>   0.0800 
 32 H        8.4600    -4.1220    -1.5910 H     1 <1>   0.0800 
 33 H        8.0160    -5.6640    -0.8900 H     1 <1>   0.0800 
 34 H        9.5680    -4.9520    -0.5180 H     1 <1>   0.0800 
 35 H       -2.2330    -6.1100    -2.3240 H     1 <1>   0.0800 
 36 H       -2.4480    -4.5670    -1.5440 H     1 <1>   0.0800 
 37 H       -3.7690    -5.6980    -1.6010 H     1 <1>   0.0800 
 38 H       -2.6180    -4.4350     0.9760 H     1 <1>   0.0800 
 39 H       -2.5200    -5.8870     1.9340 H     1 <1>   0.0800 
 40 H       -3.9420    -5.5630     0.9740 H     1 <1>   0.0800 
 41 H       -2.3610    -8.2480    -0.9550 H     1 <1>   0.0800 
 42 H       -3.8310    -7.6960    -0.2040 H     1 <1>   0.0800 
 43 H       -2.4790    -8.1570     0.7900 H     1 <1>   0.0800 
@<TRIPOS>BOND
  1   1   2  1   
  2   1   3  1   
  3   2   4  ar  
  4   2   5  ar  
  5   3   6  1   
  6   3  18  1   
  7   3  19  1   
  8   4   7  ar  
  9   4  20  1   
 10   5   8  ar  
 11   5  21  1   
 12   6   9  1   
 13   6  22  1   
 14   6  23  1   
 15   7  10  ar  
 16   7  24  1   
 17   8  10  ar  
 18   8  25  1   
 19   9  11  1   
 20   9  26  1   
 21   9  27  1   
 22  10  12  1   
 23  11  13  1   
 24  11  14  1   
 25  11  28  1   
 26  12  15  1   
 27  12  16  1   
 28  12  17  1   
 29  13  29  1   
 30  13  30  1   
 31  13  31  1   
 32  14  32  1   
 33  14  33  1   
 34  14  34  1   
 35  15  35  1   
 36  15  36  1   
 37  15  37  1   
 38  16  38  1   
 39  16  39  1   
 40  16  40  1   
 41  17  41  1   
 42  17  42  1   
 43  17  43  1   
@<TRIPOS>SUBSTRUCTURE
  1 ****   2 GROUP 4 **** **** 0

# MOE 2024.06 (io_trps.svl 2023.06)
