@<TRIPOS>MOLECULE
NONAME
32 33 1 0 0 
SMALL
USER_CHARGES


@<TRIPOS>ATOM
  1 S       -0.1790    -0.0730    -0.3490 S.o2  1 <1>   1.5500 
  2 O       -0.2580    -0.4790     1.0430 O.2   1 <1>  -0.6500 
  3 O       -0.1980    -1.0990    -1.3720 O.2   1 <1>  -0.6500 
  4 N       -1.4420     0.9770    -0.6600 N.2   1 <1>  -0.6380 
  5 C        1.2810     0.9660    -0.6100 C.2   1 <1>  -0.0220 
  6 C       -2.6040     0.5870    -0.3100 C.2   1 <1>   0.4860 
  7 S        1.7460     2.0850     0.6720 S.3   1 <1>  -0.0800 
  8 C        2.1340     1.1020    -1.6480 C.2   1 <1>  -0.1500 
  9 N       -2.9760    -0.5430     0.3570 N.pl3 1 <1>  -0.4710 
 10 C       -3.8140     1.2970    -0.4910 C.2   1 <1>  -0.1360 
 11 C        3.1020     2.6920    -0.2600 C.2   1 <1>  -0.1100 
 12 C        3.1670     2.0740    -1.4520 C.2   1 <1>  -0.1500 
 13 O       -4.3300    -0.5240     0.6130 O.3   1 <1>  -0.0560 
 14 C       -4.8080     0.5960     0.0870 C.2   1 <1>  -0.0620 
 15 C       -6.3060     0.8760     0.2120 C.3   1 <1>   0.1380 
 16 C       -7.0960    -0.2480    -0.4710 C.3   1 <1>  -0.2400 
 17 C       -6.6920     0.9460     1.6950 C.3   1 <1>  -0.2400 
 18 C       -6.6640     2.2110    -0.4570 C.3   1 <1>  -0.2400 
 19 H        2.0740     0.5430    -2.5660 H     1 <1>   0.1500 
 20 H       -2.3680    -0.9710     1.0670 H     1 <1>   0.4000 
 21 H       -3.8520     2.2360    -1.0070 H     1 <1>   0.1500 
 22 H        3.7120     3.4550     0.1910 H     1 <1>   0.1500 
 23 H        3.9040     2.2610    -2.2140 H     1 <1>   0.1500 
 24 H       -6.8880    -1.1930    -0.0020 H     1 <1>   0.0800 
 25 H       -6.8190    -0.3200    -1.5080 H     1 <1>   0.0800 
 26 H       -8.1530    -0.0630    -0.4090 H     1 <1>   0.0800 
 27 H       -7.7400     1.1570     1.8060 H     1 <1>   0.0800 
 28 H       -6.4810     0.0110     2.1830 H     1 <1>   0.0800 
 29 H       -6.1300     1.7180     2.1890 H     1 <1>   0.0800 
 30 H       -6.4120     2.1870    -1.5020 H     1 <1>   0.0800 
 31 H       -6.1290     3.0200     0.0080 H     1 <1>   0.0800 
 32 H       -7.7180     2.4070    -0.3680 H     1 <1>   0.0800 
@<TRIPOS>BOND
  1   1   2  2   
  2   1   3  2   
  3   1   4  1   
  4   1   5  1   
  5   4   6  2   
  6   5   7  1   
  7   5   8  2   
  8   6   9  1   
  9   6  10  1   
 10   7  11  1   
 11   8  12  1   
 12   8  19  1   
 13   9  13  1   
 14   9  20  1   
 15  10  14  2   
 16  10  21  1   
 17  11  12  2   
 18  11  22  1   
 19  12  23  1   
 20  13  14  1   
 21  14  15  1   
 22  15  16  1   
 23  15  17  1   
 24  15  18  1   
 25  16  24  1   
 26  16  25  1   
 27  16  26  1   
 28  17  27  1   
 29  17  28  1   
 30  17  29  1   
 31  18  30  1   
 32  18  31  1   
 33  18  32  1   
@<TRIPOS>SUBSTRUCTURE
  1 ****   6 GROUP 4 **** **** 0

# MOE 2024.06 (io_trps.svl 2023.06)
