@<TRIPOS>MOLECULE
NONAME
45 47 1 0 0 
SMALL
USER_CHARGES


@<TRIPOS>ATOM
  1 O        0.1020    -2.5220    -2.7130 O.2   1 <1>  -0.5700 
  2 C       -0.3280    -2.2280    -1.6230 C.2   1 <1>   0.5690 
  3 N        0.4530    -1.7350    -0.6090 N.am  1 <1>  -0.5470 
  4 C       -1.8140    -2.4810    -1.3270 C.3   1 <1>   0.1710 
  5 C        1.8140    -1.3960    -0.5430 C.ar  1 <1>   0.1170 
  6 N       -2.7120    -1.2900    -1.3370 N.3   1 <1>  -0.8100 
  7 C        2.3720    -1.1570     0.7060 C.ar  1 <1>  -0.1500 
  8 C        2.6320    -1.2730    -1.6630 C.ar  1 <1>  -0.1500 
  9 C       -2.3710    -0.2730    -0.3080 C.3   1 <1>   0.1100 
 10 C       -4.1270    -1.7160    -1.2000 C.3   1 <1>   0.1100 
 11 C        3.7040    -0.8110     0.8480 C.ar  1 <1>   0.0820 
 12 C        3.9660    -0.9290    -1.5340 C.ar  1 <1>  -0.1500 
 13 C       -3.3400     0.9230    -0.3170 C.3   1 <1>   0.2090 
 14 C       -5.1140    -0.5330    -1.2090 C.3   1 <1>   0.2090 
 15 O        4.1480    -0.6010     2.1140 O.3   1 <1>  -0.3630 
 16 C        4.5080    -0.6970    -0.2820 C.ar  1 <1>  -0.1500 
 17 N       -4.7450     0.4500    -0.1480 N.pl3 1 <1>  -0.8380 
 18 C        5.4950    -0.2730     2.3710 C.3   1 <1>   0.0400 
 19 C       -5.4270     0.5350     1.0470 C.ar  1 <1>   0.7200 
 20 N       -4.7610     1.0120     2.1000 N.ar  1 <1>  -0.6200 
 21 N       -6.6960     0.1270     1.0510 N.ar  1 <1>  -0.6200 
 22 C       -5.4290     1.0990     3.2230 C.ar  1 <1>   0.1600 
 23 C       -7.3390     0.2250     2.1880 C.ar  1 <1>   0.1600 
 24 C       -6.7430     0.7140     3.3230 C.ar  1 <1>  -0.1500 
 25 H       -0.0500    -1.5830     0.2620 H     1 <1>   0.3700 
 26 H       -1.8910    -2.9760    -0.3760 H     1 <1>   0.0800 
 27 H       -2.1630    -3.1710    -2.0750 H     1 <1>   0.0800 
 28 H        1.7710    -1.2410     1.5910 H     1 <1>   0.1500 
 29 H        2.2350    -1.4420    -2.6460 H     1 <1>   0.1500 
 30 H       -1.3830     0.1090    -0.4930 H     1 <1>   0.0800 
 31 H       -2.3920    -0.7190     0.6720 H     1 <1>   0.0800 
 32 H       -4.2570    -2.2570    -0.2780 H     1 <1>   0.0800 
 33 H       -4.3790    -2.3750    -2.0120 H     1 <1>   0.0800 
 34 H        4.5820    -0.8430    -2.4120 H     1 <1>   0.1500 
 35 H       -3.2540     1.4370    -1.2580 H     1 <1>   0.0800 
 36 H       -3.0670     1.6200     0.4550 H     1 <1>   0.0800 
 37 H       -6.1140    -0.9040    -1.0710 H     1 <1>   0.0800 
 38 H       -5.0770    -0.0480    -2.1680 H     1 <1>   0.0800 
 39 H        5.5450    -0.4320    -0.2100 H     1 <1>   0.1500 
 40 H        5.6160    -0.1660     3.4340 H     1 <1>   0.0800 
 41 H        5.7280     0.6560     1.8820 H     1 <1>   0.0800 
 42 H        6.1240    -1.0680     2.0100 H     1 <1>   0.0800 
 43 H       -4.9170     1.4880     4.0870 H     1 <1>   0.1500 
 44 H       -8.3680    -0.0910     2.2140 H     1 <1>   0.1500 
 45 H       -7.2800     0.7910     4.2490 H     1 <1>   0.1500 
@<TRIPOS>BOND
  1   1   2  2   
  2   2   3  am  
  3   2   4  1   
  4   3   5  1   
  5   3  25  1   
  6   4   6  1   
  7   4  26  1   
  8   4  27  1   
  9   5   7  ar  
 10   5   8  ar  
 11   6   9  1   
 12   6  10  1   
 13   7  11  ar  
 14   7  28  1   
 15   8  12  ar  
 16   8  29  1   
 17   9  13  1   
 18   9  30  1   
 19   9  31  1   
 20  10  14  1   
 21  10  32  1   
 22  10  33  1   
 23  11  15  1   
 24  11  16  ar  
 25  12  16  ar  
 26  12  34  1   
 27  13  17  1   
 28  13  35  1   
 29  13  36  1   
 30  14  17  1   
 31  14  37  1   
 32  14  38  1   
 33  15  18  1   
 34  16  39  1   
 35  17  19  1   
 36  18  40  1   
 37  18  41  1   
 38  18  42  1   
 39  19  20  ar  
 40  19  21  ar  
 41  20  22  ar  
 42  21  23  ar  
 43  22  24  ar  
 44  22  43  1   
 45  23  24  ar  
 46  23  44  1   
 47  24  45  1   
@<TRIPOS>SUBSTRUCTURE
  1 ****   9 GROUP 4 **** **** 0

# MOE 2024.06 (io_trps.svl 2023.06)
