@<TRIPOS>MOLECULE
NONAME
49 50 1 0 0 
SMALL
USER_CHARGES


@<TRIPOS>ATOM
  1 S       -0.7520     0.0720    -1.0840 S.o2  1 <1>   1.3330 
  2 O       -0.0980    -0.9370    -1.8810 O.2   1 <1>  -0.6500 
  3 O        0.0290     1.1280    -0.4890 O.2   1 <1>  -0.6500 
  4 N       -1.6380    -0.7440     0.1750 N.am  1 <1>  -0.6930 
  5 C       -2.0120     0.7920    -2.1170 C.3   1 <1>  -0.1350 
  6 C       -1.6200    -2.1330     0.2990 C.ar  1 <1>   0.1990 
  7 C       -2.6020     0.0010     1.0500 C.3   1 <1>   0.3370 
  8 C       -1.2860    -2.7240     1.5130 C.ar  1 <1>  -0.1500 
  9 C       -1.9750    -2.9620    -0.7590 C.ar  1 <1>  -0.1500 
 10 C       -3.9830     0.1700     0.3830 C.2   1 <1>   0.5690 
 11 C       -2.0090     1.2960     1.6230 C.3   1 <1>  -0.2400 
 12 C       -1.3360    -4.0960     1.6750 C.ar  1 <1>  -0.1500 
 13 C       -2.0250    -4.3350    -0.6010 C.ar  1 <1>  -0.1500 
 14 O       -4.3510     1.2650     0.0270 O.2   1 <1>  -0.5700 
 15 N       -4.7450    -0.9540     0.2050 N.am  1 <1>  -0.5470 
 16 C       -1.7140    -4.9100     0.6200 C.ar  1 <1>  -0.1430 
 17 C       -6.0640    -1.0580    -0.2680 C.ar  1 <1>   0.1170 
 18 C       -1.7680    -6.4170     0.7930 C.3   1 <1>  -0.0970 
 19 C       -7.1310    -0.4410     0.3950 C.ar  1 <1>  -0.1430 
 20 C       -6.3220    -1.8210    -1.4110 C.ar  1 <1>  -0.1430 
 21 C       -8.4190    -0.5750    -0.0970 C.ar  1 <1>  -0.1500 
 22 C       -6.9370     0.3810     1.6640 C.3   1 <1>  -0.0970 
 23 C       -7.6170    -1.9470    -1.8830 C.ar  1 <1>  -0.1500 
 24 C       -5.2020    -2.5250    -2.1660 C.3   1 <1>  -0.0970 
 25 C       -8.6640    -1.3250    -1.2310 C.ar  1 <1>  -0.1500 
 26 H       -1.5660     1.1840    -3.0100 H     1 <1>   0.0800 
 27 H       -2.4990     1.6000    -1.6090 H     1 <1>   0.0800 
 28 H       -2.7410     0.0580    -2.3920 H     1 <1>   0.0800 
 29 H       -2.7900    -0.6180     1.9080 H     1 <1>   0.0800 
 30 H       -0.9770    -2.1030     2.3340 H     1 <1>   0.1500 
 31 H       -2.2040    -2.5330    -1.7150 H     1 <1>   0.1500 
 32 H       -1.9280     2.0560     0.8670 H     1 <1>   0.0800 
 33 H       -1.0410     1.1090     2.0510 H     1 <1>   0.0800 
 34 H       -2.6560     1.6760     2.3930 H     1 <1>   0.0800 
 35 H       -1.0740    -4.5300     2.6240 H     1 <1>   0.1500 
 36 H       -2.2990    -4.9580    -1.4360 H     1 <1>   0.1500 
 37 H       -4.2640    -1.8470     0.3290 H     1 <1>   0.3700 
 38 H       -0.8190    -6.8470     0.5280 H     1 <1>   0.0800 
 39 H       -2.5290    -6.8410     0.1640 H     1 <1>   0.0800 
 40 H       -1.9910    -6.6720     1.8140 H     1 <1>   0.0800 
 41 H       -9.2440    -0.0980     0.4010 H     1 <1>   0.1500 
 42 H       -6.2270    -0.0920     2.3170 H     1 <1>   0.0800 
 43 H       -7.8630     0.4830     2.1990 H     1 <1>   0.0800 
 44 H       -6.5830     1.3640     1.4100 H     1 <1>   0.0800 
 45 H       -7.8250    -2.5300    -2.7630 H     1 <1>   0.1500 
 46 H       -5.5720    -2.9840    -3.0650 H     1 <1>   0.0800 
 47 H       -4.4440    -1.8140    -2.4410 H     1 <1>   0.0800 
 48 H       -4.7700    -3.2900    -1.5480 H     1 <1>   0.0800 
 49 H       -9.6680    -1.4230    -1.6050 H     1 <1>   0.1500 
@<TRIPOS>BOND
  1   1   2  2   
  2   1   3  2   
  3   1   4  am  
  4   1   5  1   
  5   4   6  1   
  6   4   7  1   
  7   5  26  1   
  8   5  27  1   
  9   5  28  1   
 10   6   8  ar  
 11   6   9  ar  
 12   7  10  1   
 13   7  11  1   
 14   7  29  1   
 15   8  12  ar  
 16   8  30  1   
 17   9  13  ar  
 18   9  31  1   
 19  10  14  2   
 20  10  15  am  
 21  11  32  1   
 22  11  33  1   
 23  11  34  1   
 24  12  16  ar  
 25  12  35  1   
 26  13  16  ar  
 27  13  36  1   
 28  15  17  1   
 29  15  37  1   
 30  16  18  1   
 31  17  19  ar  
 32  17  20  ar  
 33  18  38  1   
 34  18  39  1   
 35  18  40  1   
 36  19  21  ar  
 37  19  22  1   
 38  20  23  ar  
 39  20  24  1   
 40  21  25  ar  
 41  21  41  1   
 42  22  42  1   
 43  22  43  1   
 44  22  44  1   
 45  23  25  ar  
 46  23  45  1   
 47  24  46  1   
 48  24  47  1   
 49  24  48  1   
 50  25  49  1   
@<TRIPOS>SUBSTRUCTURE
  1 ****  15 GROUP 4 **** **** 0

# MOE 2024.06 (io_trps.svl 2023.06)
