@<TRIPOS>MOLECULE
NONAME
54 56 1 0 0 
SMALL
USER_CHARGES


@<TRIPOS>ATOM
  1 O       -0.4950    -1.0140     0.0900 O.2   1 <1>  -0.5700 
  2 C       -0.5150    -2.1910    -0.2120 C.2   1 <1>   0.7800 
  3 O        0.4840    -2.9890     0.1640 O.3   1 <1>  -0.4300 
  4 N       -1.5480    -2.7510    -0.9230 N.am  1 <1>  -0.6600 
  5 C        1.5840    -2.4800     0.8850 C.3   1 <1>   0.1200 
  6 C       -1.6260    -4.1890    -1.2530 C.3   1 <1>   0.1400 
  7 C       -2.6900    -1.9420    -1.3960 C.3   1 <1>   0.1400 
  8 C        2.5440    -3.6330     1.1590 C.3   1 <1>  -0.2400 
  9 C       -2.8770    -4.7660    -0.5900 C.3   1 <1>  -0.1600 
 10 C       -3.9620    -2.4720    -0.7350 C.3   1 <1>  -0.1600 
 11 C       -4.1480    -3.9830    -0.9720 C.3   1 <1>   0.4230 
 12 N       -5.3160    -4.4830    -0.1770 N.4   1 <1>  -0.9590 
 13 C       -5.5490    -5.9680    -0.3320 C.3   1 <1>   0.3430 
 14 C       -6.5990    -3.7490    -0.4920 C.3   1 <1>   0.3430 
 15 C       -6.7530    -6.4650     0.4940 C.3   1 <1>   0.1100 
 16 C       -7.7900    -4.2680     0.3340 C.3   1 <1>   0.1100 
 17 N       -7.9740    -5.7220     0.1490 N.3   1 <1>  -0.8100 
 18 C       -9.1490    -6.2350     0.8850 C.3   1 <1>   0.2530 
 19 C      -10.4220    -5.5340     0.4310 C.ar  1 <1>  -0.1440 
 20 C      -11.1680    -4.7790     1.3240 C.ar  1 <1>  -0.1500 
 21 C      -10.8440    -5.6410    -0.8860 C.ar  1 <1>  -0.1500 
 22 C      -12.3190    -4.1350     0.9030 C.ar  1 <1>  -0.1500 
 23 C      -11.9950    -4.9990    -1.3080 C.ar  1 <1>  -0.1500 
 24 C      -12.7320    -4.2440    -0.4130 C.ar  1 <1>  -0.1500 
 25 H        1.2220    -2.0510     1.8040 H     1 <1>   0.0800 
 26 H        2.0570    -1.7160     0.2910 H     1 <1>   0.0800 
 27 H       -0.7520    -4.7150    -0.9050 H     1 <1>   0.0800 
 28 H       -1.6740    -4.3030    -2.3230 H     1 <1>   0.0800 
 29 H       -2.7570    -2.0170    -2.4690 H     1 <1>   0.0800 
 30 H       -2.5530    -0.9020    -1.1460 H     1 <1>   0.0800 
 31 H        2.0580    -4.3900     1.7460 H     1 <1>   0.0800 
 32 H        3.3960    -3.2710     1.7060 H     1 <1>   0.0800 
 33 H        2.8870    -4.0580     0.2330 H     1 <1>   0.0800 
 34 H       -2.7300    -4.7390     0.4750 H     1 <1>   0.0800 
 35 H       -2.9520    -5.7900    -0.9030 H     1 <1>   0.0800 
 36 H       -4.7820    -1.9160    -1.1480 H     1 <1>   0.0800 
 37 H       -3.8990    -2.2640     0.3180 H     1 <1>   0.0800 
 38 H       -4.3390    -4.1390    -2.0230 H     1 <1>   0.0800 
 39 H       -5.1060    -4.3090     0.8120 H     1 <1>   0.4500 
 40 H       -4.6760    -6.5150    -0.0190 H     1 <1>   0.0800 
 41 H       -5.7330    -6.1990    -1.3690 H     1 <1>   0.0800 
 42 H       -6.8380    -3.8670    -1.5360 H     1 <1>   0.0800 
 43 H       -6.4850    -2.6970    -0.2930 H     1 <1>   0.0800 
 44 H       -6.5400    -6.3650     1.5450 H     1 <1>   0.0800 
 45 H       -6.9060    -7.5110     0.2840 H     1 <1>   0.0800 
 46 H       -8.6730    -3.7460     0.0050 H     1 <1>   0.0800 
 47 H       -7.6430    -4.0410     1.3760 H     1 <1>   0.0800 
 48 H       -9.0100    -6.0980     1.9440 H     1 <1>   0.0800 
 49 H       -9.2580    -7.2900     0.6960 H     1 <1>   0.0800 
 50 H      -10.8630    -4.6860     2.3510 H     1 <1>   0.1500 
 51 H      -10.2720    -6.2250    -1.5850 H     1 <1>   0.1500 
 52 H      -12.8960    -3.5510     1.5990 H     1 <1>   0.1500 
 53 H      -12.3160    -5.0870    -2.3310 H     1 <1>   0.1500 
 54 H      -13.6280    -3.7450    -0.7410 H     1 <1>   0.1500 
@<TRIPOS>BOND
  1   1   2  2   
  2   2   3  1   
  3   2   4  am  
  4   3   5  1   
  5   4   6  1   
  6   4   7  1   
  7   5   8  1   
  8   5  25  1   
  9   5  26  1   
 10   6   9  1   
 11   6  27  1   
 12   6  28  1   
 13   7  10  1   
 14   7  29  1   
 15   7  30  1   
 16   8  31  1   
 17   8  32  1   
 18   8  33  1   
 19   9  11  1   
 20   9  34  1   
 21   9  35  1   
 22  10  11  1   
 23  10  36  1   
 24  10  37  1   
 25  11  12  1   
 26  11  38  1   
 27  12  13  1   
 28  12  14  1   
 29  12  39  1   
 30  13  15  1   
 31  13  40  1   
 32  13  41  1   
 33  14  16  1   
 34  14  42  1   
 35  14  43  1   
 36  15  17  1   
 37  15  44  1   
 38  15  45  1   
 39  16  17  1   
 40  16  46  1   
 41  16  47  1   
 42  17  18  1   
 43  18  19  1   
 44  18  48  1   
 45  18  49  1   
 46  19  20  ar  
 47  19  21  ar  
 48  20  22  ar  
 49  20  50  1   
 50  21  23  ar  
 51  21  51  1   
 52  22  24  ar  
 53  22  52  1   
 54  23  24  ar  
 55  23  53  1   
 56  24  54  1   
@<TRIPOS>SUBSTRUCTURE
  1 ****  12 GROUP 4 **** **** 0

# MOE 2024.06 (io_trps.svl 2023.06)
