@<TRIPOS>MOLECULE
NONAME
40 43 1 0 0 
SMALL
USER_CHARGES


@<TRIPOS>ATOM
  1 F        0.3930    -0.0190    -1.5020 F     1 <1>  -0.1900 
  2 C       -0.2180    -1.1040    -1.0980 C.ar  1 <1>   0.1900 
  3 C       -1.5120    -1.3210    -1.5420 C.ar  1 <1>   0.1900 
  4 C        0.4250    -2.0040    -0.2420 C.ar  1 <1>   0.0860 
  5 F       -2.0840    -0.4610    -2.3450 F     1 <1>  -0.1900 
  6 C       -2.2310    -2.4350    -1.1590 C.ar  1 <1>  -0.1500 
  7 C        1.7830    -1.8370     0.2570 C.2   1 <1>   0.5440 
  8 C       -0.3270    -3.1260     0.1350 C.ar  1 <1>  -0.1500 
  9 C       -1.6230    -3.3430    -0.3090 C.ar  1 <1>  -0.1500 
 10 O        2.1440    -2.4750     1.2260 O.2   1 <1>  -0.5700 
 11 N        2.6720    -0.9920    -0.3490 N.am  1 <1>  -0.7300 
 12 C        4.0710    -0.6890     0.0030 C.3   1 <1>   0.3000 
 13 C        4.1660    -0.0720     1.4110 C.3   1 <1>  -0.1600 
 14 C        4.5880     0.3380    -1.0230 C.3   1 <1>  -0.1600 
 15 C        4.9490    -1.9530    -0.0780 C.3   1 <1>  -0.1600 
 16 C        5.6300     0.2890     1.7310 C.3   1 <1>  -0.0800 
 17 C        6.0530     0.7100    -0.7220 C.3   1 <1>  -0.0800 
 18 C        6.4160    -1.5960     0.2380 C.3   1 <1>  -0.0800 
 19 C        6.1390     1.3090     0.6950 C.3   1 <1>  -0.1600 
 20 C        6.4930    -0.9860     1.6510 C.3   1 <1>  -0.1600 
 21 C        6.9180    -0.5620    -0.7880 C.3   1 <1>  -0.1600 
 22 H       -3.2350    -2.5850    -1.5150 H     1 <1>   0.1500 
 23 H        0.1210    -3.8490     0.7970 H     1 <1>   0.1500 
 24 H       -2.1590    -4.2230     0.0100 H     1 <1>   0.1500 
 25 H        2.3220    -0.4080    -1.1090 H     1 <1>   0.3700 
 26 H        3.8120    -0.7740     2.1450 H     1 <1>   0.0800 
 27 H        3.5530     0.8090     1.4670 H     1 <1>   0.0800 
 28 H        4.5240    -0.0740    -2.0150 H     1 <1>   0.0800 
 29 H        3.9830     1.2270    -0.9850 H     1 <1>   0.0800 
 30 H        4.8820    -2.3830    -1.0610 H     1 <1>   0.0800 
 31 H        4.6090    -2.6840     0.6330 H     1 <1>   0.0800 
 32 H        5.6930     0.7100     2.7200 H     1 <1>   0.0800 
 33 H        6.4040     1.4280    -1.4430 H     1 <1>   0.0800 
 34 H        7.0230    -2.4840     0.1900 H     1 <1>   0.0800 
 35 H        7.1580     1.5750     0.9160 H     1 <1>   0.0800 
 36 H        5.5490     2.2080     0.7480 H     1 <1>   0.0800 
 37 H        7.5160    -0.7480     1.8890 H     1 <1>   0.0800 
 38 H        6.1480    -1.7030     2.3760 H     1 <1>   0.0800 
 39 H        7.9450    -0.3150    -0.5810 H     1 <1>   0.0800 
 40 H        6.8780    -0.9820    -1.7780 H     1 <1>   0.0800 
@<TRIPOS>BOND
  1   1   2  1   
  2   2   3  ar  
  3   2   4  ar  
  4   3   5  1   
  5   3   6  ar  
  6   4   7  1   
  7   4   8  ar  
  8   6   9  ar  
  9   6  22  1   
 10   7  10  2   
 11   7  11  am  
 12   8   9  ar  
 13   8  23  1   
 14   9  24  1   
 15  11  12  1   
 16  11  25  1   
 17  12  13  1   
 18  12  14  1   
 19  12  15  1   
 20  13  16  1   
 21  13  26  1   
 22  13  27  1   
 23  14  17  1   
 24  14  28  1   
 25  14  29  1   
 26  15  18  1   
 27  15  30  1   
 28  15  31  1   
 29  16  19  1   
 30  16  20  1   
 31  16  32  1   
 32  17  19  1   
 33  17  21  1   
 34  17  33  1   
 35  18  20  1   
 36  18  21  1   
 37  18  34  1   
 38  19  35  1   
 39  19  36  1   
 40  20  37  1   
 41  20  38  1   
 42  21  39  1   
 43  21  40  1   
@<TRIPOS>SUBSTRUCTURE
  1 ****  11 GROUP 4 **** **** 0

# MOE 2024.06 (io_trps.svl 2023.06)
