@<TRIPOS>MOLECULE
NONAME
37 38 1 0 0 
SMALL
USER_CHARGES


@<TRIPOS>ATOM
  1 I       -2.7070    -2.7390     3.3330 I     1 <1>  -0.0810 
  2 C       -2.3230    -1.8420     1.4300 C.ar  1 <1>   0.0810 
  3 C       -1.0490    -1.3800     1.1140 C.ar  1 <1>   0.0830 
  4 C       -3.3890    -1.7540     0.5530 C.ar  1 <1>  -0.1500 
  5 O       -0.0530    -1.5080     2.0370 O.3   1 <1>  -0.3630 
  6 C       -0.8660    -0.8080    -0.1440 C.ar  1 <1>  -0.1500 
  7 C       -3.1890    -1.1830    -0.6930 C.ar  1 <1>  -0.1430 
  8 C        1.2930    -1.1750     1.7600 C.3   1 <1>   0.1200 
  9 C       -1.9270    -0.7150    -1.0320 C.ar  1 <1>  -0.1500 
 10 C       -4.3350    -1.0710    -1.6820 C.3   1 <1>  -0.0960 
 11 C        1.9290    -2.2730     0.9030 C.3   1 <1>   0.1400 
 12 N        3.2620    -1.8390     0.4330 N.am  1 <1>  -0.4200 
 13 C        4.4510    -2.1770     1.0120 C.2   1 <1>   0.6900 
 14 C        3.4910    -1.0120    -0.6250 C.2   1 <1>   0.5690 
 15 O        4.5700    -2.8300     2.0230 O.2   1 <1>  -0.5700 
 16 N        5.4910    -1.6500     0.3370 N.am  1 <1>  -0.7300 
 17 O        2.6400    -0.5030    -1.3170 O.2   1 <1>  -0.5700 
 18 C        5.0140    -0.8120    -0.7700 C.3   1 <1>   0.3610 
 19 C        5.5730    -1.3660    -2.0820 C.3   1 <1>  -0.2400 
 20 C        5.4580     0.6310    -0.5240 C.3   1 <1>  -0.2400 
 21 H       -4.3570    -2.1260     0.8400 H     1 <1>   0.1500 
 22 H        0.0870    -0.4270    -0.4600 H     1 <1>   0.1500 
 23 H        1.8050    -1.1100     2.7040 H     1 <1>   0.0800 
 24 H        1.3210    -0.2140     1.2790 H     1 <1>   0.0800 
 25 H       -1.7630    -0.2720    -1.9990 H     1 <1>   0.1500 
 26 H       -4.2560    -0.1580    -2.2430 H     1 <1>   0.0800 
 27 H       -5.2800    -1.0730    -1.1690 H     1 <1>   0.0800 
 28 H       -4.3080    -1.9020    -2.3640 H     1 <1>   0.0800 
 29 H        1.3140    -2.4800     0.0450 H     1 <1>   0.0800 
 30 H        2.0280    -3.1740     1.4850 H     1 <1>   0.0800 
 31 H        6.4430    -1.6380     0.6980 H     1 <1>   0.3700 
 32 H        5.2810    -2.3930    -2.2090 H     1 <1>   0.0800 
 33 H        6.6450    -1.2960    -2.0970 H     1 <1>   0.0800 
 34 H        5.1810    -0.8010    -2.9100 H     1 <1>   0.0800 
 35 H        5.0890     0.9810     0.4240 H     1 <1>   0.0800 
 36 H        5.0600     1.2670    -1.2950 H     1 <1>   0.0800 
 37 H        6.5300     0.7070    -0.5390 H     1 <1>   0.0800 
@<TRIPOS>BOND
  1   1   2  1   
  2   2   3  ar  
  3   2   4  ar  
  4   3   5  1   
  5   3   6  ar  
  6   4   7  ar  
  7   4  21  1   
  8   5   8  1   
  9   6   9  ar  
 10   6  22  1   
 11   7   9  ar  
 12   7  10  1   
 13   8  11  1   
 14   8  23  1   
 15   8  24  1   
 16   9  25  1   
 17  10  26  1   
 18  10  27  1   
 19  10  28  1   
 20  11  12  1   
 21  11  29  1   
 22  11  30  1   
 23  12  13  am  
 24  12  14  am  
 25  13  15  2   
 26  13  16  am  
 27  14  17  2   
 28  14  18  1   
 29  16  18  1   
 30  16  31  1   
 31  18  19  1   
 32  18  20  1   
 33  19  32  1   
 34  19  33  1   
 35  19  34  1   
 36  20  35  1   
 37  20  36  1   
 38  20  37  1   
@<TRIPOS>SUBSTRUCTURE
  1 ****  11 GROUP 4 **** **** 0

# MOE 2024.06 (io_trps.svl 2023.06)
