@<TRIPOS>MOLECULE
NONAME
38 39 1 0 0 
SMALL
USER_CHARGES


@<TRIPOS>ATOM
  1 O        0.8920    -1.5740     2.4510 O.2   1 <1>  -0.5700 
  2 C        0.3910    -1.5720     1.3510 C.2   1 <1>   0.5690 
  3 N        0.9980    -1.0820     0.2390 N.am  1 <1>  -0.7300 
  4 C       -1.0090    -2.1690     1.1760 C.3   1 <1>   0.1710 
  5 C        2.3630    -0.5720     0.0140 C.3   1 <1>   0.3640 
  6 N       -1.7630    -1.6260     0.0080 N.3   1 <1>  -0.8100 
  7 C        3.3000    -1.7260    -0.3290 C.ar  1 <1>  -0.1440 
  8 C        2.8790     0.2680     1.1830 C.3   1 <1>  -0.2400 
  9 C       -2.9000    -2.4950    -0.3740 C.3   1 <1>   0.1100 
 10 C       -2.2120    -0.2390     0.2240 C.3   1 <1>   0.1100 
 11 C        3.5490    -2.7440     0.5820 C.ar  1 <1>  -0.1500 
 12 C        3.9200    -1.7720    -1.5710 C.ar  1 <1>  -0.1500 
 13 C       -4.0520    -1.7400    -1.0790 C.3   1 <1>   0.1200 
 14 C       -2.9070     0.3280    -1.0350 C.3   1 <1>   0.1200 
 15 C        4.4020    -3.7860     0.2610 C.ar  1 <1>  -0.1500 
 16 C        4.7740    -2.8120    -1.8940 C.ar  1 <1>  -0.1500 
 17 O       -3.5730    -0.6440    -1.8010 O.3   1 <1>  -0.5600 
 18 C        5.0150    -3.8210    -0.9790 C.ar  1 <1>  -0.1500 
 19 H        0.4400    -1.1920    -0.6140 H     1 <1>   0.3700 
 20 H       -1.5690    -2.0100     2.0800 H     1 <1>   0.0800 
 21 H       -0.8800    -3.2280     1.0490 H     1 <1>   0.0800 
 22 H        2.3120     0.0830    -0.8380 H     1 <1>   0.0800 
 23 H        3.0530    -0.3400     2.0500 H     1 <1>   0.0800 
 24 H        2.1720     1.0410     1.4240 H     1 <1>   0.0800 
 25 H        3.8110     0.7250     0.9080 H     1 <1>   0.0800 
 26 H       -3.3040    -2.9850     0.4950 H     1 <1>   0.0800 
 27 H       -2.5330    -3.2600    -1.0360 H     1 <1>   0.0800 
 28 H       -1.3760     0.3910     0.4750 H     1 <1>   0.0800 
 29 H       -2.9010    -0.2080     1.0510 H     1 <1>   0.0800 
 30 H        3.0750    -2.7280     1.5490 H     1 <1>   0.1500 
 31 H        3.7430    -0.9970    -2.2960 H     1 <1>   0.1500 
 32 H       -4.7630    -1.3800    -0.3570 H     1 <1>   0.0800 
 33 H       -4.5620    -2.3930    -1.7630 H     1 <1>   0.0800 
 34 H       -2.1730     0.7820    -1.6770 H     1 <1>   0.0800 
 35 H       -3.6210     1.0820    -0.7550 H     1 <1>   0.0800 
 36 H        4.5860    -4.5670     0.9770 H     1 <1>   0.1500 
 37 H        5.2490    -2.8380    -2.8590 H     1 <1>   0.1500 
 38 H        5.6780    -4.6300    -1.2290 H     1 <1>   0.1500 
@<TRIPOS>BOND
  1   1   2  2   
  2   2   3  am  
  3   2   4  1   
  4   3   5  1   
  5   3  19  1   
  6   4   6  1   
  7   4  20  1   
  8   4  21  1   
  9   5   7  1   
 10   5   8  1   
 11   5  22  1   
 12   6   9  1   
 13   6  10  1   
 14   7  11  ar  
 15   7  12  ar  
 16   8  23  1   
 17   8  24  1   
 18   8  25  1   
 19   9  13  1   
 20   9  26  1   
 21   9  27  1   
 22  10  14  1   
 23  10  28  1   
 24  10  29  1   
 25  11  15  ar  
 26  11  30  1   
 27  12  16  ar  
 28  12  31  1   
 29  13  17  1   
 30  13  32  1   
 31  13  33  1   
 32  14  17  1   
 33  14  34  1   
 34  14  35  1   
 35  15  18  ar  
 36  15  36  1   
 37  16  18  ar  
 38  16  37  1   
 39  18  38  1   
@<TRIPOS>SUBSTRUCTURE
  1 ****   3 GROUP 4 **** **** 0

# MOE 2024.06 (io_trps.svl 2023.06)
