@<TRIPOS>MOLECULE
NONAME
43 45 1 0 0 
SMALL
USER_CHARGES


@<TRIPOS>ATOM
  1 S       -0.3100    -0.3050    -1.3040 S.3   1 <1>  -0.2860 
  2 C       -1.4830     0.5010    -2.4030 C.2   1 <1>   0.2420 
  3 C        1.3280     0.4140    -1.8250 C.3   1 <1>   0.1310 
  4 N       -1.1520     1.3530    -3.2900 N.2   1 <1>  -0.3380 
  5 N       -2.7920     0.2760    -2.3840 N.pl3 1 <1>   0.5930 
  6 C        2.4830    -0.1150    -0.9880 C.2   1 <1>   0.5690 
  7 N       -2.3010     1.6840    -3.8720 N.2   1 <1>   0.0000 
  8 N       -3.2890     1.0470    -3.3460 N.2   1 <1>  -0.4180 
  9 C       -3.5530    -0.6000    -1.5710 C.ar  1 <1>  -0.0230 
 10 O        3.6000     0.1990    -1.3190 O.2   1 <1>  -0.5700 
 11 N        2.2250    -0.9080     0.0900 N.am  1 <1>  -0.7300 
 12 C       -3.7990    -0.2750    -0.2090 C.ar  1 <1>   0.0000 
 13 C       -4.0460    -1.7670    -2.1070 C.ar  1 <1>  -0.1500 
 14 C        3.1570    -1.5280     1.0340 C.3   1 <1>   0.3000 
 15 C       -4.5320    -1.1920     0.5800 C.ar  1 <1>   0.0000 
 16 C       -3.3590     0.9200     0.4100 C.ar  1 <1>  -0.1500 
 17 C       -4.7770    -2.6620    -1.3240 C.ar  1 <1>  -0.1500 
 18 C        2.3070    -2.3060     2.0360 C.3   1 <1>  -0.2400 
 19 C        4.0820    -2.4900     0.2880 C.3   1 <1>  -0.2400 
 20 C        3.9500    -0.4440     1.7640 C.3   1 <1>  -0.2400 
 21 C       -5.0100    -2.3780    -0.0090 C.ar  1 <1>  -0.1500 
 22 C       -4.7740    -0.8950     1.9360 C.ar  1 <1>  -0.1500 
 23 C       -3.6100     1.1820     1.7280 C.ar  1 <1>  -0.1500 
 24 C       -4.3240     0.2640     2.5020 C.ar  1 <1>  -0.1500 
 25 H        1.2570     1.4810    -1.7210 H     1 <1>   0.0800 
 26 H        1.4740     0.1600    -2.8580 H     1 <1>   0.0800 
 27 H        1.2480    -1.1320     0.2830 H     1 <1>   0.3700 
 28 H       -3.8750    -2.0130    -3.1420 H     1 <1>   0.1500 
 29 H       -2.8160     1.6500    -0.1620 H     1 <1>   0.1500 
 30 H       -5.1510    -3.5690    -1.7690 H     1 <1>   0.1500 
 31 H        1.7320    -3.0650     1.5360 H     1 <1>   0.0800 
 32 H        1.6410    -1.6450     2.5610 H     1 <1>   0.0800 
 33 H        2.9390    -2.7870     2.7600 H     1 <1>   0.0800 
 34 H        3.5080    -3.2180    -0.2560 H     1 <1>   0.0800 
 35 H        4.7190    -3.0060     0.9830 H     1 <1>   0.0800 
 36 H        4.7100    -1.9550    -0.4010 H     1 <1>   0.0800 
 37 H        3.2850     0.2500     2.2450 H     1 <1>   0.0800 
 38 H        4.5790     0.0930     1.0770 H     1 <1>   0.0800 
 39 H        4.5820    -0.8870     2.5110 H     1 <1>   0.0800 
 40 H       -5.5720    -3.0640     0.6010 H     1 <1>   0.1500 
 41 H       -5.3290    -1.6030     2.5260 H     1 <1>   0.1500 
 42 H       -3.2680     2.0950     2.1860 H     1 <1>   0.1500 
 43 H       -4.5140     0.4860     3.5390 H     1 <1>   0.1500 
@<TRIPOS>BOND
  1   1   2  1   
  2   1   3  1   
  3   2   4  2   
  4   2   5  1   
  5   3   6  1   
  6   3  25  1   
  7   3  26  1   
  8   4   7  1   
  9   5   8  1   
 10   5   9  1   
 11   6  10  2   
 12   6  11  am  
 13   7   8  2   
 14   9  12  ar  
 15   9  13  ar  
 16  11  14  1   
 17  11  27  1   
 18  12  15  ar  
 19  12  16  ar  
 20  13  17  ar  
 21  13  28  1   
 22  14  18  1   
 23  14  19  1   
 24  14  20  1   
 25  15  21  ar  
 26  15  22  ar  
 27  16  23  ar  
 28  16  29  1   
 29  17  21  ar  
 30  17  30  1   
 31  18  31  1   
 32  18  32  1   
 33  18  33  1   
 34  19  34  1   
 35  19  35  1   
 36  19  36  1   
 37  20  37  1   
 38  20  38  1   
 39  20  39  1   
 40  21  40  1   
 41  22  24  ar  
 42  22  41  1   
 43  23  24  ar  
 44  23  42  1   
 45  24  43  1   
@<TRIPOS>SUBSTRUCTURE
  1 ****   1 GROUP 4 **** **** 0

# MOE 2024.06 (io_trps.svl 2023.06)
