@<TRIPOS>MOLECULE
NONAME
47 49 1 0 0 
SMALL
USER_CHARGES


@<TRIPOS>ATOM
  1 O      -12.8170     4.3190    -1.0840 O.3   1 <1>  -0.6800 
  2 C      -13.1540     2.9610    -1.1070 C.3   1 <1>   0.1200 
  3 C      -12.2250     2.1780    -0.1500 C.3   1 <1>   0.4230 
  4 N      -10.8860     2.7940    -0.1970 N.4   1 <1>  -0.9060 
  5 C      -12.1140     0.6880    -0.4990 C.3   1 <1>  -0.1600 
  6 C      -10.0980     2.7160     1.0430 C.3   1 <1>   0.4860 
  7 C      -13.4540    -0.0530    -0.3740 C.3   1 <1>  -0.2400 
  8 C       -8.7780     3.3870     0.7520 C.ar  1 <1>  -0.1440 
  9 C       -7.6750     2.6300     0.4070 C.ar  1 <1>  -0.1500 
 10 C       -8.6770     4.7810     0.8180 C.ar  1 <1>  -0.1500 
 11 C       -6.4680     3.2620     0.1190 C.ar  1 <1>   0.0000 
 12 C       -7.4860     5.4130     0.5350 C.ar  1 <1>  -0.1500 
 13 C       -6.3770     4.6460     0.1780 C.ar  1 <1>  -0.1520 
 14 C       -5.1860     2.7710    -0.2580 C.ar  1 <1>   0.0000 
 15 N       -5.0870     5.0190    -0.1520 N.pl3 1 <1>   0.0480 
 16 C       -4.3580     3.8760    -0.4160 C.ar  1 <1>  -0.1520 
 17 C       -4.6830     1.4880    -0.4690 C.ar  1 <1>  -0.1500 
 18 C       -4.5760     6.4050    -0.2250 C.3   1 <1>   0.0960 
 19 C       -3.0200     3.7120    -0.7820 C.ar  1 <1>  -0.1500 
 20 C       -3.3630     1.3280    -0.8330 C.ar  1 <1>  -0.1500 
 21 C       -4.0110     6.8400     1.1300 C.3   1 <1>  -0.2400 
 22 C       -2.5330     2.4400    -0.9890 C.ar  1 <1>  -0.1500 
 23 H      -13.4490     4.8470    -1.6240 H     1 <1>   0.4000 
 24 H      -13.0460     2.6070    -2.1190 H     1 <1>   0.0800 
 25 H      -14.1820     2.8520    -0.8070 H     1 <1>   0.0800 
 26 H      -12.6270     2.2770     0.8460 H     1 <1>   0.0800 
 27 H      -11.0700     3.7900    -0.4130 H     1 <1>   0.4500 
 28 H      -10.3310     2.4490    -0.9850 H     1 <1>   0.4500 
 29 H      -11.4140     0.2150     0.1680 H     1 <1>   0.0800 
 30 H      -11.7500     0.5720    -1.5060 H     1 <1>   0.0800 
 31 H       -9.9340     1.6880     1.3220 H     1 <1>   0.0800 
 32 H      -10.6030     3.2240     1.8490 H     1 <1>   0.0800 
 33 H      -13.8560     0.0440     0.6210 H     1 <1>   0.0800 
 34 H      -13.3110    -1.1020    -0.5720 H     1 <1>   0.0800 
 35 H      -14.1780     0.3180    -1.0790 H     1 <1>   0.0800 
 36 H       -7.7090     1.5560     0.3530 H     1 <1>   0.1500 
 37 H       -9.5290     5.3790     1.0960 H     1 <1>   0.1500 
 38 H       -7.4050     6.4850     0.5890 H     1 <1>   0.1500 
 39 H       -5.3260     0.6380    -0.3450 H     1 <1>   0.1500 
 40 H       -5.3780     7.0560    -0.5210 H     1 <1>   0.0800 
 41 H       -3.8110     6.4520    -0.9790 H     1 <1>   0.0800 
 42 H       -2.3800     4.5670    -0.8990 H     1 <1>   0.1500 
 43 H       -2.9610     0.3440    -1.0000 H     1 <1>   0.1500 
 44 H       -4.7790     6.8070     1.8820 H     1 <1>   0.0800 
 45 H       -3.6380     7.8470     1.0640 H     1 <1>   0.0800 
 46 H       -3.2020     6.1940     1.4210 H     1 <1>   0.0800 
 47 H       -1.5050     2.2940    -1.2720 H     1 <1>   0.1500 
@<TRIPOS>BOND
  1   1   2  1   
  2   1  23  1   
  3   2   3  1   
  4   2  24  1   
  5   2  25  1   
  6   3   4  1   
  7   3   5  1   
  8   3  26  1   
  9   4   6  1   
 10   4  27  1   
 11   4  28  1   
 12   5   7  1   
 13   5  29  1   
 14   5  30  1   
 15   6   8  1   
 16   6  31  1   
 17   6  32  1   
 18   7  33  1   
 19   7  34  1   
 20   7  35  1   
 21   8   9  ar  
 22   8  10  ar  
 23   9  11  ar  
 24   9  36  1   
 25  10  12  ar  
 26  10  37  1   
 27  11  13  ar  
 28  11  14  1   
 29  12  13  ar  
 30  12  38  1   
 31  13  15  1   
 32  14  16  ar  
 33  14  17  ar  
 34  15  16  1   
 35  15  18  1   
 36  16  19  ar  
 37  17  20  ar  
 38  17  39  1   
 39  18  21  1   
 40  18  40  1   
 41  18  41  1   
 42  19  22  ar  
 43  19  42  1   
 44  20  22  ar  
 45  20  43  1   
 46  21  44  1   
 47  21  45  1   
 48  21  46  1   
 49  22  47  1   
@<TRIPOS>SUBSTRUCTURE
  1 ****   9 GROUP 4 **** **** 0

# MOE 2024.06 (io_trps.svl 2023.06)
