@<TRIPOS>MOLECULE
NONAME
52 54 1 0 0 
SMALL
USER_CHARGES


@<TRIPOS>ATOM
  1 O        1.5320    -1.3180    -2.0330 O.2   1 <1>  -0.5700 
  2 C        1.8690    -1.3090    -0.8730 C.2   1 <1>   0.5690 
  3 N        2.3140    -0.1660    -0.2680 N.am  1 <1>  -0.6600 
  4 C        1.7780    -2.6380    -0.1150 C.3   1 <1>  -0.0190 
  5 C        2.7890     0.0040     1.1250 C.3   1 <1>   0.1400 
  6 C        2.3630     1.1220    -0.9970 C.3   1 <1>   0.1400 
  7 C        2.7350    -3.6740    -0.7360 C.3   1 <1>  -0.1600 
  8 C        0.3320    -3.1730    -0.1280 C.3   1 <1>  -0.1600 
  9 C        3.3590     1.4170     1.1780 C.3   1 <1>  -0.1600 
 10 C        2.6230     2.1720     0.0760 C.3   1 <1>  -0.1600 
 11 C        2.5740    -5.0590    -0.1140 C.3   1 <1>   0.3430 
 12 C        0.2230    -4.5680     0.4810 C.3   1 <1>   0.3430 
 13 N        1.1550    -5.4920    -0.2270 N.4   1 <1>  -0.9590 
 14 C        0.9760    -6.9040     0.2070 C.3   1 <1>   0.4860 
 15 C       -0.4330    -7.3470    -0.1360 C.ar  1 <1>  -0.1440 
 16 C       -0.7950    -7.5720    -1.4570 C.ar  1 <1>  -0.1500 
 17 C       -1.3750    -7.5270     0.8680 C.ar  1 <1>  -0.1500 
 18 C       -2.0870    -7.9560    -1.7660 C.ar  1 <1>  -0.1500 
 19 C       -2.6670    -7.9130     0.5570 C.ar  1 <1>  -0.1500 
 20 C       -3.0320    -8.1270    -0.7690 C.ar  1 <1>   0.0820 
 21 O       -4.2710    -8.5030    -1.1710 O.3   1 <1>  -0.3620 
 22 C       -5.3500    -8.7010    -0.2810 C.3   1 <1>   0.1200 
 23 C       -5.9740    -7.3500     0.0710 C.3   1 <1>  -0.2400 
 24 H        2.0640    -2.4900     0.9090 H     1 <1>   0.0800 
 25 H        3.5430    -0.7230     1.3730 H     1 <1>   0.0800 
 26 H        1.9530    -0.0830     1.7980 H     1 <1>   0.0800 
 27 H        1.4390     1.3060    -1.5200 H     1 <1>   0.0800 
 28 H        3.1750     1.0940    -1.7040 H     1 <1>   0.0800 
 29 H        3.7500    -3.3420    -0.6040 H     1 <1>   0.0800 
 30 H        2.5610    -3.7440    -1.7970 H     1 <1>   0.0800 
 31 H       -0.0410    -3.2050    -1.1380 H     1 <1>   0.0800 
 32 H       -0.3010    -2.4970     0.4200 H     1 <1>   0.0800 
 33 H        4.4110     1.3800     0.9530 H     1 <1>   0.0800 
 34 H        3.2240     1.8690     2.1450 H     1 <1>   0.0800 
 35 H        1.6790     2.5350     0.4450 H     1 <1>   0.0800 
 36 H        3.1920     3.0010    -0.3070 H     1 <1>   0.0800 
 37 H        2.8660    -5.0260     0.9230 H     1 <1>   0.0800 
 38 H        3.2170    -5.7560    -0.6280 H     1 <1>   0.0800 
 39 H       -0.7940    -4.9170     0.3830 H     1 <1>   0.0800 
 40 H        0.4690    -4.5280     1.5300 H     1 <1>   0.0800 
 41 H        0.8880    -5.4570    -1.2200 H     1 <1>   0.4500 
 42 H        1.1420    -6.9930     1.2680 H     1 <1>   0.0800 
 43 H        1.6790    -7.5420    -0.3040 H     1 <1>   0.0800 
 44 H       -0.0860    -7.4570    -2.2600 H     1 <1>   0.1500 
 45 H       -1.1180    -7.3720     1.9030 H     1 <1>   0.1500 
 46 H       -2.3770    -8.1320    -2.7880 H     1 <1>   0.1500 
 47 H       -3.3740    -8.0440     1.3540 H     1 <1>   0.1500 
 48 H       -5.0070    -9.2370     0.5860 H     1 <1>   0.0800 
 49 H       -6.0720    -9.3120    -0.7930 H     1 <1>   0.0800 
 50 H       -5.2660    -6.7170     0.5740 H     1 <1>   0.0800 
 51 H       -6.8180    -7.5000     0.7200 H     1 <1>   0.0800 
 52 H       -6.3150    -6.8610    -0.8240 H     1 <1>   0.0800 
@<TRIPOS>BOND
  1   1   2  2   
  2   2   3  am  
  3   2   4  1   
  4   3   5  1   
  5   3   6  1   
  6   4   7  1   
  7   4   8  1   
  8   4  24  1   
  9   5   9  1   
 10   5  25  1   
 11   5  26  1   
 12   6  10  1   
 13   6  27  1   
 14   6  28  1   
 15   7  11  1   
 16   7  29  1   
 17   7  30  1   
 18   8  12  1   
 19   8  31  1   
 20   8  32  1   
 21   9  10  1   
 22   9  33  1   
 23   9  34  1   
 24  10  35  1   
 25  10  36  1   
 26  11  13  1   
 27  11  37  1   
 28  11  38  1   
 29  12  13  1   
 30  12  39  1   
 31  12  40  1   
 32  13  14  1   
 33  13  41  1   
 34  14  15  1   
 35  14  42  1   
 36  14  43  1   
 37  15  16  ar  
 38  15  17  ar  
 39  16  18  ar  
 40  16  44  1   
 41  17  19  ar  
 42  17  45  1   
 43  18  20  ar  
 44  18  46  1   
 45  19  20  ar  
 46  19  47  1   
 47  20  21  1   
 48  21  22  1   
 49  22  23  1   
 50  22  48  1   
 51  22  49  1   
 52  23  50  1   
 53  23  51  1   
 54  23  52  1   
@<TRIPOS>SUBSTRUCTURE
  1 ****  12 GROUP 4 **** **** 0

# MOE 2024.06 (io_trps.svl 2023.06)
