@<TRIPOS>MOLECULE
NONAME
30 31 1 0 0 
SMALL
USER_CHARGES


@<TRIPOS>ATOM
  1 O        7.1500     0.0900     2.6820 O.2   1 <1>  -0.5700 
  2 C        7.4370    -0.3520     1.5880 C.2   1 <1>   0.6900 
  3 N        6.4910    -0.5680     0.6070 N.am  1 <1>  -0.4690 
  4 N        8.7320    -0.6610     1.3220 N.am  1 <1>  -0.4900 
  5 C        6.8630    -1.1160    -0.6200 C.2   1 <1>  -0.0410 
  6 C        5.0910    -0.2110     0.9300 C.3   1 <1>   0.5000 
  7 C        9.1450    -1.1940     0.1410 C.2   1 <1>   0.6160 
  8 C        8.1560    -1.4290    -0.8690 C.2   1 <1>  -0.1240 
  9 O        4.4510     0.1600    -0.2540 O.3   1 <1>  -0.5600 
 10 C        4.3190    -1.4080     1.4840 C.3   1 <1>  -0.1600 
 11 O       10.3260    -1.4450     0.0080 O.2   1 <1>  -0.5700 
 12 C        8.5980    -2.0250    -2.2000 C.3   1 <1>  -0.1020 
 13 C        3.2000    -0.4370    -0.3570 C.3   1 <1>   0.2000 
 14 C        3.3540    -1.7680     0.3690 C.3   1 <1>  -0.1600 
 15 C        2.8110    -0.5450    -1.8380 C.3   1 <1>   0.1200 
 16 O        1.6220    -1.2540    -1.9780 O.3   1 <1>  -0.6800 
 17 H        9.4240    -0.4950     2.0420 H     1 <1>   0.3700 
 18 H        6.0840    -1.2710    -1.3490 H     1 <1>   0.1500 
 19 H        5.0550     0.6260     1.6080 H     1 <1>   0.0800 
 20 H        4.9630    -2.2250     1.7580 H     1 <1>   0.0800 
 21 H        3.7760    -1.0880     2.3550 H     1 <1>   0.0800 
 22 H        9.0540    -2.9850    -2.0370 H     1 <1>   0.0800 
 23 H        9.3220    -1.3790    -2.6660 H     1 <1>   0.0800 
 24 H        7.7640    -2.1460    -2.8660 H     1 <1>   0.0800 
 25 H        2.5000     0.1980     0.1610 H     1 <1>   0.0800 
 26 H        2.4140    -2.1390     0.7370 H     1 <1>   0.0800 
 27 H        3.7990    -2.4960    -0.2870 H     1 <1>   0.0800 
 28 H        3.5750    -1.0570    -2.3970 H     1 <1>   0.0800 
 29 H        2.6590     0.4370    -2.2500 H     1 <1>   0.0800 
 30 H        1.7400    -2.1870    -1.7160 H     1 <1>   0.4000 
@<TRIPOS>BOND
  1   1   2  2   
  2   2   3  am  
  3   2   4  am  
  4   3   5  1   
  5   3   6  1   
  6   4   7  am  
  7   4  17  1   
  8   5   8  2   
  9   5  18  1   
 10   6   9  1   
 11   6  10  1   
 12   6  19  1   
 13   7   8  1   
 14   7  11  2   
 15   8  12  1   
 16   9  13  1   
 17  10  14  1   
 18  10  20  1   
 19  10  21  1   
 20  12  22  1   
 21  12  23  1   
 22  12  24  1   
 23  13  14  1   
 24  13  15  1   
 25  13  25  1   
 26  14  26  1   
 27  14  27  1   
 28  15  16  1   
 29  15  28  1   
 30  15  29  1   
 31  16  30  1   
@<TRIPOS>SUBSTRUCTURE
  1 ****   3 GROUP 4 **** **** 0

# MOE 2024.06 (io_trps.svl 2023.06)
