@<TRIPOS>MOLECULE
NONAME
40 43 1 0 0 
SMALL
USER_CHARGES


@<TRIPOS>ATOM
  1 S        0.0700    -0.6740    -0.1640 S.3   1 <1>  -0.0800 
  2 C        1.4230     0.4350    -0.0170 C.2   1 <1>   0.1240 
  3 C       -1.0150     0.6870    -0.4280 C.2   1 <1>  -0.1400 
  4 N        2.7140     0.0560     0.2100 N.pl3 1 <1>  -0.5340 
  5 C        1.0580     1.7290    -0.1540 C.2   1 <1>  -0.0860 
  6 C       -0.3590     1.8540    -0.3850 C.2   1 <1>  -0.1810 
  7 C       -2.4980     0.4970    -0.6660 C.3   1 <1>   0.3000 
  8 C        3.6660     1.0420     0.2960 C.2   1 <1>   0.4400 
  9 C        2.0990     2.7230    -0.0540 C.2   1 <1>   0.7470 
 10 C       -1.1400     3.1400    -0.5910 C.3   1 <1>   0.0210 
 11 O       -3.0650     1.7190    -1.0790 O.3   1 <1>  -0.5600 
 12 N        3.4160     2.2930     0.1790 N.2   1 <1>  -0.6610 
 13 N        1.8430     3.9830    -0.1710 N.2   1 <1>  -0.5120 
 14 C       -2.6670     2.9020    -0.4290 C.3   1 <1>   0.2800 
 15 N        2.9020     4.8950    -0.0610 N.am  1 <1>  -0.3680 
 16 C       -3.0860     2.8240     1.0480 C.3   1 <1>  -0.2400 
 17 C       -3.4510     4.0250    -1.1090 C.3   1 <1>  -0.2400 
 18 C        2.8810     6.2690    -0.1350 C.2   1 <1>   0.7150 
 19 O        1.8310     6.8680    -0.3140 O.2   1 <1>  -0.5700 
 20 C        4.1220     6.9910     0.0060 C.2   1 <1>   0.0550 
 21 O        5.2710     6.3470     0.2060 O.3   1 <1>  -0.2800 
 22 C        4.3800     8.3290    -0.0270 C.2   1 <1>  -0.1500 
 23 C        6.2400     7.2300     0.2990 C.2   1 <1>  -0.0100 
 24 C        5.7540     8.4820     0.1630 C.2   1 <1>  -0.1500 
 25 H        2.9580    -0.9310     0.3070 H     1 <1>   0.4000 
 26 H       -2.9930     0.1710     0.2310 H     1 <1>   0.0800 
 27 H       -2.6680    -0.2210    -1.4480 H     1 <1>   0.0800 
 28 H        4.6750     0.7110     0.4740 H     1 <1>   0.0600 
 29 H       -0.9270     3.5180    -1.5740 H     1 <1>   0.0800 
 30 H       -0.8250     3.8860     0.1170 H     1 <1>   0.0800 
 31 H        3.8300     4.4840     0.0990 H     1 <1>   0.3700 
 32 H       -2.5010     2.0970     1.5810 H     1 <1>   0.0800 
 33 H       -4.1280     2.5740     1.1270 H     1 <1>   0.0800 
 34 H       -2.9280     3.7750     1.5220 H     1 <1>   0.0800 
 35 H       -3.2170     4.0580    -2.1580 H     1 <1>   0.0800 
 36 H       -3.1970     4.9750    -0.6740 H     1 <1>   0.0800 
 37 H       -4.5070     3.8660    -0.9930 H     1 <1>   0.0800 
 38 H        3.6690     9.1230    -0.1720 H     1 <1>   0.1500 
 39 H        7.2480     6.8870     0.4620 H     1 <1>   0.1500 
 40 H        6.2850     9.4170     0.1900 H     1 <1>   0.1500 
@<TRIPOS>BOND
  1   1   2  1   
  2   1   3  1   
  3   2   4  1   
  4   2   5  2   
  5   3   6  2   
  6   3   7  1   
  7   4   8  1   
  8   4  25  1   
  9   5   6  1   
 10   5   9  1   
 11   6  10  1   
 12   7  11  1   
 13   7  26  1   
 14   7  27  1   
 15   8  12  2   
 16   8  28  1   
 17   9  12  1   
 18   9  13  2   
 19  10  14  1   
 20  10  29  1   
 21  10  30  1   
 22  11  14  1   
 23  13  15  1   
 24  14  16  1   
 25  14  17  1   
 26  15  18  am  
 27  15  31  1   
 28  16  32  1   
 29  16  33  1   
 30  16  34  1   
 31  17  35  1   
 32  17  36  1   
 33  17  37  1   
 34  18  19  2   
 35  18  20  1   
 36  20  21  1   
 37  20  22  2   
 38  21  23  1   
 39  22  24  1   
 40  22  38  1   
 41  23  24  2   
 42  23  39  1   
 43  24  40  1   
@<TRIPOS>SUBSTRUCTURE
  1 ****  13 GROUP 4 **** **** 0

# MOE 2024.06 (io_trps.svl 2023.06)
