@<TRIPOS>MOLECULE
NONAME
51 53 1 0 0 
SMALL
USER_CHARGES


@<TRIPOS>ATOM
  1 S       -6.5450    -1.5060    -0.8040 S.3   1 <1>  -0.0800 
  2 C       -5.6940     0.0240    -1.0100 C.2   1 <1>  -0.1400 
  3 C       -7.8760    -0.6890    -0.0110 C.2   1 <1>  -0.1400 
  4 C       -6.4090     1.0500    -0.5000 C.2   1 <1>   0.0630 
  5 C       -4.3350    -0.0210    -1.6830 C.3   1 <1>   0.0200 
  6 C       -7.6560     0.6320     0.0840 C.2   1 <1>  -0.1810 
  7 C       -9.0680    -1.4790     0.4830 C.3   1 <1>   0.0200 
  8 N       -5.9720     2.3910    -0.5130 N.am  1 <1>  -0.4230 
  9 C       -3.2170    -0.1900    -0.6450 C.3   1 <1>  -0.1600 
 10 C       -8.6590     1.5440     0.7730 C.3   1 <1>   0.0210 
 11 C      -10.1950    -0.5050     0.8690 C.3   1 <1>  -0.1600 
 12 C       -4.7600     2.7660     0.0200 C.2   1 <1>   0.5690 
 13 C       -6.6570     3.2690    -1.5000 C.3   1 <1>   0.1400 
 14 C       -2.8080     1.1020     0.0900 C.3   1 <1>  -0.1600 
 15 C       -9.6570     0.7300     1.6220 C.3   1 <1>  -0.1600 
 16 O       -4.3110     3.8780    -0.1610 O.2   1 <1>  -0.5700 
 17 C       -3.9330     1.8090     0.8750 C.3   1 <1>  -0.0990 
 18 C       -7.4730     4.3840    -0.8190 C.3   1 <1>  -0.1600 
 19 C       -7.0430     5.7910    -1.2460 C.3   1 <1>   0.3430 
 20 N       -5.7550     6.1790    -0.6130 N.4   1 <1>  -0.9590 
 21 C       -5.9180     6.5990     0.8110 C.3   1 <1>   0.2630 
 22 C       -5.0380     7.2250    -1.3980 C.3   1 <1>   0.2630 
 23 H       -4.1740     0.8760    -2.2530 H     1 <1>   0.0800 
 24 H       -4.3190    -0.8500    -2.3690 H     1 <1>   0.0800 
 25 H       -8.7680    -2.0570     1.3390 H     1 <1>   0.0800 
 26 H       -9.4090    -2.1520    -0.2830 H     1 <1>   0.0800 
 27 H       -2.3460    -0.5700    -1.1510 H     1 <1>   0.0800 
 28 H       -3.5130    -0.9370     0.0740 H     1 <1>   0.0800 
 29 H       -9.1950     2.0950     0.0230 H     1 <1>   0.0800 
 30 H       -8.1410     2.2370     1.4110 H     1 <1>   0.0800 
 31 H      -10.9190    -1.0200     1.4760 H     1 <1>   0.0800 
 32 H      -10.6910    -0.1750    -0.0270 H     1 <1>   0.0800 
 33 H       -7.3170     2.6630    -2.1010 H     1 <1>   0.0800 
 34 H       -5.9190     3.6830    -2.1660 H     1 <1>   0.0800 
 35 H       -2.3730     1.7950    -0.6100 H     1 <1>   0.0800 
 36 H       -2.0320     0.8400     0.7900 H     1 <1>   0.0800 
 37 H      -10.4760     1.3620     1.9160 H     1 <1>   0.0800 
 38 H       -9.1600     0.3970     2.5180 H     1 <1>   0.0800 
 39 H       -4.5600     1.0880     1.3660 H     1 <1>   0.0800 
 40 H       -3.4780     2.3980     1.6500 H     1 <1>   0.0800 
 41 H       -7.4510     4.2870     0.2510 H     1 <1>   0.0800 
 42 H       -8.4960     4.2610    -1.1260 H     1 <1>   0.0800 
 43 H       -7.8060     6.5030    -0.9710 H     1 <1>   0.0800 
 44 H       -6.9440     5.8120    -2.3200 H     1 <1>   0.0800 
 45 H       -5.1440     5.3300    -0.5930 H     1 <1>   0.4500 
 46 H       -6.5460     7.4720     0.8780 H     1 <1>   0.0800 
 47 H       -4.9560     6.8280     1.2410 H     1 <1>   0.0800 
 48 H       -6.3620     5.8030     1.3860 H     1 <1>   0.0800 
 49 H       -5.6190     8.1320    -1.4360 H     1 <1>   0.0800 
 50 H       -4.8640     6.8810    -2.4050 H     1 <1>   0.0800 
 51 H       -4.0850     7.4410    -0.9440 H     1 <1>   0.0800 
@<TRIPOS>BOND
  1   1   2  1   
  2   1   3  1   
  3   2   4  2   
  4   2   5  1   
  5   3   6  2   
  6   3   7  1   
  7   4   6  1   
  8   4   8  1   
  9   5   9  1   
 10   5  23  1   
 11   5  24  1   
 12   6  10  1   
 13   7  11  1   
 14   7  25  1   
 15   7  26  1   
 16   8  12  am  
 17   8  13  1   
 18   9  14  1   
 19   9  27  1   
 20   9  28  1   
 21  10  15  1   
 22  10  29  1   
 23  10  30  1   
 24  11  15  1   
 25  11  31  1   
 26  11  32  1   
 27  12  16  2   
 28  12  17  1   
 29  13  18  1   
 30  13  33  1   
 31  13  34  1   
 32  14  17  1   
 33  14  35  1   
 34  14  36  1   
 35  15  37  1   
 36  15  38  1   
 37  17  39  1   
 38  17  40  1   
 39  18  19  1   
 40  18  41  1   
 41  18  42  1   
 42  19  20  1   
 43  19  43  1   
 44  19  44  1   
 45  20  21  1   
 46  20  22  1   
 47  20  45  1   
 48  21  46  1   
 49  21  47  1   
 50  21  48  1   
 51  22  49  1   
 52  22  50  1   
 53  22  51  1   
@<TRIPOS>SUBSTRUCTURE
  1 ****   8 GROUP 4 **** **** 0

# MOE 2024.06 (io_trps.svl 2023.06)
