@<TRIPOS>MOLECULE
NONAME
37 38 1 0 0 
SMALL
USER_CHARGES


@<TRIPOS>ATOM
  1 BR       0.2640     0.3360    -0.0930 Br    1 <1>  -0.1110 
  2 C        1.9130    -0.6600    -0.1160 C.ar  1 <1>   0.1110 
  3 C        3.1010    -0.0230     0.1900 C.ar  1 <1>   0.1600 
  4 C        1.8850    -1.9990    -0.4370 C.ar  1 <1>  -0.1500 
  5 N        4.2790    -0.6320     0.1980 N.ar  1 <1>  -0.6200 
  6 C        3.1080    -2.6340    -0.4290 C.ar  1 <1>  -0.1500 
  7 C        4.2710    -1.9240    -0.1110 C.ar  1 <1>   0.4270 
  8 N        5.5320    -2.4790    -0.0790 N.am  1 <1>  -0.5470 
  9 C        6.0220    -3.7200    -0.3670 C.2   1 <1>   0.5690 
 10 O        5.3300    -4.6320    -0.7460 O.2   1 <1>  -0.5700 
 11 C        7.5110    -3.9780    -0.1930 C.3   1 <1>   0.1310 
 12 S        8.4950    -2.4020    -0.2810 S.3   1 <1>  -0.2860 
 13 C       10.1730    -2.9640     0.0390 C.2   1 <1>   0.2430 
 14 N       10.4540    -4.1930     0.2850 N.2   1 <1>  -0.3380 
 15 N       11.2340    -2.1520     0.0530 N.pl3 1 <1>   0.0480 
 16 N       11.7720    -4.2290     0.4820 N.2   1 <1>  -0.3380 
 17 C       12.2190    -3.0250     0.3460 C.2   1 <1>   0.0060 
 18 C       11.2240    -0.6780    -0.1790 C.3   1 <1>   0.1760 
 19 C       13.6910    -2.6940     0.5090 C.3   1 <1>  -0.0600 
 20 C       12.2750    -0.2420    -1.2080 C.3   1 <1>  -0.2400 
 21 C       11.3870     0.0790     1.1440 C.3   1 <1>  -0.2400 
 22 H        3.0780     1.0240     0.4360 H     1 <1>   0.1500 
 23 H        0.9670    -2.5060    -0.6760 H     1 <1>   0.1500 
 24 H        3.1560    -3.6780    -0.6690 H     1 <1>   0.1500 
 25 H        6.2280    -1.7810     0.1790 H     1 <1>   0.3700 
 26 H        7.8750    -4.6230    -0.9710 H     1 <1>   0.0800 
 27 H        7.7040    -4.4230     0.7660 H     1 <1>   0.0800 
 28 H       10.2630    -0.4180    -0.5870 H     1 <1>   0.0800 
 29 H       13.8250    -1.8590     1.1690 H     1 <1>   0.0800 
 30 H       14.1280    -2.4750    -0.4480 H     1 <1>   0.0800 
 31 H       14.2070    -3.5400     0.9270 H     1 <1>   0.0800 
 32 H       13.2690    -0.3090    -0.8080 H     1 <1>   0.0800 
 33 H       12.1030     0.7830    -1.4850 H     1 <1>   0.0800 
 34 H       12.2010    -0.8460    -2.0950 H     1 <1>   0.0800 
 35 H       12.3480    -0.1110     1.5860 H     1 <1>   0.0800 
 36 H       10.6170    -0.2160     1.8350 H     1 <1>   0.0800 
 37 H       11.2970     1.1370     0.9740 H     1 <1>   0.0800 
@<TRIPOS>BOND
  1   1   2  1   
  2   2   3  ar  
  3   2   4  ar  
  4   3   5  ar  
  5   3  22  1   
  6   4   6  ar  
  7   4  23  1   
  8   5   7  ar  
  9   6   7  ar  
 10   6  24  1   
 11   7   8  1   
 12   8   9  am  
 13   8  25  1   
 14   9  10  2   
 15   9  11  1   
 16  11  12  1   
 17  11  26  1   
 18  11  27  1   
 19  12  13  1   
 20  13  14  2   
 21  13  15  1   
 22  14  16  1   
 23  15  17  1   
 24  15  18  1   
 25  16  17  2   
 26  17  19  1   
 27  18  20  1   
 28  18  21  1   
 29  18  28  1   
 30  19  29  1   
 31  19  30  1   
 32  19  31  1   
 33  20  32  1   
 34  20  33  1   
 35  20  34  1   
 36  21  35  1   
 37  21  36  1   
 38  21  37  1   
@<TRIPOS>SUBSTRUCTURE
  1 ****  12 GROUP 4 **** **** 0

# MOE 2024.06 (io_trps.svl 2023.06)
