@<TRIPOS>MOLECULE
NONAME
29 30 1 0 0 
SMALL
USER_CHARGES


@<TRIPOS>ATOM
  1 O        0.2010    -0.3460     0.4070 O.2   1 <1>  -0.5700 
  2 C        0.8250    -1.3760     0.2270 C.2   1 <1>   0.6900 
  3 N        2.1840    -1.3370    -0.0680 N.am  1 <1>  -0.4690 
  4 N        0.1790    -2.5940     0.3190 N.am  1 <1>  -0.4200 
  5 C        2.9100    -2.5120    -0.3440 C.2   1 <1>   0.1230 
  6 C        2.8710    -0.0080    -0.1470 C.3   1 <1>   0.0600 
  7 C        0.8630    -3.7620     0.0610 C.2   1 <1>   0.6160 
  8 C       -1.2770    -2.6360     0.6470 C.3   1 <1>   0.0600 
  9 C        4.3250    -2.4830    -0.6850 C.2   1 <1>   0.6160 
 10 C        2.2350    -3.6880    -0.2740 C.2   1 <1>  -0.1360 
 11 O        0.3030    -4.8410     0.1250 O.2   1 <1>  -0.5700 
 12 O        4.7460    -1.7750    -1.5800 O.2   1 <1>  -0.5700 
 13 N        5.1990    -3.2750     0.0090 N.am  1 <1>  -0.5790 
 14 C        6.6460    -3.3770    -0.2280 C.3   1 <1>   0.0490 
 15 C        7.3080    -4.6890     0.0330 C.3   1 <1>  -0.2000 
 16 C        7.5400    -3.5310     0.9570 C.3   1 <1>  -0.2000 
 17 H        2.3010     0.7580     0.3470 H     1 <1>   0.0800 
 18 H        3.0000     0.2680    -1.1790 H     1 <1>   0.0800 
 19 H        3.8370    -0.0590     0.3250 H     1 <1>   0.0800 
 20 H       -1.5270    -1.8500     1.3390 H     1 <1>   0.0800 
 21 H       -1.5390    -3.5780     1.0980 H     1 <1>   0.0800 
 22 H       -1.8500    -2.5060    -0.2540 H     1 <1>   0.0800 
 23 H        2.7110    -4.6280    -0.4820 H     1 <1>   0.1500 
 24 H        4.8600    -3.8140     0.8040 H     1 <1>   0.3700 
 25 H        6.9900    -2.7820    -1.0620 H     1 <1>   0.1000 
 26 H        8.1160    -4.9950    -0.6090 H     1 <1>   0.1000 
 27 H        6.7120    -5.5180     0.3710 H     1 <1>   0.1000 
 28 H        7.1070    -3.5510     1.9410 H     1 <1>   0.1000 
 29 H        8.5040    -3.0530     0.9390 H     1 <1>   0.1000 
@<TRIPOS>BOND
  1   1   2  2   
  2   2   3  am  
  3   2   4  am  
  4   3   5  1   
  5   3   6  1   
  6   4   7  am  
  7   4   8  1   
  8   5   9  1   
  9   5  10  2   
 10   6  17  1   
 11   6  18  1   
 12   6  19  1   
 13   7  10  1   
 14   7  11  2   
 15   8  20  1   
 16   8  21  1   
 17   8  22  1   
 18   9  12  2   
 19   9  13  am  
 20  10  23  1   
 21  13  14  1   
 22  13  24  1   
 23  14  15  1   
 24  14  16  1   
 25  14  25  1   
 26  15  16  1   
 27  15  26  1   
 28  15  27  1   
 29  16  28  1   
 30  16  29  1   
@<TRIPOS>SUBSTRUCTURE
  1 ****   5 GROUP 4 **** **** 0

# MOE 2024.06 (io_trps.svl 2023.06)
