@<TRIPOS>MOLECULE
NONAME
48 49 1 0 0 
SMALL
USER_CHARGES


@<TRIPOS>ATOM
  1 S       -1.1040    -0.7840     0.0990 S.o2  1 <1>   1.4470 
  2 O       -0.6640    -1.9630     0.8140 O.2   1 <1>  -0.6500 
  3 O       -0.2040     0.3380    -0.0520 O.2   1 <1>  -0.6500 
  4 N       -1.5170    -1.2910    -1.4650 N.am  1 <1>  -0.8490 
  5 C       -2.6930    -0.2030     0.7560 C.ar  1 <1>  -0.0090 
  6 C       -0.3210    -1.5030    -2.2940 C.3   1 <1>   0.1960 
  7 C       -2.3340    -2.5160    -1.4710 C.3   1 <1>   0.1960 
  8 C       -3.4110    -0.9530     1.6820 C.ar  1 <1>  -0.1500 
  9 C       -3.2500     0.9930     0.3190 C.ar  1 <1>  -0.1500 
 10 C       -0.7020    -1.9670    -3.7120 C.3   1 <1>   0.1200 
 11 C       -2.6760    -2.9420    -2.9100 C.3   1 <1>   0.1200 
 12 C       -4.6470    -0.5380     2.1440 C.ar  1 <1>  -0.1500 
 13 C       -4.4840     1.4190     0.7760 C.ar  1 <1>  -0.1500 
 14 O       -1.5070    -3.1120    -3.6610 O.3   1 <1>  -0.5600 
 15 C       -5.1980     0.6520     1.6800 C.ar  1 <1>   0.0830 
 16 O       -6.4210     1.1140     2.0430 O.3   1 <1>  -0.3630 
 17 C       -7.3810     0.2820     2.6860 C.3   1 <1>   0.2610 
 18 C       -7.7490    -0.9310     1.8130 C.2   1 <1>   0.5690 
 19 C       -8.5990     1.1600     2.9930 C.3   1 <1>  -0.2400 
 20 O       -8.0400    -1.9720     2.3560 O.2   1 <1>  -0.5700 
 21 N       -7.7140    -0.8120     0.4570 N.am  1 <1>  -0.7300 
 22 C       -7.9060    -1.8970    -0.5060 C.3   1 <1>   0.2200 
 23 C       -6.5450    -2.2380    -1.1040 C.3   1 <1>  -0.2400 
 24 C       -8.8810    -1.4170    -1.5740 C.3   1 <1>  -0.2400 
 25 H        0.3190    -2.2410    -1.8390 H     1 <1>   0.0800 
 26 H        0.2350    -0.5830    -2.3680 H     1 <1>   0.0800 
 27 H       -3.2490    -2.3460    -0.9320 H     1 <1>   0.0800 
 28 H       -1.8050    -3.3220    -0.9890 H     1 <1>   0.0800 
 29 H       -2.9970    -1.8790     2.0460 H     1 <1>   0.1500 
 30 H       -2.7080     1.5950    -0.3920 H     1 <1>   0.1500 
 31 H        0.1810    -2.2110    -4.2740 H     1 <1>   0.0800 
 32 H       -1.2400    -1.1910    -4.2290 H     1 <1>   0.0800 
 33 H       -3.2890    -2.1980    -3.3890 H     1 <1>   0.0800 
 34 H       -3.2030    -3.8790    -2.9070 H     1 <1>   0.0800 
 35 H       -5.1620    -1.1550     2.8590 H     1 <1>   0.1500 
 36 H       -4.9020     2.3470     0.4280 H     1 <1>   0.1500 
 37 H       -6.9550    -0.0630     3.6100 H     1 <1>   0.0800 
 38 H       -9.0300     1.5320     2.0820 H     1 <1>   0.0800 
 39 H       -8.3120     1.9840     3.6210 H     1 <1>   0.0800 
 40 H       -9.3410     0.5780     3.5100 H     1 <1>   0.0800 
 41 H       -7.3750     0.0690     0.0670 H     1 <1>   0.3700 
 42 H       -8.3120    -2.7620    -0.0050 H     1 <1>   0.0800 
 43 H       -6.1190    -1.3840    -1.5980 H     1 <1>   0.0800 
 44 H       -6.6500    -3.0340    -1.8180 H     1 <1>   0.0800 
 45 H       -5.8810    -2.5680    -0.3250 H     1 <1>   0.0800 
 46 H       -8.4940    -0.5570    -2.0890 H     1 <1>   0.0800 
 47 H       -9.8250    -1.1680    -1.1220 H     1 <1>   0.0800 
 48 H       -9.0500    -2.2000    -2.2920 H     1 <1>   0.0800 
@<TRIPOS>BOND
  1   1   2  2   
  2   1   3  2   
  3   1   4  am  
  4   1   5  1   
  5   4   6  1   
  6   4   7  1   
  7   5   8  ar  
  8   5   9  ar  
  9   6  10  1   
 10   6  25  1   
 11   6  26  1   
 12   7  11  1   
 13   7  27  1   
 14   7  28  1   
 15   8  12  ar  
 16   8  29  1   
 17   9  13  ar  
 18   9  30  1   
 19  10  14  1   
 20  10  31  1   
 21  10  32  1   
 22  11  14  1   
 23  11  33  1   
 24  11  34  1   
 25  12  15  ar  
 26  12  35  1   
 27  13  15  ar  
 28  13  36  1   
 29  15  16  1   
 30  16  17  1   
 31  17  18  1   
 32  17  19  1   
 33  17  37  1   
 34  18  20  2   
 35  18  21  am  
 36  19  38  1   
 37  19  39  1   
 38  19  40  1   
 39  21  22  1   
 40  21  41  1   
 41  22  23  1   
 42  22  24  1   
 43  22  42  1   
 44  23  43  1   
 45  23  44  1   
 46  23  45  1   
 47  24  46  1   
 48  24  47  1   
 49  24  48  1   
@<TRIPOS>SUBSTRUCTURE
  1 ****   8 GROUP 4 **** **** 0

# MOE 2024.06 (io_trps.svl 2023.06)
