@<TRIPOS>MOLECULE
NONAME
55 56 1 0 0 
SMALL
USER_CHARGES


@<TRIPOS>ATOM
  1 O        3.1950    -6.0270    -1.9960 O.2   1 <1>  -0.5700 
  2 C        3.4000    -5.6030    -0.8820 C.2   1 <1>   0.5690 
  3 N        4.6310    -5.1220    -0.5060 N.am  1 <1>  -0.6600 
  4 C        2.1990    -5.6440     0.0730 C.3   1 <1>  -0.0190 
  5 C        5.7600    -5.1410    -1.4870 C.3   1 <1>   0.2780 
  6 C        4.9570    -4.4960     0.8050 C.3   1 <1>   0.1400 
  7 C        1.7810    -7.1040     0.3370 C.3   1 <1>  -0.1600 
  8 C        1.0120    -4.8470    -0.5050 C.3   1 <1>  -0.1600 
  9 C        6.7840    -6.2010    -1.1010 C.2   1 <1>  -0.2760 
 10 C        5.2030    -5.5690     1.8670 C.3   1 <1>  -0.2400 
 11 C        0.4960    -7.2000     1.1550 C.3   1 <1>   0.3430 
 12 C       -0.2500    -5.0020     0.3380 C.3   1 <1>   0.3430 
 13 C        6.5690    -7.5070    -1.2890 C.2   1 <1>  -0.3000 
 14 C        8.0760    -5.6610    -0.5060 C.3   1 <1>  -0.1020 
 15 N       -0.5870    -6.4500     0.4610 N.4   1 <1>  -0.9590 
 16 C       -1.9040    -6.6640     1.1280 C.3   1 <1>   0.3430 
 17 C       -3.0090    -6.9540     0.1010 C.3   1 <1>  -0.0800 
 18 C       -3.2550    -5.7760    -0.8670 C.3   1 <1>  -0.0220 
 19 C       -4.3140    -7.3290     0.8320 C.3   1 <1>  -0.1600 
 20 C       -4.5240    -5.9790    -1.6720 C.2   1 <1>  -0.2880 
 21 C       -5.4010    -7.7880    -0.1520 C.3   1 <1>  -0.0220 
 22 C       -5.4650    -6.8740    -1.3620 C.2   1 <1>  -0.2880 
 23 H        2.4560    -5.2010     1.0140 H     1 <1>   0.0800 
 24 H        6.2170    -4.1690    -1.5380 H     1 <1>   0.0800 
 25 H        5.3950    -5.3660    -2.4750 H     1 <1>   0.0800 
 26 H        4.1580    -3.8430     1.1100 H     1 <1>   0.0800 
 27 H        5.8400    -3.8870     0.7040 H     1 <1>   0.0800 
 28 H        2.5730    -7.6110     0.8610 H     1 <1>   0.0800 
 29 H        1.6400    -7.6220    -0.5970 H     1 <1>   0.0800 
 30 H        0.8010    -5.1700    -1.5100 H     1 <1>   0.0800 
 31 H        1.2780    -3.8050    -0.5580 H     1 <1>   0.0800 
 32 H        4.3270    -6.1640     2.0340 H     1 <1>   0.0800 
 33 H        5.4760    -5.1000     2.7960 H     1 <1>   0.0800 
 34 H        6.0080    -6.2150     1.5690 H     1 <1>   0.0800 
 35 H        0.6580    -6.7870     2.1380 H     1 <1>   0.0800 
 36 H        0.2190    -8.2370     1.2620 H     1 <1>   0.0800 
 37 H       -1.0600    -4.4680    -0.1330 H     1 <1>   0.0800 
 38 H       -0.0890    -4.5790     1.3170 H     1 <1>   0.0800 
 39 H        7.2690    -8.2840    -1.0370 H     1 <1>   0.1500 
 40 H        5.6630    -7.9050    -1.7150 H     1 <1>   0.1500 
 41 H        7.8790    -5.0990     0.3890 H     1 <1>   0.0800 
 42 H        8.5710    -5.0210    -1.2150 H     1 <1>   0.0800 
 43 H        8.7430    -6.4680    -0.2580 H     1 <1>   0.0800 
 44 H       -0.6490    -6.8340    -0.4930 H     1 <1>   0.4500 
 45 H       -2.1710    -5.8020     1.7180 H     1 <1>   0.0800 
 46 H       -1.8370    -7.5090     1.7930 H     1 <1>   0.0800 
 47 H       -2.7160    -7.8140    -0.4770 H     1 <1>   0.0800 
 48 H       -2.4310    -5.6880    -1.5520 H     1 <1>   0.0800 
 49 H       -3.3490    -4.8520    -0.3230 H     1 <1>   0.0800 
 50 H       -4.6810    -6.4700     1.3690 H     1 <1>   0.0800 
 51 H       -4.1400    -8.1170     1.5440 H     1 <1>   0.0800 
 52 H       -4.6040    -5.3270    -2.5270 H     1 <1>   0.1500 
 53 H       -6.3550    -7.7900     0.3490 H     1 <1>   0.0800 
 54 H       -5.2000    -8.7920    -0.4860 H     1 <1>   0.0800 
 55 H       -6.3540    -7.0180    -1.9550 H     1 <1>   0.1500 
@<TRIPOS>BOND
  1   1   2  2   
  2   2   3  am  
  3   2   4  1   
  4   3   5  1   
  5   3   6  1   
  6   4   7  1   
  7   4   8  1   
  8   4  23  1   
  9   5   9  1   
 10   5  24  1   
 11   5  25  1   
 12   6  10  1   
 13   6  26  1   
 14   6  27  1   
 15   7  11  1   
 16   7  28  1   
 17   7  29  1   
 18   8  12  1   
 19   8  30  1   
 20   8  31  1   
 21   9  13  2   
 22   9  14  1   
 23  10  32  1   
 24  10  33  1   
 25  10  34  1   
 26  11  15  1   
 27  11  35  1   
 28  11  36  1   
 29  12  15  1   
 30  12  37  1   
 31  12  38  1   
 32  13  39  1   
 33  13  40  1   
 34  14  41  1   
 35  14  42  1   
 36  14  43  1   
 37  15  16  1   
 38  15  44  1   
 39  16  17  1   
 40  16  45  1   
 41  16  46  1   
 42  17  18  1   
 43  17  19  1   
 44  17  47  1   
 45  18  20  1   
 46  18  48  1   
 47  18  49  1   
 48  19  21  1   
 49  19  50  1   
 50  19  51  1   
 51  20  22  2   
 52  20  52  1   
 53  21  22  1   
 54  21  53  1   
 55  21  54  1   
 56  22  55  1   
@<TRIPOS>SUBSTRUCTURE
  1 ****   4 GROUP 4 **** **** 0

# MOE 2024.06 (io_trps.svl 2023.06)
