@<TRIPOS>MOLECULE
12213
34 34 1 0 0 
SMALL
USER_CHARGES


@<TRIPOS>ATOM
  1 BR      -0.4160     0.1470    -0.4170 Br    1 <1>  -0.1110 
  2 C        1.3460     0.9280    -0.3010 C.ar  1 <1>   0.1110 
  3 C        2.4570     0.1100    -0.1790 C.ar  1 <1>  -0.1440 
  4 C        1.4360     2.3050    -0.3490 C.ar  1 <1>  -0.1500 
  5 C        3.6960     0.7230    -0.0990 C.ar  1 <1>  -0.1500 
  6 C        2.3350    -1.4060    -0.1380 C.3   1 <1>  -0.0960 
  7 C        2.6770     2.9210    -0.2670 C.ar  1 <1>  -0.1430 
  8 C        3.8100     2.1120    -0.1340 C.ar  1 <1>   0.0830 
  9 C        2.7230     4.4540    -0.3230 C.3   1 <1>   0.0640 
 10 O        5.0320     2.6870    -0.0440 O.3   1 <1>  -0.3630 
 11 C        3.5040     4.9640    -1.5400 C.3   1 <1>  -0.2400 
 12 C        3.2570     5.0630     0.9780 C.3   1 <1>  -0.2400 
 13 C        5.9270     2.2380     0.9600 C.3   1 <1>   0.1810 
 14 C        7.0110     3.2720     1.2150 C.2   1 <1>   0.6590 
 15 O        7.0670     3.8900     2.2480 O.2   1 <1>  -0.5700 
 16 O        7.9090     3.4390     0.2470 O.3   1 <1>  -0.4300 
 17 C        8.9570     4.3780     0.3610 C.3   1 <1>   0.0400 
 18 H        0.5340     2.8810    -0.4490 H     1 <1>   0.1500 
 19 H        4.5780     0.1160    -0.0210 H     1 <1>   0.1500 
 20 H        1.7290    -1.7040     0.6990 H     1 <1>   0.0800 
 21 H        3.3000    -1.8690    -0.0420 H     1 <1>   0.0800 
 22 H        1.8760    -1.7610    -1.0440 H     1 <1>   0.0800 
 23 H        1.7140     4.8120    -0.4370 H     1 <1>   0.0800 
 24 H        4.5480     4.7240    -1.4580 H     1 <1>   0.0800 
 25 H        3.4070     6.0310    -1.6230 H     1 <1>   0.0800 
 26 H        3.1190     4.5130    -2.4370 H     1 <1>   0.0800 
 27 H        4.2990     4.8400     1.1140 H     1 <1>   0.0800 
 28 H        2.7110     4.6730     1.8180 H     1 <1>   0.0800 
 29 H        3.1420     6.1320     0.9620 H     1 <1>   0.0800 
 30 H        6.3750     1.3200     0.6340 H     1 <1>   0.0800 
 31 H        5.3690     2.0780     1.8650 H     1 <1>   0.0800 
 32 H        9.5480     4.3400    -0.5370 H     1 <1>   0.0800 
 33 H        9.5610     4.1250     1.2150 H     1 <1>   0.0800 
 34 H        8.5320     5.3590     0.4840 H     1 <1>   0.0800 
@<TRIPOS>BOND
  1   1   2  1   
  2   2   3  ar  
  3   2   4  ar  
  4   3   5  ar  
  5   3   6  1   
  6   4   7  ar  
  7   4  18  1   
  8   5   8  ar  
  9   5  19  1   
 10   6  20  1   
 11   6  21  1   
 12   6  22  1   
 13   7   8  ar  
 14   7   9  1   
 15   8  10  1   
 16   9  11  1   
 17   9  12  1   
 18   9  23  1   
 19  10  13  1   
 20  11  24  1   
 21  11  25  1   
 22  11  26  1   
 23  12  27  1   
 24  12  28  1   
 25  12  29  1   
 26  13  14  1   
 27  13  30  1   
 28  13  31  1   
 29  14  15  2   
 30  14  16  1   
 31  16  17  1   
 32  17  32  1   
 33  17  33  1   
 34  17  34  1   
@<TRIPOS>SUBSTRUCTURE
  1 ****   8 GROUP 4 **** **** 0

# MOE 2024.06 (io_trps.svl 2023.06)
