@<TRIPOS>MOLECULE
NONAME
35 37 1 0 0 
SMALL
USER_CHARGES


@<TRIPOS>ATOM
  1 CL      -0.0830     2.5460    -2.9560 Cl    1 <1>  -0.1770 
  2 C       -1.5730     2.7320    -2.0700 C.ar  1 <1>   0.1770 
  3 C       -2.2810     1.6090    -1.6950 C.ar  1 <1>  -0.1500 
  4 C       -2.0190     4.0020    -1.7610 C.ar  1 <1>  -0.1500 
  5 C       -3.4790     1.7240    -0.9860 C.ar  1 <1>   0.0860 
  6 C       -3.2020     4.1420    -1.0580 C.ar  1 <1>  -0.1500 
  7 C       -4.2230     0.5410    -0.5940 C.2   1 <1>   0.6340 
  8 C       -3.9170     3.0180    -0.6780 C.ar  1 <1>  -0.1500 
  9 O       -3.8390    -0.5890    -0.8060 O.2   1 <1>  -0.5700 
 10 O       -5.4000     0.6970     0.0280 O.3   1 <1>  -0.4300 
 11 C       -6.1700    -0.4130     0.4490 C.3   1 <1>   0.2000 
 12 C       -6.9460    -0.9980    -0.8120 C.3   1 <1>  -0.0800 
 13 C       -7.1800     0.1010     1.5580 C.3   1 <1>   0.3430 
 14 C       -7.8840     0.1800    -1.3360 C.3   1 <1>  -0.1600 
 15 C       -7.9600    -2.0710    -0.2240 C.3   1 <1>  -0.1600 
 16 N       -8.5360    -0.0700     0.9550 N.4   1 <1>  -0.9590 
 17 C       -8.8210     0.7910    -0.2120 C.3   1 <1>   0.3430 
 18 C       -8.9660    -1.4780     0.8460 C.3   1 <1>   0.3430 
 19 H       -1.8970     0.6380    -1.9560 H     1 <1>   0.1500 
 20 H       -1.4470     4.8610    -2.0660 H     1 <1>   0.1500 
 21 H       -3.5610     5.1270    -0.8080 H     1 <1>   0.1500 
 22 H       -4.8320     3.1560    -0.1300 H     1 <1>   0.1500 
 23 H       -5.5050    -1.1430     0.8810 H     1 <1>   0.0800 
 24 H       -6.2920    -1.4090    -1.5650 H     1 <1>   0.0800 
 25 H       -6.9910     1.1350     1.7980 H     1 <1>   0.0800 
 26 H       -7.0970    -0.4960     2.4510 H     1 <1>   0.0800 
 27 H       -8.5020    -0.1840    -2.1400 H     1 <1>   0.0800 
 28 H       -7.2860     0.9710    -1.7580 H     1 <1>   0.0800 
 29 H       -7.4090    -2.8800     0.2270 H     1 <1>   0.0800 
 30 H       -8.5300    -2.5080    -1.0270 H     1 <1>   0.0800 
 31 H       -7.9810    -0.4120     0.2660 H     1 <1>   0.4500 
 32 H       -9.8620     0.7330    -0.4900 H     1 <1>   0.0800 
 33 H       -8.5610     1.8170     0.0000 H     1 <1>   0.0800 
 34 H       -8.8770    -1.9830     1.7960 H     1 <1>   0.0800 
 35 H       -9.9870    -1.5390     0.5010 H     1 <1>   0.0800 
@<TRIPOS>BOND
  1   1   2  1   
  2   2   3  ar  
  3   2   4  ar  
  4   3   5  ar  
  5   3  19  1   
  6   4   6  ar  
  7   4  20  1   
  8   5   7  1   
  9   5   8  ar  
 10   6   8  ar  
 11   6  21  1   
 12   7   9  2   
 13   7  10  1   
 14   8  22  1   
 15  10  11  1   
 16  11  12  1   
 17  11  13  1   
 18  11  23  1   
 19  12  14  1   
 20  12  15  1   
 21  12  24  1   
 22  13  16  1   
 23  13  25  1   
 24  13  26  1   
 25  14  17  1   
 26  14  27  1   
 27  14  28  1   
 28  15  18  1   
 29  15  29  1   
 30  15  30  1   
 31  16  17  1   
 32  16  18  1   
 33  16  31  1   
 34  17  32  1   
 35  17  33  1   
 36  18  34  1   
 37  18  35  1   
@<TRIPOS>SUBSTRUCTURE
  1 ****  10 GROUP 4 **** **** 0

# MOE 2024.06 (io_trps.svl 2023.06)
