@<TRIPOS>MOLECULE
NONAME
32 33 1 0 0 
SMALL
USER_CHARGES


@<TRIPOS>ATOM
  1 F        0.6630    -1.3820    -2.1660 F     1 <1>  -0.3400 
  2 C        0.7490    -1.9050    -0.9400 C.3   1 <1>   0.8180 
  3 F        1.4560    -3.0250    -1.1370 F     1 <1>  -0.3400 
  4 C       -0.6800    -2.2700    -0.4320 C.2   1 <1>  -0.0380 
  5 C        1.5730    -0.9490    -0.0380 C.3   1 <1>   0.6000 
  6 N       -0.8660    -3.5290     0.1010 N.pl3 1 <1>  -0.8690 
  7 C       -1.6550    -1.3050    -0.5290 C.2   1 <1>  -0.1500 
  8 F        1.7170    -1.4170     1.2030 F     1 <1>  -0.3400 
  9 F        0.9810     0.2380     0.1220 F     1 <1>  -0.3400 
 10 C       -2.1480    -4.1380     0.5460 C.3   1 <1>   0.2090 
 11 C       -3.0260    -1.2470    -0.1650 C.2   1 <1>   0.1000 
 12 C       -3.3160    -3.7730    -0.3780 C.3   1 <1>   0.2090 
 13 N       -3.7630    -2.3800    -0.1510 N.pl3 1 <1>  -0.8690 
 14 C       -3.6540    -0.0180     0.1560 C.2   1 <1>   0.0140 
 15 C       -5.0780     0.1780     0.1610 C.2   1 <1>   0.5410 
 16 C       -2.8790     1.1170     0.5220 C.2   1 <1>  -0.1500 
 17 O       -5.9050    -0.7220    -0.0700 O.2   1 <1>  -0.5700 
 18 C       -5.6070     1.4610     0.4470 C.2   1 <1>  -0.1360 
 19 C       -3.4220     2.3380     0.8060 C.2   1 <1>  -0.1500 
 20 C       -4.8110     2.5200     0.7600 C.2   1 <1>  -0.1500 
 21 H        2.5540    -0.7730    -0.4350 H     1 <1>   0.0800 
 22 H       -0.0660    -4.1760     0.1550 H     1 <1>   0.4000 
 23 H       -1.3330    -0.3850    -0.9790 H     1 <1>   0.1500 
 24 H       -2.3700    -3.8240     1.5510 H     1 <1>   0.0800 
 25 H       -2.0340    -5.2070     0.5430 H     1 <1>   0.0800 
 26 H       -4.1410    -4.4310    -0.1720 H     1 <1>   0.0800 
 27 H       -3.0250    -3.9010    -1.4060 H     1 <1>   0.0800 
 28 H       -4.7860    -2.2680    -0.0300 H     1 <1>   0.4000 
 29 H       -1.8110     1.0140     0.5970 H     1 <1>   0.1500 
 30 H       -6.6760     1.5570     0.4070 H     1 <1>   0.1500 
 31 H       -2.7980     3.1740     1.0740 H     1 <1>   0.1500 
 32 H       -5.2220     3.4910     0.9780 H     1 <1>   0.1500 
@<TRIPOS>BOND
  1   1   2  1   
  2   2   3  1   
  3   2   4  1   
  4   2   5  1   
  5   4   6  1   
  6   4   7  2   
  7   5   8  1   
  8   5   9  1   
  9   5  21  1   
 10   6  10  1   
 11   6  22  1   
 12   7  11  1   
 13   7  23  1   
 14  10  12  1   
 15  10  24  1   
 16  10  25  1   
 17  11  13  1   
 18  11  14  2   
 19  12  13  1   
 20  12  26  1   
 21  12  27  1   
 22  13  28  1   
 23  14  15  1   
 24  14  16  1   
 25  15  17  2   
 26  15  18  1   
 27  16  19  2   
 28  16  29  1   
 29  18  20  2   
 30  18  30  1   
 31  19  20  1   
 32  19  31  1   
 33  20  32  1   
@<TRIPOS>SUBSTRUCTURE
  1 ****   7 GROUP 4 **** **** 0

# MOE 2024.06 (io_trps.svl 2023.06)
