@<TRIPOS>MOLECULE
NONAME
29 30 1 0 0 
SMALL
USER_CHARGES


@<TRIPOS>ATOM
  1 CL      -0.3430    -0.0310    -1.5160 Cl    1 <1>  -0.1770 
  2 C       -1.7520    -0.7790    -0.8120 C.ar  1 <1>   0.1770 
  3 C       -2.3900    -1.7980    -1.4920 C.ar  1 <1>  -0.1500 
  4 C       -2.2100    -0.3430     0.4160 C.ar  1 <1>  -0.1500 
  5 C       -3.5110    -2.3900    -0.9340 C.ar  1 <1>  -0.1500 
  6 C       -3.3310    -0.9350     0.9720 C.ar  1 <1>  -0.1500 
  7 C       -3.9900    -1.9570     0.2980 C.ar  1 <1>  -0.1430 
  8 C       -5.2280    -2.5930     0.9040 C.3   1 <1>   0.4870 
  9 N       -6.4240    -2.1600     0.1300 N.4   1 <1>  -0.9590 
 10 C       -6.5810    -0.6590     0.1030 C.3   1 <1>   0.3430 
 11 C       -7.6780    -2.8710     0.5420 C.3   1 <1>   0.3430 
 12 C       -7.8910    -0.1920    -0.5600 C.3   1 <1>   0.0700 
 13 C       -8.7010    -2.9110    -0.6090 C.3   1 <1>   0.0700 
 14 S       -8.4990    -1.4680    -1.7040 S.3   1 <1>  -0.4600 
 15 H       -2.0060    -2.1210    -2.4450 H     1 <1>   0.1500 
 16 H       -1.6870     0.4490     0.9250 H     1 <1>   0.1500 
 17 H       -3.9940    -3.1880    -1.4720 H     1 <1>   0.1500 
 18 H       -3.6740    -0.5900     1.9340 H     1 <1>   0.1500 
 19 H       -5.3240    -2.2960     1.9360 H     1 <1>   0.0800 
 20 H       -5.1290    -3.6660     0.8660 H     1 <1>   0.0800 
 21 H       -6.2600    -2.4180    -0.8550 H     1 <1>   0.4500 
 22 H       -5.7550    -0.2350    -0.4470 H     1 <1>   0.0800 
 23 H       -6.5380    -0.2630     1.1040 H     1 <1>   0.0800 
 24 H       -8.1140    -2.3670     1.3890 H     1 <1>   0.0800 
 25 H       -7.4560    -3.8830     0.8390 H     1 <1>   0.0800 
 26 H       -7.7440     0.7120    -1.1250 H     1 <1>   0.0800 
 27 H       -8.6620    -0.0300     0.1720 H     1 <1>   0.0800 
 28 H       -9.7100    -2.8990    -0.2340 H     1 <1>   0.0800 
 29 H       -8.5660    -3.7860    -1.2210 H     1 <1>   0.0800 
@<TRIPOS>BOND
  1   1   2  1   
  2   2   3  ar  
  3   2   4  ar  
  4   3   5  ar  
  5   3  15  1   
  6   4   6  ar  
  7   4  16  1   
  8   5   7  ar  
  9   5  17  1   
 10   6   7  ar  
 11   6  18  1   
 12   7   8  1   
 13   8   9  1   
 14   8  19  1   
 15   8  20  1   
 16   9  10  1   
 17   9  11  1   
 18   9  21  1   
 19  10  12  1   
 20  10  22  1   
 21  10  23  1   
 22  11  13  1   
 23  11  24  1   
 24  11  25  1   
 25  12  14  1   
 26  12  26  1   
 27  12  27  1   
 28  13  14  1   
 29  13  28  1   
 30  13  29  1   
@<TRIPOS>SUBSTRUCTURE
  1 ****   7 GROUP 4 **** **** 0

# MOE 2024.06 (io_trps.svl 2023.06)
