@<TRIPOS>MOLECULE
NONAME
46 47 1 0 0 
SMALL
USER_CHARGES


@<TRIPOS>ATOM
  1 O        0.2420    -0.7290    -3.2280 O.2   1 <1>  -0.5700 
  2 C        0.3170    -1.1220    -2.0900 C.2   1 <1>   0.5690 
  3 N       -0.7430    -1.6440    -1.4330 N.am  1 <1>  -0.7300 
  4 C        1.6500    -1.0350    -1.3750 C.3   1 <1>  -0.0990 
  5 C       -2.1210    -1.6500    -1.9340 C.3   1 <1>   0.3640 
  6 C        1.6610    -0.0040    -0.2350 C.3   1 <1>  -0.0160 
  7 C       -3.0750    -1.5930    -0.7410 C.ar  1 <1>  -0.1440 
  8 C       -2.3380    -2.9170    -2.7570 C.3   1 <1>  -0.2400 
  9 C        0.7450    -0.4200     0.9060 C.ar  1 <1>  -0.1440 
 10 C       -4.0410    -0.5940    -0.6400 C.ar  1 <1>   0.0820 
 11 C       -2.9850    -2.5470     0.2650 C.ar  1 <1>  -0.1500 
 12 C        1.1170    -1.4450     1.7620 C.ar  1 <1>  -0.1500 
 13 C       -0.4800     0.2040     1.0850 C.ar  1 <1>  -0.1500 
 14 O       -4.1110     0.3290    -1.6380 O.3   1 <1>  -0.3630 
 15 C       -4.8960    -0.5670     0.4610 C.ar  1 <1>  -0.1500 
 16 C       -3.8320    -2.5220     1.3600 C.ar  1 <1>   0.0820 
 17 C        0.2690    -1.8500     2.7780 C.ar  1 <1>  -0.1500 
 18 C       -1.3290    -0.2010     2.1000 C.ar  1 <1>  -0.1500 
 19 C       -5.0310     1.3970    -1.6040 C.3   1 <1>   0.0400 
 20 C       -4.7940    -1.5230     1.4550 C.ar  1 <1>  -0.1500 
 21 O       -3.6590    -3.4970     2.2900 O.3   1 <1>  -0.3620 
 22 C       -0.9560    -1.2300     2.9450 C.ar  1 <1>  -0.1500 
 23 C       -4.4920    -3.5780     3.4240 C.3   1 <1>   0.0400 
 24 H       -0.6820    -1.7470    -0.4150 H     1 <1>   0.3700 
 25 H        2.4000    -0.7640    -2.0960 H     1 <1>   0.0800 
 26 H        1.9010    -2.0070    -0.9950 H     1 <1>   0.0800 
 27 H       -2.2550    -0.7960    -2.5760 H     1 <1>   0.0800 
 28 H        1.3620     0.9560    -0.6200 H     1 <1>   0.0800 
 29 H        2.6630     0.0980     0.1430 H     1 <1>   0.0800 
 30 H       -3.3540    -2.9470    -3.1040 H     1 <1>   0.0800 
 31 H       -1.6860    -2.9100    -3.6110 H     1 <1>   0.0800 
 32 H       -2.1470    -3.7950    -2.1680 H     1 <1>   0.0800 
 33 H       -2.2480    -3.3280     0.2140 H     1 <1>   0.1500 
 34 H        2.0670    -1.9350     1.6400 H     1 <1>   0.1500 
 35 H       -0.7890     0.9980     0.4270 H     1 <1>   0.1500 
 36 H       -5.6490     0.1900     0.5620 H     1 <1>   0.1500 
 37 H        0.5590    -2.6500     3.4370 H     1 <1>   0.1500 
 38 H       -2.2840     0.2780     2.2240 H     1 <1>   0.1500 
 39 H       -6.0290     0.9990    -1.5960 H     1 <1>   0.0800 
 40 H       -4.8430     1.9920    -0.7270 H     1 <1>   0.0800 
 41 H       -4.8820     1.9930    -2.4870 H     1 <1>   0.0800 
 42 H       -5.4670    -1.4740     2.2890 H     1 <1>   0.1500 
 43 H       -1.6210    -1.5510     3.7270 H     1 <1>   0.1500 
 44 H       -4.1810    -4.4260     4.0070 H     1 <1>   0.0800 
 45 H       -5.5100    -3.7110     3.1010 H     1 <1>   0.0800 
 46 H       -4.3840    -2.6780     4.0020 H     1 <1>   0.0800 
@<TRIPOS>BOND
  1   1   2  2   
  2   2   3  am  
  3   2   4  1   
  4   3   5  1   
  5   3  24  1   
  6   4   6  1   
  7   4  25  1   
  8   4  26  1   
  9   5   7  1   
 10   5   8  1   
 11   5  27  1   
 12   6   9  1   
 13   6  28  1   
 14   6  29  1   
 15   7  10  ar  
 16   7  11  ar  
 17   8  30  1   
 18   8  31  1   
 19   8  32  1   
 20   9  12  ar  
 21   9  13  ar  
 22  10  14  1   
 23  10  15  ar  
 24  11  16  ar  
 25  11  33  1   
 26  12  17  ar  
 27  12  34  1   
 28  13  18  ar  
 29  13  35  1   
 30  14  19  1   
 31  15  20  ar  
 32  15  36  1   
 33  16  20  ar  
 34  16  21  1   
 35  17  22  ar  
 36  17  37  1   
 37  18  22  ar  
 38  18  38  1   
 39  19  39  1   
 40  19  40  1   
 41  19  41  1   
 42  20  42  1   
 43  21  23  1   
 44  22  43  1   
 45  23  44  1   
 46  23  45  1   
 47  23  46  1   
@<TRIPOS>SUBSTRUCTURE
  1 ****   7 GROUP 4 **** **** 0

# MOE 2024.06 (io_trps.svl 2023.06)
