@<TRIPOS>MOLECULE
NONAME
47 48 1 0 0 
SMALL
USER_CHARGES


@<TRIPOS>ATOM
  1 O        0.6290     8.8200     0.0980 O.3   1 <1>  -0.3630 
  2 C        1.8360     8.2050     0.0250 C.ar  1 <1>   0.0830 
  3 C       -0.5700     8.0870     0.0750 C.3   1 <1>   0.1200 
  4 C        2.0020     6.8300    -0.1280 C.ar  1 <1>  -0.1500 
  5 C        2.9510     9.0210     0.1130 C.ar  1 <1>  -0.1500 
  6 C       -1.7150     9.0970     0.2040 C.3   1 <1>   0.3430 
  7 C        3.2730     6.2750    -0.1900 C.ar  1 <1>  -0.1440 
  8 C        4.2200     8.4770     0.0520 C.ar  1 <1>  -0.1500 
  9 N       -3.0660     8.4450     0.2180 N.4   1 <1>  -0.9590 
 10 C        4.3780     7.1110    -0.0980 C.ar  1 <1>  -0.1500 
 11 C        3.4440     4.7650    -0.3580 C.3   1 <1>   0.0630 
 12 C       -4.1350     9.4650     0.0380 C.3   1 <1>   0.3430 
 13 C       -3.3090     7.6740     1.4670 C.3   1 <1>   0.3430 
 14 C        4.1730     4.1600     0.8460 C.3   1 <1>  -0.2400 
 15 C        4.1820     4.4380    -1.6600 C.3   1 <1>  -0.2400 
 16 C       -5.3920     8.8420    -0.5770 C.3   1 <1>  -0.1600 
 17 C       -3.9810     6.3400     1.1430 C.3   1 <1>  -0.1600 
 18 C       -5.9930     7.6380     0.1720 C.3   1 <1>  -0.1600 
 19 C       -5.1120     6.3820     0.1000 C.3   1 <1>  -0.1600 
 20 H       -0.5530     7.4010     0.9020 H     1 <1>   0.0800 
 21 H       -0.6230     7.5630    -0.8630 H     1 <1>   0.0800 
 22 H        1.1560     6.1770    -0.2020 H     1 <1>   0.1500 
 23 H        2.8250    10.0820     0.2300 H     1 <1>   0.1500 
 24 H       -1.6550     9.7740    -0.6320 H     1 <1>   0.0800 
 25 H       -1.5790     9.6660     1.1100 H     1 <1>   0.0800 
 26 H        5.0840     9.1140     0.1210 H     1 <1>   0.1500 
 27 H       -3.1400     7.7900    -0.5710 H     1 <1>   0.4500 
 28 H        5.3720     6.7020    -0.1440 H     1 <1>   0.1500 
 29 H        2.4700     4.3090    -0.4120 H     1 <1>   0.0800 
 30 H       -3.7870    10.2450    -0.6200 H     1 <1>   0.0800 
 31 H       -4.3770     9.9160     0.9870 H     1 <1>   0.0800 
 32 H       -3.9440     8.2440     2.1270 H     1 <1>   0.0800 
 33 H       -2.3830     7.4850     1.9860 H     1 <1>   0.0800 
 34 H        5.1760     4.5410     0.9190 H     1 <1>   0.0800 
 35 H        4.2190     3.0890     0.7540 H     1 <1>   0.0800 
 36 H        3.6480     4.4040     1.7530 H     1 <1>   0.0800 
 37 H        5.1850     4.8240    -1.6400 H     1 <1>   0.0800 
 38 H        3.6640     4.8770    -2.4940 H     1 <1>   0.0800 
 39 H        4.2270     3.3740    -1.8060 H     1 <1>   0.0800 
 40 H       -5.1870     8.5670    -1.5970 H     1 <1>   0.0800 
 41 H       -6.1420     9.6140    -0.6170 H     1 <1>   0.0800 
 42 H       -4.3840     5.9570     2.0660 H     1 <1>   0.0800 
 43 H       -3.2340     5.6350     0.8230 H     1 <1>   0.0800 
 44 H       -6.9350     7.4040    -0.2970 H     1 <1>   0.0800 
 45 H       -6.2130     7.8910     1.1960 H     1 <1>   0.0800 
 46 H       -5.7370     5.5170     0.2570 H     1 <1>   0.0800 
 47 H       -4.7060     6.2840    -0.8930 H     1 <1>   0.0800 
@<TRIPOS>BOND
  1   1   2  1   
  2   1   3  1   
  3   2   4  ar  
  4   2   5  ar  
  5   3   6  1   
  6   3  20  1   
  7   3  21  1   
  8   4   7  ar  
  9   4  22  1   
 10   5   8  ar  
 11   5  23  1   
 12   6   9  1   
 13   6  24  1   
 14   6  25  1   
 15   7  10  ar  
 16   7  11  1   
 17   8  10  ar  
 18   8  26  1   
 19   9  12  1   
 20   9  13  1   
 21   9  27  1   
 22  10  28  1   
 23  11  14  1   
 24  11  15  1   
 25  11  29  1   
 26  12  16  1   
 27  12  30  1   
 28  12  31  1   
 29  13  17  1   
 30  13  32  1   
 31  13  33  1   
 32  14  34  1   
 33  14  35  1   
 34  14  36  1   
 35  15  37  1   
 36  15  38  1   
 37  15  39  1   
 38  16  18  1   
 39  16  40  1   
 40  16  41  1   
 41  17  19  1   
 42  17  42  1   
 43  17  43  1   
 44  18  19  1   
 45  18  44  1   
 46  18  45  1   
 47  19  46  1   
 48  19  47  1   
@<TRIPOS>SUBSTRUCTURE
  1 ****   3 GROUP 4 **** **** 0

# MOE 2024.06 (io_trps.svl 2023.06)
