@<TRIPOS>MOLECULE
NONAME
37 37 1 0 0 
SMALL
USER_CHARGES


@<TRIPOS>ATOM
  1 F        1.1150    -0.2030    -0.0380 F     1 <1>  -0.3400 
  2 C        1.2300    -0.9730    -1.1180 C.3   1 <1>   1.0200 
  3 F        2.3170    -0.5130    -1.7350 F     1 <1>  -0.3400 
  4 F        0.2220    -0.6340    -1.9110 F     1 <1>  -0.3400 
  5 C        1.3520    -2.5110    -0.7310 C.3   1 <1>   0.5700 
  6 N        0.4390    -2.9730     0.3530 N.am  1 <1>  -0.7300 
  7 N        2.6210    -2.8570     0.0200 N.3   1 <1>  -0.9000 
  8 C        1.1320    -3.2920    -2.0950 C.3   1 <1>   1.0200 
  9 C       -0.8860    -2.7890     0.4630 C.2   1 <1>   0.7800 
 10 C        3.8660    -2.9870    -0.7440 C.3   1 <1>   0.2540 
 11 F        1.3580    -4.5970    -1.9590 F     1 <1>  -0.3400 
 12 F       -0.0900    -3.2110    -2.6070 F     1 <1>  -0.3400 
 13 F        1.9540    -2.9040    -3.0680 F     1 <1>  -0.3400 
 14 O       -1.5140    -2.1040    -0.3100 O.2   1 <1>  -0.5700 
 15 O       -1.4780    -3.4090     1.4730 O.3   1 <1>  -0.4300 
 16 C        5.0160    -2.9030     0.2380 C.ar  1 <1>  -0.1430 
 17 C       -2.8680    -3.2840     1.6760 C.3   1 <1>   0.1200 
 18 C        5.8140    -1.7690     0.2950 C.ar  1 <1>  -0.1500 
 19 C        5.2810    -3.9620     1.0930 C.ar  1 <1>  -0.1500 
 20 C       -3.2420    -4.1080     2.9040 C.3   1 <1>  -0.2400 
 21 C        6.8660    -1.6980     1.1920 C.ar  1 <1>  -0.1500 
 22 C        6.3320    -3.8930     1.9910 C.ar  1 <1>  -0.1500 
 23 C        7.1260    -2.7600     2.0400 C.ar  1 <1>  -0.1500 
 24 H        0.8950    -3.6060     1.0080 H     1 <1>   0.3700 
 25 H        2.7780    -2.1330     0.7360 H     1 <1>   0.3600 
 26 H        3.9710    -2.2060    -1.4750 H     1 <1>   0.0800 
 27 H        3.8920    -3.9370    -1.2520 H     1 <1>   0.0800 
 28 H       -3.3750    -3.6470     0.7980 H     1 <1>   0.0800 
 29 H       -3.1000    -2.2420     1.8240 H     1 <1>   0.0800 
 30 H        5.6230    -0.9350    -0.3580 H     1 <1>   0.1500 
 31 H        4.6650    -4.8450     1.0620 H     1 <1>   0.1500 
 32 H       -2.9960    -5.1430     2.7450 H     1 <1>   0.0800 
 33 H       -4.2990    -4.0310     3.0830 H     1 <1>   0.0800 
 34 H       -2.7200    -3.7410     3.7700 H     1 <1>   0.0800 
 35 H        7.4830    -0.8180     1.2300 H     1 <1>   0.1500 
 36 H        6.5320    -4.7190     2.6500 H     1 <1>   0.1500 
 37 H        7.9440    -2.7060     2.7370 H     1 <1>   0.1500 
@<TRIPOS>BOND
  1   1   2  1   
  2   2   3  1   
  3   2   4  1   
  4   2   5  1   
  5   5   6  1   
  6   5   7  1   
  7   5   8  1   
  8   6   9  am  
  9   6  24  1   
 10   7  10  1   
 11   7  25  1   
 12   8  11  1   
 13   8  12  1   
 14   8  13  1   
 15   9  14  2   
 16   9  15  1   
 17  10  16  1   
 18  10  26  1   
 19  10  27  1   
 20  15  17  1   
 21  16  18  ar  
 22  16  19  ar  
 23  17  20  1   
 24  17  28  1   
 25  17  29  1   
 26  18  21  ar  
 27  18  30  1   
 28  19  22  ar  
 29  19  31  1   
 30  20  32  1   
 31  20  33  1   
 32  20  34  1   
 33  21  23  ar  
 34  21  35  1   
 35  22  23  ar  
 36  22  36  1   
 37  23  37  1   
@<TRIPOS>SUBSTRUCTURE
  1 ****   7 GROUP 4 **** **** 0

# MOE 2024.06 (io_trps.svl 2023.06)
