@<TRIPOS>MOLECULE
NONAME
38 39 1 0 0 
SMALL
USER_CHARGES


@<TRIPOS>ATOM
  1 BR      -0.4120    -0.0100    -1.2050 Br    1 <1>  -0.1110 
  2 C       -0.0720    -1.8170    -0.6400 C.ar  1 <1>   0.1110 
  3 C        1.2390    -2.2250    -0.4850 C.ar  1 <1>  -0.1500 
  4 C       -1.1470    -2.6530    -0.4060 C.ar  1 <1>  -0.1500 
  5 C        1.4810    -3.5330    -0.0750 C.ar  1 <1>   0.0830 
  6 C       -0.8970    -3.9530     0.0010 C.ar  1 <1>  -0.1500 
  7 O        2.7230    -4.0460     0.1120 O.3   1 <1>  -0.3630 
  8 C        0.4100    -4.3850     0.1640 C.ar  1 <1>  -0.1500 
  9 C        3.8740    -3.2610    -0.0790 C.3   1 <1>   0.1200 
 10 C        5.0840    -4.1510     0.2230 C.3   1 <1>   0.3430 
 11 N        6.3880    -3.4270     0.0620 N.4   1 <1>  -0.9590 
 12 C        7.5210    -4.3930     0.0610 C.3   1 <1>   0.3430 
 13 C        6.6020    -2.4020     1.1190 C.3   1 <1>   0.3430 
 14 C        8.7200    -3.8330    -0.7090 C.3   1 <1>  -0.1600 
 15 C        7.1740    -1.1230     0.5060 C.3   1 <1>  -0.1600 
 16 C        9.2510    -2.4640    -0.2440 C.3   1 <1>  -0.1600 
 17 C        8.2840    -1.3080    -0.5440 C.3   1 <1>  -0.1600 
 18 H        2.0210    -1.5200    -0.6860 H     1 <1>   0.1500 
 19 H       -2.1530    -2.2950    -0.5380 H     1 <1>   0.1500 
 20 H       -1.7160    -4.6260     0.1900 H     1 <1>   0.1500 
 21 H        0.6030    -5.3950     0.4790 H     1 <1>   0.1500 
 22 H        3.8210    -2.4270     0.5970 H     1 <1>   0.0800 
 23 H        3.8870    -2.9300    -1.1020 H     1 <1>   0.0800 
 24 H        5.0560    -4.9880    -0.4560 H     1 <1>   0.0800 
 25 H        5.0010    -4.5280     1.2290 H     1 <1>   0.0800 
 26 H        6.4070    -2.9450    -0.8460 H     1 <1>   0.4500 
 27 H        7.2150    -5.3130    -0.4110 H     1 <1>   0.0800 
 28 H        7.8110    -4.6210     1.0740 H     1 <1>   0.0800 
 29 H        7.2890    -2.7810     1.8590 H     1 <1>   0.0800 
 30 H        5.6760    -2.1690     1.6200 H     1 <1>   0.0800 
 31 H        8.4780    -3.7890    -1.7570 H     1 <1>   0.0800 
 32 H        9.5210    -4.5470    -0.6150 H     1 <1>   0.0800 
 33 H        7.5670    -0.5330     1.3160 H     1 <1>   0.0800 
 34 H        6.3740    -0.5480     0.0730 H     1 <1>   0.0800 
 35 H       10.1650    -2.2730    -0.7830 H     1 <1>   0.0800 
 36 H        9.5080    -2.4850     0.8020 H     1 <1>   0.0800 
 37 H        8.8510    -0.3920    -0.5880 H     1 <1>   0.0800 
 38 H        7.8540    -1.4440    -1.5220 H     1 <1>   0.0800 
@<TRIPOS>BOND
  1   1   2  1   
  2   2   3  ar  
  3   2   4  ar  
  4   3   5  ar  
  5   3  18  1   
  6   4   6  ar  
  7   4  19  1   
  8   5   7  1   
  9   5   8  ar  
 10   6   8  ar  
 11   6  20  1   
 12   7   9  1   
 13   8  21  1   
 14   9  10  1   
 15   9  22  1   
 16   9  23  1   
 17  10  11  1   
 18  10  24  1   
 19  10  25  1   
 20  11  12  1   
 21  11  13  1   
 22  11  26  1   
 23  12  14  1   
 24  12  27  1   
 25  12  28  1   
 26  13  15  1   
 27  13  29  1   
 28  13  30  1   
 29  14  16  1   
 30  14  31  1   
 31  14  32  1   
 32  15  17  1   
 33  15  33  1   
 34  15  34  1   
 35  16  17  1   
 36  16  35  1   
 37  16  36  1   
 38  17  37  1   
 39  17  38  1   
@<TRIPOS>SUBSTRUCTURE
  1 ****   9 GROUP 4 **** **** 0

# MOE 2024.06 (io_trps.svl 2023.06)
