@<TRIPOS>MOLECULE
NONAME
35 36 1 0 0 
SMALL
USER_CHARGES


@<TRIPOS>ATOM
  1 O        1.1300     0.9310     1.4560 O.2   1 <1>  -0.5700 
  2 C        1.5380     1.7930     0.6990 C.2   1 <1>   0.8050 
  3 O        2.7370     1.6080     0.1210 O.3   1 <1>  -0.4300 
  4 C        0.8210     2.9910     0.3820 C.2   1 <1>  -0.2370 
  5 C        3.5260     0.4560     0.3400 C.3   1 <1>   0.1200 
  6 N       -0.5460     3.1920     0.5480 N.pl3 1 <1>   0.0480 
  7 C        1.3380     4.1560    -0.1350 C.2   1 <1>   0.0830 
  8 C        3.0800    -0.6410    -0.6250 C.3   1 <1>  -0.2400 
  9 C       -0.8380     4.4520     0.1380 C.2   1 <1>  -0.3320 
 10 C       -1.5750     2.2290     1.0320 C.3   1 <1>   0.0960 
 11 N        2.6750     4.3960    -0.4460 N.pl3 1 <1>  -0.8830 
 12 C        0.2990     5.0800    -0.2900 C.2   1 <1>   0.0190 
 13 C       -2.2450     5.0330     0.1580 C.3   1 <1>   0.0200 
 14 C       -2.5830     1.8780    -0.0730 C.3   1 <1>  -0.1600 
 15 C        0.4590     6.4070    -0.8080 C.1   1 <1>   0.5380 
 16 C       -3.1670     4.2880    -0.8140 C.3   1 <1>  -0.1600 
 17 C       -3.6750     2.9390    -0.2820 C.3   1 <1>  -0.1600 
 18 N        0.5730     7.4580    -1.2410 N.1   1 <1>  -0.5570 
 19 H        3.4320     0.1450     1.3670 H     1 <1>   0.0800 
 20 H        4.5510     0.7240     0.1510 H     1 <1>   0.0800 
 21 H        2.0610    -0.9230    -0.4270 H     1 <1>   0.0800 
 22 H        3.7010    -1.5090    -0.4960 H     1 <1>   0.0800 
 23 H        3.1700    -0.3040    -1.6420 H     1 <1>   0.0800 
 24 H       -2.0820     2.6600     1.8750 H     1 <1>   0.0800 
 25 H       -1.1140     1.3240     1.3670 H     1 <1>   0.0800 
 26 H        2.8340     5.0170    -1.2460 H     1 <1>   0.4000 
 27 H        3.2240     3.5310    -0.5430 H     1 <1>   0.4000 
 28 H       -2.2060     6.0670    -0.1370 H     1 <1>   0.0800 
 29 H       -2.6470     5.0040     1.1560 H     1 <1>   0.0800 
 30 H       -3.0710     0.9620     0.2100 H     1 <1>   0.0800 
 31 H       -2.0600     1.6870    -0.9950 H     1 <1>   0.0800 
 32 H       -2.6600     4.1460    -1.7530 H     1 <1>   0.0800 
 33 H       -4.0240     4.9120    -1.0060 H     1 <1>   0.0800 
 34 H       -4.2040     3.0960     0.6430 H     1 <1>   0.0800 
 35 H       -4.3870     2.5490    -0.9900 H     1 <1>   0.0800 
@<TRIPOS>BOND
  1   1   2  2   
  2   2   3  1   
  3   2   4  1   
  4   3   5  1   
  5   4   6  1   
  6   4   7  2   
  7   5   8  1   
  8   5  19  1   
  9   5  20  1   
 10   6   9  1   
 11   6  10  1   
 12   7  11  1   
 13   7  12  1   
 14   8  21  1   
 15   8  22  1   
 16   8  23  1   
 17   9  12  2   
 18   9  13  1   
 19  10  14  1   
 20  10  24  1   
 21  10  25  1   
 22  11  26  1   
 23  11  27  1   
 24  12  15  1   
 25  13  16  1   
 26  13  28  1   
 27  13  29  1   
 28  14  17  1   
 29  14  30  1   
 30  14  31  1   
 31  15  18  3   
 32  16  17  1   
 33  16  32  1   
 34  16  33  1   
 35  17  34  1   
 36  17  35  1   
@<TRIPOS>SUBSTRUCTURE
  1 ****   4 GROUP 4 **** **** 0

# MOE 2024.06 (io_trps.svl 2023.06)
