@<TRIPOS>MOLECULE
NONAME
29 30 1 0 0 
SMALL
USER_CHARGES


@<TRIPOS>ATOM
  1 S       -0.0370    -0.2400    -0.2630 S.3   1 <1>  -0.4600 
  2 C        1.5360     0.5950    -0.5950 C.3   1 <1>   0.0700 
  3 C        0.4180    -1.9910    -0.3440 C.3   1 <1>   0.0700 
  4 C        2.6020     0.0550     0.3670 C.3   1 <1>   0.3430 
  5 C        1.6080    -2.2410     0.5930 C.3   1 <1>   0.3430 
  6 N        2.8200    -1.4300     0.2200 N.4   1 <1>  -0.9590 
  7 C        4.0080    -1.8740     1.0010 C.3   1 <1>   0.4860 
  8 C        5.2490    -1.2240     0.4170 C.ar  1 <1>  -0.1440 
  9 C        5.8770    -0.1870     1.0990 C.ar  1 <1>  -0.1500 
 10 C        5.7590    -1.6620    -0.8020 C.ar  1 <1>  -0.1500 
 11 C        7.0010     0.4210     0.5640 C.ar  1 <1>  -0.1500 
 12 C        6.8820    -1.0590    -1.3440 C.ar  1 <1>  -0.1500 
 13 C        7.4810    -0.0260    -0.6510 C.ar  1 <1>   0.1900 
 14 F        8.5360     0.5470    -1.1610 F     1 <1>  -0.1900 
 15 H        1.3710     1.6470    -0.4410 H     1 <1>   0.0800 
 16 H        1.7950     0.4190    -1.6240 H     1 <1>   0.0800 
 17 H        0.6510    -2.2260    -1.3670 H     1 <1>   0.0800 
 18 H       -0.4460    -2.5530    -0.0330 H     1 <1>   0.0800 
 19 H        2.3020     0.2810     1.3780 H     1 <1>   0.0800 
 20 H        3.5240     0.5780     0.1720 H     1 <1>   0.0800 
 21 H        1.8510    -3.2900     0.5590 H     1 <1>   0.0800 
 22 H        1.3090    -2.0030     1.6010 H     1 <1>   0.0800 
 23 H        3.0430    -1.6040    -0.7680 H     1 <1>   0.4500 
 24 H        4.1130    -2.9460     0.9430 H     1 <1>   0.0800 
 25 H        3.9000    -1.5980     2.0380 H     1 <1>   0.0800 
 26 H        5.5080     0.1580     2.0520 H     1 <1>   0.1500 
 27 H        5.3010    -2.4740    -1.3410 H     1 <1>   0.1500 
 28 H        7.5030     1.2250     1.0740 H     1 <1>   0.1500 
 29 H        7.2950    -1.3810    -2.2850 H     1 <1>   0.1500 
@<TRIPOS>BOND
  1   1   2  1   
  2   1   3  1   
  3   2   4  1   
  4   2  15  1   
  5   2  16  1   
  6   3   5  1   
  7   3  17  1   
  8   3  18  1   
  9   4   6  1   
 10   4  19  1   
 11   4  20  1   
 12   5   6  1   
 13   5  21  1   
 14   5  22  1   
 15   6   7  1   
 16   6  23  1   
 17   7   8  1   
 18   7  24  1   
 19   7  25  1   
 20   8   9  ar  
 21   8  10  ar  
 22   9  11  ar  
 23   9  26  1   
 24  10  12  ar  
 25  10  27  1   
 26  11  13  ar  
 27  11  28  1   
 28  12  13  ar  
 29  12  29  1   
 30  13  14  1   
@<TRIPOS>SUBSTRUCTURE
  1 ****   8 GROUP 4 **** **** 0

# MOE 2024.06 (io_trps.svl 2023.06)
