@<TRIPOS>MOLECULE
NONAME
43 44 1 0 0 
SMALL
USER_CHARGES


@<TRIPOS>ATOM
  1 O        0.6630    -0.9630    -2.3390 O.2   1 <1>  -0.5700 
  2 C        0.9250    -1.5290    -1.3060 C.2   1 <1>   0.5690 
  3 N        1.8450    -1.0680    -0.3990 N.am  1 <1>  -0.5470 
  4 C        0.1830    -2.8320    -0.9780 C.3   1 <1>   0.1710 
  5 C        2.5820     0.1280    -0.3530 C.ar  1 <1>   0.1170 
  6 N       -1.2180    -2.6400    -0.4990 N.3   1 <1>  -0.8100 
  7 C        3.7560     0.1840     0.4040 C.ar  1 <1>  -0.1430 
  8 C        2.1630     1.2760    -1.0200 C.ar  1 <1>  -0.1500 
  9 C       -1.9500    -3.9130    -0.3170 C.3   1 <1>   0.1100 
 10 C       -1.3410    -1.7670     0.6950 C.3   1 <1>   0.1100 
 11 C        4.4730     1.3680     0.4790 C.ar  1 <1>  -0.1500 
 12 C        4.2810    -1.0350     1.1540 C.3   1 <1>  -0.0970 
 13 C        2.8850     2.4510    -0.9420 C.ar  1 <1>  -0.1500 
 14 C       -3.4400    -3.6780     0.0450 C.3   1 <1>   0.3430 
 15 C       -2.8190    -1.5380     1.1010 C.3   1 <1>   0.3430 
 16 C        4.0430     2.4990    -0.1900 C.ar  1 <1>  -0.1500 
 17 N       -3.7540    -2.2130     0.1370 N.4   1 <1>  -0.9590 
 18 C       -5.1940    -1.9390     0.3620 C.3   1 <1>   0.3430 
 19 C       -5.4950    -0.4790     0.0500 C.3   1 <1>  -0.2400 
 20 H        2.0870    -1.7110     0.3490 H     1 <1>   0.3700 
 21 H        0.7430    -3.3830    -0.2450 H     1 <1>   0.0800 
 22 H        0.1620    -3.4160    -1.8810 H     1 <1>   0.0800 
 23 H        1.2640     1.2620    -1.6080 H     1 <1>   0.1500 
 24 H       -1.4830    -4.4990     0.4570 H     1 <1>   0.0800 
 25 H       -1.9040    -4.4840    -1.2290 H     1 <1>   0.0800 
 26 H       -0.9000    -0.8060     0.4860 H     1 <1>   0.0800 
 27 H       -0.8060    -2.1970     1.5250 H     1 <1>   0.0800 
 28 H        5.3780     1.4210     1.0590 H     1 <1>   0.1500 
 29 H        4.4000    -1.8620     0.4770 H     1 <1>   0.0800 
 30 H        3.6000    -1.3090     1.9400 H     1 <1>   0.0800 
 31 H        5.2390    -0.8290     1.5970 H     1 <1>   0.0800 
 32 H        2.5450     3.3260    -1.4680 H     1 <1>   0.1500 
 33 H       -3.6570    -4.1610     0.9820 H     1 <1>   0.0800 
 34 H       -4.0560    -4.1360    -0.7110 H     1 <1>   0.0800 
 35 H       -3.0090    -0.4780     1.1200 H     1 <1>   0.0800 
 36 H       -2.9790    -1.9190     2.0960 H     1 <1>   0.0800 
 37 H        4.6070     3.4130    -0.1270 H     1 <1>   0.1500 
 38 H       -3.4640    -1.8410    -0.7830 H     1 <1>   0.4500 
 39 H       -5.4620    -2.1650     1.3820 H     1 <1>   0.0800 
 40 H       -5.7850    -2.5630    -0.2890 H     1 <1>   0.0800 
 41 H       -5.0080     0.1820     0.7440 H     1 <1>   0.0800 
 42 H       -6.5550    -0.3130     0.1330 H     1 <1>   0.0800 
 43 H       -5.2000    -0.2340    -0.9550 H     1 <1>   0.0800 
@<TRIPOS>BOND
  1   1   2  2   
  2   2   3  am  
  3   2   4  1   
  4   3   5  1   
  5   3  20  1   
  6   4   6  1   
  7   4  21  1   
  8   4  22  1   
  9   5   7  ar  
 10   5   8  ar  
 11   6   9  1   
 12   6  10  1   
 13   7  11  ar  
 14   7  12  1   
 15   8  13  ar  
 16   8  23  1   
 17   9  14  1   
 18   9  24  1   
 19   9  25  1   
 20  10  15  1   
 21  10  26  1   
 22  10  27  1   
 23  11  16  ar  
 24  11  28  1   
 25  12  29  1   
 26  12  30  1   
 27  12  31  1   
 28  13  16  ar  
 29  13  32  1   
 30  14  17  1   
 31  14  33  1   
 32  14  34  1   
 33  15  17  1   
 34  15  35  1   
 35  15  36  1   
 36  16  37  1   
 37  17  18  1   
 38  17  38  1   
 39  18  19  1   
 40  18  39  1   
 41  18  40  1   
 42  19  41  1   
 43  19  42  1   
 44  19  43  1   
@<TRIPOS>SUBSTRUCTURE
  1 ****   2 GROUP 4 **** **** 0

# MOE 2024.06 (io_trps.svl 2023.06)
