@<TRIPOS>MOLECULE
NONAME
36 36 1 0 0 
SMALL
USER_CHARGES


@<TRIPOS>ATOM
  1 S       -0.6360     0.3260    -0.7250 S.o2  1 <1>   1.3330 
  2 O       -0.7440     1.5160    -1.5290 O.2   1 <1>  -0.6500 
  3 O        0.4310     0.1520     0.2270 O.2   1 <1>  -0.6500 
  4 N       -2.1270     0.2310     0.1200 N.am  1 <1>  -0.7570 
  5 C       -0.7210    -1.0970    -1.7910 C.3   1 <1>  -0.1350 
  6 C       -2.5050    -0.8260     0.9360 C.ar  1 <1>   0.1990 
  7 C       -3.6720    -1.5560     0.6680 C.ar  1 <1>   0.0860 
  8 C       -1.7280    -1.1710     2.0380 C.ar  1 <1>  -0.1500 
  9 C       -4.4960    -1.2040    -0.4620 C.2   1 <1>   0.5440 
 10 C       -4.0040    -2.6260     1.4990 C.ar  1 <1>  -0.1500 
 11 C       -2.0770    -2.2270     2.8560 C.ar  1 <1>  -0.1500 
 12 O       -4.0560    -1.3890    -1.5830 O.2   1 <1>  -0.5700 
 13 N       -5.7350    -0.6120    -0.3140 N.am  1 <1>  -0.6600 
 14 C       -3.2190    -2.9610     2.5840 C.ar  1 <1>  -0.1500 
 15 C       -6.5680    -0.2790    -1.5030 C.3   1 <1>   0.1400 
 16 C       -6.2580    -0.1320     0.9950 C.3   1 <1>   0.1400 
 17 C       -6.2250     1.1260    -1.9970 C.3   1 <1>  -0.2400 
 18 C       -7.3340    -1.0840     1.5130 C.3   1 <1>  -0.2400 
 19 H       -2.8490     0.6050    -0.4950 H     1 <1>   0.4200 
 20 H       -1.5790    -1.0330    -2.4310 H     1 <1>   0.0800 
 21 H       -0.7930    -1.9950    -1.2090 H     1 <1>   0.0800 
 22 H        0.1590    -1.1520    -2.4010 H     1 <1>   0.0800 
 23 H       -0.8420    -0.6010     2.2570 H     1 <1>   0.1500 
 24 H       -4.8870    -3.2010     1.2810 H     1 <1>   0.1500 
 25 H       -1.4610    -2.4800     3.7030 H     1 <1>   0.1500 
 26 H       -3.4890    -3.7890     3.2180 H     1 <1>   0.1500 
 27 H       -7.6120    -0.3370    -1.2500 H     1 <1>   0.0800 
 28 H       -6.3800    -0.9930    -2.2880 H     1 <1>   0.0800 
 29 H       -6.6740     0.8550     0.8770 H     1 <1>   0.0800 
 30 H       -5.4610    -0.0600     1.7160 H     1 <1>   0.0800 
 31 H       -6.4300     1.8590    -1.2390 H     1 <1>   0.0800 
 32 H       -6.8180     1.3560    -2.8630 H     1 <1>   0.0800 
 33 H       -5.1880     1.1760    -2.2750 H     1 <1>   0.0800 
 34 H       -8.1740    -1.1110     0.8440 H     1 <1>   0.0800 
 35 H       -7.6790    -0.7460     2.4740 H     1 <1>   0.0800 
 36 H       -6.9390    -2.0760     1.6260 H     1 <1>   0.0800 
@<TRIPOS>BOND
  1   1   2  2   
  2   1   3  2   
  3   1   4  am  
  4   1   5  1   
  5   4   6  1   
  6   4  19  1   
  7   5  20  1   
  8   5  21  1   
  9   5  22  1   
 10   6   7  ar  
 11   6   8  ar  
 12   7   9  1   
 13   7  10  ar  
 14   8  11  ar  
 15   8  23  1   
 16   9  12  2   
 17   9  13  am  
 18  10  14  ar  
 19  10  24  1   
 20  11  14  ar  
 21  11  25  1   
 22  13  15  1   
 23  13  16  1   
 24  14  26  1   
 25  15  17  1   
 26  15  27  1   
 27  15  28  1   
 28  16  18  1   
 29  16  29  1   
 30  16  30  1   
 31  17  31  1   
 32  17  32  1   
 33  17  33  1   
 34  18  34  1   
 35  18  35  1   
 36  18  36  1   
@<TRIPOS>SUBSTRUCTURE
  1 ****   7 GROUP 4 **** **** 0

# MOE 2024.06 (io_trps.svl 2023.06)
