@<TRIPOS>MOLECULE
NONAME
40 41 1 0 0 
SMALL
USER_CHARGES


@<TRIPOS>ATOM
  1 O       -0.3670    -0.5380     0.0390 O.3   1 <1>  -0.0190 
  2 N       -1.5780    -0.6090    -0.4170 N.2   1 <1>  -0.4100 
  3 C       -0.3210     0.6190     0.6460 C.2   1 <1>   0.2980 
  4 C       -2.1930     0.4680    -0.0740 C.2   1 <1>   0.4620 
  5 N       -1.4000     1.2860     0.6250 N.2   1 <1>  -0.5650 
  6 C        0.9710     1.0490     1.3200 C.3   1 <1>   0.0200 
  7 C       -3.5730     0.7950    -0.3900 C.ar  1 <1>   0.0540 
  8 C        2.0420     1.6320     0.3660 C.3   1 <1>   0.0000 
  9 C       -4.1610     1.9870     0.0370 C.ar  1 <1>  -0.1500 
 10 C       -4.3680    -0.0730    -1.1430 C.ar  1 <1>  -0.1500 
 11 C        1.4990     2.8630    -0.3760 C.3   1 <1>  -0.2400 
 12 C        2.5020     0.5900    -0.6680 C.3   1 <1>  -0.2400 
 13 C        3.2630     2.0610     1.1950 C.3   1 <1>  -0.2400 
 14 C       -5.4720     2.3040    -0.2680 C.ar  1 <1>   0.0830 
 15 C       -5.6860     0.2240    -1.4430 C.ar  1 <1>  -0.1500 
 16 O       -5.9410     3.5030     0.1570 O.3   1 <1>  -0.3630 
 17 C       -6.2550     1.4030    -0.9960 C.ar  1 <1>   0.0830 
 18 C       -6.2090     4.4540    -0.8490 C.3   1 <1>   0.0400 
 19 O       -7.5590     1.6200    -1.2920 O.3   1 <1>  -0.3630 
 20 C       -8.4510     1.7100    -0.2020 C.3   1 <1>   0.0400 
 21 H        1.3750     0.2020     1.8450 H     1 <1>   0.0800 
 22 H        0.7220     1.7910     2.0580 H     1 <1>   0.0800 
 23 H       -3.5860     2.6890     0.6140 H     1 <1>   0.1500 
 24 H       -3.9480    -0.9990    -1.4980 H     1 <1>   0.1500 
 25 H        0.6710     2.5970    -1.0090 H     1 <1>   0.0800 
 26 H        2.2630     3.3010    -0.9950 H     1 <1>   0.0800 
 27 H        1.1610     3.6080     0.3230 H     1 <1>   0.0800 
 28 H        3.3070     0.9810    -1.2640 H     1 <1>   0.0800 
 29 H        2.8470    -0.3040    -0.1800 H     1 <1>   0.0800 
 30 H        1.7000     0.3270    -1.3340 H     1 <1>   0.0800 
 31 H        2.9870     2.8070     1.9190 H     1 <1>   0.0800 
 32 H        4.0260     2.4760     0.5600 H     1 <1>   0.0800 
 33 H        3.6830     1.2190     1.7170 H     1 <1>   0.0800 
 34 H       -6.2820    -0.4600    -2.0200 H     1 <1>   0.1500 
 35 H       -7.0030     4.0940    -1.4770 H     1 <1>   0.0800 
 36 H       -5.3150     4.6080    -1.4270 H     1 <1>   0.0800 
 37 H       -6.5040     5.3720    -0.3730 H     1 <1>   0.0800 
 38 H       -9.4540     1.7270    -0.5890 H     1 <1>   0.0800 
 39 H       -8.2570     2.6140     0.3460 H     1 <1>   0.0800 
 40 H       -8.3140     0.8520     0.4320 H     1 <1>   0.0800 
@<TRIPOS>BOND
  1   1   2  1   
  2   1   3  1   
  3   2   4  2   
  4   3   5  2   
  5   3   6  1   
  6   4   5  1   
  7   4   7  1   
  8   6   8  1   
  9   6  21  1   
 10   6  22  1   
 11   7   9  ar  
 12   7  10  ar  
 13   8  11  1   
 14   8  12  1   
 15   8  13  1   
 16   9  14  ar  
 17   9  23  1   
 18  10  15  ar  
 19  10  24  1   
 20  11  25  1   
 21  11  26  1   
 22  11  27  1   
 23  12  28  1   
 24  12  29  1   
 25  12  30  1   
 26  13  31  1   
 27  13  32  1   
 28  13  33  1   
 29  14  16  1   
 30  14  17  ar  
 31  15  17  ar  
 32  15  34  1   
 33  16  18  1   
 34  17  19  1   
 35  18  35  1   
 36  18  36  1   
 37  18  37  1   
 38  19  20  1   
 39  20  38  1   
 40  20  39  1   
 41  20  40  1   
@<TRIPOS>SUBSTRUCTURE
  1 ****   4 GROUP 4 **** **** 0

# MOE 2024.06 (io_trps.svl 2023.06)
