@<TRIPOS>MOLECULE
NONAME
48 50 1 0 0 
SMALL
USER_CHARGES


@<TRIPOS>ATOM
  1 CL       1.2380    -0.4260    -1.1350 Cl    1 <1>  -0.1770 
  2 C        1.7610     1.1080    -0.4860 C.ar  1 <1>   0.1770 
  3 C        1.1380     1.6510     0.6350 C.ar  1 <1>   0.1770 
  4 C        2.8040     1.7710    -1.1070 C.ar  1 <1>  -0.1500 
  5 CL      -0.1780     0.8110     1.4140 Cl    1 <1>  -0.1770 
  6 C        1.5500     2.8670     1.1520 C.ar  1 <1>  -0.1500 
  7 C        3.2180     2.9950    -0.5890 C.ar  1 <1>   0.0860 
  8 C        2.5980     3.5360     0.5280 C.ar  1 <1>   0.0860 
  9 C        4.2460     3.9170    -0.9770 C.2   1 <1>   0.5440 
 10 C        3.2490     4.7840     0.8030 C.2   1 <1>   0.5440 
 11 O        5.0210     3.7980    -1.9020 O.2   1 <1>  -0.5700 
 12 N        4.2440     4.9900    -0.1250 N.am  1 <1>  -0.4200 
 13 O        2.9470     5.5630     1.6800 O.2   1 <1>  -0.5700 
 14 C        5.5020     5.7720     0.0750 C.3   1 <1>   0.2810 
 15 C        6.5340     4.9660     0.8940 C.2   1 <1>   0.5690 
 16 C        5.2730     7.1780     0.6720 C.3   1 <1>  -0.1600 
 17 O        6.1180     4.2860     1.8070 O.2   1 <1>  -0.5700 
 18 N        7.8790     5.0070     0.5970 N.am  1 <1>  -0.6600 
 19 C        4.2480     8.0160    -0.1220 C.3   1 <1>  -0.0550 
 20 C        8.8340     4.1650     1.3870 C.3   1 <1>   0.1400 
 21 C        8.4630     5.7790    -0.5460 C.3   1 <1>   0.1400 
 22 S        4.1170     9.7350     0.3900 S.o2  1 <1>   1.0900 
 23 C        9.9730     3.6560     0.4970 C.3   1 <1>  -0.1600 
 24 C        9.9450     6.0830    -0.3050 C.3   1 <1>  -0.1600 
 25 O        3.9950     9.8020     1.8260 O.2   1 <1>  -0.6500 
 26 O        3.1350    10.3670    -0.4580 O.2   1 <1>  -0.6500 
 27 C        5.6980    10.4390    -0.0420 C.3   1 <1>  -0.1350 
 28 C       10.7800     4.8030    -0.1330 C.3   1 <1>  -0.1600 
 29 H        3.2890     1.3520    -1.9720 H     1 <1>   0.1500 
 30 H        1.0740     3.2910     2.0190 H     1 <1>   0.1500 
 31 H        5.9140     5.9160    -0.9050 H     1 <1>   0.0800 
 32 H        6.2190     7.6870     0.6860 H     1 <1>   0.0800 
 33 H        4.9570     7.0930     1.6980 H     1 <1>   0.0800 
 34 H        3.2820     7.5630    -0.0080 H     1 <1>   0.0800 
 35 H        4.4920     7.9800    -1.1660 H     1 <1>   0.0800 
 36 H        8.3210     3.3200     1.8150 H     1 <1>   0.0800 
 37 H        9.2360     4.7540     2.1940 H     1 <1>   0.0800 
 38 H        7.9410     6.7090    -0.6730 H     1 <1>   0.0800 
 39 H        8.3580     5.1990    -1.4480 H     1 <1>   0.0800 
 40 H        9.5440     3.0450    -0.2790 H     1 <1>   0.0800 
 41 H       10.6280     3.0280     1.0740 H     1 <1>   0.0800 
 42 H       10.0270     6.6880     0.5820 H     1 <1>   0.0800 
 43 H       10.3370     6.6580    -1.1250 H     1 <1>   0.0800 
 44 H        6.4860     9.9870     0.5280 H     1 <1>   0.0800 
 45 H        5.6940    11.4900     0.1720 H     1 <1>   0.0800 
 46 H        5.8980    10.3090    -1.0880 H     1 <1>   0.0800 
 47 H       11.1500     4.4780    -1.0910 H     1 <1>   0.0800 
 48 H       11.6340     5.0280     0.4840 H     1 <1>   0.0800 
@<TRIPOS>BOND
  1   1   2  1   
  2   2   3  ar  
  3   2   4  ar  
  4   3   5  1   
  5   3   6  ar  
  6   4   7  ar  
  7   4  29  1   
  8   6   8  ar  
  9   6  30  1   
 10   7   8  ar  
 11   7   9  1   
 12   8  10  1   
 13   9  11  2   
 14   9  12  am  
 15  10  12  am  
 16  10  13  2   
 17  12  14  1   
 18  14  15  1   
 19  14  16  1   
 20  14  31  1   
 21  15  17  2   
 22  15  18  am  
 23  16  19  1   
 24  16  32  1   
 25  16  33  1   
 26  18  20  1   
 27  18  21  1   
 28  19  22  1   
 29  19  34  1   
 30  19  35  1   
 31  20  23  1   
 32  20  36  1   
 33  20  37  1   
 34  21  24  1   
 35  21  38  1   
 36  21  39  1   
 37  22  25  2   
 38  22  26  2   
 39  22  27  1   
 40  23  28  1   
 41  23  40  1   
 42  23  41  1   
 43  24  28  1   
 44  24  42  1   
 45  24  43  1   
 46  27  44  1   
 47  27  45  1   
 48  27  46  1   
 49  28  47  1   
 50  28  48  1   
@<TRIPOS>SUBSTRUCTURE
  1 ****  12 GROUP 4 **** **** 0

# MOE 2024.06 (io_trps.svl 2023.06)
