@<TRIPOS>MOLECULE
NONAME
48 52 1 0 0 
SMALL
USER_CHARGES


@<TRIPOS>ATOM
  1 O       -0.8270     0.5660    -0.5590 O.2   1 <1>  -0.5700 
  2 C       -0.7170     1.6670    -0.0960 C.2   1 <1>   0.6590 
  3 O       -1.8000     2.4480     0.2870 O.3   1 <1>  -0.4300 
  4 C        0.6810     2.3940     0.1080 C.3   1 <1>  -0.0190 
  5 C       -1.4450     3.7340     0.9270 C.3   1 <1>   0.2000 
  6 C        1.3690     3.5880    -0.9660 C.3   1 <1>  -0.0190 
  7 C       -0.0150     3.2820     1.1150 C.3   1 <1>  -0.0800 
  8 C       -1.2110     5.2030     0.0170 C.3   1 <1>  -0.1600 
  9 C        2.8430     3.8750    -0.6620 C.2   1 <1>   0.5690 
 10 C        0.2880     4.9630    -0.8550 C.3   1 <1>  -0.0800 
 11 C        0.1270     4.1550     0.0500 C.3   1 <1>  -0.1600 
 12 O        3.1720     4.9880    -0.3360 O.2   1 <1>  -0.5700 
 13 N        3.7190     2.8320    -0.7900 N.am  1 <1>  -0.5470 
 14 C        5.1030     2.7580    -0.5540 C.ar  1 <1>   0.1170 
 15 C        5.8310     1.7460    -1.1700 C.ar  1 <1>  -0.1500 
 16 C        5.7790     3.6400     0.2830 C.ar  1 <1>  -0.1500 
 17 C        7.1930     1.6160    -0.9650 C.ar  1 <1>  -0.1500 
 18 C        7.1410     3.5160     0.4910 C.ar  1 <1>  -0.1500 
 19 C        7.8590     2.5070    -0.1290 C.ar  1 <1>   0.0820 
 20 O        9.1910     2.4600     0.1310 O.3   1 <1>  -0.3630 
 21 C       10.0170     1.4920    -0.4790 C.3   1 <1>   0.2640 
 22 C       11.4540     1.7120    -0.0330 C.ar  1 <1>  -0.1440 
 23 C       12.1050     2.8970    -0.3420 C.ar  1 <1>  -0.1500 
 24 C       12.1310     0.7330     0.6790 C.ar  1 <1>  -0.1500 
 25 C       13.4170     3.0990     0.0500 C.ar  1 <1>  -0.1500 
 26 C       13.4430     0.9340     1.0720 C.ar  1 <1>  -0.1500 
 27 C       14.0870     2.1170     0.7570 C.ar  1 <1>  -0.1500 
 28 H        1.3990     1.7380     0.5660 H     1 <1>   0.0800 
 29 H       -1.9970     3.8510     1.8440 H     1 <1>   0.0800 
 30 H        1.3460     3.2000    -1.9730 H     1 <1>   0.0800 
 31 H        0.5120     3.5750     2.0130 H     1 <1>   0.0800 
 32 H       -1.1520     6.0600     0.6770 H     1 <1>   0.0800 
 33 H       -2.0470     5.3680    -0.6460 H     1 <1>   0.0800 
 34 H       -0.0130     5.1120    -1.8930 H     1 <1>   0.0800 
 35 H       -0.5570     3.6700    -0.9400 H     1 <1>   0.0800 
 36 H        0.7820     4.8550     0.6610 H     1 <1>   0.0800 
 37 H        3.3160     1.9740    -1.1610 H     1 <1>   0.3700 
 38 H        5.3300     1.0530    -1.8200 H     1 <1>   0.1500 
 39 H        5.2480     4.4300     0.7810 H     1 <1>   0.1500 
 40 H        7.7130     0.8200    -1.4640 H     1 <1>   0.1500 
 41 H        7.6560     4.2030     1.1380 H     1 <1>   0.1500 
 42 H        9.9420     1.6050    -1.5460 H     1 <1>   0.0800 
 43 H        9.6700     0.5180    -0.1840 H     1 <1>   0.0800 
 44 H       11.5860     3.6670    -0.8870 H     1 <1>   0.1500 
 45 H       11.6410    -0.1900     0.9340 H     1 <1>   0.1500 
 46 H       13.9140     4.0220    -0.1940 H     1 <1>   0.1500 
 47 H       13.9620     0.1700     1.6250 H     1 <1>   0.1500 
 48 H       15.1070     2.2740     1.0620 H     1 <1>   0.1500 
@<TRIPOS>BOND
  1   1   2  2   
  2   2   3  1   
  3   2   4  1   
  4   3   5  1   
  5   4   6  1   
  6   4   7  1   
  7   4  28  1   
  8   5   7  1   
  9   5   8  1   
 10   5  29  1   
 11   6   9  1   
 12   6  10  1   
 13   6  30  1   
 14   7  11  1   
 15   7  31  1   
 16   8  10  1   
 17   8  32  1   
 18   8  33  1   
 19   9  12  2   
 20   9  13  am  
 21  10  11  1   
 22  10  34  1   
 23  11  35  1   
 24  11  36  1   
 25  13  14  1   
 26  13  37  1   
 27  14  15  ar  
 28  14  16  ar  
 29  15  17  ar  
 30  15  38  1   
 31  16  18  ar  
 32  16  39  1   
 33  17  19  ar  
 34  17  40  1   
 35  18  19  ar  
 36  18  41  1   
 37  19  20  1   
 38  20  21  1   
 39  21  22  1   
 40  21  42  1   
 41  21  43  1   
 42  22  23  ar  
 43  22  24  ar  
 44  23  25  ar  
 45  23  44  1   
 46  24  26  ar  
 47  24  45  1   
 48  25  27  ar  
 49  25  46  1   
 50  26  27  ar  
 51  26  47  1   
 52  27  48  1   
@<TRIPOS>SUBSTRUCTURE
  1 ****  14 GROUP 4 **** **** 0

# MOE 2024.06 (io_trps.svl 2023.06)
