@<TRIPOS>MOLECULE
NONAME
50 52 1 0 0 
SMALL
USER_CHARGES


@<TRIPOS>ATOM
  1 O       -0.5140     0.2130     1.1240 O.2   1 <1>  -0.5700 
  2 C       -0.9630     0.9460     0.2630 C.2   1 <1>   0.6900 
  3 N       -2.2390     0.7580    -0.2020 N.am  1 <1>  -0.6600 
  4 N       -0.2280     1.9850    -0.2340 N.am  1 <1>  -0.5470 
  5 C       -3.2030    -0.1390     0.5110 C.3   1 <1>   0.1400 
  6 C       -2.7890     1.3030    -1.4850 C.3   1 <1>   0.1400 
  7 C        1.1160     2.3440    -0.0600 C.ar  1 <1>   0.1170 
  8 C       -4.5660     0.5470     0.7050 C.3   1 <1>   0.2090 
  9 C       -4.1520     1.9830    -1.2640 C.3   1 <1>   0.2090 
 10 C        1.4860     3.6680    -0.2640 C.ar  1 <1>  -0.1500 
 11 C        2.1020     1.4270     0.2860 C.ar  1 <1>  -0.1500 
 12 N       -5.1080     1.0560    -0.5920 N.pl3 1 <1>  -0.8380 
 13 C        2.8030     4.0730    -0.1260 C.ar  1 <1>  -0.1430 
 14 C        3.4220     1.8170     0.4310 C.ar  1 <1>  -0.1430 
 15 C       -6.4390     1.4960    -0.5530 C.ar  1 <1>   0.1000 
 16 C        3.7670     3.1420     0.2220 C.ar  1 <1>  -0.1500 
 17 C        3.2030     5.5210    -0.3470 C.3   1 <1>  -0.0970 
 18 C        4.4860     0.8050     0.8130 C.3   1 <1>  -0.0970 
 19 C       -6.8820     2.6270     0.1600 C.ar  1 <1>   0.0830 
 20 C       -7.3680     0.7550    -1.2690 C.ar  1 <1>  -0.1500 
 21 O       -5.9620     3.3540     0.8690 O.3   1 <1>  -0.3630 
 22 C       -8.2290     2.9760     0.1270 C.ar  1 <1>  -0.1500 
 23 C       -8.7050     1.1070    -1.2940 C.ar  1 <1>  -0.1500 
 24 C       -6.3590     4.3810     1.7490 C.3   1 <1>   0.0400 
 25 C       -9.1360     2.2200    -0.5960 C.ar  1 <1>  -0.1500 
 26 H       -0.8000     2.6700    -0.7100 H     1 <1>   0.3700 
 27 H       -2.8140    -0.4180     1.4750 H     1 <1>   0.0800 
 28 H       -3.3390    -1.0370    -0.0640 H     1 <1>   0.0800 
 29 H       -2.9230     0.4890    -2.1760 H     1 <1>   0.0800 
 30 H       -2.1090     2.0020    -1.9340 H     1 <1>   0.0800 
 31 H       -4.4530     1.3630     1.3970 H     1 <1>   0.0800 
 32 H       -5.2640    -0.1550     1.1280 H     1 <1>   0.0800 
 33 H       -4.5620     2.2850    -2.2120 H     1 <1>   0.0800 
 34 H       -4.0150     2.8640    -0.6630 H     1 <1>   0.0800 
 35 H        0.7350     4.3870    -0.5310 H     1 <1>   0.1500 
 36 H        1.8330     0.3980     0.4400 H     1 <1>   0.1500 
 37 H        4.7920     3.4500     0.3320 H     1 <1>   0.1500 
 38 H        2.3500     6.1220    -0.6070 H     1 <1>   0.0800 
 39 H        3.9230     5.5830    -1.1430 H     1 <1>   0.0800 
 40 H        3.6420     5.9190     0.5500 H     1 <1>   0.0800 
 41 H        4.0390    -0.0670     1.2560 H     1 <1>   0.0800 
 42 H        5.1680     1.2340     1.5250 H     1 <1>   0.0800 
 43 H        5.0350     0.5070    -0.0620 H     1 <1>   0.0800 
 44 H       -7.0270    -0.1080    -1.8100 H     1 <1>   0.1500 
 45 H       -8.5980     3.8340     0.6540 H     1 <1>   0.1500 
 46 H       -9.4070     0.5170    -1.8570 H     1 <1>   0.1500 
 47 H       -5.4810     4.7490     2.2490 H     1 <1>   0.0800 
 48 H       -7.0470     3.9770     2.4700 H     1 <1>   0.0800 
 49 H       -6.8130     5.1730     1.1800 H     1 <1>   0.0800 
 50 H      -10.1760     2.4970    -0.6150 H     1 <1>   0.1500 
@<TRIPOS>BOND
  1   1   2  2   
  2   2   3  am  
  3   2   4  am  
  4   3   5  1   
  5   3   6  1   
  6   4   7  1   
  7   4  26  1   
  8   5   8  1   
  9   5  27  1   
 10   5  28  1   
 11   6   9  1   
 12   6  29  1   
 13   6  30  1   
 14   7  10  ar  
 15   7  11  ar  
 16   8  12  1   
 17   8  31  1   
 18   8  32  1   
 19   9  12  1   
 20   9  33  1   
 21   9  34  1   
 22  10  13  ar  
 23  10  35  1   
 24  11  14  ar  
 25  11  36  1   
 26  12  15  1   
 27  13  16  ar  
 28  13  17  1   
 29  14  16  ar  
 30  14  18  1   
 31  15  19  ar  
 32  15  20  ar  
 33  16  37  1   
 34  17  38  1   
 35  17  39  1   
 36  17  40  1   
 37  18  41  1   
 38  18  42  1   
 39  18  43  1   
 40  19  21  1   
 41  19  22  ar  
 42  20  23  ar  
 43  20  44  1   
 44  21  24  1   
 45  22  25  ar  
 46  22  45  1   
 47  23  25  ar  
 48  23  46  1   
 49  24  47  1   
 50  24  48  1   
 51  24  49  1   
 52  25  50  1   
@<TRIPOS>SUBSTRUCTURE
  1 ****   3 GROUP 4 **** **** 0

# MOE 2024.06 (io_trps.svl 2023.06)
