@<TRIPOS>MOLECULE
NONAME
50 53 1 0 0 
SMALL
USER_CHARGES


@<TRIPOS>ATOM
  1 F       -3.4270    -1.2380     2.3060 F     1 <1>  -0.1970 
  2 C       -2.8160    -1.6480     1.2280 C.ar  1 <1>   0.1830 
  3 C       -3.3970    -2.6540     0.4820 C.ar  1 <1>  -0.1570 
  4 C       -1.6150    -1.0660     0.8770 C.ar  1 <1>  -0.1570 
  5 C       -2.7500    -3.1120    -0.6600 C.ar  1 <1>  -0.1510 
  6 C       -0.9780    -1.5100    -0.2680 C.ar  1 <1>  -0.1570 
  7 C       -1.5440    -2.5220    -1.0300 C.ar  1 <1>  -0.1570 
  8 C       -3.3280    -4.2360    -1.5120 C.3   1 <1>   0.4930 
  9 N       -3.8580    -5.3380    -0.6610 N.pl3 1 <1>  -0.7670 
 10 C       -3.2310    -6.4140    -0.1670 C.cat 1 <1>   1.0690 
 11 C       -5.2320    -5.4810    -0.3700 C.2   1 <1>   0.2710 
 12 N       -4.1330    -7.2250     0.3880 N.pl3 1 <1>  -0.7040 
 13 N       -1.9140    -6.7160    -0.1850 N.pl3 1 <1>  -0.5960 
 14 C       -6.4100    -4.6980    -0.6040 C.2   1 <1>   0.6990 
 15 C       -5.3610    -6.6560     0.2800 C.2   1 <1>   0.4210 
 16 C       -0.8420    -5.6680    -0.1450 C.3   1 <1>   0.1600 
 17 C       -1.4380    -8.1360    -0.1030 C.3   1 <1>   0.1600 
 18 O       -6.3560    -3.6550    -1.2330 O.2   1 <1>  -0.5750 
 19 N       -7.6180    -5.1610    -0.1030 N.am  1 <1>  -0.4260 
 20 N       -6.5630    -7.1530     0.7430 N.am  1 <1>  -0.4410 
 21 C        0.4520    -6.2010     0.4760 C.3   1 <1>  -0.1670 
 22 C       -0.1200    -8.3010    -0.8630 C.3   1 <1>  -0.1670 
 23 C       -7.7030    -6.3820     0.5570 C.2   1 <1>   0.6860 
 24 C       -8.8650    -4.3540    -0.2930 C.3   1 <1>   0.0520 
 25 C       -6.6380    -8.4670     1.4500 C.3   1 <1>   0.0520 
 26 C        0.9980    -7.4200    -0.2830 C.3   1 <1>  -0.1670 
 27 O       -8.7730    -6.7770     0.9720 O.2   1 <1>  -0.5750 
 28 H       -4.3400    -3.0510     0.8050 H     1 <1>   0.1430 
 29 H       -1.1940    -0.2840     1.4840 H     1 <1>   0.1430 
 30 H       -0.0440    -1.0650    -0.5670 H     1 <1>   0.1430 
 31 H       -1.0260    -2.8380    -1.9200 H     1 <1>   0.1430 
 32 H       -2.5680    -4.6280    -2.1640 H     1 <1>   0.0720 
 33 H       -4.1050    -3.8390    -2.1410 H     1 <1>   0.0720 
 34 H       -3.9040    -8.0860     0.8740 H     1 <1>   0.4450 
 35 H       -1.1750    -4.8320     0.4460 H     1 <1>   0.0720 
 36 H       -0.6320    -5.3320    -1.1450 H     1 <1>   0.0720 
 37 H       -2.1700    -8.8000    -0.5310 H     1 <1>   0.0720 
 38 H       -1.2890    -8.4060     0.9300 H     1 <1>   0.0720 
 39 H        0.2620    -6.4660     1.5020 H     1 <1>   0.0720 
 40 H        1.1960    -5.4230     0.4830 H     1 <1>   0.0720 
 41 H       -0.2810    -8.0460    -1.8970 H     1 <1>   0.0720 
 42 H        0.1900    -9.3320    -0.8340 H     1 <1>   0.0720 
 43 H       -8.6330    -3.3150    -0.4530 H     1 <1>   0.0720 
 44 H       -9.4910    -4.4250     0.5800 H     1 <1>   0.0720 
 45 H       -9.4090    -4.7270    -1.1430 H     1 <1>   0.0720 
 46 H       -5.9740    -9.1780     0.9920 H     1 <1>   0.0720 
 47 H       -7.6370    -8.8680     1.4020 H     1 <1>   0.0720 
 48 H       -6.3710    -8.3380     2.4850 H     1 <1>   0.0720 
 49 H        1.6080    -8.0000     0.3910 H     1 <1>   0.0720 
 50 H        1.6340    -7.0930    -1.0880 H     1 <1>   0.0720 
@<TRIPOS>BOND
  1   1   2  1   
  2   2   3  ar  
  3   2   4  ar  
  4   3   5  ar  
  5   3  28  1   
  6   4   6  ar  
  7   4  29  1   
  8   5   7  ar  
  9   5   8  1   
 10   6   7  ar  
 11   6  30  1   
 12   7  31  1   
 13   8   9  1   
 14   8  32  1   
 15   8  33  1   
 16   9  10  ar  
 17   9  11  1   
 18  10  12  ar  
 19  10  13  ar  
 20  11  14  1   
 21  11  15  2   
 22  12  15  1   
 23  12  34  1   
 24  13  16  1   
 25  13  17  1   
 26  14  18  2   
 27  14  19  am  
 28  15  20  1   
 29  16  21  1   
 30  16  35  1   
 31  16  36  1   
 32  17  22  1   
 33  17  37  1   
 34  17  38  1   
 35  19  23  am  
 36  19  24  1   
 37  20  23  am  
 38  20  25  1   
 39  21  26  1   
 40  21  39  1   
 41  21  40  1   
 42  22  26  1   
 43  22  41  1   
 44  22  42  1   
 45  23  27  2   
 46  24  43  1   
 47  24  44  1   
 48  24  45  1   
 49  25  46  1   
 50  25  47  1   
 51  25  48  1   
 52  26  49  1   
 53  26  50  1   
@<TRIPOS>SUBSTRUCTURE
  1 ****   9 GROUP 4 **** **** 0

# MOE 2024.06 (io_trps.svl 2023.06)
