@<TRIPOS>MOLECULE
NONAME
48 49 1 0 0 
SMALL
USER_CHARGES


@<TRIPOS>ATOM
  1 O       -0.0300     4.2130     0.6400 O.3   1 <1>  -0.5600 
  2 C        0.0500     2.8270     0.4890 C.3   1 <1>   0.1200 
  3 C        0.8670     4.9120    -0.1700 C.3   1 <1>   0.1200 
  4 C        1.4690     2.3360     0.8320 C.3   1 <1>   0.1100 
  5 C        2.3130     4.4930     0.1550 C.3   1 <1>   0.1100 
  6 N        2.4960     3.0260     0.0170 N.3   1 <1>  -0.8100 
  7 C        3.8450     2.5830     0.3820 C.3   1 <1>   0.1100 
  8 C        4.8170     2.8720    -0.7700 C.3   1 <1>   0.3430 
  9 N        6.1750     2.3280    -0.4880 N.4   1 <1>  -0.9060 
 10 C        7.1380     2.5630    -1.5820 C.3   1 <1>   0.4860 
 11 C        8.4430     1.9530    -1.1310 C.ar  1 <1>  -0.1440 
 12 C        8.6620     0.5950    -1.2890 C.ar  1 <1>  -0.1500 
 13 C        9.4270     2.7320    -0.5440 C.ar  1 <1>  -0.1500 
 14 C        9.8360    -0.0030    -0.8620 C.ar  1 <1>   0.0820 
 15 C       10.6070     2.1530    -0.1110 C.ar  1 <1>  -0.1500 
 16 O        9.8800    -1.3470    -1.0920 O.3   1 <1>  -0.3620 
 17 C       10.8310     0.7840    -0.2540 C.ar  1 <1>   0.0820 
 18 C       11.0690    -2.1050    -1.0210 C.3   1 <1>   0.0400 
 19 O       11.9830     0.2100     0.1940 O.3   1 <1>  -0.3630 
 20 C       13.0600     0.9560     0.7130 C.3   1 <1>   0.1200 
 21 C       14.1910    -0.0160     1.0340 C.3   1 <1>  -0.2400 
 22 H       -0.2070     2.5730    -0.5240 H     1 <1>   0.0800 
 23 H       -0.6700     2.3830     1.1520 H     1 <1>   0.0800 
 24 H        0.7290     5.9610     0.0180 H     1 <1>   0.0800 
 25 H        0.6330     4.7090    -1.2010 H     1 <1>   0.0800 
 26 H        1.5170     1.2750     0.6540 H     1 <1>   0.0800 
 27 H        1.6470     2.5090     1.8800 H     1 <1>   0.0800 
 28 H        2.5350     4.8010     1.1640 H     1 <1>   0.0800 
 29 H        2.9760     5.0130    -0.5120 H     1 <1>   0.0800 
 30 H        3.8250     1.5190     0.5510 H     1 <1>   0.0800 
 31 H        4.1600     3.0740     1.2870 H     1 <1>   0.0800 
 32 H        4.8730     3.9380    -0.9210 H     1 <1>   0.0800 
 33 H        4.4220     2.4210    -1.6660 H     1 <1>   0.0800 
 34 H        6.1350     1.3140    -0.3280 H     1 <1>   0.4500 
 35 H        6.5690     2.7330     0.3700 H     1 <1>   0.4500 
 36 H        7.2630     3.6190    -1.7610 H     1 <1>   0.0800 
 37 H        6.8050     2.0890    -2.4920 H     1 <1>   0.0800 
 38 H        7.9270    -0.0380    -1.7540 H     1 <1>   0.1500 
 39 H        9.2960     3.7940    -0.4160 H     1 <1>   0.1500 
 40 H       11.3430     2.7910     0.3410 H     1 <1>   0.1500 
 41 H       10.8670    -3.0840    -1.4140 H     1 <1>   0.0800 
 42 H       11.3720    -2.1820     0.0080 H     1 <1>   0.0800 
 43 H       11.8290    -1.6220    -1.6090 H     1 <1>   0.0800 
 44 H       12.7300     1.4600     1.6050 H     1 <1>   0.0800 
 45 H       13.3730     1.6700    -0.0290 H     1 <1>   0.0800 
 46 H       13.8640    -0.7360     1.7630 H     1 <1>   0.0800 
 47 H       15.0310     0.5220     1.4360 H     1 <1>   0.0800 
 48 H       14.5060    -0.5260     0.1410 H     1 <1>   0.0800 
@<TRIPOS>BOND
  1   1   2  1   
  2   1   3  1   
  3   2   4  1   
  4   2  22  1   
  5   2  23  1   
  6   3   5  1   
  7   3  24  1   
  8   3  25  1   
  9   4   6  1   
 10   4  26  1   
 11   4  27  1   
 12   5   6  1   
 13   5  28  1   
 14   5  29  1   
 15   6   7  1   
 16   7   8  1   
 17   7  30  1   
 18   7  31  1   
 19   8   9  1   
 20   8  32  1   
 21   8  33  1   
 22   9  10  1   
 23   9  34  1   
 24   9  35  1   
 25  10  11  1   
 26  10  36  1   
 27  10  37  1   
 28  11  12  ar  
 29  11  13  ar  
 30  12  14  ar  
 31  12  38  1   
 32  13  15  ar  
 33  13  39  1   
 34  14  16  1   
 35  14  17  ar  
 36  15  17  ar  
 37  15  40  1   
 38  16  18  1   
 39  17  19  1   
 40  18  41  1   
 41  18  42  1   
 42  18  43  1   
 43  19  20  1   
 44  20  21  1   
 45  20  44  1   
 46  20  45  1   
 47  21  46  1   
 48  21  47  1   
 49  21  48  1   
@<TRIPOS>SUBSTRUCTURE
  1 ****   9 GROUP 4 **** **** 0

# MOE 2024.06 (io_trps.svl 2023.06)
