@<TRIPOS>MOLECULE
NONAME
25 26 1 0 0 
SMALL
USER_CHARGES


@<TRIPOS>ATOM
  1 O       -0.0020     0.2820    -0.3470 O.3   1 <1>  -0.5320 
  2 C        0.0280     1.6180    -0.1770 C.ar  1 <1>   0.0830 
  3 C        1.2380     2.2940    -0.0930 C.ar  1 <1>  -0.1430 
  4 C       -1.1740     2.2990    -0.0950 C.ar  1 <1>  -0.1500 
  5 C        1.2390     3.6830     0.0660 C.ar  1 <1>   0.1000 
  6 C        2.5520     1.5230    -0.1970 C.3   1 <1>  -0.0160 
  7 C       -1.1720     3.6710     0.0700 C.ar  1 <1>  -0.1500 
  8 N        2.4370     4.3980     0.1400 N.pl3 1 <1>  -0.8690 
  9 C        0.0220     4.3660     0.1520 C.ar  1 <1>  -0.1430 
 10 C        3.7390     2.3400     0.3240 C.3   1 <1>  -0.1600 
 11 C        3.7070     3.7530    -0.2490 C.3   1 <1>   0.2090 
 12 C       -0.0140     5.8770     0.3430 C.3   1 <1>  -0.0970 
 13 H       -0.9080    -0.0690    -0.3830 H     1 <1>   0.4500 
 14 H       -2.1080     1.7720    -0.1580 H     1 <1>   0.1500 
 15 H        2.7130     1.2720    -1.2300 H     1 <1>   0.0800 
 16 H        2.4870     0.6070     0.3620 H     1 <1>   0.0800 
 17 H       -2.1100     4.1940     0.1360 H     1 <1>   0.1500 
 18 H        2.3590     5.3720    -0.1590 H     1 <1>   0.4000 
 19 H        4.6600     1.8560     0.0580 H     1 <1>   0.0800 
 20 H        3.6880     2.4020     1.3960 H     1 <1>   0.0800 
 21 H        4.5320     4.3250     0.1420 H     1 <1>   0.0800 
 22 H        3.7800     3.7230    -1.3230 H     1 <1>   0.0800 
 23 H        0.5660     6.1480     1.2070 H     1 <1>   0.0800 
 24 H       -1.0200     6.2250     0.4890 H     1 <1>   0.0800 
 25 H        0.3940     6.3640    -0.5240 H     1 <1>   0.0800 
@<TRIPOS>BOND
  1   1   2  1   
  2   1  13  1   
  3   2   3  ar  
  4   2   4  ar  
  5   3   5  ar  
  6   3   6  1   
  7   4   7  ar  
  8   4  14  1   
  9   5   8  1   
 10   5   9  ar  
 11   6  10  1   
 12   6  15  1   
 13   6  16  1   
 14   7   9  ar  
 15   7  17  1   
 16   8  11  1   
 17   8  18  1   
 18   9  12  1   
 19  10  11  1   
 20  10  19  1   
 21  10  20  1   
 22  11  21  1   
 23  11  22  1   
 24  12  23  1   
 25  12  24  1   
 26  12  25  1   
@<TRIPOS>SUBSTRUCTURE
  1 ****   5 GROUP 4 **** **** 0

# MOE 2024.06 (io_trps.svl 2023.06)
