@<TRIPOS>MOLECULE
NONAME
36 37 1 0 0 
SMALL
USER_CHARGES


@<TRIPOS>ATOM
  1 O       -0.2890     0.0110    -1.9660 O.2   1 <1>  -0.5700 
  2 C       -0.2460    -1.0210    -1.3450 C.2   1 <1>   0.5690 
  3 N       -1.3130    -1.5610    -0.6810 N.am  1 <1>  -0.5470 
  4 C        1.0620    -1.7880    -1.3030 C.3   1 <1>  -0.0990 
  5 C       -2.6290    -1.1040    -0.5010 C.ar  1 <1>   0.1170 
  6 C        1.7130    -1.7580     0.0910 C.3   1 <1>  -0.1600 
  7 C       -3.6500    -2.0440    -0.1880 C.ar  1 <1>   0.0000 
  8 C       -2.9470     0.2340    -0.5930 C.ar  1 <1>  -0.1500 
  9 C        3.0350    -2.5340     0.1050 C.3   1 <1>  -0.1600 
 10 C       -4.9660    -1.5780     0.0430 C.ar  1 <1>   0.3100 
 11 C       -3.4450    -3.4360    -0.0980 C.ar  1 <1>  -0.1500 
 12 C       -4.2470     0.6880    -0.3810 C.ar  1 <1>  -0.1500 
 13 C        3.6750    -2.5030     1.4950 C.3   1 <1>  -0.2400 
 14 N       -5.9980    -2.3990     0.3680 N.ar  1 <1>  -0.6200 
 15 C       -5.2320    -0.2070    -0.0660 C.ar  1 <1>  -0.1500 
 16 C       -4.5000    -4.2370     0.2220 C.ar  1 <1>  -0.1500 
 17 C       -5.7610    -3.6700     0.4500 C.ar  1 <1>   0.1670 
 18 C       -6.9290    -4.5640     0.8100 C.3   1 <1>  -0.0970 
 19 H       -1.1200    -2.4590    -0.2460 H     1 <1>   0.3700 
 20 H        1.7350    -1.3490    -2.0190 H     1 <1>   0.0800 
 21 H        0.8790    -2.8020    -1.6050 H     1 <1>   0.0800 
 22 H        1.0420    -2.1840     0.8170 H     1 <1>   0.0800 
 23 H        1.8960    -0.7340     0.3700 H     1 <1>   0.0800 
 24 H       -2.1930     0.9640    -0.8270 H     1 <1>   0.1500 
 25 H        3.7180    -2.1000    -0.6070 H     1 <1>   0.0800 
 26 H        2.8620    -3.5580    -0.1810 H     1 <1>   0.0800 
 27 H       -2.4790    -3.8640    -0.2830 H     1 <1>   0.1500 
 28 H       -4.4600     1.7400    -0.4650 H     1 <1>   0.1500 
 29 H        3.8790    -1.4890     1.7930 H     1 <1>   0.0800 
 30 H        4.6020    -3.0490     1.4860 H     1 <1>   0.0800 
 31 H        3.0220    -2.9530     2.2230 H     1 <1>   0.0800 
 32 H       -6.2420     0.1190     0.1060 H     1 <1>   0.1500 
 33 H       -4.3800    -5.3020     0.3010 H     1 <1>   0.1500 
 34 H       -7.6830    -4.4900     0.0480 H     1 <1>   0.0800 
 35 H       -7.3510    -4.2430     1.7440 H     1 <1>   0.0800 
 36 H       -6.6240    -5.5900     0.9010 H     1 <1>   0.0800 
@<TRIPOS>BOND
  1   1   2  2   
  2   2   3  am  
  3   2   4  1   
  4   3   5  1   
  5   3  19  1   
  6   4   6  1   
  7   4  20  1   
  8   4  21  1   
  9   5   7  ar  
 10   5   8  ar  
 11   6   9  1   
 12   6  22  1   
 13   6  23  1   
 14   7  10  ar  
 15   7  11  ar  
 16   8  12  ar  
 17   8  24  1   
 18   9  13  1   
 19   9  25  1   
 20   9  26  1   
 21  10  14  ar  
 22  10  15  ar  
 23  11  16  ar  
 24  11  27  1   
 25  12  15  ar  
 26  12  28  1   
 27  13  29  1   
 28  13  30  1   
 29  13  31  1   
 30  14  17  ar  
 31  15  32  1   
 32  16  17  ar  
 33  16  33  1   
 34  17  18  1   
 35  18  34  1   
 36  18  35  1   
 37  18  36  1   
@<TRIPOS>SUBSTRUCTURE
  1 ****   5 GROUP 4 **** **** 0

# MOE 2024.06 (io_trps.svl 2023.06)
