@<TRIPOS>MOLECULE
NONAME
33 34 1 0 0 
SMALL
USER_CHARGES


@<TRIPOS>ATOM
  1 S        0.1500    -0.0550    -0.3360 S.o2  1 <1>   1.5760 
  2 O       -0.0810    -0.3970    -1.7180 O.2   1 <1>  -0.6500 
  3 O        0.3160    -1.0600     0.6850 O.2   1 <1>  -0.6500 
  4 N       -0.9870     1.0690     0.1800 N.am  1 <1>  -0.8490 
  5 N        1.4970     0.9050    -0.2420 N.am  1 <1>  -0.9140 
  6 C       -2.2520     0.4150     0.5390 C.3   1 <1>   0.1960 
  7 C       -1.2430     2.1030    -0.8360 C.3   1 <1>   0.1960 
  8 C        2.6580     0.2050    -0.7320 C.3   1 <1>   0.3390 
  9 C       -3.3000     1.4490     0.9890 C.3   1 <1>   0.1200 
 10 C       -2.3120     3.0980    -0.3500 C.3   1 <1>   0.1200 
 11 C        3.8910     0.9490    -0.2550 C.ar  1 <1>  -0.1430 
 12 O       -3.4880     2.4230     0.0010 O.3   1 <1>  -0.5600 
 13 C        4.2620     2.1420    -0.8560 C.ar  1 <1>  -0.1500 
 14 C        4.6550     0.4480     0.7890 C.ar  1 <1>  -0.1500 
 15 C        5.3860     2.8250    -0.4240 C.ar  1 <1>  -0.1500 
 16 C        5.7790     1.1300     1.2230 C.ar  1 <1>  -0.1500 
 17 C        6.1450     2.3180     0.6160 C.ar  1 <1>  -0.1500 
 18 H        1.6310     1.0080     0.7590 H     1 <1>   0.4200 
 19 H       -2.0820    -0.2820     1.3420 H     1 <1>   0.0800 
 20 H       -2.6380    -0.1350    -0.3050 H     1 <1>   0.0800 
 21 H       -1.5800     1.6520    -1.7540 H     1 <1>   0.0800 
 22 H       -0.3330     2.6400    -1.0430 H     1 <1>   0.0800 
 23 H        2.6350     0.1710    -1.8090 H     1 <1>   0.0800 
 24 H        2.6820    -0.8070    -0.3590 H     1 <1>   0.0800 
 25 H       -2.9840     1.9350     1.8950 H     1 <1>   0.0800 
 26 H       -4.2470     0.9700     1.1620 H     1 <1>   0.0800 
 27 H       -2.5530     3.7960    -1.1310 H     1 <1>   0.0800 
 28 H       -1.9570     3.6420     0.5080 H     1 <1>   0.0800 
 29 H        3.6710     2.5440    -1.6610 H     1 <1>   0.1500 
 30 H        4.3810    -0.4750     1.2710 H     1 <1>   0.1500 
 31 H        5.6680     3.7500    -0.8950 H     1 <1>   0.1500 
 32 H        6.3690     0.7370     2.0320 H     1 <1>   0.1500 
 33 H        7.0190     2.8490     0.9530 H     1 <1>   0.1500 
@<TRIPOS>BOND
  1   1   2  2   
  2   1   3  2   
  3   1   4  am  
  4   1   5  am  
  5   4   6  1   
  6   4   7  1   
  7   5   8  1   
  8   5  18  1   
  9   6   9  1   
 10   6  19  1   
 11   6  20  1   
 12   7  10  1   
 13   7  21  1   
 14   7  22  1   
 15   8  11  1   
 16   8  23  1   
 17   8  24  1   
 18   9  12  1   
 19   9  25  1   
 20   9  26  1   
 21  10  12  1   
 22  10  27  1   
 23  10  28  1   
 24  11  13  ar  
 25  11  14  ar  
 26  13  15  ar  
 27  13  29  1   
 28  14  16  ar  
 29  14  30  1   
 30  15  17  ar  
 31  15  31  1   
 32  16  17  ar  
 33  16  32  1   
 34  17  33  1   
@<TRIPOS>SUBSTRUCTURE
  1 ****   5 GROUP 4 **** **** 0

# MOE 2024.06 (io_trps.svl 2023.06)
