@<TRIPOS>MOLECULE
NONAME
47 49 1 0 0 
SMALL
USER_CHARGES


@<TRIPOS>ATOM
  1 BR       0.0740    -0.6760     0.5570 Br    1 <1>  -0.1110 
  2 C        1.9650    -0.3320     0.4240 C.ar  1 <1>   0.1110 
  3 C        2.8480    -1.3820     0.5930 C.ar  1 <1>  -0.1500 
  4 C        2.3940     0.9540     0.1610 C.ar  1 <1>  -0.1500 
  5 C        4.2050    -1.1270     0.4960 C.ar  1 <1>  -0.1500 
  6 C        3.7540     1.1920     0.0660 C.ar  1 <1>  -0.1500 
  7 C        4.6760     0.1580     0.2340 C.ar  1 <1>   0.1170 
  8 N        6.0600     0.3620     0.1270 N.am  1 <1>  -0.5470 
  9 C        6.8060     1.4810     0.3650 C.2   1 <1>   0.6900 
 10 O        6.3240     2.4460     0.9250 O.2   1 <1>  -0.5700 
 11 N        8.1280     1.5140    -0.0140 N.am  1 <1>  -0.6600 
 12 C        8.9700     2.6820     0.4050 C.3   1 <1>   0.1400 
 13 C        8.6730     0.7140    -1.1550 C.3   1 <1>   0.1400 
 14 C       10.4490     2.2970     0.5760 C.3   1 <1>   0.3430 
 15 C       10.1670     0.3770    -0.9590 C.3   1 <1>   0.3430 
 16 N       10.9930     1.5940    -0.6430 N.4   1 <1>  -0.9590 
 17 C       12.4470     1.2650    -0.5670 C.3   1 <1>   0.4230 
 18 C       12.8080     0.4350     0.6770 C.3   1 <1>  -0.1600 
 19 C       13.2800     2.5530    -0.6300 C.3   1 <1>  -0.1600 
 20 C       14.3080     0.1050     0.6890 C.3   1 <1>  -0.1600 
 21 C       14.7810     2.2290    -0.6200 C.3   1 <1>  -0.1600 
 22 C       15.1580     1.3790     0.6010 C.3   1 <1>  -0.1600 
 23 H        2.4770    -2.3700     0.7980 H     1 <1>   0.1500 
 24 H        1.6810     1.7490     0.0360 H     1 <1>   0.1500 
 25 H        4.8990    -1.9360     0.6300 H     1 <1>   0.1500 
 26 H        4.0980     2.1900    -0.1400 H     1 <1>   0.1500 
 27 H        6.6070    -0.4820     0.0180 H     1 <1>   0.3700 
 28 H        8.6130     3.0740     1.3440 H     1 <1>   0.0800 
 29 H        8.8760     3.4660    -0.3260 H     1 <1>   0.0800 
 30 H        8.5500     1.2780    -2.0640 H     1 <1>   0.0800 
 31 H        8.1240    -0.2030    -1.2700 H     1 <1>   0.0800 
 32 H       10.5320     1.6540     1.4360 H     1 <1>   0.0800 
 33 H       11.0190     3.1890     0.7750 H     1 <1>   0.0800 
 34 H       10.5390    -0.0950    -1.8540 H     1 <1>   0.0800 
 35 H       10.2500    -0.3340    -0.1540 H     1 <1>   0.0800 
 36 H       10.8840     2.2440    -1.4310 H     1 <1>   0.4500 
 37 H       12.7090     0.6780    -1.4340 H     1 <1>   0.0800 
 38 H       12.2590    -0.4880     0.6890 H     1 <1>   0.0800 
 39 H       12.5840     0.9820     1.5760 H     1 <1>   0.0800 
 40 H       13.0680     3.1820     0.2160 H     1 <1>   0.0800 
 41 H       13.0520     3.0950    -1.5310 H     1 <1>   0.0800 
 42 H       14.5460    -0.5390    -0.1420 H     1 <1>   0.0800 
 43 H       14.5550    -0.4270     1.5930 H     1 <1>   0.0800 
 44 H       15.3500     3.1440    -0.6060 H     1 <1>   0.0800 
 45 H       15.0470     1.6970    -1.5180 H     1 <1>   0.0800 
 46 H       16.2000     1.1120     0.5440 H     1 <1>   0.0800 
 47 H       15.0250     1.9620     1.4980 H     1 <1>   0.0800 
@<TRIPOS>BOND
  1   1   2  1   
  2   2   3  ar  
  3   2   4  ar  
  4   3   5  ar  
  5   3  23  1   
  6   4   6  ar  
  7   4  24  1   
  8   5   7  ar  
  9   5  25  1   
 10   6   7  ar  
 11   6  26  1   
 12   7   8  1   
 13   8   9  am  
 14   8  27  1   
 15   9  10  2   
 16   9  11  am  
 17  11  12  1   
 18  11  13  1   
 19  12  14  1   
 20  12  28  1   
 21  12  29  1   
 22  13  15  1   
 23  13  30  1   
 24  13  31  1   
 25  14  16  1   
 26  14  32  1   
 27  14  33  1   
 28  15  16  1   
 29  15  34  1   
 30  15  35  1   
 31  16  17  1   
 32  16  36  1   
 33  17  18  1   
 34  17  19  1   
 35  17  37  1   
 36  18  20  1   
 37  18  38  1   
 38  18  39  1   
 39  19  21  1   
 40  19  40  1   
 41  19  41  1   
 42  20  22  1   
 43  20  42  1   
 44  20  43  1   
 45  21  22  1   
 46  21  44  1   
 47  21  45  1   
 48  22  46  1   
 49  22  47  1   
@<TRIPOS>SUBSTRUCTURE
  1 ****  11 GROUP 4 **** **** 0

# MOE 2024.06 (io_trps.svl 2023.06)
