@<TRIPOS>MOLECULE
NONAME
37 38 1 0 0 
SMALL
USER_CHARGES


@<TRIPOS>ATOM
  1 CL      -0.8980    -2.0590    -0.6780 Cl    1 <1>  -0.1770 
  2 C       -2.3590    -1.1960    -0.2760 C.ar  1 <1>   0.1770 
  3 C       -3.3200    -0.9960    -1.2470 C.ar  1 <1>  -0.1500 
  4 C       -2.5360    -0.7220     1.0090 C.ar  1 <1>  -0.1500 
  5 C       -4.4770    -0.3080    -0.9200 C.ar  1 <1>  -0.1500 
  6 C       -3.6980    -0.0350     1.3230 C.ar  1 <1>  -0.1500 
  7 C       -4.6850     0.1850     0.3660 C.ar  1 <1>  -0.0090 
  8 S       -6.2070     1.0900     0.7670 S.o2  1 <1>   1.4470 
  9 O       -6.0880     1.7330     2.0590 O.2   1 <1>  -0.6500 
 10 O       -7.3410     0.2300     0.5260 O.2   1 <1>  -0.6500 
 11 N       -6.2180     2.3330    -0.3790 N.am  1 <1>  -0.8490 
 12 C       -7.4590     3.1280    -0.3450 C.3   1 <1>   0.3370 
 13 C       -5.1340     3.2900    -0.2230 C.3   1 <1>   0.1960 
 14 C       -8.7390     2.4560    -0.9210 C.2   1 <1>   0.5690 
 15 C       -7.0880     4.4190    -1.0880 C.3   1 <1>  -0.1600 
 16 C       -5.5630     4.5010    -1.0380 C.3   1 <1>  -0.1600 
 17 O       -8.7770     2.2330    -2.1130 O.2   1 <1>  -0.5700 
 18 N       -9.8270     2.1680    -0.1180 N.am  1 <1>  -0.6600 
 19 C      -11.0750     1.5990    -0.7010 C.3   1 <1>   0.0600 
 20 C       -9.8280     2.2090     1.3720 C.3   1 <1>   0.0600 
 21 H       -3.1650    -1.3750    -2.2420 H     1 <1>   0.1500 
 22 H       -1.7750    -0.8910     1.7510 H     1 <1>   0.1500 
 23 H       -5.2350    -0.1480    -1.6710 H     1 <1>   0.1500 
 24 H       -3.8400     0.3340     2.3260 H     1 <1>   0.1500 
 25 H       -7.6440     3.4090     0.6760 H     1 <1>   0.0800 
 26 H       -4.2020     2.8830    -0.5790 H     1 <1>   0.0800 
 27 H       -5.0290     3.5780     0.8110 H     1 <1>   0.0800 
 28 H       -7.5540     5.2670    -0.6190 H     1 <1>   0.0800 
 29 H       -7.4140     4.3740    -2.1130 H     1 <1>   0.0800 
 30 H       -5.1580     4.4250    -2.0320 H     1 <1>   0.0800 
 31 H       -5.2180     5.4140    -0.5860 H     1 <1>   0.0800 
 32 H      -11.1040     1.7470    -1.7670 H     1 <1>   0.0800 
 33 H      -11.9350     2.0780    -0.2670 H     1 <1>   0.0800 
 34 H      -11.1140     0.5420    -0.5000 H     1 <1>   0.0800 
 35 H       -8.8430     2.0370     1.7670 H     1 <1>   0.0800 
 36 H      -10.4700     1.4370     1.7600 H     1 <1>   0.0800 
 37 H      -10.1880     3.1650     1.7100 H     1 <1>   0.0800 
@<TRIPOS>BOND
  1   1   2  1   
  2   2   3  ar  
  3   2   4  ar  
  4   3   5  ar  
  5   3  21  1   
  6   4   6  ar  
  7   4  22  1   
  8   5   7  ar  
  9   5  23  1   
 10   6   7  ar  
 11   6  24  1   
 12   7   8  1   
 13   8   9  2   
 14   8  10  2   
 15   8  11  am  
 16  11  12  1   
 17  11  13  1   
 18  12  14  1   
 19  12  15  1   
 20  12  25  1   
 21  13  16  1   
 22  13  26  1   
 23  13  27  1   
 24  14  17  2   
 25  14  18  am  
 26  15  16  1   
 27  15  28  1   
 28  15  29  1   
 29  16  30  1   
 30  16  31  1   
 31  18  19  1   
 32  18  20  1   
 33  19  32  1   
 34  19  33  1   
 35  19  34  1   
 36  20  35  1   
 37  20  36  1   
 38  20  37  1   
@<TRIPOS>SUBSTRUCTURE
  1 ****   8 GROUP 4 **** **** 0

# MOE 2024.06 (io_trps.svl 2023.06)
