@<TRIPOS>MOLECULE
NONAME
38 39 1 0 0 
SMALL
USER_CHARGES


@<TRIPOS>ATOM
  1 S        5.5510     4.4760    -0.4590 S.3   1 <1>  -0.2860 
  2 C        3.7730     4.3800    -0.2370 C.2   1 <1>   0.2420 
  3 C        6.2290     2.8010    -0.1010 C.3   1 <1>   0.0700 
  4 N        3.0180     5.4080    -0.3880 N.2   1 <1>  -0.5650 
  5 N        3.1380     3.2320     0.0960 N.pl3 1 <1>   0.0330 
  6 C        7.7480     2.9040    -0.2700 C.3   1 <1>  -0.1600 
  7 C        1.7710     4.9190    -0.1360 C.ar  1 <1>   0.2270 
  8 C        1.8240     3.5680     0.1670 C.ar  1 <1>  -0.1520 
  9 C        8.4410     1.5730     0.0190 C.3   1 <1>   0.3430 
 10 C        0.5490     5.5850    -0.1520 C.ar  1 <1>  -0.1500 
 11 C        0.6670     2.8450     0.4620 C.ar  1 <1>  -0.1500 
 12 N        9.9050     1.6770    -0.2570 N.4   1 <1>  -0.9590 
 13 C       -0.6050     4.8790     0.1390 C.ar  1 <1>   0.0830 
 14 C       -0.5370     3.5120     0.4440 C.ar  1 <1>  -0.1500 
 15 C       10.5330     0.3190    -0.2970 C.3   1 <1>   0.2630 
 16 C       10.6180     2.5440     0.7370 C.3   1 <1>   0.2630 
 17 O       -1.8490     5.4300     0.1520 O.3   1 <1>  -0.3630 
 18 C       -2.0260     6.7990    -0.1420 C.3   1 <1>   0.0400 
 19 H        5.7860     2.1190    -0.8060 H     1 <1>   0.0800 
 20 H        5.9470     2.5520     0.9080 H     1 <1>   0.0800 
 21 H        3.5430     2.3120     0.2570 H     1 <1>   0.2700 
 22 H        8.1060     3.6630     0.4040 H     1 <1>   0.0800 
 23 H        7.9560     3.2090    -1.2810 H     1 <1>   0.0800 
 24 H        8.0110     0.8130    -0.6140 H     1 <1>   0.0800 
 25 H        8.2790     1.2870     1.0470 H     1 <1>   0.0800 
 26 H        0.5590     6.6290    -0.3920 H     1 <1>   0.1500 
 27 H        0.7170     1.7960     0.6960 H     1 <1>   0.1500 
 28 H       10.0180     2.1050    -1.1910 H     1 <1>   0.4500 
 29 H       -1.4540     2.9960     0.6650 H     1 <1>   0.1500 
 30 H       10.4400    -0.1670     0.6610 H     1 <1>   0.0800 
 31 H       11.5810     0.3980    -0.5410 H     1 <1>   0.0800 
 32 H       10.0550    -0.2950    -1.0440 H     1 <1>   0.0800 
 33 H       10.4980     2.1500     1.7330 H     1 <1>   0.0800 
 34 H       10.2260     3.5480     0.7130 H     1 <1>   0.0800 
 35 H       11.6710     2.5860     0.5080 H     1 <1>   0.0800 
 36 H       -3.0750     7.0220    -0.0750 H     1 <1>   0.0800 
 37 H       -1.6740     6.9900    -1.1400 H     1 <1>   0.0800 
 38 H       -1.4810     7.3840     0.5780 H     1 <1>   0.0800 
@<TRIPOS>BOND
  1   1   2  1   
  2   1   3  1   
  3   2   4  2   
  4   2   5  1   
  5   3   6  1   
  6   3  19  1   
  7   3  20  1   
  8   4   7  1   
  9   5   8  1   
 10   5  21  1   
 11   6   9  1   
 12   6  22  1   
 13   6  23  1   
 14   7   8  ar  
 15   7  10  ar  
 16   8  11  ar  
 17   9  12  1   
 18   9  24  1   
 19   9  25  1   
 20  10  13  ar  
 21  10  26  1   
 22  11  14  ar  
 23  11  27  1   
 24  12  15  1   
 25  12  16  1   
 26  12  28  1   
 27  13  14  ar  
 28  13  17  1   
 29  14  29  1   
 30  15  30  1   
 31  15  31  1   
 32  15  32  1   
 33  16  33  1   
 34  16  34  1   
 35  16  35  1   
 36  17  18  1   
 37  18  36  1   
 38  18  37  1   
 39  18  38  1   
@<TRIPOS>SUBSTRUCTURE
  1 ****   2 GROUP 4 **** **** 0

# MOE 2024.06 (io_trps.svl 2023.06)
