@<TRIPOS>MOLECULE
NONAME
43 44 1 0 0 
SMALL
USER_CHARGES


@<TRIPOS>ATOM
  1 O       -2.8940     0.9430     1.4940 O.co2 1 <1>  -0.9000 
  2 C       -2.8840     2.1760     1.4500 C.2   1 <1>   0.9060 
  3 O       -3.7500     2.8540     2.0200 O.co2 1 <1>  -0.9000 
  4 C       -1.8090     2.9240     0.6680 C.3   1 <1>  -0.1860 
  5 C       -2.3780     3.8620    -0.4450 C.3   1 <1>  -0.0190 
  6 C       -0.6780     2.0360     0.1110 C.3   1 <1>  -0.1600 
  7 C       -3.6190     3.3350    -1.1990 C.2   1 <1>   0.5690 
  8 C       -1.2600     4.3390    -1.4180 C.3   1 <1>  -0.1600 
  9 C        0.5190     2.8800    -0.3730 C.3   1 <1>  -0.1600 
 10 O       -3.5710     3.0970    -2.3870 O.2   1 <1>  -0.5700 
 11 N       -4.7780     3.1930    -0.5130 N.am  1 <1>  -0.7300 
 12 C        0.1330     4.3150    -0.7780 C.3   1 <1>  -0.1600 
 13 C       -5.9970     2.5370    -1.0190 C.3   1 <1>   0.1400 
 14 C       -7.2470     3.1190    -0.3420 C.3   1 <1>  -0.0800 
 15 C       -7.2410     2.8750     1.1810 C.3   1 <1>  -0.1600 
 16 C       -8.5140     2.5150    -0.9760 C.3   1 <1>  -0.1600 
 17 C       -8.5220     3.3950     1.8470 C.3   1 <1>  -0.1600 
 18 C       -9.7910     3.0480    -0.3120 C.3   1 <1>  -0.1600 
 19 C       -9.7740     2.7900     1.2000 C.3   1 <1>  -0.1600 
 20 H       -1.3580     3.5540     1.4110 H     1 <1>   0.0800 
 21 H       -2.7270     4.7360     0.0750 H     1 <1>   0.0800 
 22 H       -1.0750     1.4560    -0.7050 H     1 <1>   0.0800 
 23 H       -0.3500     1.3430     0.8670 H     1 <1>   0.0800 
 24 H       -1.4940     5.3270    -1.7710 H     1 <1>   0.0800 
 25 H       -1.2200     3.6920    -2.2770 H     1 <1>   0.0800 
 26 H        0.9690     2.3770    -1.2120 H     1 <1>   0.0800 
 27 H        1.2570     2.9310     0.4090 H     1 <1>   0.0800 
 28 H       -4.6820     3.1690     0.5250 H     1 <1>   0.3700 
 29 H        0.1290     4.9480     0.0930 H     1 <1>   0.0800 
 30 H        0.8630     4.7050    -1.4660 H     1 <1>   0.0800 
 31 H       -5.9260     1.4820    -0.8180 H     1 <1>   0.0800 
 32 H       -6.0560     2.6770    -2.0850 H     1 <1>   0.0800 
 33 H       -7.2550     4.1810    -0.5220 H     1 <1>   0.0800 
 34 H       -6.3940     3.3650     1.6310 H     1 <1>   0.0800 
 35 H       -7.1380     1.8210     1.3760 H     1 <1>   0.0800 
 36 H       -8.4850     1.4440    -0.8750 H     1 <1>   0.0800 
 37 H       -8.5370     2.7480    -2.0260 H     1 <1>   0.0800 
 38 H       -8.5550     4.4670     1.7570 H     1 <1>   0.0800 
 39 H       -8.5010     3.1520     2.8950 H     1 <1>   0.0800 
 40 H      -10.6500     2.5710    -0.7490 H     1 <1>   0.0800 
 41 H       -9.8700     4.1060    -0.4920 H     1 <1>   0.0800 
 42 H      -10.6540     3.2150     1.6500 H     1 <1>   0.0800 
 43 H       -9.7870     1.7290     1.3810 H     1 <1>   0.0800 
@<TRIPOS>BOND
  1   1   2  ar  
  2   2   3  ar  
  3   2   4  1   
  4   4   5  1   
  5   4   6  1   
  6   4  20  1   
  7   5   7  1   
  8   5   8  1   
  9   5  21  1   
 10   6   9  1   
 11   6  22  1   
 12   6  23  1   
 13   7  10  2   
 14   7  11  am  
 15   8  12  1   
 16   8  24  1   
 17   8  25  1   
 18   9  12  1   
 19   9  26  1   
 20   9  27  1   
 21  11  13  1   
 22  11  28  1   
 23  12  29  1   
 24  12  30  1   
 25  13  14  1   
 26  13  31  1   
 27  13  32  1   
 28  14  15  1   
 29  14  16  1   
 30  14  33  1   
 31  15  17  1   
 32  15  34  1   
 33  15  35  1   
 34  16  18  1   
 35  16  36  1   
 36  16  37  1   
 37  17  19  1   
 38  17  38  1   
 39  17  39  1   
 40  18  19  1   
 41  18  40  1   
 42  18  41  1   
 43  19  42  1   
 44  19  43  1   
@<TRIPOS>SUBSTRUCTURE
  1 ****  11 GROUP 4 **** **** 0

# MOE 2024.06 (io_trps.svl 2023.06)
