@<TRIPOS>MOLECULE
NONAME
48 50 1 0 0 
SMALL
USER_CHARGES


@<TRIPOS>ATOM
  1 S        0.2790     0.2270     1.0730 S.o2  1 <1>   1.4470 
  2 O        0.7730    -1.1230     0.9100 O.2   1 <1>  -0.6500 
  3 O        0.2070     0.8410     2.3780 O.2   1 <1>  -0.6500 
  4 N        1.2770     1.2400     0.0700 N.am  1 <1>  -0.6930 
  5 C       -1.3310     0.3620     0.2490 C.ar  1 <1>  -0.0090 
  6 C        1.3650     2.6080     0.3120 C.ar  1 <1>   0.1990 
  7 C        2.2710     0.5550    -0.7910 C.3   1 <1>   0.1160 
  8 C       -2.3540     1.1360     0.7870 C.ar  1 <1>  -0.1500 
  9 C       -1.5760    -0.2840    -0.9570 C.ar  1 <1>  -0.1500 
 10 C        2.4970     3.2170     0.8840 C.ar  1 <1>   0.0860 
 11 C        0.2720     3.4040    -0.0240 C.ar  1 <1>  -0.1500 
 12 C       -3.5730     1.2640     0.1450 C.ar  1 <1>  -0.1500 
 13 C       -2.7930    -0.1590    -1.6050 C.ar  1 <1>  -0.1500 
 14 C        3.6950     2.4770     1.1970 C.2   1 <1>   0.5440 
 15 C        2.4630     4.5900     1.1370 C.ar  1 <1>  -0.1500 
 16 C        0.2650     4.7620     0.2200 C.ar  1 <1>  -0.1500 
 17 C       -3.7990     0.6180    -1.0580 C.ar  1 <1>  -0.1430 
 18 O        3.7670     1.8510     2.2370 O.2   1 <1>  -0.5700 
 19 N        4.7840     2.4800     0.3460 N.am  1 <1>  -0.6600 
 20 C        1.3640     5.3580     0.8110 C.ar  1 <1>  -0.1500 
 21 C       -5.1350     0.7540    -1.7660 C.3   1 <1>  -0.0970 
 22 C        4.8750     3.2710    -0.9180 C.3   1 <1>   0.1400 
 23 C        6.0450     1.7410     0.6650 C.3   1 <1>   0.1400 
 24 C        6.1560     4.1210    -0.9300 C.3   1 <1>   0.1200 
 25 C        7.2610     2.6750     0.5520 C.3   1 <1>   0.1200 
 26 O        7.2780     3.3210    -0.6910 O.3   1 <1>  -0.5600 
 27 H        1.7810    -0.1810    -1.4040 H     1 <1>   0.0800 
 28 H        3.0040     0.0610    -0.1730 H     1 <1>   0.0800 
 29 H        2.7660     1.2650    -1.4280 H     1 <1>   0.0800 
 30 H       -2.1930     1.6460     1.7230 H     1 <1>   0.1500 
 31 H       -0.8050    -0.8950    -1.3930 H     1 <1>   0.1500 
 32 H       -0.5850     2.9500    -0.4870 H     1 <1>   0.1500 
 33 H       -4.3460     1.8680     0.5890 H     1 <1>   0.1500 
 34 H       -2.9540    -0.6740    -2.5370 H     1 <1>   0.1500 
 35 H        3.3180     5.0510     1.6000 H     1 <1>   0.1500 
 36 H       -0.5940     5.3560    -0.0420 H     1 <1>   0.1500 
 37 H        1.3580     6.4160     1.0160 H     1 <1>   0.1500 
 38 H       -5.0020     0.7070    -2.8320 H     1 <1>   0.0800 
 39 H       -5.5970     1.6940    -1.5230 H     1 <1>   0.0800 
 40 H       -5.7890    -0.0430    -1.4620 H     1 <1>   0.0800 
 41 H        4.0220     3.9140    -1.0370 H     1 <1>   0.0800 
 42 H        4.8990     2.5950    -1.7550 H     1 <1>   0.0800 
 43 H        6.1600     0.9240    -0.0240 H     1 <1>   0.0800 
 44 H        6.0080     1.3300     1.6590 H     1 <1>   0.0800 
 45 H        6.1110     4.8870    -0.1760 H     1 <1>   0.0800 
 46 H        6.2850     4.5860    -1.8910 H     1 <1>   0.0800 
 47 H        8.1710     2.1090     0.6430 H     1 <1>   0.0800 
 48 H        7.2370     3.4190     1.3300 H     1 <1>   0.0800 
@<TRIPOS>BOND
  1   1   2  2   
  2   1   3  2   
  3   1   4  am  
  4   1   5  1   
  5   4   6  1   
  6   4   7  1   
  7   5   8  ar  
  8   5   9  ar  
  9   6  10  ar  
 10   6  11  ar  
 11   7  27  1   
 12   7  28  1   
 13   7  29  1   
 14   8  12  ar  
 15   8  30  1   
 16   9  13  ar  
 17   9  31  1   
 18  10  14  1   
 19  10  15  ar  
 20  11  16  ar  
 21  11  32  1   
 22  12  17  ar  
 23  12  33  1   
 24  13  17  ar  
 25  13  34  1   
 26  14  18  2   
 27  14  19  am  
 28  15  20  ar  
 29  15  35  1   
 30  16  20  ar  
 31  16  36  1   
 32  17  21  1   
 33  19  22  1   
 34  19  23  1   
 35  20  37  1   
 36  21  38  1   
 37  21  39  1   
 38  21  40  1   
 39  22  24  1   
 40  22  41  1   
 41  22  42  1   
 42  23  25  1   
 43  23  43  1   
 44  23  44  1   
 45  24  26  1   
 46  24  45  1   
 47  24  46  1   
 48  25  26  1   
 49  25  47  1   
 50  25  48  1   
@<TRIPOS>SUBSTRUCTURE
  1 ****   6 GROUP 4 **** **** 0

# MOE 2024.06 (io_trps.svl 2023.06)
