@<TRIPOS>MOLECULE
NONAME
44 46 1 0 0 
SMALL
USER_CHARGES


@<TRIPOS>ATOM
  1 S       -1.3590    -0.3220    -1.7590 S.3   1 <1>  -0.2860 
  2 C       -1.4850     1.1350    -0.7280 C.2   1 <1>   0.5340 
  3 C       -3.1160    -0.7520    -2.1950 C.3   1 <1>   0.1310 
  4 O       -2.6300     1.6850    -0.5510 O.3   1 <1>  -0.2800 
  5 N       -0.5270     1.7130    -0.1160 N.2   1 <1>  -0.3380 
  6 C       -4.0020    -0.8990    -0.9630 C.2   1 <1>   0.5690 
  7 C       -2.3710     2.6790     0.2500 C.2   1 <1>   0.4250 
  8 N       -1.1050     2.7290     0.5270 N.2   1 <1>  -0.3380 
  9 O       -4.9760    -0.1940    -0.8740 O.2   1 <1>  -0.5700 
 10 N       -3.7510    -1.7960     0.0210 N.am  1 <1>  -0.7300 
 11 C       -3.4300     3.5480     0.7140 C.ar  1 <1>   0.0530 
 12 C       -2.6820    -2.8090     0.1250 C.3   1 <1>   0.2200 
 13 C       -3.1470     4.7110     1.4320 C.ar  1 <1>  -0.1500 
 14 C       -4.7750     3.2600     0.4660 C.ar  1 <1>  -0.1500 
 15 C       -3.2960    -4.2140     0.2970 C.3   1 <1>  -0.0800 
 16 C       -1.7880    -2.4380     1.3140 C.3   1 <1>  -0.1600 
 17 C       -4.1530     5.5480     1.8790 C.ar  1 <1>  -0.1500 
 18 C       -5.7850     4.0930     0.9100 C.ar  1 <1>  -0.1500 
 19 C       -2.1870    -5.2590     0.5170 C.3   1 <1>  -0.1600 
 20 C       -4.1550    -4.6230    -0.9120 C.3   1 <1>  -0.2400 
 21 C       -0.6860    -3.4840     1.5280 C.3   1 <1>  -0.1600 
 22 C       -5.4760     5.2400     1.6180 C.ar  1 <1>  -0.1500 
 23 C       -1.2840    -4.8850     1.7010 C.3   1 <1>  -0.1600 
 24 H       -3.0900    -1.6720    -2.7480 H     1 <1>   0.0800 
 25 H       -3.4840     0.0390    -2.8220 H     1 <1>   0.0800 
 26 H       -4.4140    -1.7930     0.7970 H     1 <1>   0.3700 
 27 H       -2.0850    -2.8100    -0.7690 H     1 <1>   0.0800 
 28 H       -2.1210     4.9620     1.6430 H     1 <1>   0.1500 
 29 H       -5.0390     2.3690    -0.0790 H     1 <1>   0.1500 
 30 H       -3.9210    -4.2070     1.1740 H     1 <1>   0.0800 
 31 H       -2.3850    -2.3700     2.2070 H     1 <1>   0.0800 
 32 H       -1.3330    -1.4790     1.1370 H     1 <1>   0.0800 
 33 H       -3.9070     6.4390     2.4300 H     1 <1>   0.1500 
 34 H       -6.8130     3.8470     0.7060 H     1 <1>   0.1500 
 35 H       -1.5840    -5.3400    -0.3720 H     1 <1>   0.0800 
 36 H       -2.6280    -6.2230     0.7030 H     1 <1>   0.0800 
 37 H       -3.5680    -4.6200    -1.8130 H     1 <1>   0.0800 
 38 H       -4.9820    -3.9470    -1.0370 H     1 <1>   0.0800 
 39 H       -4.5550    -5.6110    -0.7670 H     1 <1>   0.0800 
 40 H       -0.1090    -3.2260     2.3990 H     1 <1>   0.0800 
 41 H       -0.0210    -3.4810     0.6810 H     1 <1>   0.0800 
 42 H       -6.2610     5.8900     1.9650 H     1 <1>   0.1500 
 43 H       -0.4900    -5.6070     1.7900 H     1 <1>   0.0800 
 44 H       -1.8590    -4.9170     2.6120 H     1 <1>   0.0800 
@<TRIPOS>BOND
  1   1   2  1   
  2   1   3  1   
  3   2   4  1   
  4   2   5  2   
  5   3   6  1   
  6   3  24  1   
  7   3  25  1   
  8   4   7  1   
  9   5   8  1   
 10   6   9  2   
 11   6  10  am  
 12   7   8  2   
 13   7  11  1   
 14  10  12  1   
 15  10  26  1   
 16  11  13  ar  
 17  11  14  ar  
 18  12  15  1   
 19  12  16  1   
 20  12  27  1   
 21  13  17  ar  
 22  13  28  1   
 23  14  18  ar  
 24  14  29  1   
 25  15  19  1   
 26  15  20  1   
 27  15  30  1   
 28  16  21  1   
 29  16  31  1   
 30  16  32  1   
 31  17  22  ar  
 32  17  33  1   
 33  18  22  ar  
 34  18  34  1   
 35  19  23  1   
 36  19  35  1   
 37  19  36  1   
 38  20  37  1   
 39  20  38  1   
 40  20  39  1   
 41  21  23  1   
 42  21  40  1   
 43  21  41  1   
 44  22  42  1   
 45  23  43  1   
 46  23  44  1   
@<TRIPOS>SUBSTRUCTURE
  1 ****   4 GROUP 4 **** **** 0

# MOE 2024.06 (io_trps.svl 2023.06)
