@<TRIPOS>MOLECULE
NONAME
42 44 1 0 0 
SMALL
USER_CHARGES


@<TRIPOS>ATOM
  1 F       -2.7980    -0.6340    -1.4060 F     1 <1>  -0.3400 
  2 C       -3.3580     0.4890    -1.8340 C.3   1 <1>   1.1640 
  3 F       -2.5390     1.0010    -2.7440 F     1 <1>  -0.3400 
  4 F       -4.4620     0.1330    -2.4810 F     1 <1>  -0.3400 
  5 C       -3.6680     1.4520    -0.6740 C.ar  1 <1>  -0.1440 
  6 C       -4.7400     1.1960     0.1770 C.ar  1 <1>  -0.1500 
  7 C       -2.8940     2.5850    -0.4430 C.ar  1 <1>  -0.1500 
  8 C       -5.0440     2.0530     1.2260 C.ar  1 <1>  -0.1440 
  9 C       -3.1860     3.4370     0.6060 C.ar  1 <1>  -0.1500 
 10 C       -4.2570     3.1740     1.4390 C.ar  1 <1>  -0.1500 
 11 C       -6.2300     1.7740     2.1310 C.3   1 <1>   0.4870 
 12 N       -7.4800     2.0300     1.3680 N.4   1 <1>  -0.9590 
 13 C       -7.5940     3.4710     0.9330 C.3   1 <1>   0.3430 
 14 C       -8.7110     1.6130     2.1270 C.3   1 <1>   0.3430 
 15 C       -8.8660     3.7270     0.1010 C.3   1 <1>   0.2090 
 16 C      -10.0010     1.8400     1.3130 C.3   1 <1>   0.2090 
 17 N      -10.0990     3.2390     0.7940 N.pl3 1 <1>  -0.8380 
 18 C      -11.2550     3.4780     0.0830 C.ar  1 <1>   0.4100 
 19 N      -11.3800     2.8180    -1.0610 N.ar  1 <1>  -0.6200 
 20 C      -12.2050     4.3670     0.5740 C.ar  1 <1>  -0.1500 
 21 C      -12.4930     3.0570    -1.7370 C.ar  1 <1>   0.1600 
 22 C      -13.3560     4.6030    -0.1390 C.ar  1 <1>  -0.1500 
 23 C      -13.4940     3.9210    -1.3320 C.ar  1 <1>  -0.1500 
 24 H       -5.3350     0.3120     0.0120 H     1 <1>   0.1500 
 25 H       -2.0520     2.8140    -1.0780 H     1 <1>   0.1500 
 26 H       -2.5710     4.3070     0.7730 H     1 <1>   0.1500 
 27 H       -4.4590     3.8520     2.2520 H     1 <1>   0.1500 
 28 H       -6.1880     2.4080     3.0020 H     1 <1>   0.0800 
 29 H       -6.1960     0.7460     2.4550 H     1 <1>   0.0800 
 30 H       -7.4350     1.4730     0.5060 H     1 <1>   0.4500 
 31 H       -6.7350     3.7480     0.3450 H     1 <1>   0.0800 
 32 H       -7.6230     4.1100     1.7990 H     1 <1>   0.0800 
 33 H       -8.7860     2.1840     3.0380 H     1 <1>   0.0800 
 34 H       -8.6460     0.5710     2.3920 H     1 <1>   0.0800 
 35 H       -8.7720     3.2410    -0.8550 H     1 <1>   0.0800 
 36 H       -8.9630     4.7840    -0.0820 H     1 <1>   0.0800 
 37 H      -10.8550     1.6380     1.9370 H     1 <1>   0.0800 
 38 H      -10.0310     1.1470     0.4880 H     1 <1>   0.0800 
 39 H      -12.0240     4.8590     1.5100 H     1 <1>   0.1500 
 40 H      -12.6150     2.5320    -2.6700 H     1 <1>   0.1500 
 41 H      -14.1120     5.2840     0.2110 H     1 <1>   0.1500 
 42 H      -14.3700     4.0590    -1.9400 H     1 <1>   0.1500 
@<TRIPOS>BOND
  1   1   2  1   
  2   2   3  1   
  3   2   4  1   
  4   2   5  1   
  5   5   6  ar  
  6   5   7  ar  
  7   6   8  ar  
  8   6  24  1   
  9   7   9  ar  
 10   7  25  1   
 11   8  10  ar  
 12   8  11  1   
 13   9  10  ar  
 14   9  26  1   
 15  10  27  1   
 16  11  12  1   
 17  11  28  1   
 18  11  29  1   
 19  12  13  1   
 20  12  14  1   
 21  12  30  1   
 22  13  15  1   
 23  13  31  1   
 24  13  32  1   
 25  14  16  1   
 26  14  33  1   
 27  14  34  1   
 28  15  17  1   
 29  15  35  1   
 30  15  36  1   
 31  16  17  1   
 32  16  37  1   
 33  16  38  1   
 34  17  18  1   
 35  18  19  ar  
 36  18  20  ar  
 37  19  21  ar  
 38  20  22  ar  
 39  20  39  1   
 40  21  23  ar  
 41  21  40  1   
 42  22  23  ar  
 43  22  41  1   
 44  23  42  1   
@<TRIPOS>SUBSTRUCTURE
  1 ****  12 GROUP 4 **** **** 0

# MOE 2024.06 (io_trps.svl 2023.06)
