@<TRIPOS>MOLECULE
NONAME
36 37 1 0 0 
SMALL
USER_CHARGES


@<TRIPOS>ATOM
  1 S       -1.6430     1.7790    -0.7140 S.3   1 <1>  -0.3320 
  2 C        0.0760     2.3270    -0.6610 C.ar  1 <1>   0.1020 
  3 C       -1.8820     0.4460     0.5650 C.3   1 <1>   0.1500 
  4 C        0.3820     3.4520    -1.4060 C.ar  1 <1>  -0.1500 
  5 C        1.0580     1.6740     0.0690 C.ar  1 <1>  -0.1500 
  6 C       -1.7140    -0.9540    -0.0690 C.3   1 <1>   0.2200 
  7 C       -3.2820     0.6350     1.1730 C.3   1 <1>  -0.1600 
  8 C        1.6790     3.9340    -1.4220 C.ar  1 <1>  -0.1500 
  9 C        2.3550     2.1600     0.0480 C.ar  1 <1>  -0.1500 
 10 N       -0.4280    -1.0630    -0.7870 N.am  1 <1>  -0.7300 
 11 C       -2.8490    -1.2920    -1.0460 C.3   1 <1>  -0.1600 
 12 C       -4.4110     0.2670     0.1960 C.3   1 <1>  -0.1600 
 13 C        2.6640     3.2880    -0.6940 C.ar  1 <1>  -0.1500 
 14 C        0.5180    -2.0230    -0.7140 C.2   1 <1>   0.5690 
 15 C       -4.2230    -1.1440    -0.3770 C.3   1 <1>  -0.1600 
 16 O        1.5650    -1.8880    -1.2900 O.2   1 <1>  -0.5700 
 17 C        0.2870    -3.2750     0.0950 C.3   1 <1>  -0.1790 
 18 H       -1.1480     0.6060     1.3310 H     1 <1>   0.0800 
 19 H       -0.3910     3.9440    -1.9680 H     1 <1>   0.1500 
 20 H        0.8480     0.7960     0.6440 H     1 <1>   0.1500 
 21 H       -1.7370    -1.6750     0.7290 H     1 <1>   0.0800 
 22 H       -3.3980     1.6550     1.4950 H     1 <1>   0.0800 
 23 H       -3.3640     0.0100     2.0450 H     1 <1>   0.0800 
 24 H        1.9210     4.8090    -1.9990 H     1 <1>   0.1500 
 25 H        3.1250     1.6560     0.6050 H     1 <1>   0.1500 
 26 H       -0.2050    -0.2570    -1.3810 H     1 <1>   0.3700 
 27 H       -2.7320    -2.3020    -1.3950 H     1 <1>   0.0800 
 28 H       -2.8000    -0.6350    -1.8970 H     1 <1>   0.0800 
 29 H       -4.4340     0.9780    -0.6130 H     1 <1>   0.0800 
 30 H       -5.3590     0.3260     0.7040 H     1 <1>   0.0800 
 31 H        3.6740     3.6600    -0.7080 H     1 <1>   0.1500 
 32 H       -4.3200    -1.8690     0.4130 H     1 <1>   0.0800 
 33 H       -4.9960    -1.3410    -1.1010 H     1 <1>   0.0800 
 34 H       -0.6390    -3.7340    -0.1970 H     1 <1>   0.0800 
 35 H        0.2610    -3.0330     1.1400 H     1 <1>   0.0800 
 36 H        1.0870    -3.9700    -0.0810 H     1 <1>   0.0800 
@<TRIPOS>BOND
  1   1   2  1   
  2   1   3  1   
  3   2   4  ar  
  4   2   5  ar  
  5   3   6  1   
  6   3   7  1   
  7   3  18  1   
  8   4   8  ar  
  9   4  19  1   
 10   5   9  ar  
 11   5  20  1   
 12   6  10  1   
 13   6  11  1   
 14   6  21  1   
 15   7  12  1   
 16   7  22  1   
 17   7  23  1   
 18   8  13  ar  
 19   8  24  1   
 20   9  13  ar  
 21   9  25  1   
 22  10  14  am  
 23  10  26  1   
 24  11  15  1   
 25  11  27  1   
 26  11  28  1   
 27  12  15  1   
 28  12  29  1   
 29  12  30  1   
 30  13  31  1   
 31  14  16  2   
 32  14  17  1   
 33  15  32  1   
 34  15  33  1   
 35  17  34  1   
 36  17  35  1   
 37  17  36  1   
@<TRIPOS>SUBSTRUCTURE
  1 ****  10 GROUP 4 **** **** 0

# MOE 2024.06 (io_trps.svl 2023.06)
