@<TRIPOS>MOLECULE
NONAME
43 44 1 0 0 
SMALL
USER_CHARGES


@<TRIPOS>ATOM
  1 O      -12.7510     5.7030    -0.7860 O.3   1 <1>  -0.5600 
  2 C      -11.8930     6.4850     0.0010 C.3   1 <1>   0.2000 
  3 C      -13.1370     4.4480    -0.2860 C.3   1 <1>   0.2000 
  4 C      -10.5600     5.7350     0.2660 C.3   1 <1>   0.3430 
  5 C      -12.6190     6.9160     1.2820 C.3   1 <1>  -0.2400 
  6 C      -11.9590     3.7220     0.4160 C.3   1 <1>   0.3430 
  7 C      -13.6530     3.6570    -1.4870 C.3   1 <1>  -0.2400 
  8 N      -10.6410     4.2620    -0.0510 N.4   1 <1>  -0.9590 
  9 C       -9.4870     3.4660     0.4480 C.3   1 <1>   0.3430 
 10 C       -8.2070     3.8630    -0.2860 C.3   1 <1>  -0.1600 
 11 C       -7.0560     2.9660     0.1600 C.3   1 <1>   0.1200 
 12 O       -5.8950     3.3760    -0.5220 O.3   1 <1>  -0.3630 
 13 C       -4.6550     2.8190    -0.4080 C.ar  1 <1>   0.0820 
 14 C       -4.2780     1.7430     0.4190 C.ar  1 <1>   0.0730 
 15 C       -3.7010     3.4200    -1.2170 C.ar  1 <1>  -0.1500 
 16 C       -5.1680     1.0430     1.2970 C.1   1 <1>   0.4840 
 17 C       -2.9510     1.3210     0.3900 C.ar  1 <1>  -0.1500 
 18 C       -2.3900     2.9850    -1.2290 C.ar  1 <1>  -0.1500 
 19 N       -5.9290     0.5290     1.9740 N.1   1 <1>  -0.5570 
 20 C       -2.0130     1.9300    -0.4220 C.ar  1 <1>  -0.1500 
 21 H      -11.6770     7.3720    -0.5700 H     1 <1>   0.0800 
 22 H      -13.9450     4.5950     0.4110 H     1 <1>   0.0800 
 23 H      -10.2870     5.8750     1.2990 H     1 <1>   0.0800 
 24 H       -9.7870     6.1890    -0.3320 H     1 <1>   0.0800 
 25 H      -12.8000     6.0890     1.9430 H     1 <1>   0.0800 
 26 H      -13.5560     7.3820     1.0290 H     1 <1>   0.0800 
 27 H      -12.0240     7.6400     1.8110 H     1 <1>   0.0800 
 28 H      -12.0280     2.6650     0.2180 H     1 <1>   0.0800 
 29 H      -12.0500     3.8610     1.4800 H     1 <1>   0.0800 
 30 H      -12.8780     3.5230    -2.2200 H     1 <1>   0.0800 
 31 H      -14.4750     4.1840    -1.9410 H     1 <1>   0.0800 
 32 H      -14.0070     2.6910    -1.1760 H     1 <1>   0.0800 
 33 H      -10.6790     4.2040    -1.0810 H     1 <1>   0.4500 
 34 H       -9.6740     2.4170     0.2780 H     1 <1>   0.0800 
 35 H       -9.3650     3.6170     1.5080 H     1 <1>   0.0800 
 36 H       -7.9470     4.8820    -0.0630 H     1 <1>   0.0800 
 37 H       -8.3420     3.7450    -1.3470 H     1 <1>   0.0800 
 38 H       -7.2540     1.9390    -0.0940 H     1 <1>   0.0800 
 39 H       -6.8810     3.0720     1.2180 H     1 <1>   0.0800 
 40 H       -3.9920     4.2420    -1.8470 H     1 <1>   0.1500 
 41 H       -2.6400     0.4990     1.0150 H     1 <1>   0.1500 
 42 H       -1.6660     3.4660    -1.8650 H     1 <1>   0.1500 
 43 H       -0.9920     1.5860    -0.4270 H     1 <1>   0.1500 
@<TRIPOS>BOND
  1   1   2  1   
  2   1   3  1   
  3   2   4  1   
  4   2   5  1   
  5   2  21  1   
  6   3   6  1   
  7   3   7  1   
  8   3  22  1   
  9   4   8  1   
 10   4  23  1   
 11   4  24  1   
 12   5  25  1   
 13   5  26  1   
 14   5  27  1   
 15   6   8  1   
 16   6  28  1   
 17   6  29  1   
 18   7  30  1   
 19   7  31  1   
 20   7  32  1   
 21   8   9  1   
 22   8  33  1   
 23   9  10  1   
 24   9  34  1   
 25   9  35  1   
 26  10  11  1   
 27  10  36  1   
 28  10  37  1   
 29  11  12  1   
 30  11  38  1   
 31  11  39  1   
 32  12  13  1   
 33  13  14  ar  
 34  13  15  ar  
 35  14  16  1   
 36  14  17  ar  
 37  15  18  ar  
 38  15  40  1   
 39  16  19  3   
 40  17  20  ar  
 41  17  41  1   
 42  18  20  ar  
 43  18  42  1   
 44  20  43  1   
@<TRIPOS>SUBSTRUCTURE
  1 ****  10 GROUP 4 **** **** 0

# MOE 2024.06 (io_trps.svl 2023.06)
