@<TRIPOS>MOLECULE
NONAME
51 53 1 0 0 
SMALL
USER_CHARGES


@<TRIPOS>ATOM
  1 CL      -0.5970    -0.6370     0.2590 Cl    1 <1>  -0.1770 
  2 C        0.4560    -1.8810    -0.3730 C.ar  1 <1>   0.1770 
  3 C       -0.0780    -2.9420    -1.1060 C.ar  1 <1>   0.0860 
  4 C        1.8070    -1.7730    -0.1120 C.ar  1 <1>  -0.1500 
  5 C       -1.4930    -3.0710    -1.3560 C.2   1 <1>   0.5440 
  6 C        0.8220    -3.8900    -1.5920 C.ar  1 <1>  -0.1500 
  7 C        2.6880    -2.7360    -0.5870 C.ar  1 <1>   0.1170 
  8 O       -1.9010    -2.9330    -2.4950 O.2   1 <1>  -0.5700 
  9 N       -2.3910    -3.3810    -0.3520 N.am  1 <1>  -0.6600 
 10 C        2.1760    -3.7900    -1.3350 C.ar  1 <1>  -0.1500 
 11 N        4.0570    -2.7060    -0.3440 N.am  1 <1>  -0.5470 
 12 C       -3.8620    -3.3940    -0.5890 C.3   1 <1>   0.1400 
 13 C       -1.9940    -3.7140     1.0450 C.3   1 <1>   0.1400 
 14 C        4.9290    -1.6750    -0.1440 C.2   1 <1>   0.5690 
 15 C       -4.4340    -4.7670    -0.2200 C.3   1 <1>  -0.1600 
 16 C       -2.5520    -5.0890     1.4280 C.3   1 <1>  -0.1600 
 17 O        4.5640    -0.5260    -0.0470 O.2   1 <1>  -0.5700 
 18 C        6.4260    -1.9760     0.0260 C.3   1 <1>  -0.0190 
 19 C       -4.0710    -5.1640     1.2190 C.3   1 <1>  -0.1600 
 20 C        7.1500    -2.6880    -1.1630 C.3   1 <1>  -0.1860 
 21 C        6.7120    -2.7050     1.3520 C.3   1 <1>  -0.1600 
 22 C        6.3230    -3.7510    -1.8770 C.2   1 <1>   0.9060 
 23 C        8.5170    -3.2910    -0.7470 C.3   1 <1>  -0.1600 
 24 C        8.2150    -2.7030     1.6990 C.3   1 <1>  -0.1600 
 25 O        5.7590    -4.6270    -1.2060 O.co2 1 <1>  -0.9000 
 26 O        6.1950    -3.6900    -3.0990 O.co2 1 <1>  -0.9000 
 27 C        9.1300    -2.5810     0.4660 C.3   1 <1>  -0.1600 
 28 H        2.1760    -0.9430     0.4600 H     1 <1>   0.1500 
 29 H        0.4490    -4.7100    -2.1810 H     1 <1>   0.1500 
 30 H        2.8630    -4.5280    -1.7220 H     1 <1>   0.1500 
 31 H        4.5490    -3.5960    -0.5670 H     1 <1>   0.3700 
 32 H       -4.0890    -3.1760    -1.6180 H     1 <1>   0.0800 
 33 H       -4.3190    -2.6320     0.0180 H     1 <1>   0.0800 
 34 H       -2.3880    -2.9620     1.7070 H     1 <1>   0.0800 
 35 H       -0.9240    -3.7260     1.1530 H     1 <1>   0.0800 
 36 H       -4.0450    -5.4970    -0.9090 H     1 <1>   0.0800 
 37 H       -5.5030    -4.7480    -0.3320 H     1 <1>   0.0800 
 38 H       -2.3190    -5.2930     2.4580 H     1 <1>   0.0800 
 39 H       -2.0670    -5.8390     0.8270 H     1 <1>   0.0800 
 40 H        6.8890    -1.0080     0.1180 H     1 <1>   0.0800 
 41 H       -4.4190    -6.1620     1.4200 H     1 <1>   0.0800 
 42 H       -4.5600    -4.4950     1.9070 H     1 <1>   0.0800 
 43 H        7.3390    -1.9290    -1.9000 H     1 <1>   0.0800 
 44 H        6.3700    -3.7230     1.2610 H     1 <1>   0.0800 
 45 H        6.1590    -2.2460     2.1530 H     1 <1>   0.0800 
 46 H        9.1910    -3.2530    -1.5850 H     1 <1>   0.0800 
 47 H        8.3810    -4.3300    -0.4940 H     1 <1>   0.0800 
 48 H        8.4420    -3.6160     2.2220 H     1 <1>   0.0800 
 49 H        8.4290    -1.8850     2.3650 H     1 <1>   0.0800 
 50 H        9.2740    -1.5430     0.2220 H     1 <1>   0.0800 
 51 H       10.0950    -3.0020     0.6880 H     1 <1>   0.0800 
@<TRIPOS>BOND
  1   1   2  1   
  2   2   3  ar  
  3   2   4  ar  
  4   3   5  1   
  5   3   6  ar  
  6   4   7  ar  
  7   4  28  1   
  8   5   8  2   
  9   5   9  am  
 10   6  10  ar  
 11   6  29  1   
 12   7  10  ar  
 13   7  11  1   
 14   9  12  1   
 15   9  13  1   
 16  10  30  1   
 17  11  14  am  
 18  11  31  1   
 19  12  15  1   
 20  12  32  1   
 21  12  33  1   
 22  13  16  1   
 23  13  34  1   
 24  13  35  1   
 25  14  17  2   
 26  14  18  1   
 27  15  19  1   
 28  15  36  1   
 29  15  37  1   
 30  16  19  1   
 31  16  38  1   
 32  16  39  1   
 33  18  20  1   
 34  18  21  1   
 35  18  40  1   
 36  19  41  1   
 37  19  42  1   
 38  20  22  1   
 39  20  23  1   
 40  20  43  1   
 41  21  24  1   
 42  21  44  1   
 43  21  45  1   
 44  22  25  ar  
 45  22  26  ar  
 46  23  27  1   
 47  23  46  1   
 48  23  47  1   
 49  24  27  1   
 50  24  48  1   
 51  24  49  1   
 52  27  50  1   
 53  27  51  1   
@<TRIPOS>SUBSTRUCTURE
  1 ****   7 GROUP 4 **** **** 0

# MOE 2024.06 (io_trps.svl 2023.06)
