@<TRIPOS>MOLECULE
NONAME
47 49 1 0 0 
SMALL
USER_CHARGES


@<TRIPOS>ATOM
  1 O       -0.4230    -0.3440    -1.5080 O.2   1 <1>  -0.5700 
  2 C       -0.3760    -1.3320    -0.7980 C.2   1 <1>   0.5440 
  3 N        0.7680    -1.6170    -0.0900 N.am  1 <1>  -0.5470 
  4 C       -1.5270    -2.1970    -0.6480 C.ar  1 <1>   0.0860 
  5 C        2.0250    -0.9930    -0.0840 C.ar  1 <1>   0.1170 
  6 C       -2.8180    -1.6740    -0.4590 C.ar  1 <1>   0.1170 
  7 C       -1.3710    -3.5860    -0.6650 C.ar  1 <1>  -0.1500 
  8 C        2.8040    -1.0660     1.0640 C.ar  1 <1>  -0.1500 
  9 C        2.5380    -0.3180    -1.1860 C.ar  1 <1>  -0.1500 
 10 N       -3.0130    -0.2880    -0.4690 N.am  1 <1>  -0.5470 
 11 C       -3.8880    -2.5440    -0.2720 C.ar  1 <1>  -0.1500 
 12 C       -2.4430    -4.4360    -0.4800 C.ar  1 <1>  -0.1500 
 13 C        4.0560    -0.4790     1.1130 C.ar  1 <1>  -0.1500 
 14 C        3.7890     0.2700    -1.1390 C.ar  1 <1>  -0.1500 
 15 C       -3.8950     0.5320     0.1800 C.2   1 <1>   0.5690 
 16 C       -3.7070    -3.9120    -0.2790 C.ar  1 <1>  -0.1500 
 17 C        4.5580     0.1930     0.0110 C.ar  1 <1>  -0.1430 
 18 O       -4.7880     0.1220     0.8840 O.2   1 <1>  -0.5700 
 19 C       -3.6870     2.0470     0.0310 C.3   1 <1>   0.2610 
 20 C        5.9320     0.8420     0.0630 C.3   1 <1>  -0.0160 
 21 O       -2.8750     2.3530    -1.0820 O.3   1 <1>  -0.5600 
 22 C       -2.9930     2.6780     1.2440 C.3   1 <1>  -0.1600 
 23 C        5.8240     2.2890     0.5480 C.3   1 <1>  -0.2400 
 24 C       -1.6610     2.9140    -0.6960 C.3   1 <1>   0.1200 
 25 C       -1.9440     3.5880     0.6340 C.3   1 <1>  -0.1600 
 26 H        0.6550    -2.3400     0.6170 H     1 <1>   0.3700 
 27 H       -0.3940    -4.0070    -0.8320 H     1 <1>   0.1500 
 28 H        2.4320    -1.5810     1.9300 H     1 <1>   0.1500 
 29 H        1.9610    -0.2520    -2.0900 H     1 <1>   0.1500 
 30 H       -2.3120     0.2380    -1.0140 H     1 <1>   0.3700 
 31 H       -4.8760    -2.1450    -0.1230 H     1 <1>   0.1500 
 32 H       -2.3020    -5.5040    -0.4950 H     1 <1>   0.1500 
 33 H        4.6400    -0.5450     2.0140 H     1 <1>   0.1500 
 34 H        4.1620     0.7900    -2.0040 H     1 <1>   0.1500 
 35 H       -4.5480    -4.5680    -0.1320 H     1 <1>   0.1500 
 36 H       -4.6400     2.5150    -0.1380 H     1 <1>   0.0800 
 37 H        6.3800     0.8210    -0.9150 H     1 <1>   0.0800 
 38 H        6.5720     0.2850     0.7260 H     1 <1>   0.0800 
 39 H       -2.5200     1.9100     1.8330 H     1 <1>   0.0800 
 40 H       -3.6910     3.2090     1.8650 H     1 <1>   0.0800 
 41 H        5.1990     2.8570    -0.1190 H     1 <1>   0.0800 
 42 H        6.7980     2.7430     0.5820 H     1 <1>   0.0800 
 43 H        5.3920     2.3190     1.5320 H     1 <1>   0.0800 
 44 H       -1.3310     3.6040    -1.4520 H     1 <1>   0.0800 
 45 H       -0.9440     2.1170    -0.5840 H     1 <1>   0.0800 
 46 H       -1.0590     3.6710     1.2410 H     1 <1>   0.0800 
 47 H       -2.3510     4.5680     0.4550 H     1 <1>   0.0800 
@<TRIPOS>BOND
  1   1   2  2   
  2   2   3  am  
  3   2   4  1   
  4   3   5  1   
  5   3  26  1   
  6   4   6  ar  
  7   4   7  ar  
  8   5   8  ar  
  9   5   9  ar  
 10   6  10  1   
 11   6  11  ar  
 12   7  12  ar  
 13   7  27  1   
 14   8  13  ar  
 15   8  28  1   
 16   9  14  ar  
 17   9  29  1   
 18  10  15  am  
 19  10  30  1   
 20  11  16  ar  
 21  11  31  1   
 22  12  16  ar  
 23  12  32  1   
 24  13  17  ar  
 25  13  33  1   
 26  14  17  ar  
 27  14  34  1   
 28  15  18  2   
 29  15  19  1   
 30  16  35  1   
 31  17  20  1   
 32  19  21  1   
 33  19  22  1   
 34  19  36  1   
 35  20  23  1   
 36  20  37  1   
 37  20  38  1   
 38  21  24  1   
 39  22  25  1   
 40  22  39  1   
 41  22  40  1   
 42  23  41  1   
 43  23  42  1   
 44  23  43  1   
 45  24  25  1   
 46  24  44  1   
 47  24  45  1   
 48  25  46  1   
 49  25  47  1   
@<TRIPOS>SUBSTRUCTURE
  1 ****   2 GROUP 4 **** **** 0

# MOE 2024.06 (io_trps.svl 2023.06)
