@<TRIPOS>MOLECULE
NONAME
47 49 1 0 0 
SMALL
USER_CHARGES


@<TRIPOS>ATOM
  1 O       -0.3930     0.5430    -1.0540 O.2   1 <1>  -0.5700 
  2 C       -1.1850     1.1500    -0.3580 C.2   1 <1>   0.5440 
  3 N       -1.9910     0.4400     0.5080 N.am  1 <1>  -0.6600 
  4 C       -1.2670     2.5950    -0.4720 C.ar  1 <1>   0.0860 
  5 C       -1.7650    -1.0080     0.7960 C.3   1 <1>   0.1400 
  6 C       -3.2920     0.9470     1.0410 C.3   1 <1>   0.1400 
  7 C       -1.2530     3.4210     0.6520 C.ar  1 <1>  -0.1500 
  8 C       -1.3560     3.2110    -1.7180 C.ar  1 <1>  -0.1500 
  9 C       -3.0030    -1.8360     0.4160 C.3   1 <1>   0.1200 
 10 C       -4.4420     0.0010     0.6540 C.3   1 <1>   0.1200 
 11 C       -1.3460     4.7950     0.5370 C.ar  1 <1>  -0.1500 
 12 C       -1.4470     4.5860    -1.8400 C.ar  1 <1>  -0.1500 
 13 O       -4.1510    -1.3160     1.0280 O.3   1 <1>  -0.5600 
 14 C       -1.4470     5.3900    -0.7110 C.ar  1 <1>  -0.1430 
 15 C       -1.5530     6.9030    -0.8350 C.3   1 <1>   0.2630 
 16 O       -0.4960     7.4990    -0.1180 O.3   1 <1>  -0.3630 
 17 C       -0.3610     8.8470    -0.0530 C.ar  1 <1>   0.0820 
 18 C        0.7250     9.3300     0.6560 C.ar  1 <1>  -0.1500 
 19 C       -1.2380     9.7450    -0.6500 C.ar  1 <1>  -0.1500 
 20 C        0.9510    10.6920     0.7810 C.ar  1 <1>  -0.1430 
 21 C       -1.0170    11.1050    -0.5280 C.ar  1 <1>  -0.1500 
 22 C        0.0710    11.5880     0.1840 C.ar  1 <1>  -0.1430 
 23 C        2.1610    11.1690     1.5720 C.3   1 <1>  -0.0970 
 24 C        0.2750    13.0930     0.2920 C.3   1 <1>  -0.0970 
 25 H       -1.5670    -1.1310     1.8460 H     1 <1>   0.0800 
 26 H       -0.9110    -1.3780     0.2570 H     1 <1>   0.0800 
 27 H       -3.5080     1.9270     0.6570 H     1 <1>   0.0800 
 28 H       -3.2340     1.0110     2.1140 H     1 <1>   0.0800 
 29 H       -1.1620     2.9740     1.6270 H     1 <1>   0.1500 
 30 H       -1.3470     2.5940    -2.6000 H     1 <1>   0.1500 
 31 H       -2.8850    -2.8520     0.7460 H     1 <1>   0.0800 
 32 H       -3.1450    -1.8310    -0.6510 H     1 <1>   0.0800 
 33 H       -4.6100     0.0270    -0.4090 H     1 <1>   0.0800 
 34 H       -5.3470     0.2920     1.1550 H     1 <1>   0.0800 
 35 H       -1.3300     5.4100     1.4220 H     1 <1>   0.1500 
 36 H       -1.5130     5.0260    -2.8200 H     1 <1>   0.1500 
 37 H       -2.4820     7.2440    -0.4140 H     1 <1>   0.0800 
 38 H       -1.4760     7.2110    -1.8620 H     1 <1>   0.0800 
 39 H        1.3930     8.6200     1.1090 H     1 <1>   0.1500 
 40 H       -2.0920     9.4150    -1.2080 H     1 <1>   0.1500 
 41 H       -1.7030    11.7900    -0.9930 H     1 <1>   0.1500 
 42 H        2.7230    10.3370     1.9550 H     1 <1>   0.0800 
 43 H        1.8430    11.7730     2.4020 H     1 <1>   0.0800 
 44 H        2.8070    11.7510     0.9400 H     1 <1>   0.0800 
 45 H        1.2210    13.3680    -0.1390 H     1 <1>   0.0800 
 46 H        0.2570    13.3930     1.3240 H     1 <1>   0.0800 
 47 H       -0.5000    13.6270    -0.2280 H     1 <1>   0.0800 
@<TRIPOS>BOND
  1   1   2  2   
  2   2   3  am  
  3   2   4  1   
  4   3   5  1   
  5   3   6  1   
  6   4   7  ar  
  7   4   8  ar  
  8   5   9  1   
  9   5  25  1   
 10   5  26  1   
 11   6  10  1   
 12   6  27  1   
 13   6  28  1   
 14   7  11  ar  
 15   7  29  1   
 16   8  12  ar  
 17   8  30  1   
 18   9  13  1   
 19   9  31  1   
 20   9  32  1   
 21  10  13  1   
 22  10  33  1   
 23  10  34  1   
 24  11  14  ar  
 25  11  35  1   
 26  12  14  ar  
 27  12  36  1   
 28  14  15  1   
 29  15  16  1   
 30  15  37  1   
 31  15  38  1   
 32  16  17  1   
 33  17  18  ar  
 34  17  19  ar  
 35  18  20  ar  
 36  18  39  1   
 37  19  21  ar  
 38  19  40  1   
 39  20  22  ar  
 40  20  23  1   
 41  21  22  ar  
 42  21  41  1   
 43  22  24  1   
 44  23  42  1   
 45  23  43  1   
 46  23  44  1   
 47  24  45  1   
 48  24  46  1   
 49  24  47  1   
@<TRIPOS>SUBSTRUCTURE
  1 ****  11 GROUP 4 **** **** 0

# MOE 2024.06 (io_trps.svl 2023.06)
