@<TRIPOS>MOLECULE
NONAME
41 42 1 0 0 
SMALL
USER_CHARGES


@<TRIPOS>ATOM
  1 O        0.2880     0.7640     2.5130 O.2   1 <1>  -0.5700 
  2 C       -0.1050     0.9670     1.3840 C.2   1 <1>   0.6900 
  3 N       -1.4280     1.2020     1.2310 N.am  1 <1>  -0.5470 
  4 N        0.7280     0.9690     0.3030 N.am  1 <1>  -0.5470 
  5 C       -2.2270     1.4810     0.1670 C.ar  1 <1>   0.7370 
  6 C        2.1050     0.7620     0.1390 C.ar  1 <1>   0.1170 
  7 N       -3.5050     1.6330     0.4820 N.ar  1 <1>  -0.6200 
  8 N       -1.6870     1.5750    -1.0480 N.ar  1 <1>  -0.6200 
  9 C        2.9430     0.2950     1.1470 C.ar  1 <1>  -0.1500 
 10 C        2.6670     1.0300    -1.1020 C.ar  1 <1>  -0.1500 
 11 C       -4.3210     1.9030    -0.5070 C.ar  1 <1>   0.1670 
 12 C       -2.5250     1.8460    -2.0210 C.ar  1 <1>   0.1600 
 13 C        4.2940     0.1070     0.9180 C.ar  1 <1>  -0.1500 
 14 C        4.0170     0.8420    -1.3340 C.ar  1 <1>  -0.1500 
 15 C       -3.8700     2.0210    -1.8000 C.ar  1 <1>  -0.1500 
 16 C       -5.7850     2.0790    -0.1640 C.3   1 <1>  -0.0970 
 17 C        4.8480     0.3780    -0.3250 C.ar  1 <1>  -0.1430 
 18 C        6.3380     0.1710    -0.5930 C.3   1 <1>   0.0630 
 19 C        6.6990    -1.3200    -0.4560 C.3   1 <1>  -0.1600 
 20 C        7.1730     1.0670     0.3330 C.3   1 <1>  -0.2400 
 21 C        8.1310    -1.6490    -0.9000 C.3   1 <1>  -0.2400 
 22 H       -1.9390     1.1670     2.1040 H     1 <1>   0.3700 
 23 H        0.2140     1.1900    -0.5530 H     1 <1>   0.3700 
 24 H        2.5460     0.0720     2.1190 H     1 <1>   0.1500 
 25 H        2.0420     1.3920    -1.8980 H     1 <1>   0.1500 
 26 H       -2.1320     1.9310    -3.0210 H     1 <1>   0.1500 
 27 H        4.9120    -0.2550     1.7200 H     1 <1>   0.1500 
 28 H        4.4190     1.0600    -2.3070 H     1 <1>   0.1500 
 29 H       -4.5370     2.2420    -2.6110 H     1 <1>   0.1500 
 30 H       -6.1600     1.1790     0.2870 H     1 <1>   0.0800 
 31 H       -6.3660     2.2970    -1.0410 H     1 <1>   0.0800 
 32 H       -5.8960     2.8870     0.5360 H     1 <1>   0.0800 
 33 H        6.5430     0.4690    -1.6070 H     1 <1>   0.0800 
 34 H        6.0150    -1.8890    -1.0620 H     1 <1>   0.0800 
 35 H        6.5630    -1.6350     0.5630 H     1 <1>   0.0800 
 36 H        7.0890     0.7440     1.3540 H     1 <1>   0.0800 
 37 H        6.8220     2.0820     0.2660 H     1 <1>   0.0800 
 38 H        8.2080     1.0510     0.0470 H     1 <1>   0.0800 
 39 H        8.2990    -1.3180    -1.9100 H     1 <1>   0.0800 
 40 H        8.2880    -2.7120    -0.8610 H     1 <1>   0.0800 
 41 H        8.8510    -1.1800    -0.2540 H     1 <1>   0.0800 
@<TRIPOS>BOND
  1   1   2  2   
  2   2   3  am  
  3   2   4  am  
  4   3   5  1   
  5   3  22  1   
  6   4   6  1   
  7   4  23  1   
  8   5   7  ar  
  9   5   8  ar  
 10   6   9  ar  
 11   6  10  ar  
 12   7  11  ar  
 13   8  12  ar  
 14   9  13  ar  
 15   9  24  1   
 16  10  14  ar  
 17  10  25  1   
 18  11  15  ar  
 19  11  16  1   
 20  12  15  ar  
 21  12  26  1   
 22  13  17  ar  
 23  13  27  1   
 24  14  17  ar  
 25  14  28  1   
 26  15  29  1   
 27  16  30  1   
 28  16  31  1   
 29  16  32  1   
 30  17  18  1   
 31  18  19  1   
 32  18  20  1   
 33  18  33  1   
 34  19  21  1   
 35  19  34  1   
 36  19  35  1   
 37  20  36  1   
 38  20  37  1   
 39  20  38  1   
 40  21  39  1   
 41  21  40  1   
 42  21  41  1   
@<TRIPOS>SUBSTRUCTURE
  1 ****   4 GROUP 4 **** **** 0

# MOE 2024.06 (io_trps.svl 2023.06)
