@<TRIPOS>MOLECULE
NONAME
60 62 1 0 0 
SMALL
USER_CHARGES


@<TRIPOS>ATOM
  1 O        1.3890     0.3130     0.8710 O.2   1 <1>  -0.5700 
  2 C        0.9890     1.1980     0.1490 C.2   1 <1>   0.5690 
  3 N       -0.3270     1.5420     0.1100 N.am  1 <1>  -0.7300 
  4 C        1.9710     1.9630    -0.7610 C.3   1 <1>   0.1710 
  5 C       -1.3910     0.9230     0.9220 C.3   1 <1>   0.2200 
  6 N        3.2490     1.2640    -1.0930 N.3   1 <1>  -0.8100 
  7 C       -2.4570     0.3730    -0.0360 C.3   1 <1>  -0.1600 
  8 C       -1.8960     1.9810     1.9100 C.3   1 <1>  -0.1600 
  9 C        3.0480    -0.0330    -1.7800 C.3   1 <1>   0.1100 
 10 C        4.2090     2.1130    -1.8330 C.3   1 <1>   0.1100 
 11 C       -3.4440    -0.5720     0.6660 C.3   1 <1>  -0.1600 
 12 C       -3.0760     1.5400     2.7910 C.3   1 <1>  -0.1600 
 13 C        4.3760    -0.8150    -1.9190 C.3   1 <1>   0.3430 
 14 C        5.5320     1.3640    -2.1400 C.3   1 <1>   0.3430 
 15 C       -4.6560     0.1190     1.3110 C.3   1 <1>  -0.1600 
 16 C       -4.3960     1.4620     2.0100 C.3   1 <1>  -0.1600 
 17 N        5.5510     0.0130    -1.4860 N.4   1 <1>  -0.9590 
 18 C        6.8360    -0.7130    -1.5510 C.3   1 <1>   0.4810 
 19 C        7.8720     0.0980    -0.8110 C.2   1 <1>  -0.2880 
 20 C        8.3090    -0.1670     0.4320 C.2   1 <1>  -0.1780 
 21 C        9.3000     0.5600     1.1950 C.ar  1 <1>   0.0280 
 22 C        9.3790     0.3880     2.5750 C.ar  1 <1>  -0.1500 
 23 C       10.2030     1.4400     0.6020 C.ar  1 <1>  -0.1500 
 24 C       10.3140     1.0690     3.3340 C.ar  1 <1>  -0.1500 
 25 C       11.1390     2.1260     1.3550 C.ar  1 <1>  -0.1500 
 26 C       11.1960     1.9420     2.7240 C.ar  1 <1>  -0.1500 
 27 H       -0.6500     2.3060    -0.4820 H     1 <1>   0.3700 
 28 H        2.2080     2.8820    -0.2560 H     1 <1>   0.0800 
 29 H        1.4600     2.2120    -1.6730 H     1 <1>   0.0800 
 30 H       -0.9740     0.1010     1.4820 H     1 <1>   0.0800 
 31 H       -2.9850     1.1730    -0.5250 H     1 <1>   0.0800 
 32 H       -1.9500    -0.2010    -0.7920 H     1 <1>   0.0800 
 33 H       -1.0760     2.2310     2.5610 H     1 <1>   0.0800 
 34 H       -2.1720     2.8730     1.3760 H     1 <1>   0.0800 
 35 H        2.3560    -0.6460    -1.2270 H     1 <1>   0.0800 
 36 H        2.6230     0.1310    -2.7560 H     1 <1>   0.0800 
 37 H        3.7700     2.4520    -2.7560 H     1 <1>   0.0800 
 38 H        4.4360     2.9850    -1.2420 H     1 <1>   0.0800 
 39 H       -3.8170    -1.2790    -0.0550 H     1 <1>   0.0800 
 40 H       -2.9200    -1.1440     1.4130 H     1 <1>   0.0800 
 41 H       -2.8630     0.6030     3.2770 H     1 <1>   0.0800 
 42 H       -3.1950     2.2790     3.5650 H     1 <1>   0.0800 
 43 H        4.4960    -1.1290    -2.9420 H     1 <1>   0.0800 
 44 H        4.3140    -1.7010    -1.3080 H     1 <1>   0.0800 
 45 H        6.3550     1.9610    -1.7820 H     1 <1>   0.0800 
 46 H        5.6410     1.2580    -3.2060 H     1 <1>   0.0800 
 47 H       -5.4050     0.2810     0.5540 H     1 <1>   0.0800 
 48 H       -5.0810    -0.5650     2.0260 H     1 <1>   0.0800 
 49 H       -5.2100     1.6370     2.6930 H     1 <1>   0.0800 
 50 H       -4.4300     2.2560     1.2840 H     1 <1>   0.0800 
 51 H        5.3500     0.2250    -0.4950 H     1 <1>   0.4500 
 52 H        6.7310    -1.6720    -1.0710 H     1 <1>   0.0800 
 53 H        7.1380    -0.8710    -2.5740 H     1 <1>   0.0800 
 54 H        8.2410     0.9280    -1.3860 H     1 <1>   0.1500 
 55 H        7.9030    -1.0070     0.9720 H     1 <1>   0.1500 
 56 H        8.7020    -0.2850     3.0690 H     1 <1>   0.1500 
 57 H       10.1880     1.5930    -0.4600 H     1 <1>   0.1500 
 58 H       10.3560     0.9220     4.3990 H     1 <1>   0.1500 
 59 H       11.8280     2.8020     0.8770 H     1 <1>   0.1500 
 60 H       11.9240     2.4740     3.3120 H     1 <1>   0.1500 
@<TRIPOS>BOND
  1   1   2  2   
  2   2   3  am  
  3   2   4  1   
  4   3   5  1   
  5   3  27  1   
  6   4   6  1   
  7   4  28  1   
  8   4  29  1   
  9   5   7  1   
 10   5   8  1   
 11   5  30  1   
 12   6   9  1   
 13   6  10  1   
 14   7  11  1   
 15   7  31  1   
 16   7  32  1   
 17   8  12  1   
 18   8  33  1   
 19   8  34  1   
 20   9  13  1   
 21   9  35  1   
 22   9  36  1   
 23  10  14  1   
 24  10  37  1   
 25  10  38  1   
 26  11  15  1   
 27  11  39  1   
 28  11  40  1   
 29  12  16  1   
 30  12  41  1   
 31  12  42  1   
 32  13  17  1   
 33  13  43  1   
 34  13  44  1   
 35  14  17  1   
 36  14  45  1   
 37  14  46  1   
 38  15  16  1   
 39  15  47  1   
 40  15  48  1   
 41  16  49  1   
 42  16  50  1   
 43  17  18  1   
 44  17  51  1   
 45  18  19  1   
 46  18  52  1   
 47  18  53  1   
 48  19  20  2   
 49  19  54  1   
 50  20  21  1   
 51  20  55  1   
 52  21  22  ar  
 53  21  23  ar  
 54  22  24  ar  
 55  22  56  1   
 56  23  25  ar  
 57  23  57  1   
 58  24  26  ar  
 59  24  58  1   
 60  25  26  ar  
 61  25  59  1   
 62  26  60  1   
@<TRIPOS>SUBSTRUCTURE
  1 ****   6 GROUP 4 **** **** 0

# MOE 2024.06 (io_trps.svl 2023.06)
