@<TRIPOS>MOLECULE
NONAME
35 36 1 0 0 
SMALL
USER_CHARGES


@<TRIPOS>ATOM
  1 CL       0.3080     0.1150     1.6410 Cl    1 <1>  -0.1770 
  2 C       -0.9540    -0.5910     0.6520 C.ar  1 <1>   0.1770 
  3 C       -0.7230    -1.8170     0.0250 C.ar  1 <1>   0.1170 
  4 C       -2.1460     0.0940     0.5240 C.ar  1 <1>  -0.1500 
  5 N        0.5190    -2.4570     0.2050 N.am  1 <1>  -0.5470 
  6 C       -1.7550    -2.3520    -0.7460 C.ar  1 <1>  -0.1500 
  7 C       -3.1420    -0.4650    -0.2520 C.ar  1 <1>   0.1770 
  8 C        1.1330    -3.4640    -0.4860 C.2   1 <1>   0.5690 
  9 C       -2.9580    -1.6800    -0.8870 C.ar  1 <1>  -0.1500 
 10 CL      -4.6600     0.3780    -0.4330 Cl    1 <1>  -0.1770 
 11 O        0.6480    -4.0220    -1.4360 O.2   1 <1>  -0.5700 
 12 C        2.5130    -3.8920    -0.0230 C.3   1 <1>  -0.0990 
 13 C        3.5660    -2.7890    -0.2290 C.3   1 <1>  -0.1600 
 14 C        4.9520    -3.2480     0.2330 C.3   1 <1>   0.1400 
 15 N        5.9060    -2.1240     0.1390 N.am  1 <1>  -0.4200 
 16 C        6.7720    -1.9350    -0.8900 C.2   1 <1>   0.5690 
 17 C        6.0270    -1.1510     1.0790 C.2   1 <1>   0.5690 
 18 O        6.8840    -2.6400    -1.8580 O.2   1 <1>  -0.5700 
 19 C        7.6050    -0.6930    -0.6660 C.3   1 <1>  -0.0990 
 20 O        5.3790    -1.0650     2.0900 O.2   1 <1>  -0.5700 
 21 C        7.0970    -0.1570     0.6870 C.3   1 <1>  -0.0990 
 22 H       -2.2980     1.0370     1.0150 H     1 <1>   0.1500 
 23 H        1.0930    -2.0340     0.9360 H     1 <1>   0.3700 
 24 H       -1.6280    -3.2980    -1.2410 H     1 <1>   0.1500 
 25 H       -3.7500    -2.0950    -1.4850 H     1 <1>   0.1500 
 26 H        2.8000    -4.7690    -0.5770 H     1 <1>   0.0800 
 27 H        2.4580    -4.1630     1.0160 H     1 <1>   0.0800 
 28 H        3.2800    -1.9140     0.3300 H     1 <1>   0.0800 
 29 H        3.6080    -2.5310    -1.2740 H     1 <1>   0.0800 
 30 H        5.2960    -4.0660    -0.3790 H     1 <1>   0.0800 
 31 H        4.9100    -3.5830     1.2560 H     1 <1>   0.0800 
 32 H        7.4320     0.0100    -1.4610 H     1 <1>   0.0800 
 33 H        8.6460    -0.9540    -0.6240 H     1 <1>   0.0800 
 34 H        7.8760    -0.1480     1.4270 H     1 <1>   0.0800 
 35 H        6.6670     0.8230     0.5890 H     1 <1>   0.0800 
@<TRIPOS>BOND
  1   1   2  1   
  2   2   3  ar  
  3   2   4  ar  
  4   3   5  1   
  5   3   6  ar  
  6   4   7  ar  
  7   4  22  1   
  8   5   8  am  
  9   5  23  1   
 10   6   9  ar  
 11   6  24  1   
 12   7   9  ar  
 13   7  10  1   
 14   8  11  2   
 15   8  12  1   
 16   9  25  1   
 17  12  13  1   
 18  12  26  1   
 19  12  27  1   
 20  13  14  1   
 21  13  28  1   
 22  13  29  1   
 23  14  15  1   
 24  14  30  1   
 25  14  31  1   
 26  15  16  am  
 27  15  17  am  
 28  16  18  2   
 29  16  19  1   
 30  17  20  2   
 31  17  21  1   
 32  19  21  1   
 33  19  32  1   
 34  19  33  1   
 35  21  34  1   
 36  21  35  1   
@<TRIPOS>SUBSTRUCTURE
  1 ****   5 GROUP 4 **** **** 0

# MOE 2024.06 (io_trps.svl 2023.06)
