@<TRIPOS>MOLECULE
NONAME
35 36 1 0 0 
SMALL
USER_CHARGES


@<TRIPOS>ATOM
  1 O      -10.4540     0.3720     0.1750 O.3   1 <1>  -0.3630 
  2 C      -11.6840    -0.1810     0.0310 C.ar  1 <1>   0.0830 
  3 C       -9.2860    -0.3990     0.0230 C.3   1 <1>   0.1200 
  4 C      -12.7710     0.6610     0.1990 C.ar  1 <1>  -0.1500 
  5 C      -11.9030    -1.5230    -0.2690 C.ar  1 <1>  -0.1500 
  6 C       -8.0830     0.5180     0.2490 C.3   1 <1>  -0.1600 
  7 C      -14.0610     0.1790     0.0690 C.ar  1 <1>  -0.1500 
  8 C      -13.1950    -2.0030    -0.3980 C.ar  1 <1>  -0.1500 
  9 C       -6.7630    -0.2510     0.1040 C.3   1 <1>  -0.1600 
 10 C      -14.2800    -1.1560    -0.2310 C.ar  1 <1>  -0.1430 
 11 C       -5.5580     0.6700     0.3330 C.3   1 <1>   0.0960 
 12 C      -15.6950    -1.6870    -0.3720 C.3   1 <1>  -0.0970 
 13 N       -4.3010    -0.0900     0.1950 N.pl3 1 <1>   0.0480 
 14 C       -3.5970    -0.7100     1.1680 C.2   1 <1>   0.0360 
 15 C       -3.6070    -0.3280    -0.9320 C.2   1 <1>  -0.3020 
 16 N       -2.5310    -1.3110     0.7470 N.2   1 <1>  -0.5650 
 17 C       -2.5360    -1.0710    -0.5770 C.2   1 <1>   0.0770 
 18 H       -9.2760    -0.8070    -0.9730 H     1 <1>   0.0800 
 19 H       -9.3060    -1.1910     0.7520 H     1 <1>   0.0800 
 20 H      -12.5990     1.6960     0.4310 H     1 <1>   0.1500 
 21 H      -11.0870    -2.2060    -0.4060 H     1 <1>   0.1500 
 22 H       -8.1500     0.9400     1.2370 H     1 <1>   0.0800 
 23 H       -8.1170     1.3170    -0.4720 H     1 <1>   0.0800 
 24 H      -14.8930     0.8470     0.2040 H     1 <1>   0.1500 
 25 H      -13.3540    -3.0410    -0.6290 H     1 <1>   0.1500 
 26 H       -6.7030    -0.6740    -0.8840 H     1 <1>   0.0800 
 27 H       -6.7370    -1.0540     0.8220 H     1 <1>   0.0800 
 28 H       -5.5970     1.0970     1.3190 H     1 <1>   0.0800 
 29 H       -5.5570     1.4680    -0.3870 H     1 <1>   0.0800 
 30 H      -16.3530    -0.9130    -0.7230 H     1 <1>   0.0800 
 31 H      -16.0470    -2.0380     0.5810 H     1 <1>   0.0800 
 32 H      -15.7230    -2.5010    -1.0740 H     1 <1>   0.0800 
 33 H       -3.9110    -0.6960     2.1970 H     1 <1>   0.1500 
 34 H       -3.9030     0.0310    -1.9000 H     1 <1>   0.1500 
 35 H       -1.7550    -1.4510    -1.2150 H     1 <1>   0.1500 
@<TRIPOS>BOND
  1   1   2  1   
  2   1   3  1   
  3   2   4  ar  
  4   2   5  ar  
  5   3   6  1   
  6   3  18  1   
  7   3  19  1   
  8   4   7  ar  
  9   4  20  1   
 10   5   8  ar  
 11   5  21  1   
 12   6   9  1   
 13   6  22  1   
 14   6  23  1   
 15   7  10  ar  
 16   7  24  1   
 17   8  10  ar  
 18   8  25  1   
 19   9  11  1   
 20   9  26  1   
 21   9  27  1   
 22  10  12  1   
 23  11  13  1   
 24  11  28  1   
 25  11  29  1   
 26  12  30  1   
 27  12  31  1   
 28  12  32  1   
 29  13  14  1   
 30  13  15  1   
 31  14  16  2   
 32  14  33  1   
 33  15  17  2   
 34  15  34  1   
 35  16  17  1   
 36  17  35  1   
@<TRIPOS>SUBSTRUCTURE
  1 ****   3 GROUP 4 **** **** 0

# MOE 2024.06 (io_trps.svl 2023.06)
