@<TRIPOS>MOLECULE
NONAME
41 42 1 0 0 
SMALL
USER_CHARGES


@<TRIPOS>ATOM
  1 S       -0.5700    -0.1790    -0.3460 S.3   1 <1>  -0.2860 
  2 C        1.2160    -0.3860    -0.3650 C.2   1 <1>   0.2420 
  3 C       -1.1820    -1.7930    -1.0480 C.3   1 <1>   0.1310 
  4 N        1.7730    -1.4690    -0.7800 N.2   1 <1>  -0.3380 
  5 N        2.0900     0.5440     0.0400 N.pl3 1 <1>   0.0480 
  6 C       -2.7020    -1.8530    -1.0890 C.2   1 <1>   0.5690 
  7 N        3.0860    -1.2750    -0.6540 N.2   1 <1>  -0.3380 
  8 C        3.2570    -0.0900    -0.1720 C.2   1 <1>   0.0060 
  9 C        1.8910     1.9190     0.5840 C.3   1 <1>   0.1760 
 10 O       -3.2260    -2.7320    -1.7290 O.2   1 <1>  -0.5700 
 11 N       -3.4330    -0.9330    -0.4080 N.am  1 <1>  -0.7300 
 12 C        4.6280     0.4950     0.1120 C.3   1 <1>  -0.0600 
 13 C        1.1270     1.8900     1.9130 C.3   1 <1>  -0.2400 
 14 C        1.2120     2.8340    -0.4420 C.3   1 <1>  -0.2400 
 15 C       -4.9000    -0.8540    -0.3580 C.3   1 <1>   0.2200 
 16 C       -5.3330     0.5090    -0.8820 C.3   1 <1>  -0.1600 
 17 C       -5.3380    -0.8230     1.1010 C.3   1 <1>  -0.1600 
 18 C       -5.1480     1.4840     0.2870 C.3   1 <1>  -0.1600 
 19 C       -5.1550     0.6280     1.5610 C.3   1 <1>  -0.1600 
 20 H       -0.7950    -2.5780    -0.4270 H     1 <1>   0.0800 
 21 H       -0.7780    -1.8810    -2.0390 H     1 <1>   0.0800 
 22 H        2.8630     2.3320     0.7840 H     1 <1>   0.0800 
 23 H       -2.9480    -0.1880     0.0950 H     1 <1>   0.3700 
 24 H        4.7230     0.7290     1.1570 H     1 <1>   0.0800 
 25 H        4.7820     1.3830    -0.4720 H     1 <1>   0.0800 
 26 H        5.3890    -0.2200    -0.1470 H     1 <1>   0.0800 
 27 H        0.1140     1.5610     1.7750 H     1 <1>   0.0800 
 28 H        1.1010     2.8770     2.3400 H     1 <1>   0.0800 
 29 H        1.6190     1.2350     2.6110 H     1 <1>   0.0800 
 30 H        0.2000     2.5260    -0.6330 H     1 <1>   0.0800 
 31 H        1.7620     2.8290    -1.3670 H     1 <1>   0.0800 
 32 H        1.1870     3.8430    -0.0710 H     1 <1>   0.0800 
 33 H       -5.3470    -1.6680    -0.9060 H     1 <1>   0.0800 
 34 H       -6.3780     0.4590    -1.1340 H     1 <1>   0.0800 
 35 H       -4.7830     0.8000    -1.7600 H     1 <1>   0.0800 
 36 H       -4.7910    -1.5250     1.7050 H     1 <1>   0.0800 
 37 H       -6.3830    -1.0740     1.1460 H     1 <1>   0.0800 
 38 H       -5.9350     2.2190     0.3020 H     1 <1>   0.0800 
 39 H       -4.2030     1.9900     0.1950 H     1 <1>   0.0800 
 40 H       -4.2140     0.7340     2.0730 H     1 <1>   0.0800 
 41 H       -5.9470     0.9210     2.2280 H     1 <1>   0.0800 
@<TRIPOS>BOND
  1   1   2  1   
  2   1   3  1   
  3   2   4  2   
  4   2   5  1   
  5   3   6  1   
  6   3  20  1   
  7   3  21  1   
  8   4   7  1   
  9   5   8  1   
 10   5   9  1   
 11   6  10  2   
 12   6  11  am  
 13   7   8  2   
 14   8  12  1   
 15   9  13  1   
 16   9  14  1   
 17   9  22  1   
 18  11  15  1   
 19  11  23  1   
 20  12  24  1   
 21  12  25  1   
 22  12  26  1   
 23  13  27  1   
 24  13  28  1   
 25  13  29  1   
 26  14  30  1   
 27  14  31  1   
 28  14  32  1   
 29  15  16  1   
 30  15  17  1   
 31  15  33  1   
 32  16  18  1   
 33  16  34  1   
 34  16  35  1   
 35  17  19  1   
 36  17  36  1   
 37  17  37  1   
 38  18  19  1   
 39  18  38  1   
 40  18  39  1   
 41  19  40  1   
 42  19  41  1   
@<TRIPOS>SUBSTRUCTURE
  1 ****   1 GROUP 4 **** **** 0

# MOE 2024.06 (io_trps.svl 2023.06)
