@<TRIPOS>MOLECULE
NONAME
27 28 1 0 0 
SMALL
USER_CHARGES


@<TRIPOS>ATOM
  1 S       -0.7330     0.0060     0.6450 S.3   1 <1>  -0.2860 
  2 C       -0.1910     1.4150    -0.3380 C.2   1 <1>   0.2420 
  3 C        0.8110    -0.9760     0.8950 C.3   1 <1>  -0.0100 
  4 N        1.0140     1.5820    -0.7220 N.2   1 <1>  -0.3380 
  5 N       -0.9880     2.4030    -0.7350 N.pl3 1 <1>   0.5930 
  6 N        0.9910     2.7300    -1.3920 N.2   1 <1>   0.0000 
  7 N       -0.1940     3.2350    -1.4060 N.2   1 <1>  -0.4180 
  8 C       -2.3790     2.6210    -0.5210 C.ar  1 <1>  -0.0230 
  9 C       -2.8320     3.8470    -0.0440 C.ar  1 <1>  -0.1500 
 10 C       -3.3140     1.6270    -0.7860 C.ar  1 <1>  -0.1500 
 11 C       -4.1790     4.0820     0.1760 C.ar  1 <1>  -0.1430 
 12 C       -4.6590     1.8540    -0.5680 C.ar  1 <1>  -0.1500 
 13 C       -5.1030     3.0760    -0.0870 C.ar  1 <1>  -0.1440 
 14 C       -4.6160     5.4430     0.7010 C.3   1 <1>  -0.0970 
 15 C       -6.5930     3.2840     0.1410 C.3   1 <1>  -0.0970 
 16 H        1.5190    -0.3520     1.4110 H     1 <1>   0.0800 
 17 H        1.1830    -1.2590    -0.0730 H     1 <1>   0.0800 
 18 H        0.5600    -1.8420     1.4810 H     1 <1>   0.0800 
 19 H       -2.1150     4.6260     0.1540 H     1 <1>   0.1500 
 20 H       -2.9980     0.6700    -1.1640 H     1 <1>   0.1500 
 21 H       -5.3640     1.0680    -0.7770 H     1 <1>   0.1500 
 22 H       -3.7720     6.0940     0.8390 H     1 <1>   0.0800 
 23 H       -5.1140     5.3300     1.6470 H     1 <1>   0.0800 
 24 H       -5.2880     5.9080     0.0030 H     1 <1>   0.0800 
 25 H       -6.7790     3.5170     1.1730 H     1 <1>   0.0800 
 26 H       -7.1500     2.3990    -0.1100 H     1 <1>   0.0800 
 27 H       -6.9500     4.0920    -0.4720 H     1 <1>   0.0800 
@<TRIPOS>BOND
  1   1   2  1   
  2   1   3  1   
  3   2   4  2   
  4   2   5  1   
  5   3  16  1   
  6   3  17  1   
  7   3  18  1   
  8   4   6  1   
  9   5   7  1   
 10   5   8  1   
 11   6   7  2   
 12   8   9  ar  
 13   8  10  ar  
 14   9  11  ar  
 15   9  19  1   
 16  10  12  ar  
 17  10  20  1   
 18  11  13  ar  
 19  11  14  1   
 20  12  13  ar  
 21  12  21  1   
 22  13  15  1   
 23  14  22  1   
 24  14  23  1   
 25  14  24  1   
 26  15  25  1   
 27  15  26  1   
 28  15  27  1   
@<TRIPOS>SUBSTRUCTURE
  1 ****   8 GROUP 4 **** **** 0

# MOE 2024.06 (io_trps.svl 2023.06)
