@<TRIPOS>MOLECULE
NONAME
33 34 1 0 0 
SMALL
USER_CHARGES


@<TRIPOS>ATOM
  1 CL       0.1210     0.7550    -0.2180 Cl    1 <1>  -0.1240 
  2 C       -1.4050     0.0770     0.2770 C.2   1 <1>   0.1640 
  3 S       -2.1890    -1.0040    -0.8530 S.3   1 <1>  -0.0800 
  4 C       -2.1210     0.2330     1.4020 C.2   1 <1>  -0.1500 
  5 C       -3.5420    -1.2440     0.2590 C.2   1 <1>  -0.0220 
  6 C       -3.3360    -0.5240     1.3860 C.2   1 <1>  -0.1500 
  7 S       -4.8770    -2.3530    -0.2520 S.o2  1 <1>   1.5000 
  8 O       -4.9230    -3.5060     0.6180 O.2   1 <1>  -0.6500 
  9 O       -4.9120    -2.5150    -1.6860 O.2   1 <1>  -0.6500 
 10 N       -6.2480    -1.4440     0.0630 N.am  1 <1>  -0.9140 
 11 C       -7.4400    -2.2630     0.2200 C.3   1 <1>   0.1960 
 12 C       -8.6940    -1.3780     0.2860 C.3   1 <1>  -0.0800 
 13 C       -9.9290    -2.2510     0.5750 C.3   1 <1>  -0.1600 
 14 C       -8.9040    -0.5660    -1.0100 C.3   1 <1>  -0.1600 
 15 C      -11.2140    -1.4150     0.6340 C.3   1 <1>  -0.1600 
 16 C      -10.1940     0.2650    -0.9550 C.3   1 <1>  -0.1600 
 17 C      -11.4130    -0.6170    -0.6600 C.3   1 <1>  -0.1600 
 18 H       -1.8430     0.8480     2.2410 H     1 <1>   0.1500 
 19 H       -4.0110    -0.5000     2.2250 H     1 <1>   0.1500 
 20 H       -6.3770    -0.9200    -0.8000 H     1 <1>   0.4200 
 21 H       -7.3580    -2.8370     1.1290 H     1 <1>   0.0800 
 22 H       -7.5260    -2.9510    -0.6070 H     1 <1>   0.0800 
 23 H       -8.5740    -0.6930     1.1090 H     1 <1>   0.0800 
 24 H       -9.8010    -2.7620     1.5140 H     1 <1>   0.0800 
 25 H      -10.0330    -2.9960    -0.1950 H     1 <1>   0.0800 
 26 H       -8.9540    -1.2360    -1.8520 H     1 <1>   0.0800 
 27 H       -8.0780     0.1040    -1.1680 H     1 <1>   0.0800 
 28 H      -11.1610    -0.7350     1.4670 H     1 <1>   0.0800 
 29 H      -12.0600    -2.0620     0.7900 H     1 <1>   0.0800 
 30 H      -10.3370     0.7730    -1.8930 H     1 <1>   0.0800 
 31 H      -10.1030     1.0130    -0.1860 H     1 <1>   0.0800 
 32 H      -12.2910     0.0000    -0.5720 H     1 <1>   0.0800 
 33 H      -11.5690    -1.2980    -1.4800 H     1 <1>   0.0800 
@<TRIPOS>BOND
  1   1   2  1   
  2   2   3  1   
  3   2   4  2   
  4   3   5  1   
  5   4   6  1   
  6   4  18  1   
  7   5   6  2   
  8   5   7  1   
  9   6  19  1   
 10   7   8  2   
 11   7   9  2   
 12   7  10  am  
 13  10  11  1   
 14  10  20  1   
 15  11  12  1   
 16  11  21  1   
 17  11  22  1   
 18  12  13  1   
 19  12  14  1   
 20  12  23  1   
 21  13  15  1   
 22  13  24  1   
 23  13  25  1   
 24  14  16  1   
 25  14  26  1   
 26  14  27  1   
 27  15  17  1   
 28  15  28  1   
 29  15  29  1   
 30  16  17  1   
 31  16  30  1   
 32  16  31  1   
 33  17  32  1   
 34  17  33  1   
@<TRIPOS>SUBSTRUCTURE
  1 ****  10 GROUP 4 **** **** 0

# MOE 2024.06 (io_trps.svl 2023.06)
