@<TRIPOS>MOLECULE
NONAME
52 55 1 0 0 
SMALL
USER_CHARGES


@<TRIPOS>ATOM
  1 O       -1.6640     3.0430    -1.3100 O.2   1 <1>  -0.5700 
  2 C       -0.8520     2.9010    -0.4100 C.2   1 <1>   0.4690 
  3 C        0.4360     3.5420    -0.4150 C.ar  1 <1>   0.0860 
  4 C       -1.1810     2.1080     0.7310 C.2   1 <1>  -0.1240 
  5 C        1.2590     3.3980     0.7100 C.ar  1 <1>   0.0820 
  6 C        0.9120     4.3100    -1.4810 C.ar  1 <1>  -0.1500 
  7 C       -0.3200     2.0230     1.7700 C.2   1 <1>  -0.0730 
  8 C       -2.5070     1.3700     0.7080 C.3   1 <1>   0.4810 
  9 O        0.8510     2.6630     1.7680 O.3   1 <1>  -0.1590 
 10 C        2.5070     4.0030     0.7620 C.ar  1 <1>  -0.1500 
 11 C        2.1540     4.9100    -1.4270 C.ar  1 <1>  -0.1500 
 12 N       -3.6240     2.3270     0.5000 N.4   1 <1>  -0.9590 
 13 C        2.9540     4.7580    -0.3040 C.ar  1 <1>  -0.1500 
 14 C       -3.7930     3.3090     1.6330 C.3   1 <1>   0.3430 
 15 C       -4.9210     1.6340     0.1710 C.3   1 <1>   0.3430 
 16 C       -4.9440     4.3030     1.3810 C.3   1 <1>   0.2090 
 17 C       -6.0710     2.6300    -0.0790 C.3   1 <1>   0.2090 
 18 N       -6.2110     3.5800     1.0640 N.pl3 1 <1>  -0.8380 
 19 C       -7.3450     4.4040     0.9960 C.ar  1 <1>   0.1000 
 20 C       -7.5390     5.3920     0.0140 C.ar  1 <1>   0.0830 
 21 C       -8.3250     4.2200     1.9610 C.ar  1 <1>  -0.1500 
 22 O       -6.5650     5.5640    -0.9340 O.3   1 <1>  -0.3620 
 23 C       -8.7000     6.1600     0.0300 C.ar  1 <1>  -0.1500 
 24 C       -9.4760     4.9870     1.9700 C.ar  1 <1>  -0.1500 
 25 C       -6.6920     6.5250    -1.9560 C.3   1 <1>   0.1200 
 26 C       -9.6630     5.9570     1.0040 C.ar  1 <1>  -0.1500 
 27 C       -5.4460     6.4470    -2.8320 C.3   1 <1>  -0.2400 
 28 H        0.2970     4.4330    -2.3570 H     1 <1>   0.1500 
 29 H       -0.4860     1.4470     2.6660 H     1 <1>   0.1500 
 30 H       -2.6490     0.8310     1.6300 H     1 <1>   0.0800 
 31 H       -2.4890     0.6590    -0.1030 H     1 <1>   0.0800 
 32 H        3.1240     3.8790     1.6350 H     1 <1>   0.1500 
 33 H        2.5080     5.4990    -2.2580 H     1 <1>   0.1500 
 34 H       -3.3470     2.8720    -0.3420 H     1 <1>   0.4500 
 35 H        3.9230     5.2280    -0.2680 H     1 <1>   0.1500 
 36 H       -2.8810     3.8640     1.7770 H     1 <1>   0.0800 
 37 H       -4.0070     2.7770     2.5440 H     1 <1>   0.0800 
 38 H       -5.2080     0.9960     0.9890 H     1 <1>   0.0800 
 39 H       -4.7980     1.0200    -0.7060 H     1 <1>   0.0800 
 40 H       -4.6800     4.9600     0.5710 H     1 <1>   0.0800 
 41 H       -5.0940     4.9080     2.2590 H     1 <1>   0.0800 
 42 H       -6.9940     2.0900    -0.2030 H     1 <1>   0.0800 
 43 H       -5.8840     3.1730    -0.9900 H     1 <1>   0.0800 
 44 H       -8.1790     3.4660     2.7120 H     1 <1>   0.1500 
 45 H       -8.8830     6.9230    -0.7020 H     1 <1>   0.1500 
 46 H      -10.2230     4.8280     2.7280 H     1 <1>   0.1500 
 47 H       -6.7780     7.4980    -1.5020 H     1 <1>   0.0800 
 48 H       -7.5750     6.3000    -2.5290 H     1 <1>   0.0800 
 49 H      -10.5590     6.5550     1.0100 H     1 <1>   0.1500 
 50 H       -4.5680     6.6620    -2.2490 H     1 <1>   0.0800 
 51 H       -5.5150     7.1710    -3.6240 H     1 <1>   0.0800 
 52 H       -5.3600     5.4690    -3.2700 H     1 <1>   0.0800 
@<TRIPOS>BOND
  1   1   2  2   
  2   2   3  1   
  3   2   4  1   
  4   3   5  ar  
  5   3   6  ar  
  6   4   7  2   
  7   4   8  1   
  8   5   9  1   
  9   5  10  ar  
 10   6  11  ar  
 11   6  28  1   
 12   7   9  1   
 13   7  29  1   
 14   8  12  1   
 15   8  30  1   
 16   8  31  1   
 17  10  13  ar  
 18  10  32  1   
 19  11  13  ar  
 20  11  33  1   
 21  12  14  1   
 22  12  15  1   
 23  12  34  1   
 24  13  35  1   
 25  14  16  1   
 26  14  36  1   
 27  14  37  1   
 28  15  17  1   
 29  15  38  1   
 30  15  39  1   
 31  16  18  1   
 32  16  40  1   
 33  16  41  1   
 34  17  18  1   
 35  17  42  1   
 36  17  43  1   
 37  18  19  1   
 38  19  20  ar  
 39  19  21  ar  
 40  20  22  1   
 41  20  23  ar  
 42  21  24  ar  
 43  21  44  1   
 44  22  25  1   
 45  23  26  ar  
 46  23  45  1   
 47  24  26  ar  
 48  24  46  1   
 49  25  27  1   
 50  25  47  1   
 51  25  48  1   
 52  26  49  1   
 53  27  50  1   
 54  27  51  1   
 55  27  52  1   
@<TRIPOS>SUBSTRUCTURE
  1 ****  14 GROUP 4 **** **** 0

# MOE 2024.06 (io_trps.svl 2023.06)
