@<TRIPOS>MOLECULE
NONAME
55 56 1 0 0 
SMALL
USER_CHARGES


@<TRIPOS>ATOM
  1 O        2.7870     4.8750    -0.8800 O.2   1 <1>  -0.5700 
  2 C        2.4500     3.8560    -0.3120 C.2   1 <1>   0.6340 
  3 O        1.1610     3.7390     0.0400 O.3   1 <1>  -0.4300 
  4 C        3.3610     2.7730     0.0020 C.ar  1 <1>   0.0860 
  5 C        0.2410     4.7710    -0.2520 C.3   1 <1>   0.1200 
  6 C        4.7060     2.8580    -0.3260 C.ar  1 <1>  -0.1500 
  7 C        2.9210     1.5970     0.6510 C.ar  1 <1>  -0.1500 
  8 C       -1.1330     4.3780     0.3000 C.3   1 <1>   0.3430 
  9 C        5.5890     1.8210    -0.0280 C.ar  1 <1>   0.0000 
 10 C        3.7770     0.5650     0.9530 C.ar  1 <1>  -0.1500 
 11 N       -2.1970     5.3890    -0.0270 N.4   1 <1>  -0.9590 
 12 C        5.1280     0.6760     0.6070 C.ar  1 <1>  -0.1520 
 13 C        6.9730     1.6360    -0.2370 C.2   1 <1>  -0.1810 
 14 C       -1.9580     6.7070     0.6470 C.3   1 <1>   0.2630 
 15 C       -3.5470     4.8580     0.3430 C.3   1 <1>   0.2630 
 16 N        6.1870    -0.1800     0.7770 N.pl3 1 <1>   0.0480 
 17 C        7.3080     0.4180     0.2560 C.2   1 <1>  -0.3320 
 18 C        7.8360     2.6920    -0.9060 C.3   1 <1>  -0.0590 
 19 C        6.0610    -1.5850     1.1830 C.3   1 <1>   0.0960 
 20 C        8.6810    -0.2420     0.2800 C.3   1 <1>  -0.0600 
 21 C        5.6860    -2.3810    -0.0700 C.3   1 <1>   0.3430 
 22 N        5.4760    -3.8460     0.1980 N.4   1 <1>  -0.9590 
 23 C        6.7390    -4.5420     0.6070 C.3   1 <1>   0.2630 
 24 C        4.9010    -4.5060    -1.0170 C.3   1 <1>   0.2630 
 25 H        0.2090     4.8910    -1.3210 H     1 <1>   0.0800 
 26 H        0.6040     5.6730     0.2110 H     1 <1>   0.0800 
 27 H        5.0890     3.7340    -0.8180 H     1 <1>   0.1500 
 28 H        1.8840     1.5110     0.9210 H     1 <1>   0.1500 
 29 H       -1.0610     4.2620     1.3690 H     1 <1>   0.0800 
 30 H       -1.4050     3.4270    -0.1270 H     1 <1>   0.0800 
 31 H        3.4130    -0.3100     1.4590 H     1 <1>   0.1500 
 32 H       -2.1890     5.5420    -1.0490 H     1 <1>   0.4500 
 33 H       -1.9390     6.5830     1.7180 H     1 <1>   0.0800 
 34 H       -2.7420     7.4030     0.3960 H     1 <1>   0.0800 
 35 H       -1.0170     7.1290     0.3320 H     1 <1>   0.0800 
 36 H       -3.6030     4.6800     1.4050 H     1 <1>   0.0800 
 37 H       -3.7400     3.9310    -0.1730 H     1 <1>   0.0800 
 38 H       -4.3150     5.5650     0.0720 H     1 <1>   0.0800 
 39 H        7.4590     2.8980    -1.8910 H     1 <1>   0.0800 
 40 H        8.8560     2.3740    -0.9910 H     1 <1>   0.0800 
 41 H        7.8080     3.5990    -0.3290 H     1 <1>   0.0800 
 42 H        5.2960    -1.6600     1.9320 H     1 <1>   0.0800 
 43 H        6.9970    -1.9140     1.5920 H     1 <1>   0.0800 
 44 H        9.4280     0.4070    -0.1370 H     1 <1>   0.0800 
 45 H        8.6750    -1.1500    -0.2930 H     1 <1>   0.0800 
 46 H        8.9680    -0.4600     1.2930 H     1 <1>   0.0800 
 47 H        6.4620    -2.2550    -0.8070 H     1 <1>   0.0800 
 48 H        4.7780    -1.9600    -0.4720 H     1 <1>   0.0800 
 49 H        4.7850    -3.9450     0.9600 H     1 <1>   0.4500 
 50 H        7.4860    -4.4490    -0.1650 H     1 <1>   0.0800 
 51 H        6.5500    -5.5900     0.7770 H     1 <1>   0.0800 
 52 H        7.1290    -4.1170     1.5180 H     1 <1>   0.0800 
 53 H        5.5890    -4.4340    -1.8450 H     1 <1>   0.0800 
 54 H        3.9740    -4.0330    -1.2990 H     1 <1>   0.0800 
 55 H        4.7070    -5.5490    -0.8220 H     1 <1>   0.0800 
@<TRIPOS>BOND
  1   1   2  2   
  2   2   3  1   
  3   2   4  1   
  4   3   5  1   
  5   4   6  ar  
  6   4   7  ar  
  7   5   8  1   
  8   5  25  1   
  9   5  26  1   
 10   6   9  ar  
 11   6  27  1   
 12   7  10  ar  
 13   7  28  1   
 14   8  11  1   
 15   8  29  1   
 16   8  30  1   
 17   9  12  ar  
 18   9  13  1   
 19  10  12  ar  
 20  10  31  1   
 21  11  14  1   
 22  11  15  1   
 23  11  32  1   
 24  12  16  1   
 25  13  17  2   
 26  13  18  1   
 27  14  33  1   
 28  14  34  1   
 29  14  35  1   
 30  15  36  1   
 31  15  37  1   
 32  15  38  1   
 33  16  17  1   
 34  16  19  1   
 35  17  20  1   
 36  18  39  1   
 37  18  40  1   
 38  18  41  1   
 39  19  21  1   
 40  19  42  1   
 41  19  43  1   
 42  20  44  1   
 43  20  45  1   
 44  20  46  1   
 45  21  22  1   
 46  21  47  1   
 47  21  48  1   
 48  22  23  1   
 49  22  24  1   
 50  22  49  1   
 51  23  50  1   
 52  23  51  1   
 53  23  52  1   
 54  24  53  1   
 55  24  54  1   
 56  24  55  1   
@<TRIPOS>SUBSTRUCTURE
  1 ****   7 GROUP 4 **** **** 0

# MOE 2024.06 (io_trps.svl 2023.06)
