@<TRIPOS>MOLECULE
NONAME
63 67 1 0 0 
SMALL
USER_CHARGES


@<TRIPOS>ATOM
  1 O        0.9140    -0.5710    -1.1180 O.2   1 <1>  -0.5700 
  2 C       -0.1330    -0.9690    -0.6670 C.2   1 <1>   0.5690 
  3 N       -1.3060    -0.3210    -0.9890 N.am  1 <1>  -0.6600 
  4 C       -0.1100    -2.2000     0.2550 C.3   1 <1>  -0.0190 
  5 C       -2.6330    -0.4980    -0.3260 C.3   1 <1>   0.1400 
  6 C       -1.3110     0.7490    -2.0350 C.3   1 <1>   0.1400 
  7 C        1.3020    -2.5270     0.7890 C.3   1 <1>  -0.1600 
  8 C       -0.6770    -3.4400    -0.4660 C.3   1 <1>  -0.1600 
  9 C       -3.1460     0.8460     0.2340 C.3   1 <1>   0.3430 
 10 C       -1.8070     2.0810    -1.4480 C.3   1 <1>   0.3430 
 11 C        1.3060    -3.7720     1.6790 C.3   1 <1>   0.1400 
 12 C       -0.6590    -4.6830     0.4300 C.3   1 <1>   0.1400 
 13 N       -3.1700     1.9520    -0.8000 N.4   1 <1>  -0.9590 
 14 N        0.7200    -4.9200     0.9340 N.am  1 <1>  -0.6600 
 15 C       -3.7190     3.2530    -0.2880 C.3   1 <1>   0.5030 
 16 C        1.4340    -6.0810     0.7630 C.2   1 <1>   0.5690 
 17 C       -2.8420     3.8460     0.8390 C.3   1 <1>  -0.1600 
 18 C       -5.1520     3.0320     0.2560 C.3   1 <1>  -0.1600 
 19 C       -3.8030     4.2740    -1.4480 C.3   1 <1>  -0.1600 
 20 O        2.5290    -6.2430     1.2440 O.2   1 <1>  -0.5700 
 21 C        0.8660    -7.2250    -0.0460 C.3   1 <1>  -0.1790 
 22 C       -3.4410     5.1770     1.3360 C.3   1 <1>  -0.0800 
 23 C       -5.7580     4.3570     0.7540 C.3   1 <1>  -0.0800 
 24 C       -4.4010     5.6070    -0.9600 C.3   1 <1>  -0.0800 
 25 C       -4.8640     4.9300     1.8700 C.3   1 <1>  -0.1600 
 26 C       -3.5140     6.1740     0.1640 C.3   1 <1>  -0.1600 
 27 C       -5.8160     5.3580    -0.4130 C.3   1 <1>  -0.1600 
 28 H       -0.7150    -1.9890     1.1150 H     1 <1>   0.0800 
 29 H       -2.5740    -1.2070     0.4780 H     1 <1>   0.0800 
 30 H       -3.3370    -0.8830    -1.0430 H     1 <1>   0.0800 
 31 H       -1.9480     0.4490    -2.8490 H     1 <1>   0.0800 
 32 H       -0.3260     0.8980    -2.4430 H     1 <1>   0.0800 
 33 H        1.6820    -1.6910     1.3490 H     1 <1>   0.0800 
 34 H        1.9770    -2.6970    -0.0330 H     1 <1>   0.0800 
 35 H       -0.0900    -3.6410    -1.3460 H     1 <1>   0.0800 
 36 H       -1.6860    -3.2560    -0.7860 H     1 <1>   0.0800 
 37 H       -2.5080     1.1350     1.0530 H     1 <1>   0.0800 
 38 H       -4.1350     0.6890     0.6280 H     1 <1>   0.0800 
 39 H       -1.8380     2.8050    -2.2430 H     1 <1>   0.0800 
 40 H       -1.0860     2.4180    -0.7220 H     1 <1>   0.0800 
 41 H        0.7270    -3.5980     2.5690 H     1 <1>   0.0800 
 42 H        2.3180    -3.9880     1.9810 H     1 <1>   0.0800 
 43 H       -1.0230    -5.5280    -0.1270 H     1 <1>   0.0800 
 44 H       -1.3130    -4.5390     1.2720 H     1 <1>   0.0800 
 45 H       -3.8190     1.6600    -1.5370 H     1 <1>   0.4500 
 46 H       -1.8450     4.0360     0.4860 H     1 <1>   0.0800 
 47 H       -2.7830     3.1710     1.6730 H     1 <1>   0.0800 
 48 H       -5.1520     2.3550     1.0900 H     1 <1>   0.0800 
 49 H       -5.7840     2.6270    -0.5130 H     1 <1>   0.0800 
 50 H       -2.8300     4.4940    -1.8450 H     1 <1>   0.0800 
 51 H       -4.4160     3.8870    -2.2420 H     1 <1>   0.0800 
 52 H       -0.0280    -7.5930     0.4200 H     1 <1>   0.0800 
 53 H        1.5830    -8.0240    -0.0940 H     1 <1>   0.0800 
 54 H        0.6540    -6.8950    -1.0450 H     1 <1>   0.0800 
 55 H       -2.8260     5.5870     2.1210 H     1 <1>   0.0800 
 56 H       -6.7520     4.1900     1.1360 H     1 <1>   0.0800 
 57 H       -4.4480     6.3110    -1.7750 H     1 <1>   0.0800 
 58 H       -4.8330     4.2510     2.7050 H     1 <1>   0.0800 
 59 H       -5.2820     5.8560     2.2270 H     1 <1>   0.0800 
 60 H       -2.5250     6.3770    -0.2110 H     1 <1>   0.0800 
 61 H       -3.9220     7.1090     0.5090 H     1 <1>   0.0800 
 62 H       -6.2420     6.2870    -0.0720 H     1 <1>   0.0800 
 63 H       -6.4550     4.9810    -1.1930 H     1 <1>   0.0800 
@<TRIPOS>BOND
  1   1   2  2   
  2   2   3  am  
  3   2   4  1   
  4   3   5  1   
  5   3   6  1   
  6   4   7  1   
  7   4   8  1   
  8   4  28  1   
  9   5   9  1   
 10   5  29  1   
 11   5  30  1   
 12   6  10  1   
 13   6  31  1   
 14   6  32  1   
 15   7  11  1   
 16   7  33  1   
 17   7  34  1   
 18   8  12  1   
 19   8  35  1   
 20   8  36  1   
 21   9  13  1   
 22   9  37  1   
 23   9  38  1   
 24  10  13  1   
 25  10  39  1   
 26  10  40  1   
 27  11  14  1   
 28  11  41  1   
 29  11  42  1   
 30  12  14  1   
 31  12  43  1   
 32  12  44  1   
 33  13  15  1   
 34  13  45  1   
 35  14  16  am  
 36  15  17  1   
 37  15  18  1   
 38  15  19  1   
 39  16  20  2   
 40  16  21  1   
 41  17  22  1   
 42  17  46  1   
 43  17  47  1   
 44  18  23  1   
 45  18  48  1   
 46  18  49  1   
 47  19  24  1   
 48  19  50  1   
 49  19  51  1   
 50  21  52  1   
 51  21  53  1   
 52  21  54  1   
 53  22  25  1   
 54  22  26  1   
 55  22  55  1   
 56  23  25  1   
 57  23  27  1   
 58  23  56  1   
 59  24  26  1   
 60  24  27  1   
 61  24  57  1   
 62  25  58  1   
 63  25  59  1   
 64  26  60  1   
 65  26  61  1   
 66  27  62  1   
 67  27  63  1   
@<TRIPOS>SUBSTRUCTURE
  1 ****   5 GROUP 4 **** **** 0

# MOE 2024.06 (io_trps.svl 2023.06)
