@<TRIPOS>MOLECULE
NONAME
47 48 1 0 0 
SMALL
USER_CHARGES


@<TRIPOS>ATOM
  1 O       -2.9370     6.4680     0.9970 O.3   1 <1>  -0.3630 
  2 C       -4.2100     6.2240     0.6110 C.ar  1 <1>   0.0820 
  3 C       -2.0130     6.6300    -0.0460 C.3   1 <1>   0.1200 
  4 C       -5.0790     7.2860     0.3520 C.ar  1 <1>  -0.1440 
  5 C       -4.6280     4.9030     0.4760 C.ar  1 <1>  -0.1440 
  6 C       -0.6430     6.8550     0.5910 C.3   1 <1>  -0.1600 
  7 C       -6.3660     7.0100    -0.1010 C.ar  1 <1>  -0.1430 
  8 C       -4.6340     8.7320     0.5690 C.3   1 <1>  -0.0960 
  9 C       -5.9130     4.6490     0.0340 C.ar  1 <1>  -0.1500 
 10 C       -3.7110     3.7340     0.8090 C.3   1 <1>  -0.0970 
 11 C        0.4260     7.0300    -0.4780 C.3   1 <1>   0.3430 
 12 C       -6.7700     5.6930    -0.2570 C.ar  1 <1>  -0.1500 
 13 C       -7.3620     8.1140    -0.4310 C.3   1 <1>  -0.0970 
 14 N        1.7350     7.2330     0.1870 N.4   1 <1>  -0.9060 
 15 C        2.8700     7.3960    -0.7410 C.3   1 <1>   0.4230 
 16 C        3.2610     6.0360    -1.3110 C.3   1 <1>  -0.1600 
 17 C        4.0930     7.7790     0.0820 C.3   1 <1>  -0.1600 
 18 C        4.0880     5.3460    -0.2180 C.3   1 <1>  -0.1600 
 19 C        4.6240     6.4690     0.6800 C.3   1 <1>  -0.1600 
 20 H       -2.3210     7.4750    -0.6380 H     1 <1>   0.0800 
 21 H       -2.0300     5.7390    -0.6500 H     1 <1>   0.0800 
 22 H       -0.4120     6.0020     1.2040 H     1 <1>   0.0800 
 23 H       -0.6960     7.7370     1.2060 H     1 <1>   0.0800 
 24 H       -3.7710     8.7870     1.2060 H     1 <1>   0.0800 
 25 H       -5.4140     9.2970     1.0460 H     1 <1>   0.0800 
 26 H       -4.4000     9.1880    -0.3750 H     1 <1>   0.0800 
 27 H       -6.2570     3.6370    -0.0860 H     1 <1>   0.1500 
 28 H       -3.0210     3.5660     0.0030 H     1 <1>   0.0800 
 29 H       -4.2810     2.8370     0.9680 H     1 <1>   0.0800 
 30 H       -3.1590     3.9420     1.7080 H     1 <1>   0.0800 
 31 H        0.1890     7.8820    -1.0960 H     1 <1>   0.0800 
 32 H        0.4590     6.1510    -1.1030 H     1 <1>   0.0800 
 33 H       -7.7640     5.4690    -0.6030 H     1 <1>   0.1500 
 34 H       -7.6830     8.6000     0.4730 H     1 <1>   0.0800 
 35 H       -8.2290     7.7170    -0.9270 H     1 <1>   0.0800 
 36 H       -6.9110     8.8410    -1.0810 H     1 <1>   0.0800 
 37 H        1.9560     6.4310     0.7900 H     1 <1>   0.4500 
 38 H        1.6880     8.0550     0.7990 H     1 <1>   0.4500 
 39 H        2.6510     8.1250    -1.5060 H     1 <1>   0.0800 
 40 H        3.9000     6.2030    -2.1630 H     1 <1>   0.0800 
 41 H        2.4280     5.4400    -1.6370 H     1 <1>   0.0800 
 42 H        3.8910     8.5260     0.8300 H     1 <1>   0.0800 
 43 H        4.8390     8.1730    -0.5880 H     1 <1>   0.0800 
 44 H        4.8950     4.7780    -0.6520 H     1 <1>   0.0800 
 45 H        3.4740     4.6740     0.3570 H     1 <1>   0.0800 
 46 H        4.2660     6.3390     1.6870 H     1 <1>   0.0800 
 47 H        5.7020     6.4690     0.7010 H     1 <1>   0.0800 
@<TRIPOS>BOND
  1   1   2  1   
  2   1   3  1   
  3   2   4  ar  
  4   2   5  ar  
  5   3   6  1   
  6   3  20  1   
  7   3  21  1   
  8   4   7  ar  
  9   4   8  1   
 10   5   9  ar  
 11   5  10  1   
 12   6  11  1   
 13   6  22  1   
 14   6  23  1   
 15   7  12  ar  
 16   7  13  1   
 17   8  24  1   
 18   8  25  1   
 19   8  26  1   
 20   9  12  ar  
 21   9  27  1   
 22  10  28  1   
 23  10  29  1   
 24  10  30  1   
 25  11  14  1   
 26  11  31  1   
 27  11  32  1   
 28  12  33  1   
 29  13  34  1   
 30  13  35  1   
 31  13  36  1   
 32  14  15  1   
 33  14  37  1   
 34  14  38  1   
 35  15  16  1   
 36  15  17  1   
 37  15  39  1   
 38  16  18  1   
 39  16  40  1   
 40  16  41  1   
 41  17  19  1   
 42  17  42  1   
 43  17  43  1   
 44  18  19  1   
 45  18  44  1   
 46  18  45  1   
 47  19  46  1   
 48  19  47  1   
@<TRIPOS>SUBSTRUCTURE
  1 ****   3 GROUP 4 **** **** 0

# MOE 2024.06 (io_trps.svl 2023.06)
