@<TRIPOS>MOLECULE
NONAME
62 65 1 0 0 
SMALL
USER_CHARGES


@<TRIPOS>ATOM
  1 O       -9.7870     4.5370     0.7500 O.3   1 <1>  -0.3630 
  2 C      -11.1230     4.6880     0.5710 C.ar  1 <1>   0.0830 
  3 C       -9.1960     3.2560     0.8000 C.3   1 <1>   0.1200 
  4 C      -11.6110     5.9830     0.5600 C.ar  1 <1>  -0.1500 
  5 C      -12.0110     3.6330     0.4010 C.ar  1 <1>  -0.1500 
  6 C       -7.6850     3.4310     0.9970 C.3   1 <1>   0.2000 
  7 C      -12.9610     6.2270     0.3820 C.ar  1 <1>  -0.1500 
  8 C      -13.3590     3.8850     0.2220 C.ar  1 <1>  -0.1500 
  9 O       -7.2020     4.3250     0.0380 O.3   1 <1>  -0.6800 
 10 C       -6.9080     2.1060     0.8690 C.3   1 <1>   0.3430 
 11 C      -13.8650     5.1820     0.2080 C.ar  1 <1>  -0.1440 
 12 N       -5.4890     2.3920     0.4950 N.4   1 <1>  -0.9060 
 13 C      -15.3820     5.4050     0.0040 C.3   1 <1>   0.1430 
 14 C       -4.7110     1.3420    -0.1540 C.3   1 <1>   0.5030 
 15 C      -15.7850     6.9030     0.0130 C.3   1 <1>  -0.1600 
 16 C      -15.8230     4.8130    -1.3560 C.3   1 <1>  -0.1600 
 17 C      -16.1750     4.7030     1.1330 C.3   1 <1>  -0.1600 
 18 C       -5.3500     0.9860    -1.4950 C.3   1 <1>  -0.2400 
 19 C       -3.3170     1.9170    -0.3800 C.3   1 <1>  -0.2400 
 20 C       -4.6340     0.1220     0.7620 C.3   1 <1>  -0.2400 
 21 C      -17.3000     7.0830    -0.1930 C.3   1 <1>  -0.0800 
 22 C      -17.3410     4.9740    -1.5680 C.3   1 <1>  -0.0800 
 23 C      -17.6940     4.8630     0.9290 C.3   1 <1>  -0.0800 
 24 C      -17.7010     6.4700    -1.5460 C.3   1 <1>  -0.1600 
 25 C      -18.0520     6.3600     0.9380 C.3   1 <1>  -0.1600 
 26 C      -18.0890     4.2550    -0.4300 C.3   1 <1>  -0.1600 
 27 H       -9.4050     2.7500    -0.1270 H     1 <1>   0.0800 
 28 H       -9.6310     2.7140     1.6230 H     1 <1>   0.0800 
 29 H      -10.9300     6.8040     0.6930 H     1 <1>   0.1500 
 30 H      -11.6830     2.6120     0.4020 H     1 <1>   0.1500 
 31 H       -7.5070     3.8640     1.9670 H     1 <1>   0.0800 
 32 H      -13.2800     7.2520     0.3820 H     1 <1>   0.1500 
 33 H      -14.0200     3.0470     0.0930 H     1 <1>   0.1500 
 34 H       -7.8450     5.0710    -0.0390 H     1 <1>   0.4000 
 35 H       -7.3740     1.5190     0.0960 H     1 <1>   0.0800 
 36 H       -6.9590     1.5470     1.7890 H     1 <1>   0.0800 
 37 H       -4.9710     2.7440     1.3030 H     1 <1>   0.4500 
 38 H       -5.5610     3.1990    -0.1480 H     1 <1>   0.4500 
 39 H      -15.2630     7.4240    -0.7710 H     1 <1>   0.0800 
 40 H      -15.5070     7.3480     0.9530 H     1 <1>   0.0800 
 41 H      -15.5780     3.7690    -1.4070 H     1 <1>   0.0800 
 42 H      -15.2910     5.3070    -2.1500 H     1 <1>   0.0800 
 43 H      -15.8890     5.1200     2.0820 H     1 <1>   0.0800 
 44 H      -15.9400     3.6550     1.1590 H     1 <1>   0.0800 
 45 H       -5.4650     1.8600    -2.1120 H     1 <1>   0.0800 
 46 H       -6.3060     0.5120    -1.3690 H     1 <1>   0.0800 
 47 H       -4.7200     0.2920    -2.0240 H     1 <1>   0.0800 
 48 H       -3.3540     2.7850    -1.0140 H     1 <1>   0.0800 
 49 H       -2.6930     1.1860    -0.8640 H     1 <1>   0.0800 
 50 H       -2.8480     2.1790     0.5520 H     1 <1>   0.0800 
 51 H       -5.5990    -0.3280     0.9040 H     1 <1>   0.0800 
 52 H       -4.2180     0.3830     1.7190 H     1 <1>   0.0800 
 53 H       -3.9950    -0.6220     0.3200 H     1 <1>   0.0800 
 54 H      -17.5480     8.1310    -0.1820 H     1 <1>   0.0800 
 55 H      -17.6230     4.5470    -2.5160 H     1 <1>   0.0800 
 56 H      -18.2220     4.3590     1.7210 H     1 <1>   0.0800 
 57 H      -18.7580     6.5930    -1.7040 H     1 <1>   0.0800 
 58 H      -17.1890     6.9790    -2.3440 H     1 <1>   0.0800 
 59 H      -19.1130     6.4820     0.8070 H     1 <1>   0.0800 
 60 H      -17.7880     6.7920     1.8870 H     1 <1>   0.0800 
 61 H      -17.8520     3.2060    -0.4430 H     1 <1>   0.0800 
 62 H      -19.1510     4.3510    -0.5760 H     1 <1>   0.0800 
@<TRIPOS>BOND
  1   1   2  1   
  2   1   3  1   
  3   2   4  ar  
  4   2   5  ar  
  5   3   6  1   
  6   3  27  1   
  7   3  28  1   
  8   4   7  ar  
  9   4  29  1   
 10   5   8  ar  
 11   5  30  1   
 12   6   9  1   
 13   6  10  1   
 14   6  31  1   
 15   7  11  ar  
 16   7  32  1   
 17   8  11  ar  
 18   8  33  1   
 19   9  34  1   
 20  10  12  1   
 21  10  35  1   
 22  10  36  1   
 23  11  13  1   
 24  12  14  1   
 25  12  37  1   
 26  12  38  1   
 27  13  15  1   
 28  13  16  1   
 29  13  17  1   
 30  14  18  1   
 31  14  19  1   
 32  14  20  1   
 33  15  21  1   
 34  15  39  1   
 35  15  40  1   
 36  16  22  1   
 37  16  41  1   
 38  16  42  1   
 39  17  23  1   
 40  17  43  1   
 41  17  44  1   
 42  18  45  1   
 43  18  46  1   
 44  18  47  1   
 45  19  48  1   
 46  19  49  1   
 47  19  50  1   
 48  20  51  1   
 49  20  52  1   
 50  20  53  1   
 51  21  24  1   
 52  21  25  1   
 53  21  54  1   
 54  22  24  1   
 55  22  26  1   
 56  22  55  1   
 57  23  25  1   
 58  23  26  1   
 59  23  56  1   
 60  24  57  1   
 61  24  58  1   
 62  25  59  1   
 63  25  60  1   
 64  26  61  1   
 65  26  62  1   
@<TRIPOS>SUBSTRUCTURE
  1 ****   5 GROUP 4 **** **** 0

# MOE 2024.06 (io_trps.svl 2023.06)
