@<TRIPOS>MOLECULE
NONAME
42 43 1 0 0 
SMALL
USER_CHARGES


@<TRIPOS>ATOM
  1 S       -0.2100     0.1720    -0.3050 S.o2  1 <1>   1.4970 
  2 O       -0.5810     0.7880    -1.5630 O.2   1 <1>  -0.6500 
  3 O       -0.7990     0.7010     0.9130 O.2   1 <1>  -0.6500 
  4 N       -0.6750    -1.4350    -0.4200 N.2   1 <1>  -0.6380 
  5 C        1.6000     0.1050    -0.1530 C.ar  1 <1>  -0.0090 
  6 C       -1.9150    -1.7300    -0.3320 C.2   1 <1>   0.4860 
  7 C        2.3180     1.2860    -0.0130 C.ar  1 <1>   0.0830 
  8 C        2.3130    -1.0900    -0.1740 C.ar  1 <1>  -0.1500 
  9 N       -2.9180    -0.8350     0.0090 N.pl3 1 <1>  -0.5500 
 10 C       -2.3580    -3.0680    -0.5830 C.2   1 <1>  -0.1360 
 11 O        1.6090     2.4420     0.0020 O.3   1 <1>  -0.3620 
 12 C        3.7050     1.2610     0.1040 C.ar  1 <1>  -0.1500 
 13 C        3.6940    -1.1260    -0.0580 C.ar  1 <1>  -0.1430 
 14 C       -4.2530    -1.1730     0.0690 C.2   1 <1>  -0.0380 
 15 C       -3.6670    -3.4250    -0.5250 C.2   1 <1>  -0.1500 
 16 C        2.2170     3.7080     0.1020 C.3   1 <1>   0.1200 
 17 C        4.3980     0.0630     0.0830 C.ar  1 <1>  -0.1430 
 18 C        4.4040    -2.4720    -0.0890 C.3   1 <1>  -0.0970 
 19 C       -4.6400    -2.4460    -0.1960 C.2   1 <1>  -0.1500 
 20 C       -5.2120    -0.0620     0.4430 C.3   1 <1>  -0.1020 
 21 C        1.1120     4.7580     0.0640 C.3   1 <1>  -0.2400 
 22 C        5.9150     0.0770     0.2140 C.3   1 <1>  -0.0970 
 23 H        1.7810    -2.0180    -0.2840 H     1 <1>   0.1500 
 24 H       -2.6110     0.0950     0.3220 H     1 <1>   0.4000 
 25 H       -1.5930    -3.7800    -0.8290 H     1 <1>   0.1500 
 26 H        4.2600     2.1720     0.2140 H     1 <1>   0.1500 
 27 H       -3.9960    -4.4310    -0.7210 H     1 <1>   0.1500 
 28 H        2.8880     3.8310    -0.7310 H     1 <1>   0.0800 
 29 H        2.7570     3.7550     1.0320 H     1 <1>   0.0800 
 30 H        3.7030    -3.2790    -0.2030 H     1 <1>   0.0800 
 31 H        4.9450    -2.6250     0.8270 H     1 <1>   0.0800 
 32 H        5.0930    -2.5070    -0.9140 H     1 <1>   0.0800 
 33 H       -5.6720    -2.7460    -0.1610 H     1 <1>   0.1500 
 34 H       -4.9660     0.3230     1.4160 H     1 <1>   0.0800 
 35 H       -6.2230    -0.4250     0.4620 H     1 <1>   0.0800 
 36 H       -5.1450     0.7350    -0.2750 H     1 <1>   0.0800 
 37 H        0.5680     4.6860    -0.8610 H     1 <1>   0.0800 
 38 H        1.5390     5.7410     0.1380 H     1 <1>   0.0800 
 39 H        0.4370     4.6120     0.8890 H     1 <1>   0.0800 
 40 H        6.2870     1.0800     0.3140 H     1 <1>   0.0800 
 41 H        6.3650    -0.3630    -0.6580 H     1 <1>   0.0800 
 42 H        6.2150    -0.4810     1.0830 H     1 <1>   0.0800 
@<TRIPOS>BOND
  1   1   2  2   
  2   1   3  2   
  3   1   4  1   
  4   1   5  1   
  5   4   6  2   
  6   5   7  ar  
  7   5   8  ar  
  8   6   9  1   
  9   6  10  1   
 10   7  11  1   
 11   7  12  ar  
 12   8  13  ar  
 13   8  23  1   
 14   9  14  1   
 15   9  24  1   
 16  10  15  2   
 17  10  25  1   
 18  11  16  1   
 19  12  17  ar  
 20  12  26  1   
 21  13  17  ar  
 22  13  18  1   
 23  14  19  2   
 24  14  20  1   
 25  15  19  1   
 26  15  27  1   
 27  16  21  1   
 28  16  28  1   
 29  16  29  1   
 30  17  22  1   
 31  18  30  1   
 32  18  31  1   
 33  18  32  1   
 34  19  33  1   
 35  20  34  1   
 36  20  35  1   
 37  20  36  1   
 38  21  37  1   
 39  21  38  1   
 40  21  39  1   
 41  22  40  1   
 42  22  41  1   
 43  22  42  1   
@<TRIPOS>SUBSTRUCTURE
  1 ****   1 GROUP 4 **** **** 0

# MOE 2024.06 (io_trps.svl 2023.06)
