@<TRIPOS>MOLECULE
NONAME
57 60 1 0 0 
SMALL
USER_CHARGES


@<TRIPOS>ATOM
  1 O       -0.9810    -0.1450     0.5230 O.2   1 <1>  -0.5700 
  2 C       -1.1160    -1.2710     0.9630 C.2   1 <1>   0.6900 
  3 N       -2.1580    -1.5630     1.8020 N.am  1 <1>  -0.6600 
  4 N       -0.2340    -2.2660     0.6580 N.am  1 <1>  -0.5470 
  5 C       -2.8790    -2.8760     1.7680 C.3   1 <1>   0.1400 
  6 C       -2.9860    -0.4640     2.3910 C.3   1 <1>   0.1400 
  7 C        0.7980    -2.3440    -0.2870 C.ar  1 <1>   0.1170 
  8 C       -4.2400    -2.7410     1.0630 C.3   1 <1>   0.2090 
  9 C       -4.3380    -0.3450     1.6680 C.3   1 <1>   0.2090 
 10 C        1.7900    -3.2990    -0.1120 C.ar  1 <1>  -0.1500 
 11 C        0.8630    -1.5220    -1.4080 C.ar  1 <1>  -0.1500 
 12 N       -5.0650    -1.6510     1.6740 N.pl3 1 <1>  -0.8380 
 13 C        2.8250    -3.4370    -1.0200 C.ar  1 <1>   0.0830 
 14 C        1.8930    -1.6480    -2.3220 C.ar  1 <1>  -0.1500 
 15 C       -6.3980    -1.5790     1.2740 C.ar  1 <1>   0.4100 
 16 O        3.7410    -4.4020    -0.7560 O.3   1 <1>  -0.3630 
 17 C        2.8770    -2.6030    -2.1340 C.ar  1 <1>  -0.1500 
 18 N       -6.7200    -1.9490     0.0310 N.ar  1 <1>  -0.3100 
 19 C       -7.3450    -1.1180     2.1710 C.ar  1 <1>  -0.1500 
 20 C        4.8510    -4.6060    -1.6020 C.3   1 <1>   0.0400 
 21 N       -7.9690    -1.8790    -0.3790 N.ar  1 <1>  -0.3100 
 22 C       -8.6460    -1.0430     1.7440 C.ar  1 <1>  -0.1500 
 23 C       -8.9200    -1.4350     0.4480 C.ar  1 <1>   0.4100 
 24 N      -10.2280    -1.3750    -0.0140 N.pl3 1 <1>  -0.8380 
 25 C      -10.4240    -0.5560    -1.2390 C.3   1 <1>   0.2090 
 26 C      -10.9030    -2.6940    -0.1010 C.3   1 <1>   0.2090 
 27 C      -11.9200    -0.3040    -1.4520 C.3   1 <1>  -0.1600 
 28 C      -12.4090    -2.4880    -0.2940 C.3   1 <1>  -0.1600 
 29 C      -12.7080    -1.6210    -1.5250 C.3   1 <1>  -0.1600 
 30 H       -0.2730    -3.0300     1.3230 H     1 <1>   0.3700 
 31 H       -3.0390    -3.2160     2.7760 H     1 <1>   0.0800 
 32 H       -2.2980    -3.6200     1.2540 H     1 <1>   0.0800 
 33 H       -2.4640     0.4750     2.3290 H     1 <1>   0.0800 
 34 H       -3.1610    -0.6740     3.4310 H     1 <1>   0.0800 
 35 H       -4.7750    -3.6730     1.1330 H     1 <1>   0.0800 
 36 H       -4.0780    -2.5280     0.0200 H     1 <1>   0.0800 
 37 H       -4.1690    -0.0310     0.6510 H     1 <1>   0.0800 
 38 H       -4.9360     0.4070     2.1530 H     1 <1>   0.0800 
 39 H        1.7700    -3.9480     0.7420 H     1 <1>   0.1500 
 40 H        0.1040    -0.7780    -1.5710 H     1 <1>   0.1500 
 41 H        1.9270    -1.0000    -3.1800 H     1 <1>   0.1500 
 42 H        3.6650    -2.6820    -2.8570 H     1 <1>   0.1500 
 43 H       -7.0540    -0.8370     3.1640 H     1 <1>   0.1500 
 44 H        5.4400    -5.4070    -1.1920 H     1 <1>   0.0800 
 45 H        5.4340    -3.7030    -1.6360 H     1 <1>   0.0800 
 46 H        4.4980    -4.8770    -2.5810 H     1 <1>   0.0800 
 47 H       -9.4420    -0.6960     2.3740 H     1 <1>   0.1500 
 48 H      -10.0110    -1.0750    -2.0880 H     1 <1>   0.0800 
 49 H       -9.9050     0.3820    -1.1300 H     1 <1>   0.0800 
 50 H      -10.7230    -3.2520     0.8020 H     1 <1>   0.0800 
 51 H      -10.4960    -3.2500    -0.9300 H     1 <1>   0.0800 
 52 H      -12.0590     0.2530    -2.3610 H     1 <1>   0.0800 
 53 H      -12.2860     0.2940    -0.6370 H     1 <1>   0.0800 
 54 H      -12.8050    -2.0160     0.5880 H     1 <1>   0.0800 
 55 H      -12.8880    -3.4450    -0.3990 H     1 <1>   0.0800 
 56 H      -12.4230    -2.1560    -2.4150 H     1 <1>   0.0800 
 57 H      -13.7630    -1.4140    -1.5810 H     1 <1>   0.0800 
@<TRIPOS>BOND
  1   1   2  2   
  2   2   3  am  
  3   2   4  am  
  4   3   5  1   
  5   3   6  1   
  6   4   7  1   
  7   4  30  1   
  8   5   8  1   
  9   5  31  1   
 10   5  32  1   
 11   6   9  1   
 12   6  33  1   
 13   6  34  1   
 14   7  10  ar  
 15   7  11  ar  
 16   8  12  1   
 17   8  35  1   
 18   8  36  1   
 19   9  12  1   
 20   9  37  1   
 21   9  38  1   
 22  10  13  ar  
 23  10  39  1   
 24  11  14  ar  
 25  11  40  1   
 26  12  15  1   
 27  13  16  1   
 28  13  17  ar  
 29  14  17  ar  
 30  14  41  1   
 31  15  18  ar  
 32  15  19  ar  
 33  16  20  1   
 34  17  42  1   
 35  18  21  ar  
 36  19  22  ar  
 37  19  43  1   
 38  20  44  1   
 39  20  45  1   
 40  20  46  1   
 41  21  23  ar  
 42  22  23  ar  
 43  22  47  1   
 44  23  24  1   
 45  24  25  1   
 46  24  26  1   
 47  25  27  1   
 48  25  48  1   
 49  25  49  1   
 50  26  28  1   
 51  26  50  1   
 52  26  51  1   
 53  27  29  1   
 54  27  52  1   
 55  27  53  1   
 56  28  29  1   
 57  28  54  1   
 58  28  55  1   
 59  29  56  1   
 60  29  57  1   
@<TRIPOS>SUBSTRUCTURE
  1 ****   8 GROUP 4 **** **** 0

# MOE 2024.06 (io_trps.svl 2023.06)
