@<TRIPOS>MOLECULE
NONAME
33 35 1 0 0 
SMALL
USER_CHARGES


@<TRIPOS>ATOM
  1 S       -0.4150    -0.8380    -0.7560 S.3   1 <1>  -0.0800 
  2 C        0.6500     0.4580    -0.2320 C.2   1 <1>  -0.0360 
  3 C       -1.8260     0.1360    -0.4310 C.2   1 <1>  -0.1400 
  4 N        2.0310     0.1780    -0.2320 N.pl3 1 <1>   0.6460 
  5 C       -0.0590     1.5710     0.1320 C.2   1 <1>  -0.0860 
  6 C       -1.4830     1.3540     0.0130 C.2   1 <1>  -0.1810 
  7 C       -3.2130    -0.4260    -0.6580 C.3   1 <1>   0.0200 
  8 N        2.8900     0.5540     0.7070 N.2   1 <1>  -0.4180 
  9 C        2.7380    -0.5270    -1.1060 C.2   1 <1>   0.0360 
 10 C        0.5180     2.8240     0.5590 C.2   1 <1>   0.8060 
 11 C       -2.5500     2.3890     0.3540 C.3   1 <1>   0.0210 
 12 C       -4.2460     0.4980     0.0130 C.3   1 <1>  -0.1600 
 13 N        4.0400     0.0930     0.3760 N.2   1 <1>   0.0000 
 14 N        3.9640    -0.5910    -0.7600 N.2   1 <1>  -0.3380 
 15 O        0.0130     3.5560     1.3850 O.2   1 <1>  -0.5700 
 16 O        1.6670     3.1850    -0.0200 O.3   1 <1>  -0.4300 
 17 C       -3.9240     1.9870    -0.2210 C.3   1 <1>  -0.1600 
 18 C        2.3690     4.3610     0.3210 C.3   1 <1>   0.1200 
 19 C        1.8240     5.5210    -0.5100 C.3   1 <1>  -0.2400 
 20 H       -3.2850    -1.4160    -0.2440 H     1 <1>   0.0800 
 21 H       -3.3980    -0.4810    -1.7160 H     1 <1>   0.0800 
 22 H        2.3050    -0.9730    -1.9810 H     1 <1>   0.1500 
 23 H       -2.2740     3.3510    -0.0420 H     1 <1>   0.0800 
 24 H       -2.6150     2.4760     1.4240 H     1 <1>   0.0800 
 25 H       -4.2450     0.3080     1.0730 H     1 <1>   0.0800 
 26 H       -5.2280     0.2700    -0.3620 H     1 <1>   0.0800 
 27 H       -3.9260     2.1800    -1.2800 H     1 <1>   0.0800 
 28 H       -4.6870     2.6000     0.2250 H     1 <1>   0.0800 
 29 H        3.4080     4.1940     0.0970 H     1 <1>   0.0800 
 30 H        2.2670     4.5460     1.3780 H     1 <1>   0.0800 
 31 H        1.9250     5.3080    -1.5590 H     1 <1>   0.0800 
 32 H        0.7890     5.6980    -0.2740 H     1 <1>   0.0800 
 33 H        2.3780     6.4150    -0.2880 H     1 <1>   0.0800 
@<TRIPOS>BOND
  1   1   2  1   
  2   1   3  1   
  3   2   4  1   
  4   2   5  2   
  5   3   6  2   
  6   3   7  1   
  7   4   8  1   
  8   4   9  1   
  9   5   6  1   
 10   5  10  1   
 11   6  11  1   
 12   7  12  1   
 13   7  20  1   
 14   7  21  1   
 15   8  13  2   
 16   9  14  2   
 17   9  22  1   
 18  10  15  2   
 19  10  16  1   
 20  11  17  1   
 21  11  23  1   
 22  11  24  1   
 23  12  17  1   
 24  12  25  1   
 25  12  26  1   
 26  13  14  1   
 27  16  18  1   
 28  17  27  1   
 29  17  28  1   
 30  18  19  1   
 31  18  29  1   
 32  18  30  1   
 33  19  31  1   
 34  19  32  1   
 35  19  33  1   
@<TRIPOS>SUBSTRUCTURE
  1 ****   5 GROUP 4 **** **** 0

# MOE 2024.06 (io_trps.svl 2023.06)
