@<TRIPOS>MOLECULE
NONAME
39 40 1 0 0 
SMALL
USER_CHARGES


@<TRIPOS>ATOM
  1 S        0.5420     0.2380     0.9580 S.3   1 <1>  -0.3320 
  2 C       -0.7020    -0.8460     0.2220 C.ar  1 <1>   0.1020 
  3 C        2.0050     0.1200    -0.1650 C.3   1 <1>  -0.0100 
  4 C       -0.4130    -2.1660    -0.1360 C.ar  1 <1>   0.1000 
  5 C       -1.9570    -0.2990     0.0320 C.ar  1 <1>  -0.1500 
  6 N        0.8480    -2.7340     0.1230 N.pl3 1 <1>  -0.6000 
  7 C       -1.4340    -2.9110    -0.7210 C.ar  1 <1>  -0.1500 
  8 C       -2.9560    -1.0600    -0.5490 C.ar  1 <1>  -0.1500 
  9 C        1.4390    -3.8390    -0.4160 C.2   1 <1>  -0.0500 
 10 C       -2.6900    -2.3650    -0.9280 C.ar  1 <1>  -0.1500 
 11 C        2.6690    -4.3660    -0.0830 C.2   1 <1>   0.0290 
 12 C        3.5230    -3.7700     0.9070 C.2   1 <1>   0.4950 
 13 C        3.1240    -5.5530    -0.7440 C.2   1 <1>   0.4950 
 14 O        3.2730    -2.7360     1.4830 O.2   1 <1>  -0.5700 
 15 C        4.8330    -4.4280     1.3070 C.3   1 <1>  -0.0990 
 16 O        2.4860    -6.1160    -1.6020 O.2   1 <1>  -0.5700 
 17 C        4.4520    -6.2040    -0.3900 C.3   1 <1>  -0.0990 
 18 C        5.4850    -5.2110     0.1590 C.3   1 <1>   0.0000 
 19 C        6.7060    -5.9790     0.6880 C.3   1 <1>  -0.2400 
 20 C        5.9580    -4.2530    -0.9500 C.3   1 <1>  -0.2400 
 21 H        2.4510     1.0960    -0.2210 H     1 <1>   0.0800 
 22 H        1.6580    -0.2020    -1.1300 H     1 <1>   0.0800 
 23 H        2.6940    -0.5880     0.2560 H     1 <1>   0.0800 
 24 H       -2.1470     0.7160     0.3320 H     1 <1>   0.1500 
 25 H        1.3930    -2.2160     0.8380 H     1 <1>   0.4000 
 26 H       -1.2570    -3.9300    -1.0060 H     1 <1>   0.1500 
 27 H       -3.9340    -0.6400    -0.7050 H     1 <1>   0.1500 
 28 H        0.8700    -4.3380    -1.1830 H     1 <1>   0.1500 
 29 H       -3.4640    -2.9600    -1.3820 H     1 <1>   0.1500 
 30 H        5.5120    -3.6700     1.6570 H     1 <1>   0.0800 
 31 H        4.6310    -5.0840     2.1350 H     1 <1>   0.0800 
 32 H        4.2530    -6.9710     0.3370 H     1 <1>   0.0800 
 33 H        4.8460    -6.6880    -1.2670 H     1 <1>   0.0800 
 34 H        7.4390    -5.2980     1.0850 H     1 <1>   0.0800 
 35 H        7.1690    -6.5450    -0.1020 H     1 <1>   0.0800 
 36 H        6.4240    -6.6620     1.4700 H     1 <1>   0.0800 
 37 H        5.1460    -3.6870    -1.3700 H     1 <1>   0.0800 
 38 H        6.4240    -4.8040    -1.7490 H     1 <1>   0.0800 
 39 H        6.6820    -3.5570    -0.5630 H     1 <1>   0.0800 
@<TRIPOS>BOND
  1   1   2  1   
  2   1   3  1   
  3   2   4  ar  
  4   2   5  ar  
  5   3  21  1   
  6   3  22  1   
  7   3  23  1   
  8   4   6  1   
  9   4   7  ar  
 10   5   8  ar  
 11   5  24  1   
 12   6   9  1   
 13   6  25  1   
 14   7  10  ar  
 15   7  26  1   
 16   8  10  ar  
 17   8  27  1   
 18   9  11  2   
 19   9  28  1   
 20  10  29  1   
 21  11  12  1   
 22  11  13  1   
 23  12  14  2   
 24  12  15  1   
 25  13  16  2   
 26  13  17  1   
 27  15  18  1   
 28  15  30  1   
 29  15  31  1   
 30  17  18  1   
 31  17  32  1   
 32  17  33  1   
 33  18  19  1   
 34  18  20  1   
 35  19  34  1   
 36  19  35  1   
 37  19  36  1   
 38  20  37  1   
 39  20  38  1   
 40  20  39  1   
@<TRIPOS>SUBSTRUCTURE
  1 ****   9 GROUP 4 **** **** 0

# MOE 2024.06 (io_trps.svl 2023.06)
