@<TRIPOS>MOLECULE
NONAME
47 50 1 0 0 
SMALL
USER_CHARGES


@<TRIPOS>ATOM
  1 BR       0.5870    -1.3420    -1.3900 Br    1 <1>  -0.1110 
  2 C        2.4220    -1.5070    -0.8180 C.ar  1 <1>   0.1110 
  3 C        3.2900    -2.3430    -1.5060 C.ar  1 <1>  -0.1440 
  4 C        2.8170    -0.7680     0.2820 C.ar  1 <1>  -0.1500 
  5 C        4.5980    -2.4250    -1.0540 C.ar  1 <1>  -0.1500 
  6 C        2.8370    -3.1480    -2.7140 C.3   1 <1>  -0.0960 
  7 C        4.1260    -0.8620     0.7190 C.ar  1 <1>  -0.1500 
  8 C        5.0220    -1.6940     0.0480 C.ar  1 <1>   0.0830 
  9 O        6.3210    -1.8450     0.4090 O.3   1 <1>  -0.3630 
 10 C        6.8630    -1.1450     1.5240 C.3   1 <1>   0.1810 
 11 C        8.3360    -1.4750     1.7320 C.2   1 <1>   0.5690 
 12 O        8.9220    -0.9470     2.6470 O.2   1 <1>  -0.5700 
 13 N        8.9480    -2.3470     0.8910 N.am  1 <1>  -0.7300 
 14 C       10.3580    -2.7810     0.9420 C.3   1 <1>   0.2200 
 15 C       11.0800    -2.3980    -0.3670 C.3   1 <1>  -0.0800 
 16 C       10.4380    -4.3090     1.1450 C.3   1 <1>  -0.0800 
 17 C       12.5650    -2.7990    -0.2410 C.3   1 <1>  -0.1600 
 18 C       10.4690    -3.1480    -1.5730 C.3   1 <1>  -0.1600 
 19 C       11.9230    -4.7070     1.2700 C.3   1 <1>  -0.1600 
 20 C        9.8270    -5.0570    -0.0610 C.3   1 <1>  -0.1600 
 21 C       12.6840    -4.3200    -0.0150 C.3   1 <1>  -0.0800 
 22 C       10.5710    -4.6700    -1.3540 C.3   1 <1>  -0.0800 
 23 C       12.0560    -5.0570    -1.2130 C.3   1 <1>  -0.1600 
 24 H        2.1090    -0.1330     0.7830 H     1 <1>   0.1500 
 25 H        5.3070    -3.0590    -1.5540 H     1 <1>   0.1500 
 26 H        2.0390    -3.8120    -2.4350 H     1 <1>   0.0800 
 27 H        3.6450    -3.7350    -3.1110 H     1 <1>   0.0800 
 28 H        2.4850    -2.4860    -3.4860 H     1 <1>   0.0800 
 29 H        4.4230    -0.2840     1.5740 H     1 <1>   0.1500 
 30 H        6.3130    -1.4260     2.4020 H     1 <1>   0.0800 
 31 H        6.7620    -0.0900     1.3450 H     1 <1>   0.0800 
 32 H        8.3950    -2.7590     0.1370 H     1 <1>   0.3700 
 33 H       10.8420    -2.2880     1.7690 H     1 <1>   0.0800 
 34 H       11.0110    -1.3340    -0.5150 H     1 <1>   0.0800 
 35 H        9.9220    -4.5750     2.0510 H     1 <1>   0.0800 
 36 H       13.0160    -2.2720     0.5820 H     1 <1>   0.0800 
 37 H       13.0960    -2.5210    -1.1350 H     1 <1>   0.0800 
 38 H       10.9950    -2.8760    -2.4710 H     1 <1>   0.0800 
 39 H        9.4400    -2.8640    -1.7080 H     1 <1>   0.0800 
 40 H       12.0040    -5.7680     1.4350 H     1 <1>   0.0800 
 41 H       12.3640    -4.2110     2.1170 H     1 <1>   0.0800 
 42 H        8.7810    -4.8250    -0.1560 H     1 <1>   0.0800 
 43 H        9.9040    -6.1190     0.0960 H     1 <1>   0.0800 
 44 H       13.7210    -4.5950     0.0790 H     1 <1>   0.0800 
 45 H       10.1390    -5.1890    -2.1930 H     1 <1>   0.0800 
 46 H       12.1430    -6.1210    -1.0720 H     1 <1>   0.0800 
 47 H       12.5860    -4.8040    -2.1140 H     1 <1>   0.0800 
@<TRIPOS>BOND
  1   1   2  1   
  2   2   3  ar  
  3   2   4  ar  
  4   3   5  ar  
  5   3   6  1   
  6   4   7  ar  
  7   4  24  1   
  8   5   8  ar  
  9   5  25  1   
 10   6  26  1   
 11   6  27  1   
 12   6  28  1   
 13   7   8  ar  
 14   7  29  1   
 15   8   9  1   
 16   9  10  1   
 17  10  11  1   
 18  10  30  1   
 19  10  31  1   
 20  11  12  2   
 21  11  13  am  
 22  13  14  1   
 23  13  32  1   
 24  14  15  1   
 25  14  16  1   
 26  14  33  1   
 27  15  17  1   
 28  15  18  1   
 29  15  34  1   
 30  16  19  1   
 31  16  20  1   
 32  16  35  1   
 33  17  21  1   
 34  17  36  1   
 35  17  37  1   
 36  18  22  1   
 37  18  38  1   
 38  18  39  1   
 39  19  21  1   
 40  19  40  1   
 41  19  41  1   
 42  20  22  1   
 43  20  42  1   
 44  20  43  1   
 45  21  23  1   
 46  21  44  1   
 47  22  23  1   
 48  22  45  1   
 49  23  46  1   
 50  23  47  1   
@<TRIPOS>SUBSTRUCTURE
  1 ****  13 GROUP 4 **** **** 0

# MOE 2024.06 (io_trps.svl 2023.06)
