@<TRIPOS>MOLECULE
NONAME
41 43 1 0 0 
SMALL
USER_CHARGES


@<TRIPOS>ATOM
  1 O        0.3180    -0.6300     0.2740 O.2   1 <1>  -0.5700 
  2 C        0.2050    -1.8370     0.3790 C.2   1 <1>   0.5440 
  3 N        1.2900    -2.5730     0.8120 N.am  1 <1>  -0.6600 
  4 C       -1.0580    -2.4620     0.0410 C.ar  1 <1>   0.0860 
  5 C        2.5200    -1.9190     1.3690 C.3   1 <1>   0.1400 
  6 C        1.4550    -4.0430     0.5660 C.3   1 <1>   0.1400 
  7 C       -1.7080    -3.3260     0.9250 C.ar  1 <1>  -0.1500 
  8 C       -1.6760    -2.2130    -1.1850 C.ar  1 <1>  -0.1500 
  9 C        3.7660    -2.2470     0.5300 C.3   1 <1>   0.2090 
 10 C        2.7250    -4.3460    -0.2510 C.3   1 <1>   0.2090 
 11 C       -2.9090    -3.9290     0.5980 C.ar  1 <1>  -0.1500 
 12 C       -2.8750    -2.8130    -1.5200 C.ar  1 <1>  -0.1500 
 13 N        3.9290    -3.7260     0.3690 N.pl3 1 <1>  -0.8380 
 14 C       -3.5010    -3.6760    -0.6370 C.ar  1 <1>   0.0820 
 15 C        5.1500    -4.1910    -0.0750 C.ar  1 <1>   0.4100 
 16 O       -4.6700    -4.2240    -1.0380 O.3   1 <1>  -0.3630 
 17 N        5.7950    -3.4560    -0.9730 N.ar  1 <1>  -0.6200 
 18 C        5.6400    -5.3970     0.4180 C.ar  1 <1>  -0.1500 
 19 C       -5.4220    -5.0730    -0.2000 C.3   1 <1>   0.0400 
 20 C        6.9540    -3.9380    -1.3880 C.ar  1 <1>   0.1600 
 21 C        6.8460    -5.8880    -0.0220 C.ar  1 <1>  -0.1500 
 22 C        7.5180    -5.1260    -0.9560 C.ar  1 <1>  -0.1500 
 23 H        2.6770    -2.2700     2.3730 H     1 <1>   0.0800 
 24 H        2.3980    -0.8510     1.4120 H     1 <1>   0.0800 
 25 H        0.6080    -4.4380     0.0360 H     1 <1>   0.0800 
 26 H        1.5230    -4.5490     1.5130 H     1 <1>   0.0800 
 27 H       -1.2590    -3.5170     1.8830 H     1 <1>   0.1500 
 28 H       -1.2010    -1.5360    -1.8750 H     1 <1>   0.1500 
 29 H        4.6400    -1.8420     1.0090 H     1 <1>   0.0800 
 30 H        3.6740    -1.7870    -0.4390 H     1 <1>   0.0800 
 31 H        2.6060    -3.9620    -1.2500 H     1 <1>   0.0800 
 32 H        2.8620    -5.4110    -0.3190 H     1 <1>   0.0800 
 33 H       -3.3720    -4.5860     1.3100 H     1 <1>   0.1500 
 34 H       -3.3380    -2.6120    -2.4700 H     1 <1>   0.1500 
 35 H        5.0600    -5.9270     1.1490 H     1 <1>   0.1500 
 36 H       -6.3100    -5.3640    -0.7310 H     1 <1>   0.0800 
 37 H       -5.6890    -4.5350     0.6920 H     1 <1>   0.0800 
 38 H       -4.8340    -5.9430     0.0340 H     1 <1>   0.0800 
 39 H        7.4870    -3.3510    -2.1160 H     1 <1>   0.1500 
 40 H        7.2490    -6.8170     0.3430 H     1 <1>   0.1500 
 41 H        8.4670    -5.4480    -1.3440 H     1 <1>   0.1500 
@<TRIPOS>BOND
  1   1   2  2   
  2   2   3  am  
  3   2   4  1   
  4   3   5  1   
  5   3   6  1   
  6   4   7  ar  
  7   4   8  ar  
  8   5   9  1   
  9   5  23  1   
 10   5  24  1   
 11   6  10  1   
 12   6  25  1   
 13   6  26  1   
 14   7  11  ar  
 15   7  27  1   
 16   8  12  ar  
 17   8  28  1   
 18   9  13  1   
 19   9  29  1   
 20   9  30  1   
 21  10  13  1   
 22  10  31  1   
 23  10  32  1   
 24  11  14  ar  
 25  11  33  1   
 26  12  14  ar  
 27  12  34  1   
 28  13  15  1   
 29  14  16  1   
 30  15  17  ar  
 31  15  18  ar  
 32  16  19  1   
 33  17  20  ar  
 34  18  21  ar  
 35  18  35  1   
 36  19  36  1   
 37  19  37  1   
 38  19  38  1   
 39  20  22  ar  
 40  20  39  1   
 41  21  22  ar  
 42  21  40  1   
 43  22  41  1   
@<TRIPOS>SUBSTRUCTURE
  1 ****   6 GROUP 4 **** **** 0

# MOE 2024.06 (io_trps.svl 2023.06)
