@<TRIPOS>MOLECULE
NONAME
25 24 1 0 0 
SMALL
USER_CHARGES


@<TRIPOS>ATOM
  1 F        0.4620    -0.4200     0.4960 F     1 <1>  -0.1500 
  2 C       -0.5080    -1.2750     0.4040 C.2   1 <1>   0.0110 
  3 C       -0.3040    -2.4290    -0.2840 C.2   1 <1>   0.0790 
  4 C       -1.7570    -0.7630     1.1460 C.3   1 <1>   0.0580 
  5 C        0.9680    -2.7240    -0.8680 C.1   1 <1>   0.4920 
  6 C       -1.2750    -3.4590    -0.5330 C.2   1 <1>   0.7060 
  7 C       -2.4030     0.4190     0.4480 C.3   1 <1>   1.0200 
  8 C       -1.4980    -0.4210     2.6020 C.3   1 <1>   1.0200 
  9 N        1.9870    -2.9250    -1.3380 N.1   1 <1>  -0.5570 
 10 O       -1.0000    -4.6340    -0.6310 O.2   1 <1>  -0.5700 
 11 O       -2.5490    -3.0800    -0.6630 O.3   1 <1>  -0.4300 
 12 F       -3.5750     0.7560     0.9640 F     1 <1>  -0.3400 
 13 F       -2.6440     0.1330    -0.8240 F     1 <1>  -0.3400 
 14 F       -1.6690     1.5200     0.4310 F     1 <1>  -0.3400 
 15 F       -0.7390     0.6450     2.8040 F     1 <1>  -0.3400 
 16 F       -2.6110    -0.2230     3.2920 F     1 <1>  -0.3400 
 17 F       -0.8800    -1.4240     3.2090 F     1 <1>  -0.3400 
 18 C       -3.5920    -3.9740    -1.0050 C.3   1 <1>   0.1200 
 19 C       -3.6390    -4.1150    -2.5250 C.3   1 <1>  -0.2400 
 20 H       -2.4940    -1.5380     1.1720 H     1 <1>   0.0800 
 21 H       -3.4270    -4.9240    -0.5240 H     1 <1>   0.0800 
 22 H       -4.5150    -3.5550    -0.6430 H     1 <1>   0.0800 
 23 H       -2.7270    -4.5550    -2.8900 H     1 <1>   0.0800 
 24 H       -3.7890    -3.1560    -2.9870 H     1 <1>   0.0800 
 25 H       -4.4550    -4.7580    -2.8020 H     1 <1>   0.0800 
@<TRIPOS>BOND
  1   1   2  1   
  2   2   3  2   
  3   2   4  1   
  4   3   5  1   
  5   3   6  1   
  6   4   7  1   
  7   4   8  1   
  8   4  20  1   
  9   5   9  3   
 10   6  10  2   
 11   6  11  1   
 12   7  12  1   
 13   7  13  1   
 14   7  14  1   
 15   8  15  1   
 16   8  16  1   
 17   8  17  1   
 18  11  18  1   
 19  18  19  1   
 20  18  21  1   
 21  18  22  1   
 22  19  23  1   
 23  19  24  1   
 24  19  25  1   
@<TRIPOS>SUBSTRUCTURE
  1 ****   2 GROUP 4 **** **** 0

# MOE 2024.06 (io_trps.svl 2023.06)
