@<TRIPOS>MOLECULE
NONAME
39 41 1 0 0 
SMALL
USER_CHARGES


@<TRIPOS>ATOM
  1 S       -0.1620     0.3110    -0.5930 S.o2  1 <1>   1.3330 
  2 O        1.0460    -0.4750    -0.5120 O.2   1 <1>  -0.6500 
  3 O       -0.5480     0.9800    -1.8110 O.2   1 <1>  -0.6500 
  4 N       -1.4580    -0.7230    -0.1000 N.am  1 <1>  -0.6930 
  5 C       -0.1400     1.4980     0.7320 C.3   1 <1>  -0.1350 
  6 C       -2.8140    -0.5570    -0.2740 C.ar  1 <1>   0.1990 
  7 C       -1.1660    -2.0470     0.4880 C.3   1 <1>   0.1960 
  8 C       -3.5100    -1.6420     0.2130 C.ar  1 <1>  -0.1440 
  9 C       -3.5140     0.4950    -0.8500 C.ar  1 <1>  -0.1500 
 10 C       -2.5460    -2.6710     0.7630 C.3   1 <1>  -0.0160 
 11 C       -4.8860    -1.7020     0.1530 C.ar  1 <1>  -0.1500 
 12 C       -4.8950     0.4400    -0.9150 C.ar  1 <1>  -0.1500 
 13 C       -5.6150    -0.6500    -0.4080 C.ar  1 <1>   0.0860 
 14 C       -7.0610    -0.7110    -0.4790 C.2   1 <1>   0.5440 
 15 O       -7.5880    -1.7050    -0.9450 O.2   1 <1>  -0.5700 
 16 N       -7.8700     0.3120    -0.0290 N.am  1 <1>  -0.6600 
 17 C       -9.3370     0.3290    -0.3090 C.3   1 <1>   0.1400 
 18 C       -7.4520     1.3720     0.9360 C.3   1 <1>   0.1400 
 19 C       -9.8070     1.7530    -0.6490 C.3   1 <1>   0.1200 
 20 C       -8.0230     2.7380     0.5180 C.3   1 <1>   0.1200 
 21 O       -9.4100     2.6610     0.3410 O.3   1 <1>  -0.5600 
 22 H        0.6420     2.2130     0.5690 H     1 <1>   0.0800 
 23 H        0.0330     1.0040     1.6680 H     1 <1>   0.0800 
 24 H       -1.0770     2.0150     0.7800 H     1 <1>   0.0800 
 25 H       -0.5970    -1.9360     1.3950 H     1 <1>   0.0800 
 26 H       -0.6100    -2.6400    -0.2190 H     1 <1>   0.0800 
 27 H       -2.9840     1.3380    -1.2540 H     1 <1>   0.1500 
 28 H       -2.6970    -2.8120     1.8180 H     1 <1>   0.0800 
 29 H       -2.6480    -3.6110     0.2520 H     1 <1>   0.0800 
 30 H       -5.4160    -2.5610     0.5290 H     1 <1>   0.1500 
 31 H       -5.4380     1.2470    -1.3760 H     1 <1>   0.1500 
 32 H       -9.8670    -0.0260     0.5570 H     1 <1>   0.0800 
 33 H       -9.5690    -0.3240    -1.1320 H     1 <1>   0.0800 
 34 H       -6.3820     1.4340     1.0060 H     1 <1>   0.0800 
 35 H       -7.8300     1.1220     1.9120 H     1 <1>   0.0800 
 36 H      -10.8800     1.7830    -0.7120 H     1 <1>   0.0800 
 37 H       -9.3960     2.0690    -1.5920 H     1 <1>   0.0800 
 38 H       -7.5760     3.0720    -0.4020 H     1 <1>   0.0800 
 39 H       -7.8320     3.4700     1.2820 H     1 <1>   0.0800 
@<TRIPOS>BOND
  1   1   2  2   
  2   1   3  2   
  3   1   4  am  
  4   1   5  1   
  5   4   6  1   
  6   4   7  1   
  7   5  22  1   
  8   5  23  1   
  9   5  24  1   
 10   6   8  ar  
 11   6   9  ar  
 12   7  10  1   
 13   7  25  1   
 14   7  26  1   
 15   8  10  1   
 16   8  11  ar  
 17   9  12  ar  
 18   9  27  1   
 19  10  28  1   
 20  10  29  1   
 21  11  13  ar  
 22  11  30  1   
 23  12  13  ar  
 24  12  31  1   
 25  13  14  1   
 26  14  15  2   
 27  14  16  am  
 28  16  17  1   
 29  16  18  1   
 30  17  19  1   
 31  17  32  1   
 32  17  33  1   
 33  18  20  1   
 34  18  34  1   
 35  18  35  1   
 36  19  21  1   
 37  19  36  1   
 38  19  37  1   
 39  20  21  1   
 40  20  38  1   
 41  20  39  1   
@<TRIPOS>SUBSTRUCTURE
  1 ****  12 GROUP 4 **** **** 0

# MOE 2024.06 (io_trps.svl 2023.06)
