@<TRIPOS>MOLECULE
NONAME
53 55 1 0 0 
SMALL
USER_CHARGES


@<TRIPOS>ATOM
  1 S        0.1860     0.1070     1.0360 S.o2  1 <1>   1.3330 
  2 O        1.1490    -0.3870     0.0770 O.2   1 <1>  -0.6500 
  3 O        0.6030     0.6110     2.3230 O.2   1 <1>  -0.6500 
  4 N       -0.7680     1.3230     0.2250 N.am  1 <1>  -0.5140 
  5 C       -1.0230    -1.1750     1.2830 C.3   1 <1>  -0.1350 
  6 N       -2.0330     1.7530     0.5240 N.2   1 <1>  -0.4300 
  7 C       -0.1430     2.0970    -0.8470 C.3   1 <1>   0.4190 
  8 C       -2.3690     2.6880    -0.2780 C.2   1 <1>   0.3030 
  9 C        1.1070     2.8490    -0.3730 C.ar  1 <1>  -0.1440 
 10 C       -1.2950     2.9840    -1.3100 C.3   1 <1>  -0.0990 
 11 C       -3.6170     3.4170    -0.2630 C.ar  1 <1>   0.0860 
 12 C        1.0800     3.9440     0.4930 C.ar  1 <1>   0.0830 
 13 C        2.3410     2.3980    -0.8260 C.ar  1 <1>  -0.1500 
 14 C       -3.9300     4.3950    -1.2090 C.ar  1 <1>  -0.1500 
 15 C       -4.5760     3.1670     0.7190 C.ar  1 <1>  -0.1500 
 16 O       -0.0830     4.4160     0.9900 O.3   1 <1>  -0.3630 
 17 C        2.2540     4.5870     0.8580 C.ar  1 <1>  -0.1500 
 18 C        3.5220     3.0260    -0.4420 C.ar  1 <1>   0.0830 
 19 C       -5.1250     5.0900    -1.1900 C.ar  1 <1>   0.0830 
 20 C       -5.7820     3.8420     0.7530 C.ar  1 <1>  -0.1500 
 21 C       -0.3470     4.0870     2.3360 C.3   1 <1>   0.0400 
 22 C        3.4710     4.1290     0.3910 C.ar  1 <1>  -0.1500 
 23 O        4.7510     2.6070    -0.8370 O.3   1 <1>  -0.3630 
 24 O       -5.2620     6.0150    -2.1800 O.3   1 <1>  -0.3630 
 25 C       -6.0830     4.8070    -0.2040 C.ar  1 <1>   0.0830 
 26 C        4.9390     1.2730    -1.2600 C.3   1 <1>   0.0400 
 27 C       -5.9440     7.2280    -1.9460 C.3   1 <1>   0.0400 
 28 O       -7.2820     5.4570    -0.2070 O.3   1 <1>  -0.3630 
 29 C       -8.3430     5.0790     0.6430 C.3   1 <1>   0.0400 
 30 H       -1.4300    -1.4860     0.3410 H     1 <1>   0.0800 
 31 H       -1.8210    -0.8100     1.9000 H     1 <1>   0.0800 
 32 H       -0.5710    -2.0200     1.7640 H     1 <1>   0.0800 
 33 H        0.1200     1.4220    -1.6420 H     1 <1>   0.0800 
 34 H       -1.6230     2.6840    -2.2870 H     1 <1>   0.0800 
 35 H       -1.0200     4.0220    -1.3270 H     1 <1>   0.0800 
 36 H        2.3770     1.5450    -1.4770 H     1 <1>   0.1500 
 37 H       -3.2350     4.6390    -1.9890 H     1 <1>   0.1500 
 38 H       -4.3710     2.4260     1.4730 H     1 <1>   0.1500 
 39 H        2.2100     5.4410     1.5080 H     1 <1>   0.1500 
 40 H       -6.4730     3.5970     1.5360 H     1 <1>   0.1500 
 41 H       -1.3300     4.4440     2.5840 H     1 <1>   0.0800 
 42 H        0.3880     4.5550     2.9650 H     1 <1>   0.0800 
 43 H       -0.3070     3.0180     2.4490 H     1 <1>   0.0800 
 44 H        4.3860     4.6170     0.6730 H     1 <1>   0.1500 
 45 H        5.9960     1.0920    -1.3330 H     1 <1>   0.0800 
 46 H        4.4800     1.1430    -2.2230 H     1 <1>   0.0800 
 47 H        4.5020     0.6100    -0.5330 H     1 <1>   0.0800 
 48 H       -5.6150     7.9440    -2.6770 H     1 <1>   0.0800 
 49 H       -5.7120     7.5790    -0.9560 H     1 <1>   0.0800 
 50 H       -7.0000     7.0600    -2.0540 H     1 <1>   0.0800 
 51 H       -9.1980     5.6840     0.3990 H     1 <1>   0.0800 
 52 H       -8.0530     5.2540     1.6640 H     1 <1>   0.0800 
 53 H       -8.5720     4.0410     0.4770 H     1 <1>   0.0800 
@<TRIPOS>BOND
  1   1   2  2   
  2   1   3  2   
  3   1   4  am  
  4   1   5  1   
  5   4   6  1   
  6   4   7  1   
  7   5  30  1   
  8   5  31  1   
  9   5  32  1   
 10   6   8  2   
 11   7   9  1   
 12   7  10  1   
 13   7  33  1   
 14   8  10  1   
 15   8  11  1   
 16   9  12  ar  
 17   9  13  ar  
 18  10  34  1   
 19  10  35  1   
 20  11  14  ar  
 21  11  15  ar  
 22  12  16  1   
 23  12  17  ar  
 24  13  18  ar  
 25  13  36  1   
 26  14  19  ar  
 27  14  37  1   
 28  15  20  ar  
 29  15  38  1   
 30  16  21  1   
 31  17  22  ar  
 32  17  39  1   
 33  18  22  ar  
 34  18  23  1   
 35  19  24  1   
 36  19  25  ar  
 37  20  25  ar  
 38  20  40  1   
 39  21  41  1   
 40  21  42  1   
 41  21  43  1   
 42  22  44  1   
 43  23  26  1   
 44  24  27  1   
 45  25  28  1   
 46  26  45  1   
 47  26  46  1   
 48  26  47  1   
 49  27  48  1   
 50  27  49  1   
 51  27  50  1   
 52  28  29  1   
 53  29  51  1   
 54  29  52  1   
 55  29  53  1   
@<TRIPOS>SUBSTRUCTURE
  1 ****   8 GROUP 4 **** **** 0

# MOE 2024.06 (io_trps.svl 2023.06)
