@<TRIPOS>MOLECULE
NONAME
46 49 1 0 0 
SMALL
USER_CHARGES


@<TRIPOS>ATOM
  1 O       -0.6060    -0.8320     0.8370 O.3   1 <1>  -0.3630 
  2 C       -1.7400    -1.1770     0.1740 C.ar  1 <1>   0.0820 
  3 C        0.3350     0.0690     0.2950 C.3   1 <1>   0.0400 
  4 C       -2.5520    -2.1510     0.7480 C.ar  1 <1>  -0.1440 
  5 C       -2.1100    -0.6010    -1.0380 C.ar  1 <1>  -0.1500 
  6 C       -3.7200    -2.5340     0.1110 C.ar  1 <1>  -0.1500 
  7 C       -2.1580    -2.7990     2.0680 C.3   1 <1>  -0.0960 
  8 C       -3.2800    -0.9880    -1.6660 C.ar  1 <1>  -0.1500 
  9 C       -4.0950    -1.9520    -1.0910 C.ar  1 <1>  -0.1440 
 10 C       -5.3910    -2.3560    -1.7660 C.3   1 <1>   0.4860 
 11 N       -6.5250    -1.8530    -0.9520 N.4   1 <1>  -0.9590 
 12 C       -7.8350    -2.3770    -1.4300 C.3   1 <1>   0.5230 
 13 C       -6.5210    -0.3530    -0.8040 C.3   1 <1>   0.3430 
 14 C       -8.8990    -1.7960    -0.5280 C.2   1 <1>  -0.3320 
 15 C       -7.4630     0.0970     0.3250 C.3   1 <1>   0.0210 
 16 N      -10.1710    -2.2820    -0.3780 N.pl3 1 <1>   0.0330 
 17 C       -8.7440    -0.7050     0.2540 C.2   1 <1>  -0.1810 
 18 C      -10.8220    -1.4820     0.5280 C.ar  1 <1>  -0.1520 
 19 C       -9.9510    -0.4810     0.9460 C.ar  1 <1>   0.0000 
 20 C      -12.1250    -1.5520     1.0270 C.ar  1 <1>  -0.1500 
 21 C      -10.3820     0.4680     1.8780 C.ar  1 <1>  -0.1500 
 22 C      -12.5360    -0.6120     1.9430 C.ar  1 <1>  -0.1500 
 23 C      -11.6650     0.3980     2.3690 C.ar  1 <1>  -0.1500 
 24 H        1.1560     0.1470     0.9840 H     1 <1>   0.0800 
 25 H       -0.1310     1.0300     0.1730 H     1 <1>   0.0800 
 26 H        0.6840    -0.3150    -0.6470 H     1 <1>   0.0800 
 27 H       -1.4980     0.1470    -1.5040 H     1 <1>   0.1500 
 28 H       -4.3320    -3.2950     0.5640 H     1 <1>   0.1500 
 29 H       -1.2030    -3.2840     1.9630 H     1 <1>   0.0800 
 30 H       -2.8790    -3.5310     2.3820 H     1 <1>   0.0800 
 31 H       -2.0750    -2.0480     2.8330 H     1 <1>   0.0800 
 32 H       -3.5390    -0.5280    -2.6050 H     1 <1>   0.1500 
 33 H       -5.4300    -3.4310    -1.8390 H     1 <1>   0.0800 
 34 H       -5.4310    -1.9430    -2.7610 H     1 <1>   0.0800 
 35 H       -6.4100    -2.2180     0.0000 H     1 <1>   0.4500 
 36 H       -7.8480    -3.4530    -1.3680 H     1 <1>   0.0800 
 37 H       -8.0170    -2.0770    -2.4490 H     1 <1>   0.0800 
 38 H       -6.8440     0.0970    -1.7280 H     1 <1>   0.0800 
 39 H       -5.5270     0.0030    -0.5850 H     1 <1>   0.0800 
 40 H       -7.6780     1.1460     0.2200 H     1 <1>   0.0800 
 41 H       -6.9940    -0.0560     1.2810 H     1 <1>   0.0800 
 42 H      -10.6070    -3.0910    -0.8350 H     1 <1>   0.2700 
 43 H      -12.7920    -2.3290     0.6980 H     1 <1>   0.1500 
 44 H       -9.7080     1.2410     2.2010 H     1 <1>   0.1500 
 45 H      -13.5350    -0.6440     2.3430 H     1 <1>   0.1500 
 46 H      -12.0140     1.1200     3.0870 H     1 <1>   0.1500 
@<TRIPOS>BOND
  1   1   2  1   
  2   1   3  1   
  3   2   4  ar  
  4   2   5  ar  
  5   3  24  1   
  6   3  25  1   
  7   3  26  1   
  8   4   6  ar  
  9   4   7  1   
 10   5   8  ar  
 11   5  27  1   
 12   6   9  ar  
 13   6  28  1   
 14   7  29  1   
 15   7  30  1   
 16   7  31  1   
 17   8   9  ar  
 18   8  32  1   
 19   9  10  1   
 20  10  11  1   
 21  10  33  1   
 22  10  34  1   
 23  11  12  1   
 24  11  13  1   
 25  11  35  1   
 26  12  14  1   
 27  12  36  1   
 28  12  37  1   
 29  13  15  1   
 30  13  38  1   
 31  13  39  1   
 32  14  16  1   
 33  14  17  2   
 34  15  17  1   
 35  15  40  1   
 36  15  41  1   
 37  16  18  1   
 38  16  42  1   
 39  17  19  1   
 40  18  19  ar  
 41  18  20  ar  
 42  19  21  ar  
 43  20  22  ar  
 44  20  43  1   
 45  21  23  ar  
 46  21  44  1   
 47  22  23  ar  
 48  22  45  1   
 49  23  46  1   
@<TRIPOS>SUBSTRUCTURE
  1 ****  11 GROUP 4 **** **** 0

# MOE 2024.06 (io_trps.svl 2023.06)
