@<TRIPOS>MOLECULE
NONAME
24 24 1 0 0 
SMALL
USER_CHARGES


@<TRIPOS>ATOM
  1 I        0.0020    -0.7130    -1.0770 I     1 <1>  -0.0810 
  2 C       -1.9870    -0.1490    -0.5620 C.ar  1 <1>   0.0810 
  3 C       -3.0530    -0.7800    -1.1760 C.ar  1 <1>   0.1600 
  4 C       -2.1810     0.8380     0.3780 C.ar  1 <1>  -0.1500 
  5 N       -4.3200    -0.4910    -0.9150 N.ar  1 <1>  -0.6200 
  6 C       -3.4970     1.1390     0.6490 C.ar  1 <1>  -0.1500 
  7 C       -4.5280     0.4610    -0.0110 C.ar  1 <1>   0.4270 
  8 N       -5.8690     0.6960     0.1980 N.am  1 <1>  -0.5470 
  9 C       -6.5510     1.5700     0.9880 C.2   1 <1>   0.5690 
 10 O       -6.0230     2.3660     1.7230 O.2   1 <1>  -0.5700 
 11 C       -8.0670     1.5280     0.9300 C.3   1 <1>  -0.0990 
 12 C       -8.6160     2.1460    -0.3660 C.3   1 <1>  -0.1600 
 13 C      -10.1470     2.0980    -0.4000 C.3   1 <1>  -0.2400 
 14 H       -2.8580    -1.5470    -1.9050 H     1 <1>   0.1500 
 15 H       -1.3620     1.3380     0.8640 H     1 <1>   0.1500 
 16 H       -3.7230     1.8990     1.3720 H     1 <1>   0.1500 
 17 H       -6.4320     0.0860    -0.3870 H     1 <1>   0.3700 
 18 H       -8.4540     2.0690     1.7750 H     1 <1>   0.0800 
 19 H       -8.3900     0.5070     1.0190 H     1 <1>   0.0800 
 20 H       -8.2260     1.6180    -1.2200 H     1 <1>   0.0800 
 21 H       -8.2910     3.1710    -0.4350 H     1 <1>   0.0800 
 22 H      -10.4960     1.0810    -0.3540 H     1 <1>   0.0800 
 23 H      -10.5080     2.5410    -1.3120 H     1 <1>   0.0800 
 24 H      -10.5590     2.6450     0.4300 H     1 <1>   0.0800 
@<TRIPOS>BOND
  1   1   2  1   
  2   2   3  ar  
  3   2   4  ar  
  4   3   5  ar  
  5   3  14  1   
  6   4   6  ar  
  7   4  15  1   
  8   5   7  ar  
  9   6   7  ar  
 10   6  16  1   
 11   7   8  1   
 12   8   9  am  
 13   8  17  1   
 14   9  10  2   
 15   9  11  1   
 16  11  12  1   
 17  11  18  1   
 18  11  19  1   
 19  12  13  1   
 20  12  20  1   
 21  12  21  1   
 22  13  22  1   
 23  13  23  1   
 24  13  24  1   
@<TRIPOS>SUBSTRUCTURE
  1 ****   7 GROUP 4 **** **** 0

# MOE 2024.06 (io_trps.svl 2023.06)
