@<TRIPOS>MOLECULE
NONAME
43 44 1 0 0 
SMALL
USER_CHARGES


@<TRIPOS>ATOM
  1 O        0.2320     0.0080     2.1260 O.2   1 <1>  -0.5700 
  2 C        0.1270     1.0600     1.5460 C.2   1 <1>   0.5690 
  3 N        1.1070     1.6140     0.7740 N.am  1 <1>  -0.5470 
  4 C       -1.1750     1.8270     1.6770 C.3   1 <1>  -0.0990 
  5 C        2.3990     1.1960     0.4050 C.ar  1 <1>   0.1170 
  6 C       -2.2450     1.3920     0.6560 C.3   1 <1>  -0.0800 
  7 C        3.0560     1.9140    -0.6000 C.ar  1 <1>   0.0830 
  8 C        3.0490     0.1170     0.9920 C.ar  1 <1>  -0.1500 
  9 C       -1.8040     1.6570    -0.7980 C.3   1 <1>  -0.1600 
 10 C       -3.5740     2.1100     0.9530 C.3   1 <1>  -0.1600 
 11 O        2.3830     2.9730    -1.1520 O.3   1 <1>  -0.3630 
 12 C        4.3360     1.5440    -1.0000 C.ar  1 <1>  -0.1500 
 13 C        4.3230    -0.2540     0.5960 C.ar  1 <1>   0.0830 
 14 C       -2.9000     1.2730    -1.8000 C.3   1 <1>  -0.1600 
 15 C       -4.6670     1.7180    -0.0510 C.3   1 <1>  -0.1600 
 16 C        2.9370     3.7120    -2.2180 C.3   1 <1>   0.0400 
 17 C        4.9680     0.4650    -0.4060 C.ar  1 <1>  -0.1500 
 18 O        4.8740    -1.3220     1.2300 O.3   1 <1>  -0.3620 
 19 C       -4.2180     1.9930    -1.4910 C.3   1 <1>  -0.1600 
 20 C        6.1590    -1.7930     0.8890 C.3   1 <1>   0.0400 
 21 H        0.8450     2.4710     0.2870 H     1 <1>   0.3700 
 22 H       -0.9820     2.8790     1.5820 H     1 <1>   0.0800 
 23 H       -1.5490     1.6570     2.6710 H     1 <1>   0.0800 
 24 H       -2.4020     0.3310     0.7720 H     1 <1>   0.0800 
 25 H        2.5740    -0.4510     1.7680 H     1 <1>   0.1500 
 26 H       -0.9220     1.0840    -1.0270 H     1 <1>   0.0800 
 27 H       -1.5660     2.7000    -0.9200 H     1 <1>   0.0800 
 28 H       -3.4270     3.1750     0.9120 H     1 <1>   0.0800 
 29 H       -3.9070     1.8600     1.9460 H     1 <1>   0.0800 
 30 H        4.8610     2.0780    -1.7680 H     1 <1>   0.1500 
 31 H       -3.0580     0.2090    -1.7610 H     1 <1>   0.0800 
 32 H       -2.5790     1.5210    -2.7980 H     1 <1>   0.0800 
 33 H       -5.5650     2.2730     0.1580 H     1 <1>   0.0800 
 34 H       -4.8930     0.6710     0.0590 H     1 <1>   0.0800 
 35 H        2.2290     4.4690    -2.5050 H     1 <1>   0.0800 
 36 H        3.1190     3.0500    -3.0460 H     1 <1>   0.0800 
 37 H        3.8500     4.1760    -1.8860 H     1 <1>   0.0800 
 38 H        5.9550     0.2010    -0.7330 H     1 <1>   0.1500 
 39 H       -4.9790     1.6610    -2.1750 H     1 <1>   0.0800 
 40 H       -4.0870     3.0520    -1.6290 H     1 <1>   0.0800 
 41 H        6.3780    -2.6420     1.5110 H     1 <1>   0.0800 
 42 H        6.8760    -1.0130     1.0700 H     1 <1>   0.0800 
 43 H        6.1590    -2.0880    -0.1450 H     1 <1>   0.0800 
@<TRIPOS>BOND
  1   1   2  2   
  2   2   3  am  
  3   2   4  1   
  4   3   5  1   
  5   3  21  1   
  6   4   6  1   
  7   4  22  1   
  8   4  23  1   
  9   5   7  ar  
 10   5   8  ar  
 11   6   9  1   
 12   6  10  1   
 13   6  24  1   
 14   7  11  1   
 15   7  12  ar  
 16   8  13  ar  
 17   8  25  1   
 18   9  14  1   
 19   9  26  1   
 20   9  27  1   
 21  10  15  1   
 22  10  28  1   
 23  10  29  1   
 24  11  16  1   
 25  12  17  ar  
 26  12  30  1   
 27  13  17  ar  
 28  13  18  1   
 29  14  19  1   
 30  14  31  1   
 31  14  32  1   
 32  15  19  1   
 33  15  33  1   
 34  15  34  1   
 35  16  35  1   
 36  16  36  1   
 37  16  37  1   
 38  17  38  1   
 39  18  20  1   
 40  19  39  1   
 41  19  40  1   
 42  20  41  1   
 43  20  42  1   
 44  20  43  1   
@<TRIPOS>SUBSTRUCTURE
  1 ****   3 GROUP 4 **** **** 0

# MOE 2024.06 (io_trps.svl 2023.06)
