@<TRIPOS>MOLECULE
NONAME
56 58 1 0 0 
SMALL
USER_CHARGES


@<TRIPOS>ATOM
  1 S       -0.2310     0.5650     0.2810 S.3   1 <1>  -0.0800 
  2 C        0.4320    -1.0460     0.1060 C.2   1 <1>   0.1040 
  3 C        1.3630     1.2690     0.4490 C.2   1 <1>  -0.1400 
  4 N       -0.4060    -2.1300    -0.1220 N.am  1 <1>  -0.4940 
  5 C        1.7960    -1.0290     0.2280 C.2   1 <1>  -0.0860 
  6 C        2.3170     0.3230     0.3690 C.2   1 <1>  -0.1810 
  7 C        1.4050     2.7730     0.6420 C.3   1 <1>   0.0200 
  8 C       -1.7720    -2.2650    -0.1940 C.2   1 <1>   0.5690 
  9 C        2.5490    -2.2580     0.2470 C.2   1 <1>   0.8060 
 10 C        3.8050     0.6720     0.4130 C.3   1 <1>   0.0210 
 11 C        2.2880     3.4690    -0.3980 C.3   1 <1>  -0.1600 
 12 O       -2.5430    -1.3540    -0.0080 O.2   1 <1>  -0.5700 
 13 C       -2.3070    -3.6750    -0.5220 C.3   1 <1>   0.1710 
 14 O        2.1380    -3.2850    -0.2710 O.2   1 <1>  -0.5700 
 15 O        3.7110    -2.3150     0.9100 O.3   1 <1>  -0.4300 
 16 C        4.2020     1.7560    -0.6010 C.3   1 <1>  -0.1600 
 17 C        3.7860     3.1860    -0.2230 C.3   1 <1>  -0.1600 
 18 N       -3.7840    -3.8750    -0.4110 N.3   1 <1>  -0.8100 
 19 C        4.4660    -3.5070     1.0080 C.3   1 <1>   0.0400 
 20 C       -4.2520    -5.1520    -0.9910 C.3   1 <1>   0.1100 
 21 C       -4.2940    -3.7090     0.9730 C.3   1 <1>   0.1100 
 22 C       -5.7930    -5.3020    -0.8910 C.3   1 <1>   0.3430 
 23 C       -5.8410    -3.7440     1.0230 C.3   1 <1>   0.3430 
 24 N       -6.4230    -4.0620    -0.3270 N.4   1 <1>  -0.9590 
 25 C       -7.9040    -4.0740    -0.3840 C.3   1 <1>   0.3430 
 26 C       -8.4390    -2.6630    -0.1700 C.3   1 <1>  -0.2400 
 27 H        0.1230    -2.9900    -0.3010 H     1 <1>   0.3700 
 28 H        1.7570     2.9930     1.6340 H     1 <1>   0.0800 
 29 H        0.4060     3.1640     0.5580 H     1 <1>   0.0800 
 30 H        4.3990    -0.1830     0.1660 H     1 <1>   0.0800 
 31 H        4.0740     0.9750     1.4090 H     1 <1>   0.0800 
 32 H        2.1330     4.5300    -0.3070 H     1 <1>   0.0800 
 33 H        1.9710     3.1810    -1.3860 H     1 <1>   0.0800 
 34 H       -1.8090    -4.3810     0.1170 H     1 <1>   0.0800 
 35 H       -2.0130    -3.8860    -1.5350 H     1 <1>   0.0800 
 36 H        3.8060     1.5030    -1.5690 H     1 <1>   0.0800 
 37 H        5.2750     1.7430    -0.6850 H     1 <1>   0.0800 
 38 H        4.0880     3.4040     0.7870 H     1 <1>   0.0800 
 39 H        4.3220     3.8630    -0.8660 H     1 <1>   0.0800 
 40 H        5.3560    -3.3010     1.5760 H     1 <1>   0.0800 
 41 H        4.7270    -3.8390     0.0180 H     1 <1>   0.0800 
 42 H        3.8750    -4.2550     1.5080 H     1 <1>   0.0800 
 43 H       -3.7810    -5.9810    -0.4890 H     1 <1>   0.0800 
 44 H       -3.9670    -5.1960    -2.0280 H     1 <1>   0.0800 
 45 H       -3.9700    -2.7670     1.3820 H     1 <1>   0.0800 
 46 H       -3.8980    -4.4850     1.6060 H     1 <1>   0.0800 
 47 H       -6.0270    -6.1480    -0.2670 H     1 <1>   0.0800 
 48 H       -6.1870    -5.5010    -1.8750 H     1 <1>   0.0800 
 49 H       -6.1910    -2.7790     1.3520 H     1 <1>   0.0800 
 50 H       -6.1580    -4.4740     1.7480 H     1 <1>   0.0800 
 51 H       -6.0520    -3.3040    -0.9250 H     1 <1>   0.4500 
 52 H       -8.3010    -4.7390     0.3660 H     1 <1>   0.0800 
 53 H       -8.2250    -4.4240    -1.3520 H     1 <1>   0.0800 
 54 H       -8.2330    -2.3100     0.8240 H     1 <1>   0.0800 
 55 H       -9.5060    -2.6670    -0.3000 H     1 <1>   0.0800 
 56 H       -8.0200    -1.9830    -0.8910 H     1 <1>   0.0800 
@<TRIPOS>BOND
  1   1   2  1   
  2   1   3  1   
  3   2   4  1   
  4   2   5  2   
  5   3   6  2   
  6   3   7  1   
  7   4   8  am  
  8   4  27  1   
  9   5   6  1   
 10   5   9  1   
 11   6  10  1   
 12   7  11  1   
 13   7  28  1   
 14   7  29  1   
 15   8  12  2   
 16   8  13  1   
 17   9  14  2   
 18   9  15  1   
 19  10  16  1   
 20  10  30  1   
 21  10  31  1   
 22  11  17  1   
 23  11  32  1   
 24  11  33  1   
 25  13  18  1   
 26  13  34  1   
 27  13  35  1   
 28  15  19  1   
 29  16  17  1   
 30  16  36  1   
 31  16  37  1   
 32  17  38  1   
 33  17  39  1   
 34  18  20  1   
 35  18  21  1   
 36  19  40  1   
 37  19  41  1   
 38  19  42  1   
 39  20  22  1   
 40  20  43  1   
 41  20  44  1   
 42  21  23  1   
 43  21  45  1   
 44  21  46  1   
 45  22  24  1   
 46  22  47  1   
 47  22  48  1   
 48  23  24  1   
 49  23  49  1   
 50  23  50  1   
 51  24  25  1   
 52  24  51  1   
 53  25  26  1   
 54  25  52  1   
 55  25  53  1   
 56  26  54  1   
 57  26  55  1   
 58  26  56  1   
@<TRIPOS>SUBSTRUCTURE
  1 ****   4 GROUP 4 **** **** 0

# MOE 2024.06 (io_trps.svl 2023.06)
