@<TRIPOS>MOLECULE
NONAME
47 50 1 0 0 
SMALL
USER_CHARGES


@<TRIPOS>ATOM
  1 N       -6.2300     6.2280     0.2470 N.pl3 1 <1>  -0.8440 
  2 C       -7.5010     6.6060     0.2010 C.cat 1 <1>   1.2000 
  3 C       -5.1010     7.1580    -0.0140 C.3   1 <1>   0.1680 
  4 N       -7.8480     7.8530    -0.0960 N.pl3 1 <1>  -0.7050 
  5 N       -8.5750     5.8320     0.4390 N.pl3 1 <1>  -0.7050 
  6 C       -5.5790     8.3220    -0.8940 C.3   1 <1>  -0.1600 
  7 C       -9.2240     7.9360    -0.0090 C.ar  1 <1>   0.3110 
  8 C       -6.8900     8.9410    -0.3910 C.3   1 <1>   0.1680 
  9 C       -9.6830     6.6750     0.3350 C.ar  1 <1>   0.3110 
 10 C       -8.6510     4.3840     0.7960 C.3   1 <1>   0.1680 
 11 C      -10.1050     8.9950    -0.1940 C.ar  1 <1>  -0.1500 
 12 C      -11.0440     6.4470     0.5180 C.ar  1 <1>  -0.1500 
 13 C       -9.2260     3.5450    -0.3710 C.3   1 <1>   0.3430 
 14 C      -11.4560     8.7650    -0.0210 C.ar  1 <1>  -0.1500 
 15 C      -11.9230     7.4990     0.3340 C.ar  1 <1>  -0.1500 
 16 N       -9.5620     2.1320     0.0140 N.4   1 <1>  -0.9590 
 17 C       -8.3630     1.3060     0.3680 C.3   1 <1>   0.3430 
 18 C      -10.3410     1.4750    -1.0830 C.3   1 <1>   0.3430 
 19 C       -8.8120    -0.0660     0.8720 C.3   1 <1>  -0.1600 
 20 C      -10.8390     0.1060    -0.6150 C.3   1 <1>  -0.1600 
 21 C       -9.6840    -0.7930    -0.1590 C.3   1 <1>  -0.1600 
 22 H       -5.9760     5.3040     0.5830 H     1 <1>   0.4500 
 23 H       -4.2980     6.6360    -0.5110 H     1 <1>   0.0800 
 24 H       -4.7270     7.5390     0.9240 H     1 <1>   0.0800 
 25 H       -5.7180     7.9710    -1.9020 H     1 <1>   0.0800 
 26 H       -4.8170     9.0810    -0.9300 H     1 <1>   0.0800 
 27 H       -6.7110     9.5090     0.5080 H     1 <1>   0.0800 
 28 H       -7.2960     9.6020    -1.1400 H     1 <1>   0.0800 
 29 H       -9.2870     4.2820     1.6590 H     1 <1>   0.0800 
 30 H       -7.6710     4.0230     1.0540 H     1 <1>   0.0800 
 31 H       -9.7370     9.9690    -0.4630 H     1 <1>   0.1500 
 32 H      -11.4130     5.4800     0.8020 H     1 <1>   0.1500 
 33 H       -8.5190     3.5360    -1.1840 H     1 <1>   0.0800 
 34 H      -10.1240     4.0280    -0.7190 H     1 <1>   0.0800 
 35 H      -12.1630     9.5690    -0.1580 H     1 <1>   0.1500 
 36 H      -12.9840     7.3520     0.4680 H     1 <1>   0.1500 
 37 H      -10.1830     2.1280     0.8360 H     1 <1>   0.4500 
 38 H       -7.7850     1.7900     1.1380 H     1 <1>   0.0800 
 39 H       -7.7350     1.1790    -0.5010 H     1 <1>   0.0800 
 40 H       -9.7180     1.3500    -1.9540 H     1 <1>   0.0800 
 41 H      -11.1880     2.0840    -1.3580 H     1 <1>   0.0800 
 42 H       -9.3530     0.0480     1.7960 H     1 <1>   0.0800 
 43 H       -7.9430    -0.6660     1.0840 H     1 <1>   0.0800 
 44 H      -11.3610    -0.3740    -1.4260 H     1 <1>   0.0800 
 45 H      -11.5450     0.2350     0.1870 H     1 <1>   0.0800 
 46 H      -10.0730    -1.7040     0.2660 H     1 <1>   0.0800 
 47 H       -9.0820    -1.0640    -1.0110 H     1 <1>   0.0800 
@<TRIPOS>BOND
  1   1   2  ar  
  2   1   3  1   
  3   1  22  1   
  4   2   4  ar  
  5   2   5  ar  
  6   3   6  1   
  7   3  23  1   
  8   3  24  1   
  9   4   7  1   
 10   4   8  1   
 11   5   9  1   
 12   5  10  1   
 13   6   8  1   
 14   6  25  1   
 15   6  26  1   
 16   7   9  ar  
 17   7  11  ar  
 18   8  27  1   
 19   8  28  1   
 20   9  12  ar  
 21  10  13  1   
 22  10  29  1   
 23  10  30  1   
 24  11  14  ar  
 25  11  31  1   
 26  12  15  ar  
 27  12  32  1   
 28  13  16  1   
 29  13  33  1   
 30  13  34  1   
 31  14  15  ar  
 32  14  35  1   
 33  15  36  1   
 34  16  17  1   
 35  16  18  1   
 36  16  37  1   
 37  17  19  1   
 38  17  38  1   
 39  17  39  1   
 40  18  20  1   
 41  18  40  1   
 42  18  41  1   
 43  19  21  1   
 44  19  42  1   
 45  19  43  1   
 46  20  21  1   
 47  20  44  1   
 48  20  45  1   
 49  21  46  1   
 50  21  47  1   
@<TRIPOS>SUBSTRUCTURE
  1 ****   5 GROUP 4 **** **** 0

# MOE 2024.06 (io_trps.svl 2023.06)
