@<TRIPOS>MOLECULE
NONAME
38 38 1 0 0 
SMALL
USER_CHARGES


@<TRIPOS>ATOM
  1 BR      -0.3200    -1.1540    -0.2890 Br    1 <1>  -0.1110 
  2 C        1.5760    -1.4490    -0.1290 C.ar  1 <1>   0.1110 
  3 C        2.1110    -2.6240    -0.6190 C.ar  1 <1>  -0.1500 
  4 C        2.3510    -0.4770     0.4730 C.ar  1 <1>  -0.1500 
  5 C        3.4750    -2.8400    -0.5060 C.ar  1 <1>  -0.1440 
  6 C        3.7130    -0.6930     0.5860 C.ar  1 <1>  -0.1500 
  7 C        4.2810    -1.8730     0.0980 C.ar  1 <1>   0.0830 
  8 C        4.0740    -4.1330    -1.0430 C.3   1 <1>  -0.0960 
  9 O        5.6130    -2.1350     0.1830 O.3   1 <1>  -0.3630 
 10 C        6.5130    -1.2120     0.7840 C.3   1 <1>   0.1810 
 11 C        7.9420    -1.7420     0.7510 C.2   1 <1>   0.5690 
 12 O        8.8340    -1.0690     1.2090 O.2   1 <1>  -0.5700 
 13 N        8.2040    -2.9630     0.2070 N.am  1 <1>  -0.7300 
 14 C        9.5160    -3.6540     0.2530 C.3   1 <1>   0.1400 
 15 C       10.6170    -2.7990    -0.4080 C.3   1 <1>   0.3430 
 16 N       12.0020    -3.3050    -0.1210 N.4   1 <1>  -0.9590 
 17 C       13.0080    -2.2890    -0.5580 C.3   1 <1>   0.2630 
 18 C       12.2790    -4.6310    -0.7590 C.3   1 <1>   0.2630 
 19 H        1.4640    -3.3490    -1.0790 H     1 <1>   0.1500 
 20 H        1.8950     0.4240     0.8420 H     1 <1>   0.1500 
 21 H        4.3050     0.0690     1.0550 H     1 <1>   0.1500 
 22 H        3.3150    -4.7600    -1.4750 H     1 <1>   0.0800 
 23 H        4.5500    -4.6730    -0.2450 H     1 <1>   0.0800 
 24 H        4.8030    -3.9090    -1.8000 H     1 <1>   0.0800 
 25 H        6.2140    -1.0600     1.8050 H     1 <1>   0.0800 
 26 H        6.4640    -0.2850     0.2420 H     1 <1>   0.0800 
 27 H        7.3880    -3.5020    -0.1120 H     1 <1>   0.3700 
 28 H        9.4300    -4.6010    -0.2520 H     1 <1>   0.0800 
 29 H        9.7650    -3.8270     1.2860 H     1 <1>   0.0800 
 30 H       10.5370    -1.7940    -0.0280 H     1 <1>   0.0800 
 31 H       10.4500    -2.7660    -1.4720 H     1 <1>   0.0800 
 32 H       12.0870    -3.4000     0.9040 H     1 <1>   0.4500 
 33 H       12.9530    -2.1380    -1.6240 H     1 <1>   0.0800 
 34 H       14.0050    -2.6160    -0.3080 H     1 <1>   0.0800 
 35 H       12.8240    -1.3460    -0.0680 H     1 <1>   0.0800 
 36 H       12.1830    -4.5590    -1.8310 H     1 <1>   0.0800 
 37 H       11.5880    -5.3760    -0.3990 H     1 <1>   0.0800 
 38 H       13.2810    -4.9550    -0.5250 H     1 <1>   0.0800 
@<TRIPOS>BOND
  1   1   2  1   
  2   2   3  ar  
  3   2   4  ar  
  4   3   5  ar  
  5   3  19  1   
  6   4   6  ar  
  7   4  20  1   
  8   5   7  ar  
  9   5   8  1   
 10   6   7  ar  
 11   6  21  1   
 12   7   9  1   
 13   8  22  1   
 14   8  23  1   
 15   8  24  1   
 16   9  10  1   
 17  10  11  1   
 18  10  25  1   
 19  10  26  1   
 20  11  12  2   
 21  11  13  am  
 22  13  14  1   
 23  13  27  1   
 24  14  15  1   
 25  14  28  1   
 26  14  29  1   
 27  15  16  1   
 28  15  30  1   
 29  15  31  1   
 30  16  17  1   
 31  16  18  1   
 32  16  32  1   
 33  17  33  1   
 34  17  34  1   
 35  17  35  1   
 36  18  36  1   
 37  18  37  1   
 38  18  38  1   
@<TRIPOS>SUBSTRUCTURE
  1 ****   9 GROUP 4 **** **** 0

# MOE 2024.06 (io_trps.svl 2023.06)
