@<TRIPOS>MOLECULE
NONAME
26 26 1 0 0 
SMALL
USER_CHARGES


@<TRIPOS>ATOM
  1 O        0.5200     0.2430     0.1250 O.2   1 <1>  -0.5700 
  2 C        1.5530     0.8950     0.0510 C.2   1 <1>   0.6900 
  3 N        2.7650     0.2580    -0.0060 N.am  1 <1>  -0.4200 
  4 N        1.5020     2.2680     0.0360 N.am  1 <1>  -0.4200 
  5 C        3.9340     0.9910     0.0270 C.2   1 <1>   0.5350 
  6 C        2.8450    -1.2280    -0.0010 C.3   1 <1>   0.0600 
  7 C        2.6450     3.0040    -0.2160 C.2   1 <1>   0.5350 
  8 C        0.1970     2.9740     0.1680 C.3   1 <1>   0.0600 
  9 O        4.9540     0.4030     0.3750 O.2   1 <1>  -0.5700 
 10 C        3.8990     2.3670    -0.2540 C.3   1 <1>  -0.7150 
 11 O        2.5000     4.2040    -0.4380 O.2   1 <1>  -0.5700 
 12 C        5.0820     3.0460    -0.5930 C.2   1 <1>   0.4140 
 13 O        5.9750     2.5300    -1.2520 O.2   1 <1>  -0.5700 
 14 C        5.3340     4.4950    -0.1820 C.3   1 <1>  -0.0990 
 15 C        6.7730     4.7630     0.2920 C.3   1 <1>  -0.2400 
 16 H        1.9540    -1.6570    -0.4220 H     1 <1>   0.0800 
 17 H        2.9680    -1.5710     1.0100 H     1 <1>   0.0800 
 18 H        3.6910    -1.5450    -0.5860 H     1 <1>   0.0800 
 19 H       -0.5270     2.3520     0.6630 H     1 <1>   0.0800 
 20 H       -0.1630     3.2340    -0.8110 H     1 <1>   0.0800 
 21 H        0.3290     3.8720     0.7450 H     1 <1>   0.0800 
 22 H        4.6700     4.7490     0.6220 H     1 <1>   0.0800 
 23 H        5.1030     5.1240    -1.0210 H     1 <1>   0.0800 
 24 H        7.0110     4.1090     1.1120 H     1 <1>   0.0800 
 25 H        6.8760     5.7840     0.6100 H     1 <1>   0.0800 
 26 H        7.4650     4.5730    -0.5100 H     1 <1>   0.0800 
@<TRIPOS>BOND
  1   1   2  2   
  2   2   3  am  
  3   2   4  am  
  4   3   5  am  
  5   3   6  1   
  6   4   7  am  
  7   4   8  1   
  8   5   9  2   
  9   5  10  1   
 10   6  16  1   
 11   6  17  1   
 12   6  18  1   
 13   7  10  1   
 14   7  11  2   
 15   8  19  1   
 16   8  20  1   
 17   8  21  1   
 18  10  12  1   
 19  12  13  2   
 20  12  14  1   
 21  14  15  1   
 22  14  22  1   
 23  14  23  1   
 24  15  24  1   
 25  15  25  1   
 26  15  26  1   
@<TRIPOS>SUBSTRUCTURE
  1 ****  10 GROUP 4 **** **** 0

# MOE 2024.06 (io_trps.svl 2023.06)
