@<TRIPOS>MOLECULE
NONAME
45 47 1 0 0 
SMALL
USER_CHARGES


@<TRIPOS>ATOM
  1 S       -0.1550     0.2040    -1.5810 S.o2  1 <1>   1.5010 
  2 O       -0.3320     0.6060    -2.9590 O.2   1 <1>  -0.6500 
  3 O       -0.2660    -1.1940    -1.2230 O.2   1 <1>  -0.6500 
  4 N       -1.3150     1.0400    -0.6730 N.am  1 <1>  -0.8490 
  5 C        1.3910     0.8660    -0.9500 C.2   1 <1>  -0.0630 
  6 C       -2.6490     0.4270    -0.8180 C.3   1 <1>   0.1960 
  7 C       -1.3900     2.4710    -1.0360 C.3   1 <1>   0.1960 
  8 C        2.3000     1.5810    -1.7180 C.2   1 <1>   0.1390 
  9 C        1.9560     0.8470     0.2830 C.2   1 <1>  -0.3020 
 10 C       -3.7170     1.1390     0.0360 C.3   1 <1>   0.2090 
 11 C       -2.4150     3.2350    -0.1760 C.3   1 <1>   0.2090 
 12 N        3.3300     1.9800    -1.0360 N.2   1 <1>  -0.7070 
 13 N        3.1190     1.5190     0.2080 N.pl3 1 <1>   0.3140 
 14 N       -3.7640     2.6020    -0.2620 N.pl3 1 <1>  -0.8380 
 15 C        4.0810     1.7510     1.3050 C.3   1 <1>   0.0960 
 16 C       -4.8140     3.3160     0.2970 C.ar  1 <1>   0.1000 
 17 C        3.6080     2.8830     2.2260 C.3   1 <1>  -0.2400 
 18 C       -5.7700     3.8790    -0.5350 C.ar  1 <1>  -0.1500 
 19 C       -4.9350     3.4870     1.6700 C.ar  1 <1>  -0.1500 
 20 C       -6.8390     4.6060    -0.0250 C.ar  1 <1>  -0.1430 
 21 C       -5.9910     4.2050     2.1970 C.ar  1 <1>  -0.1500 
 22 C       -6.9380     4.7610     1.3550 C.ar  1 <1>  -0.1500 
 23 C       -7.9000     5.2280    -0.9450 C.3   1 <1>   1.1630 
 24 F       -8.1520     6.4950    -0.6370 F     1 <1>  -0.3400 
 25 F       -7.5580     5.2220    -2.2290 F     1 <1>  -0.3400 
 26 F       -9.0610     4.5900    -0.8670 F     1 <1>  -0.3400 
 27 H       -2.6070    -0.6060    -0.5140 H     1 <1>   0.0800 
 28 H       -2.9550     0.4550    -1.8510 H     1 <1>   0.0800 
 29 H       -1.6690     2.5760    -2.0710 H     1 <1>   0.0800 
 30 H       -0.4250     2.9300    -0.9040 H     1 <1>   0.0800 
 31 H        2.1690     1.7880    -2.7690 H     1 <1>   0.1500 
 32 H        1.5890     0.3980     1.1870 H     1 <1>   0.1500 
 33 H       -3.4910     0.9890     1.0780 H     1 <1>   0.0800 
 34 H       -4.6810     0.7060    -0.1640 H     1 <1>   0.0800 
 35 H       -2.4810     4.2530    -0.5180 H     1 <1>   0.0800 
 36 H       -2.0840     3.2440     0.8470 H     1 <1>   0.0800 
 37 H        5.0310     2.0040     0.8700 H     1 <1>   0.0800 
 38 H        4.1920     0.8380     1.8610 H     1 <1>   0.0800 
 39 H        3.5040     3.7950     1.6640 H     1 <1>   0.0800 
 40 H        4.3310     3.0440     3.0050 H     1 <1>   0.0800 
 41 H        2.6660     2.6330     2.6790 H     1 <1>   0.0800 
 42 H       -5.6530     3.7290    -1.5940 H     1 <1>   0.1500 
 43 H       -4.1980     3.0550     2.3220 H     1 <1>   0.1500 
 44 H       -6.0780     4.3320     3.2630 H     1 <1>   0.1500 
 45 H       -7.7570     5.3180     1.7820 H     1 <1>   0.1500 
@<TRIPOS>BOND
  1   1   2  2   
  2   1   3  2   
  3   1   4  am  
  4   1   5  1   
  5   4   6  1   
  6   4   7  1   
  7   5   8  1   
  8   5   9  2   
  9   6  10  1   
 10   6  27  1   
 11   6  28  1   
 12   7  11  1   
 13   7  29  1   
 14   7  30  1   
 15   8  12  2   
 16   8  31  1   
 17   9  13  1   
 18   9  32  1   
 19  10  14  1   
 20  10  33  1   
 21  10  34  1   
 22  11  14  1   
 23  11  35  1   
 24  11  36  1   
 25  12  13  1   
 26  13  15  1   
 27  14  16  1   
 28  15  17  1   
 29  15  37  1   
 30  15  38  1   
 31  16  18  ar  
 32  16  19  ar  
 33  17  39  1   
 34  17  40  1   
 35  17  41  1   
 36  18  20  ar  
 37  18  42  1   
 38  19  21  ar  
 39  19  43  1   
 40  20  22  ar  
 41  20  23  1   
 42  21  22  ar  
 43  21  44  1   
 44  22  45  1   
 45  23  24  1   
 46  23  25  1   
 47  23  26  1   
@<TRIPOS>SUBSTRUCTURE
  1 ****  11 GROUP 4 **** **** 0

# MOE 2024.06 (io_trps.svl 2023.06)
