@<TRIPOS>MOLECULE
NONAME
32 32 1 0 0 
SMALL
USER_CHARGES


@<TRIPOS>ATOM
  1 S       -0.6690     2.7510     0.0310 S.3   1 <1>  -0.4600 
  2 C        0.8950     2.6420    -0.9060 C.3   1 <1>   0.2110 
  3 C       -1.8320     1.7630    -0.9590 C.3   1 <1>   0.2140 
  4 C        1.2760     1.1900    -1.2540 C.2   1 <1>   0.5690 
  5 C        1.9510     3.4270    -0.1180 C.3   1 <1>  -0.2400 
  6 C       -1.8950     0.3530    -0.3920 C.ar  1 <1>  -0.1440 
  7 O        1.2520     0.8720    -2.4180 O.2   1 <1>  -0.5700 
  8 N        1.6390     0.2560    -0.3360 N.am  1 <1>  -0.7300 
  9 C       -2.3620     0.1370     0.8960 C.ar  1 <1>  -0.1500 
 10 C       -1.4970    -0.7310    -1.1600 C.ar  1 <1>  -0.1500 
 11 C        1.4580     0.2710     1.1260 C.3   1 <1>   0.1400 
 12 C       -2.4330    -1.1470     1.4090 C.ar  1 <1>  -0.1500 
 13 C       -1.5690    -2.0150    -0.6490 C.ar  1 <1>  -0.1500 
 14 C        1.5700    -1.1590     1.6370 C.3   1 <1>  -0.2400 
 15 C       -2.0380    -2.2240     0.6360 C.ar  1 <1>  -0.1500 
 16 H        0.7060     3.1560    -1.8310 H     1 <1>   0.0800 
 17 H       -1.4910     1.7760    -1.9800 H     1 <1>   0.0800 
 18 H       -2.7910     2.2440    -0.8900 H     1 <1>   0.0800 
 19 H        2.0710     3.0240     0.8690 H     1 <1>   0.0800 
 20 H        1.6540     4.4560    -0.0360 H     1 <1>   0.0800 
 21 H        2.8960     3.3810    -0.6300 H     1 <1>   0.0800 
 22 H        1.8270    -0.6690    -0.7260 H     1 <1>   0.3700 
 23 H       -2.6690     0.9710     1.5020 H     1 <1>   0.1500 
 24 H       -1.1240    -0.5800    -2.1590 H     1 <1>   0.1500 
 25 H        0.4900     0.6680     1.3760 H     1 <1>   0.0800 
 26 H        2.2200     0.8810     1.5800 H     1 <1>   0.0800 
 27 H       -2.7970    -1.3050     2.4090 H     1 <1>   0.1500 
 28 H       -1.2590    -2.8500    -1.2520 H     1 <1>   0.1500 
 29 H        0.8080    -1.7720     1.1920 H     1 <1>   0.0800 
 30 H        1.4320    -1.1700     2.7030 H     1 <1>   0.0800 
 31 H        2.5400    -1.5650     1.4140 H     1 <1>   0.0800 
 32 H       -2.0960    -3.2220     1.0330 H     1 <1>   0.1500 
@<TRIPOS>BOND
  1   1   2  1   
  2   1   3  1   
  3   2   4  1   
  4   2   5  1   
  5   2  16  1   
  6   3   6  1   
  7   3  17  1   
  8   3  18  1   
  9   4   7  2   
 10   4   8  am  
 11   5  19  1   
 12   5  20  1   
 13   5  21  1   
 14   6   9  ar  
 15   6  10  ar  
 16   8  11  1   
 17   8  22  1   
 18   9  12  ar  
 19   9  23  1   
 20  10  13  ar  
 21  10  24  1   
 22  11  14  1   
 23  11  25  1   
 24  11  26  1   
 25  12  15  ar  
 26  12  27  1   
 27  13  15  ar  
 28  13  28  1   
 29  14  29  1   
 30  14  30  1   
 31  14  31  1   
 32  15  32  1   
@<TRIPOS>SUBSTRUCTURE
  1 ****   6 GROUP 4 **** **** 0

# MOE 2024.06 (io_trps.svl 2023.06)
