@<TRIPOS>MOLECULE
NONAME
52 54 1 0 0 
SMALL
USER_CHARGES


@<TRIPOS>ATOM
  1 O        0.0320     1.4080     0.5330 O.2   1 <1>  -0.5700 
  2 C       -0.2380     2.5480     0.2120 C.2   1 <1>   0.6340 
  3 O        0.7580     3.4260     0.0440 O.3   1 <1>  -0.4300 
  4 C       -1.5950     3.0130     0.0010 C.ar  1 <1>   0.0860 
  5 C        2.1170     3.0980     0.2460 C.3   1 <1>   0.1200 
  6 C       -2.6840     2.1470     0.1330 C.ar  1 <1>  -0.1500 
  7 C       -1.8870     4.3370    -0.3390 C.ar  1 <1>  -0.1500 
  8 C        2.4520     3.2690     1.7270 C.3   1 <1>  -0.2400 
  9 C       -3.9830     2.5750    -0.0630 C.ar  1 <1>  -0.1500 
 10 C       -3.1850     4.7670    -0.5360 C.ar  1 <1>  -0.1500 
 11 C       -4.2590     3.8960    -0.4040 C.ar  1 <1>   0.1170 
 12 N       -5.5550     4.3840    -0.5950 N.am  1 <1>  -0.5470 
 13 C       -6.7290     3.7380    -0.9130 C.2   1 <1>   0.5440 
 14 O       -6.7160     2.5740    -1.2550 O.2   1 <1>  -0.5700 
 15 C       -7.9830     4.4650    -0.8690 C.ar  1 <1>   0.0860 
 16 C       -8.2390     5.4460     0.0910 C.ar  1 <1>  -0.1500 
 17 C       -8.9940     4.2000    -1.7920 C.ar  1 <1>  -0.1500 
 18 C       -9.4420     6.1290     0.1240 C.ar  1 <1>  -0.1500 
 19 C      -10.1990     4.8780    -1.7660 C.ar  1 <1>  -0.1500 
 20 C      -10.4350     5.8460    -0.8020 C.ar  1 <1>  -0.1430 
 21 C      -11.7680     6.5720    -0.7600 C.3   1 <1>   0.4860 
 22 N      -12.5660     6.0530     0.3820 N.4   1 <1>  -0.9590 
 23 C      -12.8100     4.5700     0.3320 C.3   1 <1>   0.3430 
 24 C      -13.8510     6.7980     0.6060 C.3   1 <1>   0.3430 
 25 C      -13.5990     4.0910     1.5730 C.3   1 <1>   0.1200 
 26 C      -14.6700     6.1800     1.7640 C.3   1 <1>   0.1200 
 27 O      -13.9480     5.1650     2.4060 O.3   1 <1>  -0.5600 
 28 H        2.7060     3.7720    -0.3510 H     1 <1>   0.0800 
 29 H        2.2960     2.0890    -0.0870 H     1 <1>   0.0800 
 30 H       -2.5040     1.1180     0.3940 H     1 <1>   0.1500 
 31 H       -1.0800     5.0410    -0.4520 H     1 <1>   0.1500 
 32 H        2.2520     4.2770     2.0410 H     1 <1>   0.0800 
 33 H        3.4940     3.0590     1.8880 H     1 <1>   0.0800 
 34 H        1.8730     2.5830     2.3200 H     1 <1>   0.0800 
 35 H       -4.7870     1.8720     0.0540 H     1 <1>   0.1500 
 36 H       -3.3630     5.7940    -0.8000 H     1 <1>   0.1500 
 37 H       -5.6320     5.3980    -0.5680 H     1 <1>   0.3700 
 38 H       -7.4880     5.6700     0.8300 H     1 <1>   0.1500 
 39 H       -8.8210     3.4440    -2.5410 H     1 <1>   0.1500 
 40 H       -9.5910     6.8810     0.8820 H     1 <1>   0.1500 
 41 H      -10.9430     4.6370    -2.5080 H     1 <1>   0.1500 
 42 H      -12.2980     6.4160    -1.6860 H     1 <1>   0.0800 
 43 H      -11.5940     7.6300    -0.6410 H     1 <1>   0.0800 
 44 H      -12.0170     6.1850     1.2430 H     1 <1>   0.4500 
 45 H      -11.8710     4.0400     0.2900 H     1 <1>   0.0800 
 46 H      -13.3640     4.3160    -0.5560 H     1 <1>   0.0800 
 47 H      -14.4510     6.7830    -0.2890 H     1 <1>   0.0800 
 48 H      -13.6420     7.8290     0.8400 H     1 <1>   0.0800 
 49 H      -12.9990     3.4100     2.1520 H     1 <1>   0.0800 
 50 H      -14.4970     3.5760     1.2780 H     1 <1>   0.0800 
 51 H      -15.5960     5.7670     1.4010 H     1 <1>   0.0800 
 52 H      -14.9040     6.9330     2.4970 H     1 <1>   0.0800 
@<TRIPOS>BOND
  1   1   2  2   
  2   2   3  1   
  3   2   4  1   
  4   3   5  1   
  5   4   6  ar  
  6   4   7  ar  
  7   5   8  1   
  8   5  28  1   
  9   5  29  1   
 10   6   9  ar  
 11   6  30  1   
 12   7  10  ar  
 13   7  31  1   
 14   8  32  1   
 15   8  33  1   
 16   8  34  1   
 17   9  11  ar  
 18   9  35  1   
 19  10  11  ar  
 20  10  36  1   
 21  11  12  1   
 22  12  13  am  
 23  12  37  1   
 24  13  14  2   
 25  13  15  1   
 26  15  16  ar  
 27  15  17  ar  
 28  16  18  ar  
 29  16  38  1   
 30  17  19  ar  
 31  17  39  1   
 32  18  20  ar  
 33  18  40  1   
 34  19  20  ar  
 35  19  41  1   
 36  20  21  1   
 37  21  22  1   
 38  21  42  1   
 39  21  43  1   
 40  22  23  1   
 41  22  24  1   
 42  22  44  1   
 43  23  25  1   
 44  23  45  1   
 45  23  46  1   
 46  24  26  1   
 47  24  47  1   
 48  24  48  1   
 49  25  27  1   
 50  25  49  1   
 51  25  50  1   
 52  26  27  1   
 53  26  51  1   
 54  26  52  1   
@<TRIPOS>SUBSTRUCTURE
  1 ****  13 GROUP 4 **** **** 0

# MOE 2024.06 (io_trps.svl 2023.06)
