@<TRIPOS>MOLECULE
NONAME
46 47 1 0 0 
SMALL
USER_CHARGES


@<TRIPOS>ATOM
  1 S       -0.1090    -0.1100     1.0180 S.o2  1 <1>   1.4470 
  2 O        0.2800    -0.2580     2.4040 O.2   1 <1>  -0.6500 
  3 O        0.2120     1.1040     0.3040 O.2   1 <1>  -0.6500 
  4 N        0.7330    -1.3430     0.2060 N.am  1 <1>  -0.8490 
  5 C       -1.8480    -0.5600     0.7730 C.ar  1 <1>  -0.0090 
  6 C        2.1560    -0.9710     0.0420 C.3   1 <1>   0.1960 
  7 C        0.6210    -2.6500     0.8890 C.3   1 <1>   0.1960 
  8 C       -2.4080    -0.5680    -0.4990 C.ar  1 <1>  -0.1500 
  9 C       -2.6560    -0.9290     1.8410 C.ar  1 <1>  -0.1500 
 10 C        3.0150    -2.1010    -0.5800 C.3   1 <1>   0.3430 
 11 C        1.3330    -3.7830     0.1060 C.3   1 <1>   0.3430 
 12 C       -3.7250    -0.9400    -0.7120 C.ar  1 <1>  -0.1440 
 13 C       -3.9740    -1.3020     1.6490 C.ar  1 <1>  -0.1500 
 14 N        2.1700    -3.2600    -1.0350 N.4   1 <1>  -0.9590 
 15 C       -4.5190    -1.3130     0.3680 C.ar  1 <1>   0.0830 
 16 C       -4.2980    -0.9300    -2.1220 C.3   1 <1>  -0.0970 
 17 C        2.9620    -4.3010    -1.7380 C.3   1 <1>   0.3430 
 18 O       -5.8030    -1.6720     0.1150 O.3   1 <1>  -0.3620 
 19 C        2.0250    -5.2430    -2.4830 C.3   1 <1>  -0.2400 
 20 C       -6.7160    -1.9650     1.1470 C.3   1 <1>   0.1200 
 21 C       -8.0670    -2.2700     0.5080 C.3   1 <1>  -0.2400 
 22 H        2.5780    -0.6950     0.9950 H     1 <1>   0.0800 
 23 H        2.2230    -0.1030    -0.5940 H     1 <1>   0.0800 
 24 H       -0.4160    -2.9140     1.0100 H     1 <1>   0.0800 
 25 H        1.0510    -2.5870     1.8760 H     1 <1>   0.0800 
 26 H       -1.7970    -0.2720    -1.3340 H     1 <1>   0.1500 
 27 H       -2.2520    -0.9220     2.8410 H     1 <1>   0.1500 
 28 H        3.7280    -2.4380     0.1540 H     1 <1>   0.0800 
 29 H        3.5690    -1.6980    -1.4110 H     1 <1>   0.0800 
 30 H        0.5830    -4.4550    -0.2770 H     1 <1>   0.0800 
 31 H        1.9490    -4.3440     0.7900 H     1 <1>   0.0800 
 32 H       -4.5600    -1.5790     2.5050 H     1 <1>   0.1500 
 33 H        1.4930    -2.8470    -1.6950 H     1 <1>   0.4500 
 34 H       -3.5660    -0.6150    -2.8420 H     1 <1>   0.0800 
 35 H       -5.1350    -0.2570    -2.1680 H     1 <1>   0.0800 
 36 H       -4.6390    -1.9160    -2.3850 H     1 <1>   0.0800 
 37 H        3.5620    -4.8550    -1.0330 H     1 <1>   0.0800 
 38 H        3.6240    -3.8330    -2.4500 H     1 <1>   0.0800 
 39 H        1.4130    -5.8100    -1.8060 H     1 <1>   0.0800 
 40 H        2.6110    -5.9430    -3.0530 H     1 <1>   0.0800 
 41 H        1.4010    -4.6990    -3.1710 H     1 <1>   0.0800 
 42 H       -6.7860    -1.1080     1.7940 H     1 <1>   0.0800 
 43 H       -6.3520    -2.8190     1.6920 H     1 <1>   0.0800 
 44 H       -8.4140    -1.4180    -0.0480 H     1 <1>   0.0800 
 45 H       -8.7890    -2.4980     1.2720 H     1 <1>   0.0800 
 46 H       -7.9840    -3.1180    -0.1480 H     1 <1>   0.0800 
@<TRIPOS>BOND
  1   1   2  2   
  2   1   3  2   
  3   1   4  am  
  4   1   5  1   
  5   4   6  1   
  6   4   7  1   
  7   5   8  ar  
  8   5   9  ar  
  9   6  10  1   
 10   6  22  1   
 11   6  23  1   
 12   7  11  1   
 13   7  24  1   
 14   7  25  1   
 15   8  12  ar  
 16   8  26  1   
 17   9  13  ar  
 18   9  27  1   
 19  10  14  1   
 20  10  28  1   
 21  10  29  1   
 22  11  14  1   
 23  11  30  1   
 24  11  31  1   
 25  12  15  ar  
 26  12  16  1   
 27  13  15  ar  
 28  13  32  1   
 29  14  17  1   
 30  14  33  1   
 31  15  18  1   
 32  16  34  1   
 33  16  35  1   
 34  16  36  1   
 35  17  19  1   
 36  17  37  1   
 37  17  38  1   
 38  18  20  1   
 39  19  39  1   
 40  19  40  1   
 41  19  41  1   
 42  20  21  1   
 43  20  42  1   
 44  20  43  1   
 45  21  44  1   
 46  21  45  1   
 47  21  46  1   
@<TRIPOS>SUBSTRUCTURE
  1 ****   5 GROUP 4 **** **** 0

# MOE 2024.06 (io_trps.svl 2023.06)
