@<TRIPOS>MOLECULE
NONAME
38 39 1 0 0 
SMALL
USER_CHARGES


@<TRIPOS>ATOM
  1 F       -1.4060     0.8950    -1.5240 F     1 <1>  -0.1900 
  2 C       -0.8260     1.8910    -0.9080 C.ar  1 <1>   0.1900 
  3 C       -1.4700     2.5110     0.1580 C.ar  1 <1>  -0.1440 
  4 C        0.4250     2.2750    -1.3500 C.ar  1 <1>  -0.1500 
  5 C       -0.8160     3.5530     0.8080 C.ar  1 <1>  -0.1500 
  6 C       -2.8510     2.0580     0.6120 C.3   1 <1>   0.2540 
  7 C        1.0370     3.3150    -0.6810 C.ar  1 <1>   0.1900 
  8 C        0.4420     3.9610     0.3900 C.ar  1 <1>  -0.1500 
  9 N       -3.9090     2.6250    -0.2400 N.3   1 <1>  -0.8100 
 10 F        2.2200     3.7050    -1.0700 F     1 <1>  -0.1900 
 11 C       -4.0140     4.0970    -0.1090 C.3   1 <1>   0.1100 
 12 C       -5.2080     1.9820     0.0450 C.3   1 <1>   0.1100 
 13 C       -5.1090     4.6780    -1.0200 C.3   1 <1>   0.1400 
 14 C       -6.3260     2.5130    -0.8690 C.3   1 <1>   0.1400 
 15 N       -6.4110     3.9980    -0.7760 N.am  1 <1>  -0.6600 
 16 C       -7.5380     4.6800    -0.4090 C.2   1 <1>   0.7800 
 17 O       -7.5600     5.8900    -0.2800 O.2   1 <1>  -0.5700 
 18 O       -8.6460     3.9720    -0.1800 O.3   1 <1>  -0.4300 
 19 C       -9.8440     4.6090     0.1990 C.3   1 <1>   0.1200 
 20 C      -10.9120     3.5360     0.3870 C.3   1 <1>  -0.2400 
 21 H        0.9020     1.7830    -2.1760 H     1 <1>   0.1500 
 22 H       -1.2860     4.0510     1.6400 H     1 <1>   0.1500 
 23 H       -3.0170     2.3440     1.6370 H     1 <1>   0.0800 
 24 H       -2.8930     0.9830     0.5610 H     1 <1>   0.0800 
 25 H        0.9580     4.7660     0.8820 H     1 <1>   0.1500 
 26 H       -3.0780     4.5520    -0.3830 H     1 <1>   0.0800 
 27 H       -4.2310     4.3620     0.9110 H     1 <1>   0.0800 
 28 H       -5.4860     2.1530     1.0710 H     1 <1>   0.0800 
 29 H       -5.1200     0.9190    -0.1060 H     1 <1>   0.0800 
 30 H       -4.8250     4.5360    -2.0470 H     1 <1>   0.0800 
 31 H       -5.1960     5.7360    -0.8420 H     1 <1>   0.0800 
 32 H       -7.2590     2.0560    -0.5920 H     1 <1>   0.0800 
 33 H       -6.1090     2.2360    -1.8860 H     1 <1>   0.0800 
 34 H      -10.1220     5.3010    -0.5790 H     1 <1>   0.0800 
 35 H       -9.6690     5.1470     1.1160 H     1 <1>   0.0800 
 36 H      -11.0660     3.0030    -0.5340 H     1 <1>   0.0800 
 37 H      -11.8390     3.9950     0.6770 H     1 <1>   0.0800 
 38 H      -10.6130     2.8480     1.1570 H     1 <1>   0.0800 
@<TRIPOS>BOND
  1   1   2  1   
  2   2   3  ar  
  3   2   4  ar  
  4   3   5  ar  
  5   3   6  1   
  6   4   7  ar  
  7   4  21  1   
  8   5   8  ar  
  9   5  22  1   
 10   6   9  1   
 11   6  23  1   
 12   6  24  1   
 13   7   8  ar  
 14   7  10  1   
 15   8  25  1   
 16   9  11  1   
 17   9  12  1   
 18  11  13  1   
 19  11  26  1   
 20  11  27  1   
 21  12  14  1   
 22  12  28  1   
 23  12  29  1   
 24  13  15  1   
 25  13  30  1   
 26  13  31  1   
 27  14  15  1   
 28  14  32  1   
 29  14  33  1   
 30  15  16  am  
 31  16  17  2   
 32  16  18  1   
 33  18  19  1   
 34  19  20  1   
 35  19  34  1   
 36  19  35  1   
 37  20  36  1   
 38  20  37  1   
 39  20  38  1   
@<TRIPOS>SUBSTRUCTURE
  1 ****   9 GROUP 4 **** **** 0

# MOE 2024.06 (io_trps.svl 2023.06)
