@<TRIPOS>MOLECULE
NONAME
31 32 1 0 0 
SMALL
USER_CHARGES


@<TRIPOS>ATOM
  1 S        0.2490     0.0990     0.2130 S.3   1 <1>  -0.0800 
  2 C        0.8460    -1.5250    -0.1040 C.2   1 <1>   0.4420 
  3 C       -1.3830    -0.5270     0.3030 C.ar  1 <1>   0.0400 
  4 N       -0.0690    -2.4140    -0.1360 N.2   1 <1>  -0.5650 
  5 N        2.2050    -1.6440    -0.2770 N.am  1 <1>  -0.4940 
  6 C       -1.3460    -1.8960     0.0900 C.ar  1 <1>   0.2270 
  7 C       -2.5330     0.1990     0.5460 C.ar  1 <1>  -0.1500 
  8 C        2.9580    -2.7590    -0.5120 C.2   1 <1>   0.5690 
  9 C       -2.5760    -2.5850     0.1250 C.ar  1 <1>   0.0830 
 10 C       -3.7290    -0.4930     0.5760 C.ar  1 <1>  -0.1500 
 11 O        2.5120    -3.8740    -0.5980 O.2   1 <1>  -0.5700 
 12 C        4.4560    -2.5640    -0.6770 C.3   1 <1>  -0.0990 
 13 O       -2.7520    -3.9230    -0.0590 O.3   1 <1>  -0.3630 
 14 C       -3.7410    -1.8680     0.3670 C.ar  1 <1>  -0.1500 
 15 C        5.1470    -2.0800     0.6080 C.3   1 <1>  -0.2400 
 16 C       -1.6810    -4.8070    -0.3060 C.3   1 <1>   0.1200 
 17 C       -2.2530    -6.2140    -0.4500 C.3   1 <1>  -0.2400 
 18 H        2.7210    -0.7740    -0.2080 H     1 <1>   0.3700 
 19 H       -2.4930     1.2620     0.7040 H     1 <1>   0.1500 
 20 H       -4.6530     0.0280     0.7610 H     1 <1>   0.1500 
 21 H        4.6300    -1.8640    -1.4740 H     1 <1>   0.0800 
 22 H        4.8880    -3.5040    -0.9740 H     1 <1>   0.0800 
 23 H       -4.6750    -2.4010     0.3920 H     1 <1>   0.1500 
 24 H        4.7750    -1.1180     0.9100 H     1 <1>   0.0800 
 25 H        6.2090    -2.0020     0.4480 H     1 <1>   0.0800 
 26 H        4.9740    -2.7840     1.4050 H     1 <1>   0.0800 
 27 H       -0.9960    -4.7580     0.5230 H     1 <1>   0.0800 
 28 H       -1.1860    -4.5030    -1.2130 H     1 <1>   0.0800 
 29 H       -2.7540    -6.5030     0.4560 H     1 <1>   0.0800 
 30 H       -1.4550    -6.9090    -0.6390 H     1 <1>   0.0800 
 31 H       -2.9440    -6.2490    -1.2730 H     1 <1>   0.0800 
@<TRIPOS>BOND
  1   1   2  1   
  2   1   3  1   
  3   2   4  2   
  4   2   5  1   
  5   3   6  ar  
  6   3   7  ar  
  7   4   6  1   
  8   5   8  am  
  9   5  18  1   
 10   6   9  ar  
 11   7  10  ar  
 12   7  19  1   
 13   8  11  2   
 14   8  12  1   
 15   9  13  1   
 16   9  14  ar  
 17  10  14  ar  
 18  10  20  1   
 19  12  15  1   
 20  12  21  1   
 21  12  22  1   
 22  13  16  1   
 23  14  23  1   
 24  15  24  1   
 25  15  25  1   
 26  15  26  1   
 27  16  17  1   
 28  16  27  1   
 29  16  28  1   
 30  17  29  1   
 31  17  30  1   
 32  17  31  1   
@<TRIPOS>SUBSTRUCTURE
  1 ****   4 GROUP 4 **** **** 0

# MOE 2024.06 (io_trps.svl 2023.06)
