@<TRIPOS>MOLECULE
NONAME
49 50 1 0 0 
SMALL
USER_CHARGES


@<TRIPOS>ATOM
  1 O       -0.2760     0.4480    -0.2080 O.2   1 <1>  -0.5700 
  2 C       -0.1830     1.6490    -0.4100 C.2   1 <1>   0.5440 
  3 N       -1.2940     2.3470    -0.7920 N.am  1 <1>  -0.4300 
  4 C        1.0930     2.3260    -0.2790 C.ar  1 <1>   0.0860 
  5 N       -2.6770     1.8710    -0.6740 N.am  1 <1>  -0.4300 
  6 C        1.1900     3.6290     0.2060 C.ar  1 <1>  -0.1500 
  7 C        2.2810     1.6970    -0.6390 C.ar  1 <1>  -0.1500 
  8 C       -3.5200     2.1320     0.3640 C.2   1 <1>   0.5690 
  9 C        2.4100     4.2720     0.3050 C.ar  1 <1>  -0.1500 
 10 C        3.5030     2.3380    -0.5400 C.ar  1 <1>  -0.1500 
 11 O       -3.2340     2.9270     1.2400 O.2   1 <1>  -0.5700 
 12 C       -4.8670     1.3950     0.4250 C.3   1 <1>   0.4040 
 13 C        3.5940     3.6440    -0.0680 C.ar  1 <1>  -0.1430 
 14 O       -4.8600     0.2730    -0.4390 O.3   1 <1>  -0.5600 
 15 C       -6.0290     2.3220     0.0510 C.ar  1 <1>  -0.1430 
 16 C        4.9340     4.4040     0.0610 C.3   1 <1>   0.1440 
 17 C       -5.8850    -0.6460    -0.2130 C.3   1 <1>   0.0400 
 18 C       -6.7670     2.9400     1.0500 C.ar  1 <1>  -0.1500 
 19 C       -6.3580     2.5640    -1.2770 C.ar  1 <1>  -0.1500 
 20 C        6.1460     3.5750    -0.3990 C.3   1 <1>  -0.2400 
 21 C        5.1670     4.7890     1.5290 C.3   1 <1>  -0.2400 
 22 C        4.8900     5.6760    -0.8000 C.3   1 <1>  -0.2400 
 23 C       -7.8210     3.7790     0.7290 C.ar  1 <1>  -0.1500 
 24 C       -7.4110     3.4020    -1.5990 C.ar  1 <1>  -0.1500 
 25 C       -8.1430     4.0100    -0.5960 C.ar  1 <1>  -0.1500 
 26 H       -1.1860     3.3290    -1.0620 H     1 <1>   0.3700 
 27 H       -2.9630     1.1190    -1.3160 H     1 <1>   0.3700 
 28 H        0.3010     4.1450     0.5230 H     1 <1>   0.1500 
 29 H        2.2410     0.6840    -1.0030 H     1 <1>   0.1500 
 30 H        2.4290     5.2770     0.6850 H     1 <1>   0.1500 
 31 H        4.3750     1.7880    -0.8390 H     1 <1>   0.1500 
 32 H       -4.9900     1.0360     1.4300 H     1 <1>   0.0800 
 33 H       -5.7710    -1.4540    -0.9140 H     1 <1>   0.0800 
 34 H       -6.8390    -0.1700    -0.3650 H     1 <1>   0.0800 
 35 H       -5.8080    -1.0270     0.7910 H     1 <1>   0.0800 
 36 H       -6.5230     2.7770     2.0860 H     1 <1>   0.1500 
 37 H       -5.7950     2.0960    -2.0660 H     1 <1>   0.1500 
 38 H        6.2420     2.6840     0.1950 H     1 <1>   0.0800 
 39 H        7.0540     4.1420    -0.2960 H     1 <1>   0.0800 
 40 H        6.0430     3.2980    -1.4330 H     1 <1>   0.0800 
 41 H        5.1630     3.9070     2.1450 H     1 <1>   0.0800 
 42 H        4.3980     5.4500     1.8840 H     1 <1>   0.0800 
 43 H        6.1140     5.2850     1.6470 H     1 <1>   0.0800 
 44 H        4.6930     5.4190    -1.8250 H     1 <1>   0.0800 
 45 H        5.8290     6.1990    -0.7520 H     1 <1>   0.0800 
 46 H        4.1190     6.3450    -0.4650 H     1 <1>   0.0800 
 47 H       -8.3870     4.2540     1.5110 H     1 <1>   0.1500 
 48 H       -7.6590     3.5820    -2.6310 H     1 <1>   0.1500 
 49 H       -8.9620     4.6630    -0.8450 H     1 <1>   0.1500 
@<TRIPOS>BOND
  1   1   2  2   
  2   2   3  am  
  3   2   4  1   
  4   3   5  1   
  5   3  26  1   
  6   4   6  ar  
  7   4   7  ar  
  8   5   8  am  
  9   5  27  1   
 10   6   9  ar  
 11   6  28  1   
 12   7  10  ar  
 13   7  29  1   
 14   8  11  2   
 15   8  12  1   
 16   9  13  ar  
 17   9  30  1   
 18  10  13  ar  
 19  10  31  1   
 20  12  14  1   
 21  12  15  1   
 22  12  32  1   
 23  13  16  1   
 24  14  17  1   
 25  15  18  ar  
 26  15  19  ar  
 27  16  20  1   
 28  16  21  1   
 29  16  22  1   
 30  17  33  1   
 31  17  34  1   
 32  17  35  1   
 33  18  23  ar  
 34  18  36  1   
 35  19  24  ar  
 36  19  37  1   
 37  20  38  1   
 38  20  39  1   
 39  20  40  1   
 40  21  41  1   
 41  21  42  1   
 42  21  43  1   
 43  22  44  1   
 44  22  45  1   
 45  22  46  1   
 46  23  25  ar  
 47  23  47  1   
 48  24  25  ar  
 49  24  48  1   
 50  25  49  1   
@<TRIPOS>SUBSTRUCTURE
  1 ****   3 GROUP 4 **** **** 0

# MOE 2024.06 (io_trps.svl 2023.06)
