@<TRIPOS>MOLECULE
NONAME
53 55 1 0 0 
SMALL
USER_CHARGES


@<TRIPOS>ATOM
  1 O       -1.6040     1.1480    -1.8380 O.2   1 <1>  -0.5700 
  2 C       -1.9180     1.5850    -0.7540 C.2   1 <1>   0.5690 
  3 N       -2.7600     0.8700     0.0760 N.am  1 <1>  -0.6600 
  4 C       -1.3300     2.9520    -0.3570 C.3   1 <1>  -0.0190 
  5 C       -3.1320    -0.5260    -0.3260 C.3   1 <1>   0.2200 
  6 C       -3.3770     1.4410     1.3300 C.3   1 <1>   0.3200 
  7 C       -2.2890     4.1010    -0.7270 C.3   1 <1>  -0.1600 
  8 C        0.0560     3.2100    -0.9890 C.3   1 <1>  -0.1600 
  9 C       -4.4180    -0.5250    -1.1530 C.3   1 <1>  -0.2400 
 10 C       -3.2250    -1.4830     0.8650 C.3   1 <1>  -0.2400 
 11 C       -4.8750     1.6960     1.2250 C.2   1 <1>   0.2980 
 12 C       -1.7270     5.4680    -0.3120 C.3   1 <1>  -0.1600 
 13 C        0.6280     4.5710    -0.5660 C.3   1 <1>  -0.1600 
 14 O       -5.6920     0.8360     1.7750 O.3   1 <1>  -0.0190 
 15 N       -5.4320     2.6920     0.6680 N.2   1 <1>  -0.5650 
 16 C       -0.3400     5.7070    -0.9210 C.3   1 <1>  -0.1600 
 17 N       -6.8700     1.3180     1.5330 N.2   1 <1>  -0.4100 
 18 C       -6.7230     2.4130     0.8730 C.2   1 <1>   0.4620 
 19 C       -7.7950     3.2690     0.3940 C.ar  1 <1>   0.0540 
 20 C       -7.5390     4.3970    -0.3900 C.ar  1 <1>  -0.1500 
 21 C       -9.1310     2.9970     0.6970 C.ar  1 <1>  -0.1500 
 22 C       -8.5620     5.2090    -0.8440 C.ar  1 <1>  -0.1500 
 23 C      -10.1600     3.8040     0.2470 C.ar  1 <1>  -0.1500 
 24 C       -9.8790     4.9230    -0.5300 C.ar  1 <1>   0.0820 
 25 O      -10.8230     5.7670    -1.0120 O.3   1 <1>  -0.3620 
 26 C      -12.1930     5.5660    -0.7470 C.3   1 <1>   0.0400 
 27 H       -1.1680     2.9590     0.7030 H     1 <1>   0.0800 
 28 H       -2.3490    -0.9120    -0.9600 H     1 <1>   0.0800 
 29 H       -2.9300     2.3800     1.5820 H     1 <1>   0.0800 
 30 H       -3.1860     0.7850     2.1590 H     1 <1>   0.0800 
 31 H       -3.2430     3.9560    -0.2560 H     1 <1>   0.0800 
 32 H       -2.4520     4.0910    -1.7920 H     1 <1>   0.0800 
 33 H       -0.0280     3.1840    -2.0620 H     1 <1>   0.0800 
 34 H        0.7350     2.4270    -0.6970 H     1 <1>   0.0800 
 35 H       -5.2780    -0.2810    -0.5620 H     1 <1>   0.0800 
 36 H       -4.5730    -1.5010    -1.5760 H     1 <1>   0.0800 
 37 H       -4.3310     0.1780    -1.9630 H     1 <1>   0.0800 
 38 H       -4.0750    -1.2680     1.4840 H     1 <1>   0.0800 
 39 H       -2.3230    -1.4390     1.4480 H     1 <1>   0.0800 
 40 H       -3.3340    -2.4890     0.5010 H     1 <1>   0.0800 
 41 H       -1.6590     5.5170     0.7610 H     1 <1>   0.0800 
 42 H       -2.3990     6.2450    -0.6340 H     1 <1>   0.0800 
 43 H        1.5700     4.7340    -1.0610 H     1 <1>   0.0800 
 44 H        0.8080     4.5720     0.4950 H     1 <1>   0.0800 
 45 H        0.0550     6.6430    -0.5650 H     1 <1>   0.0800 
 46 H       -0.4300     5.7740    -1.9920 H     1 <1>   0.0800 
 47 H       -6.5240     4.6420    -0.6500 H     1 <1>   0.1500 
 48 H       -9.3670     2.1360     1.2980 H     1 <1>   0.1500 
 49 H       -8.3450     6.0730    -1.4460 H     1 <1>   0.1500 
 50 H      -11.1690     3.5490     0.5100 H     1 <1>   0.1500 
 51 H      -12.7440     6.3550    -1.2270 H     1 <1>   0.0800 
 52 H      -12.3520     5.6020     0.3160 H     1 <1>   0.0800 
 53 H      -12.4910     4.6150    -1.1510 H     1 <1>   0.0800 
@<TRIPOS>BOND
  1   1   2  2   
  2   2   3  am  
  3   2   4  1   
  4   3   5  1   
  5   3   6  1   
  6   4   7  1   
  7   4   8  1   
  8   4  27  1   
  9   5   9  1   
 10   5  10  1   
 11   5  28  1   
 12   6  11  1   
 13   6  29  1   
 14   6  30  1   
 15   7  12  1   
 16   7  31  1   
 17   7  32  1   
 18   8  13  1   
 19   8  33  1   
 20   8  34  1   
 21   9  35  1   
 22   9  36  1   
 23   9  37  1   
 24  10  38  1   
 25  10  39  1   
 26  10  40  1   
 27  11  14  1   
 28  11  15  2   
 29  12  16  1   
 30  12  41  1   
 31  12  42  1   
 32  13  16  1   
 33  13  43  1   
 34  13  44  1   
 35  14  17  1   
 36  15  18  1   
 37  16  45  1   
 38  16  46  1   
 39  17  18  2   
 40  18  19  1   
 41  19  20  ar  
 42  19  21  ar  
 43  20  22  ar  
 44  20  47  1   
 45  21  23  ar  
 46  21  48  1   
 47  22  24  ar  
 48  22  49  1   
 49  23  24  ar  
 50  23  50  1   
 51  24  25  1   
 52  25  26  1   
 53  26  51  1   
 54  26  52  1   
 55  26  53  1   
@<TRIPOS>SUBSTRUCTURE
  1 ****  15 GROUP 4 **** **** 0

# MOE 2024.06 (io_trps.svl 2023.06)
