@<TRIPOS>MOLECULE
NONAME
47 48 1 0 0 
SMALL
USER_CHARGES


@<TRIPOS>ATOM
  1 O       -0.2870    -0.3180    -0.4940 O.3   1 <1>  -0.3630 
  2 C       -1.5830    -0.6410    -0.2580 C.ar  1 <1>   0.0830 
  3 C        0.7660    -1.0420     0.0980 C.3   1 <1>   0.1200 
  4 C       -2.5440     0.1340    -0.8790 C.ar  1 <1>  -0.1500 
  5 C       -1.9880    -1.6900     0.5590 C.ar  1 <1>  -0.1500 
  6 C        2.0860    -0.4230    -0.3600 C.3   1 <1>  -0.1600 
  7 C       -3.8910    -0.1260    -0.6930 C.ar  1 <1>  -0.1500 
  8 C       -3.3360    -1.9440     0.7410 C.ar  1 <1>  -0.1500 
  9 C        3.2850    -1.1540     0.2520 C.3   1 <1>   0.0210 
 10 C       -4.3150    -1.1720     0.1230 C.ar  1 <1>  -0.1430 
 11 C        4.5840    -0.5190    -0.2130 C.2   1 <1>  -0.1810 
 12 C       -5.8060    -1.5010     0.3620 C.3   1 <1>   0.1430 
 13 C        5.2640     0.5320     0.4010 C.2   1 <1>   0.1080 
 14 C        5.3340    -0.8280    -1.2940 C.2   1 <1>  -0.3320 
 15 C       -6.7630    -0.5600    -0.3890 C.3   1 <1>  -0.2400 
 16 C       -6.1240    -1.3850     1.8600 C.3   1 <1>  -0.2400 
 17 C       -6.0990    -2.9330    -0.1130 C.3   1 <1>  -0.2400 
 18 N        6.3480     0.8520    -0.2300 N.2   1 <1>  -0.7070 
 19 C        4.8340     1.2490     1.6610 C.3   1 <1>  -0.0590 
 20 N        6.3910     0.0120    -1.2780 N.pl3 1 <1>   0.3000 
 21 C        5.1270    -1.8770    -2.3730 C.3   1 <1>  -0.0600 
 22 H        0.6930    -2.0670    -0.2230 H     1 <1>   0.0800 
 23 H        0.6630    -0.9750     1.1670 H     1 <1>   0.0800 
 24 H       -2.2310     0.9450    -1.5110 H     1 <1>   0.1500 
 25 H       -1.2750    -2.3160     1.0590 H     1 <1>   0.1500 
 26 H        2.1130     0.6120    -0.0670 H     1 <1>   0.0800 
 27 H        2.1510    -0.4760    -1.4320 H     1 <1>   0.0800 
 28 H       -4.5900     0.5100    -1.2010 H     1 <1>   0.1500 
 29 H       -3.6170    -2.7620     1.3790 H     1 <1>   0.1500 
 30 H        3.2710    -2.1880    -0.0420 H     1 <1>   0.0800 
 31 H        3.2350    -1.1180     1.3250 H     1 <1>   0.0800 
 32 H       -6.6160     0.4580    -0.0720 H     1 <1>   0.0800 
 33 H       -7.7860    -0.8250    -0.1940 H     1 <1>   0.0800 
 34 H       -6.5990    -0.6230    -1.4500 H     1 <1>   0.0800 
 35 H       -5.8880    -0.3950     2.2090 H     1 <1>   0.0800 
 36 H       -5.5520    -2.0900     2.4340 H     1 <1>   0.0800 
 37 H       -7.1670    -1.5740     2.0430 H     1 <1>   0.0800 
 38 H       -5.8450    -3.0330    -1.1530 H     1 <1>   0.0800 
 39 H       -7.1410    -3.1690     0.0100 H     1 <1>   0.0800 
 40 H       -5.5270    -3.6510     0.4440 H     1 <1>   0.0800 
 41 H        3.8040     1.5400     1.5870 H     1 <1>   0.0800 
 42 H        5.4340     2.1300     1.8000 H     1 <1>   0.0800 
 43 H        4.9660     0.6020     2.5080 H     1 <1>   0.0800 
 44 H        7.1520     0.0390    -1.9650 H     1 <1>   0.2700 
 45 H        4.2000    -2.4000    -2.2220 H     1 <1>   0.0800 
 46 H        5.9300    -2.5930    -2.3530 H     1 <1>   0.0800 
 47 H        5.0970    -1.4100    -3.3410 H     1 <1>   0.0800 
@<TRIPOS>BOND
  1   1   2  1   
  2   1   3  1   
  3   2   4  ar  
  4   2   5  ar  
  5   3   6  1   
  6   3  22  1   
  7   3  23  1   
  8   4   7  ar  
  9   4  24  1   
 10   5   8  ar  
 11   5  25  1   
 12   6   9  1   
 13   6  26  1   
 14   6  27  1   
 15   7  10  ar  
 16   7  28  1   
 17   8  10  ar  
 18   8  29  1   
 19   9  11  1   
 20   9  30  1   
 21   9  31  1   
 22  10  12  1   
 23  11  13  1   
 24  11  14  2   
 25  12  15  1   
 26  12  16  1   
 27  12  17  1   
 28  13  18  2   
 29  13  19  1   
 30  14  20  1   
 31  14  21  1   
 32  15  32  1   
 33  15  33  1   
 34  15  34  1   
 35  16  35  1   
 36  16  36  1   
 37  16  37  1   
 38  17  38  1   
 39  17  39  1   
 40  17  40  1   
 41  18  20  1   
 42  19  41  1   
 43  19  42  1   
 44  19  43  1   
 45  20  44  1   
 46  21  45  1   
 47  21  46  1   
 48  21  47  1   
@<TRIPOS>SUBSTRUCTURE
  1 ****   1 GROUP 4 **** **** 0

# MOE 2024.06 (io_trps.svl 2023.06)
