@<TRIPOS>MOLECULE
NONAME
46 47 1 0 0 
SMALL
USER_CHARGES


@<TRIPOS>ATOM
  1 O        0.1560     0.7640    -1.4260 O.2   1 <1>  -0.5700 
  2 C        0.3940     1.6630    -0.6420 C.2   1 <1>   0.6900 
  3 N        1.6690     1.8810    -0.1950 N.am  1 <1>  -0.6600 
  4 N       -0.6070     2.4650    -0.2080 N.am  1 <1>  -0.7300 
  5 C        2.7940     1.0680    -0.7620 C.3   1 <1>   0.3200 
  6 C        1.9700     2.6330     1.0530 C.3   1 <1>   0.1400 
  7 C       -2.0150     2.3690    -0.6280 C.3   1 <1>   0.1400 
  8 C        4.0240     1.9070    -1.0790 C.2   1 <1>   0.2980 
  9 C        2.1970     4.1110     0.7370 C.3   1 <1>  -0.2400 
 10 C       -2.9010     2.7870     0.5390 C.3   1 <1>  -0.2400 
 11 O        3.9640     2.7460    -2.0790 O.3   1 <1>  -0.0190 
 12 N        5.1320     1.8800    -0.4560 N.2   1 <1>  -0.5650 
 13 N        5.1330     3.3060    -2.0910 N.2   1 <1>  -0.4100 
 14 C        5.8270     2.7980    -1.1360 C.2   1 <1>   0.4620 
 15 C        7.1980     3.1550    -0.8040 C.ar  1 <1>   0.0540 
 16 C        7.9060     2.5000     0.2040 C.ar  1 <1>  -0.1500 
 17 C        7.8600     4.1750    -1.4880 C.ar  1 <1>  -0.1500 
 18 C        9.2160     2.8400     0.5230 C.ar  1 <1>   0.0820 
 19 C        9.1610     4.5290    -1.1860 C.ar  1 <1>  -0.1500 
 20 O        9.9210     2.2060     1.5050 O.3   1 <1>  -0.3620 
 21 C        9.8530     3.8670    -0.1780 C.ar  1 <1>   0.0820 
 22 C        9.3730     1.1420     2.2500 C.3   1 <1>   0.0400 
 23 O       11.1370     4.1790     0.1570 O.3   1 <1>  -0.3630 
 24 C       11.8540     5.1970    -0.5010 C.3   1 <1>   0.0400 
 25 H       -0.3390     3.3070     0.2940 H     1 <1>   0.3700 
 26 H        2.4900     0.5760    -1.6690 H     1 <1>   0.0800 
 27 H        3.0630     0.3080    -0.0520 H     1 <1>   0.0800 
 28 H        2.8470     2.2240     1.5260 H     1 <1>   0.0800 
 29 H        1.1500     2.5280     1.7440 H     1 <1>   0.0800 
 30 H       -2.2410     1.3570    -0.9200 H     1 <1>   0.0800 
 31 H       -2.1790     3.0150    -1.4740 H     1 <1>   0.0800 
 32 H        3.0630     4.2370     0.1130 H     1 <1>   0.0800 
 33 H        2.3630     4.6530     1.6500 H     1 <1>   0.0800 
 34 H        1.3420     4.5330     0.2400 H     1 <1>   0.0800 
 35 H       -2.7330     2.1400     1.3810 H     1 <1>   0.0800 
 36 H       -3.9340     2.7100     0.2520 H     1 <1>   0.0800 
 37 H       -2.7000     3.8060     0.8200 H     1 <1>   0.0800 
 38 H        7.4060     1.7140     0.7360 H     1 <1>   0.1500 
 39 H        7.3450     4.7030    -2.2730 H     1 <1>   0.1500 
 40 H        9.6170     5.3230    -1.7460 H     1 <1>   0.1500 
 41 H       10.1190     0.8050     2.9470 H     1 <1>   0.0800 
 42 H        9.1130     0.3430     1.5780 H     1 <1>   0.0800 
 43 H        8.5090     1.4970     2.7830 H     1 <1>   0.0800 
 44 H       12.8340     5.2500    -0.0620 H     1 <1>   0.0800 
 45 H       11.3410     6.1320    -0.3620 H     1 <1>   0.0800 
 46 H       11.9340     4.9490    -1.5450 H     1 <1>   0.0800 
@<TRIPOS>BOND
  1   1   2  2   
  2   2   3  am  
  3   2   4  am  
  4   3   5  1   
  5   3   6  1   
  6   4   7  1   
  7   4  25  1   
  8   5   8  1   
  9   5  26  1   
 10   5  27  1   
 11   6   9  1   
 12   6  28  1   
 13   6  29  1   
 14   7  10  1   
 15   7  30  1   
 16   7  31  1   
 17   8  11  1   
 18   8  12  2   
 19   9  32  1   
 20   9  33  1   
 21   9  34  1   
 22  10  35  1   
 23  10  36  1   
 24  10  37  1   
 25  11  13  1   
 26  12  14  1   
 27  13  14  2   
 28  14  15  1   
 29  15  16  ar  
 30  15  17  ar  
 31  16  18  ar  
 32  16  38  1   
 33  17  19  ar  
 34  17  39  1   
 35  18  20  1   
 36  18  21  ar  
 37  19  21  ar  
 38  19  40  1   
 39  20  22  1   
 40  21  23  1   
 41  22  41  1   
 42  22  42  1   
 43  22  43  1   
 44  23  24  1   
 45  24  44  1   
 46  24  45  1   
 47  24  46  1   
@<TRIPOS>SUBSTRUCTURE
  1 ****  12 GROUP 4 **** **** 0

# MOE 2024.06 (io_trps.svl 2023.06)
