@<TRIPOS>MOLECULE
NONAME
23 22 1 0 0 
SMALL
USER_CHARGES


@<TRIPOS>ATOM
  1 O        6.3630     3.1260     1.2080 O.2   1 <1>  -0.5700 
  2 C        6.7180     2.2590     0.4470 C.2   1 <1>   0.6590 
  3 O        7.9980     2.0560     0.1620 O.3   1 <1>  -0.4300 
  4 C        5.7270     1.3160    -0.2370 C.3   1 <1>   0.2010 
  5 C        9.0130     2.8540     0.7260 C.3   1 <1>   0.1200 
  6 N        4.3130     1.7980    -0.2120 N.am  1 <1>  -0.7300 
  7 C       10.3550     2.3620     0.1930 C.3   1 <1>  -0.2400 
  8 C        3.3440     1.4360    -1.0870 C.2   1 <1>   0.5690 
  9 O        3.5600     0.6170    -1.9720 O.2   1 <1>  -0.5700 
 10 C        1.9470     2.0730    -0.9310 C.3   1 <1>   0.1710 
 11 N        1.5780     2.4080     0.4680 N.3   1 <1>  -0.9900 
 12 H        5.7760     0.3610     0.2520 H     1 <1>   0.0800 
 13 H        6.0330     1.1810    -1.2600 H     1 <1>   0.0800 
 14 H        8.9650     2.7600     1.7990 H     1 <1>   0.0800 
 15 H        8.8370     3.8790     0.4460 H     1 <1>   0.0800 
 16 H        4.0760     2.4750     0.5250 H     1 <1>   0.3700 
 17 H       10.5120     1.3360     0.4730 H     1 <1>   0.0800 
 18 H       11.1490     2.9550     0.6070 H     1 <1>   0.0800 
 19 H       10.3830     2.4520    -0.8780 H     1 <1>   0.0800 
 20 H        1.2130     1.3810    -1.3470 H     1 <1>   0.0800 
 21 H        1.9370     2.9890    -1.5240 H     1 <1>   0.0800 
 22 H        1.5920     1.5590     1.0200 H     1 <1>   0.3600 
 23 H        0.6440     2.7990     0.4830 H     1 <1>   0.3600 
@<TRIPOS>BOND
  1   1   2  2   
  2   2   3  1   
  3   2   4  1   
  4   3   5  1   
  5   4   6  1   
  6   4  12  1   
  7   4  13  1   
  8   5   7  1   
  9   5  14  1   
 10   5  15  1   
 11   6   8  am  
 12   6  16  1   
 13   7  17  1   
 14   7  18  1   
 15   7  19  1   
 16   8   9  2   
 17   8  10  1   
 18  10  11  1   
 19  10  20  1   
 20  10  21  1   
 21  11  22  1   
 22  11  23  1   
@<TRIPOS>SUBSTRUCTURE
  1 ****   4 GROUP 4 **** **** 0

# MOE 2024.06 (io_trps.svl 2023.06)
