@<TRIPOS>MOLECULE
NONAME
47 49 1 0 0 
SMALL
USER_CHARGES


@<TRIPOS>ATOM
  1 CL      -0.5290     0.1620    -0.1060 Cl    1 <1>  -0.1770 
  2 C       -1.9950     1.0560    -0.4420 C.ar  1 <1>   0.1770 
  3 C       -1.9590     2.2450    -1.1490 C.ar  1 <1>   0.1900 
  4 C       -3.2030     0.5590     0.0100 C.ar  1 <1>  -0.1500 
  5 F       -0.8170     2.7200    -1.5790 F     1 <1>  -0.1900 
  6 C       -3.1150     2.9540    -1.4150 C.ar  1 <1>  -0.1500 
  7 C       -4.3840     1.2500    -0.2460 C.ar  1 <1>   0.1170 
  8 C       -4.3220     2.4510    -0.9570 C.ar  1 <1>  -0.1500 
  9 N       -5.5900     0.7180     0.2390 N.am  1 <1>  -0.5470 
 10 C       -6.8740     0.8740    -0.2110 C.2   1 <1>   0.5690 
 11 O       -7.1540     1.5280    -1.1850 O.2   1 <1>  -0.5700 
 12 C       -7.9820     0.1610     0.5690 C.3   1 <1>  -0.0190 
 13 C       -8.0990    -1.3130     0.1380 C.3   1 <1>  -0.1600 
 14 C       -9.3530     0.8560     0.4300 C.3   1 <1>  -0.1600 
 15 C       -9.2010    -2.0400     0.9140 C.3   1 <1>   0.1400 
 16 C      -10.4520     0.1130     1.1940 C.3   1 <1>   0.1400 
 17 N      -10.4890    -1.3100     0.7570 N.am  1 <1>  -0.6600 
 18 C      -11.5650    -1.8790     0.1000 C.2   1 <1>   0.5440 
 19 O      -11.4060    -2.9290    -0.4940 O.2   1 <1>  -0.5700 
 20 C      -12.8760    -1.2610     0.0910 C.ar  1 <1>   0.0860 
 21 C      -13.5470    -0.9470     1.2740 C.ar  1 <1>  -0.1500 
 22 C      -13.5180    -0.9630    -1.1110 C.ar  1 <1>  -0.1500 
 23 C      -14.7910    -0.3450     1.2560 C.ar  1 <1>  -0.1500 
 24 C      -14.7630    -0.3620    -1.1390 C.ar  1 <1>  -0.1500 
 25 C      -15.4090    -0.0440     0.0530 C.ar  1 <1>   0.0830 
 26 O      -16.6220     0.5470     0.1180 O.3   1 <1>  -0.3630 
 27 C      -17.3550     0.8670    -1.0430 C.3   1 <1>   0.0400 
 28 H       -3.2160    -0.3670     0.5540 H     1 <1>   0.1500 
 29 H       -3.0700     3.8770    -1.9650 H     1 <1>   0.1500 
 30 H       -5.2240     3.0020    -1.1580 H     1 <1>   0.1500 
 31 H       -5.4860     0.0670     1.0140 H     1 <1>   0.3700 
 32 H       -7.7130     0.1880     1.6100 H     1 <1>   0.0800 
 33 H       -7.1660    -1.8220     0.2960 H     1 <1>   0.0800 
 34 H       -8.3270    -1.3670    -0.9130 H     1 <1>   0.0800 
 35 H       -9.6330     0.9040    -0.6090 H     1 <1>   0.0800 
 36 H       -9.2860     1.8660     0.7930 H     1 <1>   0.0800 
 37 H       -8.9520    -2.0840     1.9600 H     1 <1>   0.0800 
 38 H       -9.2880    -3.0520     0.5540 H     1 <1>   0.0800 
 39 H      -11.3930     0.6010     1.0090 H     1 <1>   0.0800 
 40 H      -10.2580     0.1510     2.2520 H     1 <1>   0.0800 
 41 H      -13.0810    -1.1850     2.2140 H     1 <1>   0.1500 
 42 H      -13.0210    -1.2150    -2.0330 H     1 <1>   0.1500 
 43 H      -15.2970    -0.1070     2.1740 H     1 <1>   0.1500 
 44 H      -15.2140    -0.1500    -2.0900 H     1 <1>   0.1500 
 45 H      -18.2850     1.3140    -0.7390 H     1 <1>   0.0800 
 46 H      -17.5470    -0.0360    -1.5940 H     1 <1>   0.0800 
 47 H      -16.7890     1.5660    -1.6320 H     1 <1>   0.0800 
@<TRIPOS>BOND
  1   1   2  1   
  2   2   3  ar  
  3   2   4  ar  
  4   3   5  1   
  5   3   6  ar  
  6   4   7  ar  
  7   4  28  1   
  8   6   8  ar  
  9   6  29  1   
 10   7   8  ar  
 11   7   9  1   
 12   8  30  1   
 13   9  10  am  
 14   9  31  1   
 15  10  11  2   
 16  10  12  1   
 17  12  13  1   
 18  12  14  1   
 19  12  32  1   
 20  13  15  1   
 21  13  33  1   
 22  13  34  1   
 23  14  16  1   
 24  14  35  1   
 25  14  36  1   
 26  15  17  1   
 27  15  37  1   
 28  15  38  1   
 29  16  17  1   
 30  16  39  1   
 31  16  40  1   
 32  17  18  am  
 33  18  19  2   
 34  18  20  1   
 35  20  21  ar  
 36  20  22  ar  
 37  21  23  ar  
 38  21  41  1   
 39  22  24  ar  
 40  22  42  1   
 41  23  25  ar  
 42  23  43  1   
 43  24  25  ar  
 44  24  44  1   
 45  25  26  1   
 46  26  27  1   
 47  27  45  1   
 48  27  46  1   
 49  27  47  1   
@<TRIPOS>SUBSTRUCTURE
  1 ****  14 GROUP 4 **** **** 0

# MOE 2024.06 (io_trps.svl 2023.06)
