@<TRIPOS>MOLECULE
NONAME
27 28 1 0 0 
SMALL
USER_CHARGES


@<TRIPOS>ATOM
  1 S       -0.3870     0.7980    -0.2310 S.o2  1 <1>   1.3450 
  2 O       -0.3360     0.5960    -1.6990 O.co2 1 <1>  -0.8170 
  3 O       -1.6610     1.3720     0.2640 O.co2 1 <1>  -0.8170 
  4 O        0.8260     1.4180     0.3460 O.co2 1 <1>  -0.8170 
  5 C       -0.3620    -0.8850     0.4460 C.3   1 <1>  -0.0550 
  6 C       -1.3970    -1.8660    -0.1430 C.3   1 <1>  -0.1600 
  7 C       -2.8350    -1.3690     0.0270 C.3   1 <1>   0.0700 
  8 S       -3.9790    -2.7630    -0.3810 S.3   1 <1>  -0.2860 
  9 C       -5.6050    -2.0550    -0.1760 C.2   1 <1>   0.5340 
 10 O       -5.6780    -0.7890     0.1920 O.3   1 <1>  -0.2800 
 11 N       -6.7070    -2.6800    -0.3550 N.2   1 <1>  -0.5650 
 12 C       -6.9720    -0.5520     0.2590 C.ar  1 <1>   0.1400 
 13 C       -7.6260    -1.7160    -0.0760 C.ar  1 <1>   0.2270 
 14 C       -7.6490     0.6120     0.5940 C.ar  1 <1>  -0.1500 
 15 C       -9.0160    -1.7470    -0.0840 C.ar  1 <1>  -0.1500 
 16 C       -9.0310     0.5780     0.5850 C.ar  1 <1>  -0.1500 
 17 C       -9.7110    -0.5970     0.2470 C.ar  1 <1>  -0.1500 
 18 H       -0.4980    -0.8240     1.5070 H     1 <1>   0.0800 
 19 H        0.6140    -1.2930     0.2720 H     1 <1>   0.0800 
 20 H       -1.2850    -2.8160     0.3460 H     1 <1>   0.0800 
 21 H       -1.1970    -1.9960    -1.1930 H     1 <1>   0.0800 
 22 H       -3.0560    -0.5580    -0.6450 H     1 <1>   0.0800 
 23 H       -3.0390    -1.0700     1.0400 H     1 <1>   0.0800 
 24 H       -7.0960     1.4990     0.8480 H     1 <1>   0.1500 
 25 H       -9.5170    -2.6600    -0.3480 H     1 <1>   0.1500 
 26 H       -9.5930     1.4610     0.8390 H     1 <1>   0.1500 
 27 H      -10.7880    -0.6010     0.2460 H     1 <1>   0.1500 
@<TRIPOS>BOND
  1   1   2  ar  
  2   1   3  ar  
  3   1   4  ar  
  4   1   5  1   
  5   5   6  1   
  6   5  18  1   
  7   5  19  1   
  8   6   7  1   
  9   6  20  1   
 10   6  21  1   
 11   7   8  1   
 12   7  22  1   
 13   7  23  1   
 14   8   9  1   
 15   9  10  1   
 16   9  11  2   
 17  10  12  1   
 18  11  13  1   
 19  12  13  ar  
 20  12  14  ar  
 21  13  15  ar  
 22  14  16  ar  
 23  14  24  1   
 24  15  17  ar  
 25  15  25  1   
 26  16  17  ar  
 27  16  26  1   
 28  17  27  1   
@<TRIPOS>SUBSTRUCTURE
  1 ****  10 GROUP 4 **** **** 0

# MOE 2024.06 (io_trps.svl 2023.06)
