@<TRIPOS>MOLECULE
NONAME
39 40 1 0 0 
SMALL
USER_CHARGES


@<TRIPOS>ATOM
  1 CL      -0.3040     0.3160     3.2990 Cl    1 <1>  -0.1770 
  2 C        0.3920     0.5260     1.7060 C.ar  1 <1>   0.1770 
  3 C        1.4230    -0.3190     1.2890 C.ar  1 <1>   0.1170 
  4 C       -0.1080     1.5300     0.8970 C.ar  1 <1>  -0.1500 
  5 N        1.9120    -1.3400     2.1170 N.am  1 <1>  -0.5470 
  6 C        1.9600    -0.1170     0.0240 C.ar  1 <1>  -0.1500 
  7 C        0.4300     1.7120    -0.3670 C.ar  1 <1>  -0.1500 
  8 C        1.8220    -2.6900     1.9570 C.2   1 <1>   0.5690 
  9 C        1.4600     0.8870    -0.7840 C.ar  1 <1>   0.1770 
 10 O        2.2620    -3.4190     2.8100 O.2   1 <1>  -0.5700 
 11 C        1.1360    -3.3070     0.7340 C.3   1 <1>   0.2010 
 12 CL       2.1490     1.1270    -2.3690 Cl    1 <1>  -0.1770 
 13 N       -0.3490    -3.1160     0.7400 N.am  1 <1>  -0.7300 
 14 C       -1.0330    -2.3730    -0.1650 C.2   1 <1>   0.5690 
 15 O       -0.4690    -1.8280    -1.0830 O.2   1 <1>  -0.5700 
 16 C       -2.5440    -2.2170     0.0030 C.3   1 <1>  -0.0190 
 17 C       -3.3000    -2.5270    -1.3040 C.3   1 <1>  -0.1600 
 18 C       -2.8980    -0.8070     0.5110 C.3   1 <1>  -0.1600 
 19 C       -4.8160    -2.3490    -1.1370 C.3   1 <1>  -0.1600 
 20 C       -4.4130    -0.6250     0.6740 C.3   1 <1>  -0.1600 
 21 C       -5.1540    -0.9410    -0.6320 C.3   1 <1>  -0.1600 
 22 H       -0.9070     2.1570     1.2500 H     1 <1>   0.1500 
 23 H        2.2150    -1.0710     3.0550 H     1 <1>   0.3700 
 24 H        2.7610    -0.7350    -0.3370 H     1 <1>   0.1500 
 25 H        0.0600     2.4800    -1.0230 H     1 <1>   0.1500 
 26 H        1.3480    -4.3610     0.7210 H     1 <1>   0.0800 
 27 H        1.5590    -2.8810    -0.1570 H     1 <1>   0.0800 
 28 H       -0.8390    -3.5260     1.5380 H     1 <1>   0.3700 
 29 H       -2.8700    -2.9260     0.7430 H     1 <1>   0.0800 
 30 H       -3.0870    -3.5360    -1.6130 H     1 <1>   0.0800 
 31 H       -2.9520    -1.8680    -2.0810 H     1 <1>   0.0800 
 32 H       -2.5260    -0.0770    -0.1890 H     1 <1>   0.0800 
 33 H       -2.4150    -0.6330     1.4560 H     1 <1>   0.0800 
 34 H       -5.1880    -3.0790    -0.4380 H     1 <1>   0.0800 
 35 H       -5.3040    -2.5190    -2.0810 H     1 <1>   0.0800 
 36 H       -4.6250     0.3880     0.9710 H     1 <1>   0.0800 
 37 H       -4.7700    -1.2780     1.4530 H     1 <1>   0.0800 
 38 H       -6.2150    -0.8590    -0.4740 H     1 <1>   0.0800 
 39 H       -4.8760    -0.2190    -1.3810 H     1 <1>   0.0800 
@<TRIPOS>BOND
  1   1   2  1   
  2   2   3  ar  
  3   2   4  ar  
  4   3   5  1   
  5   3   6  ar  
  6   4   7  ar  
  7   4  22  1   
  8   5   8  am  
  9   5  23  1   
 10   6   9  ar  
 11   6  24  1   
 12   7   9  ar  
 13   7  25  1   
 14   8  10  2   
 15   8  11  1   
 16   9  12  1   
 17  11  13  1   
 18  11  26  1   
 19  11  27  1   
 20  13  14  am  
 21  13  28  1   
 22  14  15  2   
 23  14  16  1   
 24  16  17  1   
 25  16  18  1   
 26  16  29  1   
 27  17  19  1   
 28  17  30  1   
 29  17  31  1   
 30  18  20  1   
 31  18  32  1   
 32  18  33  1   
 33  19  21  1   
 34  19  34  1   
 35  19  35  1   
 36  20  21  1   
 37  20  36  1   
 38  20  37  1   
 39  21  38  1   
 40  21  39  1   
@<TRIPOS>SUBSTRUCTURE
  1 ****  14 GROUP 4 **** **** 0

# MOE 2024.06 (io_trps.svl 2023.06)
