@<TRIPOS>MOLECULE
NONAME
45 46 1 0 0 
SMALL
USER_CHARGES


@<TRIPOS>ATOM
  1 O        0.2670    -0.1920    -1.0350 O.2   1 <1>  -0.5700 
  2 C       -0.3640    -1.1860    -0.7390 C.2   1 <1>   0.6340 
  3 O       -1.6900    -1.1790    -0.9170 O.3   1 <1>  -0.4300 
  4 C        0.2430    -2.3870    -0.1920 C.ar  1 <1>   0.0860 
  5 C       -2.3640    -0.0550    -1.4470 C.3   1 <1>   0.0400 
  6 C        1.6280    -2.5440    -0.1540 C.ar  1 <1>  -0.1500 
  7 C       -0.5250    -3.4310     0.3240 C.ar  1 <1>  -0.1500 
  8 C        2.2380    -3.6770     0.3690 C.ar  1 <1>   0.1170 
  9 C        0.0610    -4.5650     0.8530 C.ar  1 <1>  -0.1500 
 10 N        3.6350    -3.7990     0.4130 N.am  1 <1>  -0.5470 
 11 C        1.4380    -4.6990     0.8820 C.ar  1 <1>  -0.1430 
 12 C        4.5880    -3.3360    -0.4520 C.2   1 <1>   0.5690 
 13 C        2.0440    -5.9690     1.4680 C.3   1 <1>  -0.0960 
 14 O        4.3220    -2.7520    -1.4730 O.2   1 <1>  -0.5700 
 15 C        6.0520    -3.5940    -0.0870 C.3   1 <1>  -0.0190 
 16 C        6.5800    -2.5010     0.8610 C.3   1 <1>  -0.1600 
 17 C        6.9670    -3.7000    -1.3250 C.3   1 <1>  -0.1600 
 18 C        8.0470    -2.7350     1.2350 C.3   1 <1>   0.1400 
 19 C        8.4280    -3.9280    -0.9300 C.3   1 <1>   0.1400 
 20 N        8.8660    -2.8480    -0.0030 N.am  1 <1>  -0.6600 
 21 C        9.9110    -1.9870    -0.2330 C.2   1 <1>   0.5690 
 22 O       10.2430    -1.1480     0.5690 O.2   1 <1>  -0.5700 
 23 C       10.7010    -2.0570    -1.5190 C.3   1 <1>  -0.1790 
 24 H       -3.4140    -0.2800    -1.5000 H     1 <1>   0.0800 
 25 H       -1.9770     0.1490    -2.4310 H     1 <1>   0.0800 
 26 H       -2.1960     0.7890    -0.8000 H     1 <1>   0.0800 
 27 H        2.2420    -1.7510    -0.5450 H     1 <1>   0.1500 
 28 H       -1.5990    -3.3550     0.3150 H     1 <1>   0.1500 
 29 H       -0.5700    -5.3460     1.2420 H     1 <1>   0.1500 
 30 H        3.9800    -4.3600     1.1870 H     1 <1>   0.3700 
 31 H        2.7020    -6.4280     0.7520 H     1 <1>   0.0800 
 32 H        1.2770    -6.6810     1.7180 H     1 <1>   0.0800 
 33 H        2.5940    -5.7390     2.3620 H     1 <1>   0.0800 
 34 H        6.0970    -4.5360     0.4280 H     1 <1>   0.0800 
 35 H        5.9880    -2.4730     1.7580 H     1 <1>   0.0800 
 36 H        6.4950    -1.5380     0.3860 H     1 <1>   0.0800 
 37 H        6.9050    -2.7940    -1.9040 H     1 <1>   0.0800 
 38 H        6.6350    -4.5080    -1.9520 H     1 <1>   0.0800 
 39 H        8.1460    -3.6430     1.8050 H     1 <1>   0.0800 
 40 H        8.3920    -1.9200     1.8490 H     1 <1>   0.0800 
 41 H        9.0360    -3.9560    -1.8160 H     1 <1>   0.0800 
 42 H        8.5290    -4.8760    -0.4310 H     1 <1>   0.0800 
 43 H       11.1840    -3.0120    -1.5990 H     1 <1>   0.0800 
 44 H       11.4520    -1.2890    -1.5240 H     1 <1>   0.0800 
 45 H       10.0470    -1.9020    -2.3560 H     1 <1>   0.0800 
@<TRIPOS>BOND
  1   1   2  2   
  2   2   3  1   
  3   2   4  1   
  4   3   5  1   
  5   4   6  ar  
  6   4   7  ar  
  7   5  24  1   
  8   5  25  1   
  9   5  26  1   
 10   6   8  ar  
 11   6  27  1   
 12   7   9  ar  
 13   7  28  1   
 14   8  10  1   
 15   8  11  ar  
 16   9  11  ar  
 17   9  29  1   
 18  10  12  am  
 19  10  30  1   
 20  11  13  1   
 21  12  14  2   
 22  12  15  1   
 23  13  31  1   
 24  13  32  1   
 25  13  33  1   
 26  15  16  1   
 27  15  17  1   
 28  15  34  1   
 29  16  18  1   
 30  16  35  1   
 31  16  36  1   
 32  17  19  1   
 33  17  37  1   
 34  17  38  1   
 35  18  20  1   
 36  18  39  1   
 37  18  40  1   
 38  19  20  1   
 39  19  41  1   
 40  19  42  1   
 41  20  21  am  
 42  21  22  2   
 43  21  23  1   
 44  23  43  1   
 45  23  44  1   
 46  23  45  1   
@<TRIPOS>SUBSTRUCTURE
  1 ****  12 GROUP 4 **** **** 0

# MOE 2024.06 (io_trps.svl 2023.06)
