@<TRIPOS>MOLECULE
NONAME
37 38 1 0 0 
SMALL
USER_CHARGES


@<TRIPOS>ATOM
  1 O       -2.3330    -0.4820    -2.7950 O.2   1 <1>  -0.5700 
  2 C       -2.9430    -1.0770    -1.9300 C.2   1 <1>   0.7060 
  3 O       -3.7590    -0.3860    -1.1360 O.3   1 <1>  -0.2320 
  4 C       -2.8340    -2.4780    -1.7140 C.2   1 <1>  -0.1360 
  5 C       -4.5060    -0.9650    -0.1690 C.ar  1 <1>   0.0830 
  6 C       -3.5520    -3.1210    -0.7650 C.2   1 <1>  -0.1670 
  7 C       -4.4730    -2.3560     0.0480 C.ar  1 <1>   0.0280 
  8 C       -5.3030    -0.1220     0.5890 C.ar  1 <1>  -0.1500 
  9 C       -3.3460    -4.6200    -0.5790 C.3   1 <1>  -0.1020 
 10 C       -5.3480    -2.8480     1.0390 C.ar  1 <1>   0.0830 
 11 C       -6.1070    -0.6250     1.5910 C.ar  1 <1>  -0.1440 
 12 O       -5.4680    -4.1710     1.2690 O.3   1 <1>  -0.3630 
 13 C       -6.1190    -1.9900     1.8100 C.ar  1 <1>  -0.1500 
 14 C       -6.9660     0.2920     2.4440 C.3   1 <1>  -0.0970 
 15 C       -6.7250    -4.8030     1.0380 C.3   1 <1>   0.1810 
 16 C       -6.9420    -5.1400    -0.4400 C.2   1 <1>   0.5690 
 17 O       -6.6860    -6.2740    -0.7760 O.2   1 <1>  -0.5700 
 18 N       -7.4190    -4.2170    -1.3500 N.am  1 <1>  -0.6600 
 19 C       -7.4950    -4.5400    -2.8040 C.3   1 <1>   0.0600 
 20 C       -7.8410    -2.8250    -1.0320 C.3   1 <1>   0.0600 
 21 H       -2.1370    -2.9820    -2.3560 H     1 <1>   0.1500 
 22 H       -5.2790     0.9350     0.3860 H     1 <1>   0.1500 
 23 H       -4.2300    -5.1580    -0.8630 H     1 <1>   0.0800 
 24 H       -3.1130    -4.8390     0.4480 H     1 <1>   0.0800 
 25 H       -2.5340    -4.9790    -1.1860 H     1 <1>   0.0800 
 26 H       -6.7350    -2.3920     2.5940 H     1 <1>   0.1500 
 27 H       -6.8560     1.3170     2.1380 H     1 <1>   0.0800 
 28 H       -6.6740     0.2110     3.4750 H     1 <1>   0.0800 
 29 H       -8.0020     0.0170     2.3530 H     1 <1>   0.0800 
 30 H       -7.5180    -4.1910     1.4180 H     1 <1>   0.0800 
 31 H       -6.7170    -5.7210     1.5950 H     1 <1>   0.0800 
 32 H       -7.0910    -5.5170    -3.0070 H     1 <1>   0.0800 
 33 H       -6.9320    -3.8170    -3.3670 H     1 <1>   0.0800 
 34 H       -8.5210    -4.5210    -3.1260 H     1 <1>   0.0800 
 35 H       -8.0780    -2.7140     0.0090 H     1 <1>   0.0800 
 36 H       -8.7190    -2.5720    -1.6020 H     1 <1>   0.0800 
 37 H       -7.0520    -2.1400    -1.2890 H     1 <1>   0.0800 
@<TRIPOS>BOND
  1   1   2  2   
  2   2   3  1   
  3   2   4  1   
  4   3   5  1   
  5   4   6  2   
  6   4  21  1   
  7   5   7  ar  
  8   5   8  ar  
  9   6   7  1   
 10   6   9  1   
 11   7  10  ar  
 12   8  11  ar  
 13   8  22  1   
 14   9  23  1   
 15   9  24  1   
 16   9  25  1   
 17  10  12  1   
 18  10  13  ar  
 19  11  13  ar  
 20  11  14  1   
 21  12  15  1   
 22  13  26  1   
 23  14  27  1   
 24  14  28  1   
 25  14  29  1   
 26  15  16  1   
 27  15  30  1   
 28  15  31  1   
 29  16  17  2   
 30  16  18  am  
 31  18  19  1   
 32  18  20  1   
 33  19  32  1   
 34  19  33  1   
 35  19  34  1   
 36  20  35  1   
 37  20  36  1   
 38  20  37  1   
@<TRIPOS>SUBSTRUCTURE
  1 ****   7 GROUP 4 **** **** 0

# MOE 2024.06 (io_trps.svl 2023.06)
