@<TRIPOS>MOLECULE
NONAME
53 55 1 0 0 
SMALL
USER_CHARGES


@<TRIPOS>ATOM
  1 O        1.0740     3.8860     0.0350 O.2   1 <1>  -0.5700 
  2 C        0.1690     3.1270     0.3000 C.2   1 <1>   0.5690 
  3 N        0.4300     1.9080     0.8530 N.am  1 <1>  -0.7300 
  4 C       -1.3070     3.5070     0.0150 C.3   1 <1>   0.2040 
  5 C        1.7760     1.3770     1.1630 C.3   1 <1>   0.1400 
  6 C       -2.0940     2.2250    -0.3430 C.ar  1 <1>  -0.1440 
  7 C       -1.8950     4.2640     1.2200 C.3   1 <1>  -0.1600 
  8 C       -1.4390     4.5690    -1.0980 C.3   1 <1>  -0.1600 
  9 C        2.2530     0.4820     0.0200 C.3   1 <1>  -0.0170 
 10 C       -2.8870     1.5600     0.5880 C.ar  1 <1>  -0.1500 
 11 C       -1.9870     1.6850    -1.6200 C.ar  1 <1>  -0.1500 
 12 C       -1.4280     5.7120     1.0720 C.3   1 <1>  -0.1600 
 13 C       -1.2740     5.9420    -0.4330 C.3   1 <1>  -0.1600 
 14 C        3.6090    -0.1180     0.3520 C.ar  1 <1>  -0.1440 
 15 C       -3.5670     0.4010     0.2540 C.ar  1 <1>   0.0820 
 16 C       -2.6510     0.5200    -1.9610 C.ar  1 <1>  -0.1500 
 17 C        3.7030    -1.3890     0.8970 C.ar  1 <1>  -0.1500 
 18 C        4.7660     0.6080     0.1160 C.ar  1 <1>  -0.1500 
 19 O       -4.3430    -0.1620     1.2120 O.3   1 <1>  -0.3630 
 20 C       -3.4320    -0.1390    -1.0280 C.ar  1 <1>   0.0820 
 21 C        4.9400    -1.9290     1.2030 C.ar  1 <1>  -0.1500 
 22 C        6.0040     0.0690     0.4210 C.ar  1 <1>  -0.1500 
 23 C       -5.7330    -0.1560     0.9700 C.3   1 <1>   0.0400 
 24 O       -4.0290    -1.2930    -1.4140 O.3   1 <1>  -0.3630 
 25 C        6.0920    -1.2000     0.9640 C.ar  1 <1>  -0.1500 
 26 C       -3.6000    -2.4710    -0.7670 C.3   1 <1>   0.0400 
 27 H       -0.3520     1.2550     0.9590 H     1 <1>   0.3700 
 28 H        1.7370     0.8160     2.0810 H     1 <1>   0.0800 
 29 H        2.4690     2.1920     1.2950 H     1 <1>   0.0800 
 30 H       -1.5830     3.8410     2.1590 H     1 <1>   0.0800 
 31 H       -2.9700     4.2520     1.1630 H     1 <1>   0.0800 
 32 H       -2.4250     4.5140    -1.5250 H     1 <1>   0.0800 
 33 H       -0.7150     4.4240    -1.8800 H     1 <1>   0.0800 
 34 H        2.3300     1.0660    -0.8800 H     1 <1>   0.0800 
 35 H        1.5390    -0.3050    -0.1470 H     1 <1>   0.0800 
 36 H       -3.0000     1.9230     1.5930 H     1 <1>   0.1500 
 37 H       -1.3740     2.1630    -2.3650 H     1 <1>   0.1500 
 38 H       -0.4690     5.8310     1.5480 H     1 <1>   0.0800 
 39 H       -2.1260     6.4020     1.5140 H     1 <1>   0.0800 
 40 H       -2.0160     6.6300    -0.7990 H     1 <1>   0.0800 
 41 H       -0.2950     6.3410    -0.6400 H     1 <1>   0.0800 
 42 H       -2.5610     0.1110    -2.9510 H     1 <1>   0.1500 
 43 H        2.8140    -1.9650     1.0870 H     1 <1>   0.1500 
 44 H        4.7070     1.5970    -0.3050 H     1 <1>   0.1500 
 45 H        5.0080    -2.9170     1.6250 H     1 <1>   0.1500 
 46 H        6.8980     0.6380     0.2350 H     1 <1>   0.1500 
 47 H       -6.2280    -0.5390     1.8440 H     1 <1>   0.0800 
 48 H       -5.9520    -0.7800     0.1230 H     1 <1>   0.0800 
 49 H       -6.0480     0.8550     0.7810 H     1 <1>   0.0800 
 50 H        7.0540    -1.6190     1.2010 H     1 <1>   0.1500 
 51 H       -4.0720    -3.3090    -1.2480 H     1 <1>   0.0800 
 52 H       -3.8880    -2.4350     0.2680 H     1 <1>   0.0800 
 53 H       -2.5310    -2.5470    -0.8560 H     1 <1>   0.0800 
@<TRIPOS>BOND
  1   1   2  2   
  2   2   3  am  
  3   2   4  1   
  4   3   5  1   
  5   3  27  1   
  6   4   6  1   
  7   4   7  1   
  8   4   8  1   
  9   5   9  1   
 10   5  28  1   
 11   5  29  1   
 12   6  10  ar  
 13   6  11  ar  
 14   7  12  1   
 15   7  30  1   
 16   7  31  1   
 17   8  13  1   
 18   8  32  1   
 19   8  33  1   
 20   9  14  1   
 21   9  34  1   
 22   9  35  1   
 23  10  15  ar  
 24  10  36  1   
 25  11  16  ar  
 26  11  37  1   
 27  12  13  1   
 28  12  38  1   
 29  12  39  1   
 30  13  40  1   
 31  13  41  1   
 32  14  17  ar  
 33  14  18  ar  
 34  15  19  1   
 35  15  20  ar  
 36  16  20  ar  
 37  16  42  1   
 38  17  21  ar  
 39  17  43  1   
 40  18  22  ar  
 41  18  44  1   
 42  19  23  1   
 43  20  24  1   
 44  21  25  ar  
 45  21  45  1   
 46  22  25  ar  
 47  22  46  1   
 48  23  47  1   
 49  23  48  1   
 50  23  49  1   
 51  24  26  1   
 52  25  50  1   
 53  26  51  1   
 54  26  52  1   
 55  26  53  1   
@<TRIPOS>SUBSTRUCTURE
  1 ****   3 GROUP 4 **** **** 0

# MOE 2024.06 (io_trps.svl 2023.06)
