@<TRIPOS>MOLECULE
NONAME
53 54 1 0 0 
SMALL
USER_CHARGES


@<TRIPOS>ATOM
  1 O        1.1300     3.2440    -0.7270 O.2   1 <1>  -0.5700 
  2 C        0.2950     2.5640    -0.1770 C.2   1 <1>   0.5690 
  3 N        0.5840     1.3040     0.2660 N.am  1 <1>  -0.7300 
  4 C       -1.1100     3.1390     0.0460 C.3   1 <1>   0.1250 
  5 C        1.8540     0.5580     0.1780 C.3   1 <1>   0.2200 
  6 C       -2.0110     2.1530     0.8060 C.ar  1 <1>  -0.1440 
  7 C       -1.7500     3.6200    -1.2770 C.3   1 <1>  -0.1600 
  8 C        2.9520     1.3020     0.9410 C.3   1 <1>  -0.1600 
  9 C        2.2470     0.3620    -1.2880 C.3   1 <1>  -0.1600 
 10 C       -2.3000     2.3750     2.1450 C.ar  1 <1>  -0.1500 
 11 C       -2.5330     1.0240     0.1860 C.ar  1 <1>  -0.1500 
 12 C       -3.1280     4.2690    -1.0800 C.3   1 <1>  -0.2400 
 13 C        4.3200     0.6220     0.8220 C.3   1 <1>   0.5030 
 14 C        3.6010    -0.3370    -1.4490 C.3   1 <1>   0.5030 
 15 C       -3.0920     1.4870     2.8520 C.ar  1 <1>  -0.1500 
 16 C       -3.3240     0.1350     0.8910 C.ar  1 <1>  -0.1500 
 17 N        4.6150     0.2780    -0.5780 N.4   1 <1>  -0.9060 
 18 C        4.4280    -0.6170     1.7160 C.3   1 <1>  -0.2400 
 19 C        5.4160     1.6010     1.2390 C.3   1 <1>  -0.2400 
 20 C        3.5090    -1.8430    -1.1890 C.3   1 <1>  -0.2400 
 21 C        4.1140    -0.1350    -2.8740 C.3   1 <1>  -0.2400 
 22 C       -3.6040     0.3650     2.2250 C.ar  1 <1>  -0.1500 
 23 H       -0.1850     0.8170     0.7450 H     1 <1>   0.3700 
 24 H       -0.9760     4.0110     0.6600 H     1 <1>   0.0800 
 25 H        1.6960    -0.4040     0.6340 H     1 <1>   0.0800 
 26 H       -1.8370     2.7960    -1.9630 H     1 <1>   0.0800 
 27 H       -1.0950     4.3440    -1.7320 H     1 <1>   0.0800 
 28 H        2.6770     1.3780     1.9780 H     1 <1>   0.0800 
 29 H        3.0360     2.3030     0.5590 H     1 <1>   0.0800 
 30 H        2.2970     1.3180    -1.7750 H     1 <1>   0.0800 
 31 H        1.4850    -0.2100    -1.7870 H     1 <1>   0.0800 
 32 H       -1.9130     3.2430     2.6510 H     1 <1>   0.1500 
 33 H       -2.3300     0.8280    -0.8530 H     1 <1>   0.1500 
 34 H       -3.8340     3.5600    -0.6840 H     1 <1>   0.0800 
 35 H       -3.5030     4.6270    -2.0230 H     1 <1>   0.0800 
 36 H       -3.0600     5.1020    -0.4030 H     1 <1>   0.0800 
 37 H       -3.3130     1.6690     3.8900 H     1 <1>   0.1500 
 38 H       -3.7260    -0.7350     0.4010 H     1 <1>   0.1500 
 39 H        5.4580    -0.2960    -0.6020 H     1 <1>   0.4500 
 40 H        4.8550     1.1650    -1.0280 H     1 <1>   0.4500 
 41 H        3.5890    -1.2740     1.6110 H     1 <1>   0.0800 
 42 H        4.4450    -0.3150     2.7490 H     1 <1>   0.0800 
 43 H        5.3360    -1.1610     1.5220 H     1 <1>   0.0800 
 44 H        5.4070     2.4850     0.6250 H     1 <1>   0.0800 
 45 H        6.3890     1.1450     1.1860 H     1 <1>   0.0800 
 46 H        5.2580     1.9160     2.2560 H     1 <1>   0.0800 
 47 H        2.9930    -2.0720    -0.2790 H     1 <1>   0.0800 
 48 H        4.4840    -2.2970    -1.1720 H     1 <1>   0.0800 
 49 H        2.9460    -2.3110    -1.9780 H     1 <1>   0.0800 
 50 H        4.2260     0.9100    -3.1060 H     1 <1>   0.0800 
 51 H        3.4110    -0.5460    -3.5780 H     1 <1>   0.0800 
 52 H        5.0550    -0.6330    -3.0250 H     1 <1>   0.0800 
 53 H       -4.2220    -0.3240     2.7740 H     1 <1>   0.1500 
@<TRIPOS>BOND
  1   1   2  2   
  2   2   3  am  
  3   2   4  1   
  4   3   5  1   
  5   3  23  1   
  6   4   6  1   
  7   4   7  1   
  8   4  24  1   
  9   5   8  1   
 10   5   9  1   
 11   5  25  1   
 12   6  10  ar  
 13   6  11  ar  
 14   7  12  1   
 15   7  26  1   
 16   7  27  1   
 17   8  13  1   
 18   8  28  1   
 19   8  29  1   
 20   9  14  1   
 21   9  30  1   
 22   9  31  1   
 23  10  15  ar  
 24  10  32  1   
 25  11  16  ar  
 26  11  33  1   
 27  12  34  1   
 28  12  35  1   
 29  12  36  1   
 30  13  17  1   
 31  13  18  1   
 32  13  19  1   
 33  14  17  1   
 34  14  20  1   
 35  14  21  1   
 36  15  22  ar  
 37  15  37  1   
 38  16  22  ar  
 39  16  38  1   
 40  17  39  1   
 41  17  40  1   
 42  18  41  1   
 43  18  42  1   
 44  18  43  1   
 45  19  44  1   
 46  19  45  1   
 47  19  46  1   
 48  20  47  1   
 49  20  48  1   
 50  20  49  1   
 51  21  50  1   
 52  21  51  1   
 53  21  52  1   
 54  22  53  1   
@<TRIPOS>SUBSTRUCTURE
  1 ****   3 GROUP 4 **** **** 0

# MOE 2024.06 (io_trps.svl 2023.06)
