@<TRIPOS>MOLECULE
NONAME
32 33 1 0 0 
SMALL
USER_CHARGES


@<TRIPOS>ATOM
  1 I       -0.2600    -0.0160     0.3760 I     1 <1>  -0.0810 
  2 C        1.6880     0.8300     0.2250 C.ar  1 <1>   0.0810 
  3 C        2.7840     0.0140     0.4380 C.ar  1 <1>  -0.1500 
  4 C        1.8060     2.1730    -0.0830 C.ar  1 <1>  -0.1500 
  5 C        4.0500     0.5680     0.3380 C.ar  1 <1>  -0.1500 
  6 C        3.0770     2.7130    -0.1790 C.ar  1 <1>  -0.1500 
  7 C        4.1990     1.9210     0.0290 C.ar  1 <1>   0.0830 
  8 O        5.4020     2.5380    -0.0870 O.3   1 <1>  -0.3630 
  9 C        6.6070     1.8340     0.1030 C.3   1 <1>   0.1200 
 10 C        7.7620     2.8150    -0.0950 C.3   1 <1>  -0.1600 
 11 C        9.1190     2.1240     0.0990 C.3   1 <1>  -0.1600 
 12 C       10.2760     3.1110    -0.0990 C.3   1 <1>   0.0960 
 13 N       11.5690     2.4280     0.0980 N.pl3 1 <1>   0.0480 
 14 C       12.2860     2.3230     1.2390 C.2   1 <1>   0.0360 
 15 C       12.2910     1.7600    -0.8200 C.2   1 <1>  -0.3020 
 16 N       13.3840     1.6510     1.1120 N.2   1 <1>  -0.5650 
 17 C       13.3900     1.2960    -0.1860 C.2   1 <1>   0.0770 
 18 H        2.6530    -1.0260     0.6750 H     1 <1>   0.1500 
 19 H        0.9340     2.7810    -0.2430 H     1 <1>   0.1500 
 20 H        4.9010    -0.0660     0.5040 H     1 <1>   0.1500 
 21 H        3.2080     3.7530    -0.4170 H     1 <1>   0.1500 
 22 H        6.6520     1.0380    -0.6200 H     1 <1>   0.0800 
 23 H        6.6120     1.4340     1.1020 H     1 <1>   0.0800 
 24 H        7.6610     3.6180     0.6150 H     1 <1>   0.0800 
 25 H        7.7040     3.2240    -1.0900 H     1 <1>   0.0800 
 26 H        9.2150     1.3200    -0.6110 H     1 <1>   0.0800 
 27 H        9.1710     1.7120     1.0920 H     1 <1>   0.0800 
 28 H       10.2020     3.9190     0.6060 H     1 <1>   0.0800 
 29 H       10.2520     3.5200    -1.0930 H     1 <1>   0.0800 
 30 H       11.9550     2.7640     2.1630 H     1 <1>   0.1500 
 31 H       11.9950     1.6520    -1.8470 H     1 <1>   0.1500 
 32 H       14.1970     0.7160    -0.6010 H     1 <1>   0.1500 
@<TRIPOS>BOND
  1   1   2  1   
  2   2   3  ar  
  3   2   4  ar  
  4   3   5  ar  
  5   3  18  1   
  6   4   6  ar  
  7   4  19  1   
  8   5   7  ar  
  9   5  20  1   
 10   6   7  ar  
 11   6  21  1   
 12   7   8  1   
 13   8   9  1   
 14   9  10  1   
 15   9  22  1   
 16   9  23  1   
 17  10  11  1   
 18  10  24  1   
 19  10  25  1   
 20  11  12  1   
 21  11  26  1   
 22  11  27  1   
 23  12  13  1   
 24  12  28  1   
 25  12  29  1   
 26  13  14  1   
 27  13  15  1   
 28  14  16  2   
 29  14  30  1   
 30  15  17  2   
 31  15  31  1   
 32  16  17  1   
 33  17  32  1   
@<TRIPOS>SUBSTRUCTURE
  1 ****   9 GROUP 4 **** **** 0

# MOE 2024.06 (io_trps.svl 2023.06)
