@<TRIPOS>MOLECULE
NONAME
33 33 1 0 0 
SMALL
USER_CHARGES


@<TRIPOS>ATOM
  1 O       -0.3570     0.3570    -0.5680 O.2   1 <1>  -0.5700 
  2 C       -1.3760     1.0060    -0.4080 C.2   1 <1>   0.6160 
  3 N       -2.5170     0.3030    -0.1360 N.am  1 <1>  -0.5390 
  4 C       -1.4670     2.4290    -0.4310 C.2   1 <1>   0.0290 
  5 C       -3.7130     0.8800     0.1610 C.2   1 <1>  -0.0290 
  6 C       -0.3040     3.1860    -0.7800 C.2   1 <1>   0.7060 
  7 C       -2.6690     3.0140    -0.1080 C.2   1 <1>  -0.1500 
  8 C       -3.8370     2.2590     0.2110 C.2   1 <1>   0.0140 
  9 C       -4.8500    -0.0990     0.4190 C.3   1 <1>  -0.1020 
 10 O        0.4120     2.9440    -1.7290 O.2   1 <1>  -0.5700 
 11 O       -0.0450     4.2620    -0.0270 O.3   1 <1>  -0.4300 
 12 C       -5.0510     2.9640     0.5670 C.2   1 <1>   0.7060 
 13 C        1.0780     5.0930    -0.2390 C.3   1 <1>   0.1200 
 14 O       -5.9400     2.4900     1.2460 O.2   1 <1>  -0.5700 
 15 O       -5.1870     4.2220     0.1250 O.3   1 <1>  -0.4300 
 16 C        2.2860     4.4820     0.4690 C.3   1 <1>  -0.2400 
 17 C       -6.3300     5.0130     0.3810 C.3   1 <1>   0.1200 
 18 C       -7.3910     4.7050    -0.6740 C.3   1 <1>  -0.2400 
 19 H       -2.3850    -0.7100    -0.1600 H     1 <1>   0.3700 
 20 H       -2.7400     4.0890    -0.0970 H     1 <1>   0.1500 
 21 H       -4.6540    -1.0480    -0.0470 H     1 <1>   0.0800 
 22 H       -5.7760     0.2730     0.0190 H     1 <1>   0.0800 
 23 H       -4.9670    -0.2510     1.4770 H     1 <1>   0.0800 
 24 H        0.8520     6.0590     0.1760 H     1 <1>   0.0800 
 25 H        1.2520     5.1990    -1.2980 H     1 <1>   0.0800 
 26 H        2.0870     4.3720     1.5200 H     1 <1>   0.0800 
 27 H        3.1400     5.1230     0.3460 H     1 <1>   0.0800 
 28 H        2.5220     3.5220     0.0440 H     1 <1>   0.0800 
 29 H       -6.0320     6.0450     0.3200 H     1 <1>   0.0800 
 30 H       -6.6910     4.8120     1.3770 H     1 <1>   0.0800 
 31 H       -7.0050     4.8970    -1.6590 H     1 <1>   0.0800 
 32 H       -8.2510     5.3310    -0.5150 H     1 <1>   0.0800 
 33 H       -7.7040     3.6780    -0.6020 H     1 <1>   0.0800 
@<TRIPOS>BOND
  1   1   2  2   
  2   2   3  am  
  3   2   4  1   
  4   3   5  1   
  5   3  19  1   
  6   4   6  1   
  7   4   7  2   
  8   5   8  2   
  9   5   9  1   
 10   6  10  2   
 11   6  11  1   
 12   7   8  1   
 13   7  20  1   
 14   8  12  1   
 15   9  21  1   
 16   9  22  1   
 17   9  23  1   
 18  11  13  1   
 19  12  14  2   
 20  12  15  1   
 21  13  16  1   
 22  13  24  1   
 23  13  25  1   
 24  15  17  1   
 25  16  26  1   
 26  16  27  1   
 27  16  28  1   
 28  17  18  1   
 29  17  29  1   
 30  17  30  1   
 31  18  31  1   
 32  18  32  1   
 33  18  33  1   
@<TRIPOS>SUBSTRUCTURE
  1 ****   7 GROUP 4 **** **** 0

# MOE 2024.06 (io_trps.svl 2023.06)
