@<TRIPOS>MOLECULE
NONAME
46 47 1 0 0 
SMALL
USER_CHARGES


@<TRIPOS>ATOM
  1 O       -4.0290     6.5370     0.8500 O.3   1 <1>  -0.3630 
  2 C       -5.2310     6.3030     0.2780 C.ar  1 <1>   0.0830 
  3 C       -2.9110     6.3230     0.0270 C.3   1 <1>   0.1200 
  4 C       -5.8000     5.0340     0.3660 C.ar  1 <1>  -0.1440 
  5 C       -5.8900     7.3340    -0.3870 C.ar  1 <1>  -0.1440 
  6 C       -1.6630     6.6770     0.8370 C.3   1 <1>  -0.1600 
  7 C       -7.0170     4.7970    -0.2500 C.ar  1 <1>  -0.1500 
  8 C       -5.1190     3.9070     1.1290 C.3   1 <1>  -0.0960 
  9 C       -7.1070     7.0740    -0.9960 C.ar  1 <1>  -0.1500 
 10 C       -5.3100     8.7400    -0.4530 C.3   1 <1>  -0.0970 
 11 C       -0.3790     6.4890     0.0170 C.3   1 <1>  -0.1600 
 12 C       -7.6660     5.8110    -0.9320 C.ar  1 <1>  -0.1500 
 13 C        0.8480     6.8590     0.8540 C.3   1 <1>   0.3430 
 14 N        2.0870     6.7890     0.0330 N.4   1 <1>  -0.9590 
 15 C        2.4700     5.3710    -0.3130 C.3   1 <1>   0.3430 
 16 C        3.2280     7.4740     0.7400 C.3   1 <1>   0.3430 
 17 C        3.7910     5.3110    -1.1110 C.3   1 <1>   0.1100 
 18 C        4.5390     7.3920    -0.0710 C.3   1 <1>   0.1100 
 19 N        4.8770     5.9980    -0.3970 N.3   1 <1>  -0.9000 
 20 H       -3.0060     6.9510    -0.8420 H     1 <1>   0.0800 
 21 H       -2.9060     5.2900    -0.2730 H     1 <1>   0.0800 
 22 H       -1.6340     6.0480     1.7110 H     1 <1>   0.0800 
 23 H       -1.7450     7.7030     1.1560 H     1 <1>   0.0800 
 24 H       -7.4690     3.8220    -0.2010 H     1 <1>   0.1500 
 25 H       -4.3490     3.4660     0.5240 H     1 <1>   0.0800 
 26 H       -5.8290     3.1440     1.3950 H     1 <1>   0.0800 
 27 H       -4.6800     4.2840     2.0360 H     1 <1>   0.0800 
 28 H       -7.6280     7.8550    -1.5210 H     1 <1>   0.1500 
 29 H       -4.8600     9.0000     0.4890 H     1 <1>   0.0800 
 30 H       -6.0800     9.4590    -0.6650 H     1 <1>   0.0800 
 31 H       -4.5650     8.7940    -1.2250 H     1 <1>   0.0800 
 32 H       -0.4270     7.1200    -0.8540 H     1 <1>   0.0800 
 33 H       -0.3200     5.4620    -0.2970 H     1 <1>   0.0800 
 34 H       -8.6110     5.6170    -1.4090 H     1 <1>   0.1500 
 35 H        0.9270     6.1980     1.7030 H     1 <1>   0.0800 
 36 H        0.7200     7.8640     1.2260 H     1 <1>   0.0800 
 37 H        1.9290     7.2920    -0.8480 H     1 <1>   0.4500 
 38 H        1.6900     4.9070    -0.8930 H     1 <1>   0.0800 
 39 H        2.5970     4.7990     0.5910 H     1 <1>   0.0800 
 40 H        3.3950     7.0050     1.6960 H     1 <1>   0.0800 
 41 H        2.9850     8.5090     0.9150 H     1 <1>   0.0800 
 42 H        3.6520     5.7550    -2.0820 H     1 <1>   0.0800 
 43 H        4.0670     4.2800    -1.2560 H     1 <1>   0.0800 
 44 H        5.3400     7.8180     0.5110 H     1 <1>   0.0800 
 45 H        4.4470     7.9690    -0.9760 H     1 <1>   0.0800 
 46 H        5.7430     5.9690    -0.9600 H     1 <1>   0.3600 
@<TRIPOS>BOND
  1   1   2  1   
  2   1   3  1   
  3   2   4  ar  
  4   2   5  ar  
  5   3   6  1   
  6   3  20  1   
  7   3  21  1   
  8   4   7  ar  
  9   4   8  1   
 10   5   9  ar  
 11   5  10  1   
 12   6  11  1   
 13   6  22  1   
 14   6  23  1   
 15   7  12  ar  
 16   7  24  1   
 17   8  25  1   
 18   8  26  1   
 19   8  27  1   
 20   9  12  ar  
 21   9  28  1   
 22  10  29  1   
 23  10  30  1   
 24  10  31  1   
 25  11  13  1   
 26  11  32  1   
 27  11  33  1   
 28  12  34  1   
 29  13  14  1   
 30  13  35  1   
 31  13  36  1   
 32  14  15  1   
 33  14  16  1   
 34  14  37  1   
 35  15  17  1   
 36  15  38  1   
 37  15  39  1   
 38  16  18  1   
 39  16  40  1   
 40  16  41  1   
 41  17  19  1   
 42  17  42  1   
 43  17  43  1   
 44  18  19  1   
 45  18  44  1   
 46  18  45  1   
 47  19  46  1   
@<TRIPOS>SUBSTRUCTURE
  1 ****   6 GROUP 4 **** **** 0

# MOE 2024.06 (io_trps.svl 2023.06)
