@<TRIPOS>MOLECULE
NONAME
57 60 1 0 0 
SMALL
USER_CHARGES


@<TRIPOS>ATOM
  1 O       -3.4500    -0.4690    -1.7590 O.3   1 <1>  -0.6800 
  2 C       -2.7520    -0.4620    -0.5630 C.3   1 <1>   0.2000 
  3 C       -3.6630    -0.2370     0.6750 C.3   1 <1>   0.0000 
  4 C       -2.0880    -1.8360    -0.3740 C.3   1 <1>  -0.1600 
  5 C       -3.9570    -1.6590     1.2030 C.3   1 <1>  -0.0800 
  6 C       -4.9400     0.6120     0.4830 C.3   1 <1>  -0.1600 
  7 C       -2.8080     0.5280     1.7170 C.3   1 <1>  -0.2400 
  8 C       -2.6560    -2.4290     0.9250 C.3   1 <1>  -0.1600 
  9 C       -5.2400    -2.3740     0.6700 C.3   1 <1>  -0.0800 
 10 C       -6.1280    -0.1250    -0.1360 C.3   1 <1>  -0.1600 
 11 C       -6.4800    -1.4380     0.5990 C.3   1 <1>  -0.0800 
 12 C       -5.1490    -3.1850    -0.6390 C.3   1 <1>  -0.1600 
 13 C       -7.7950    -2.1360     0.0440 C.3   1 <1>   0.0000 
 14 C       -6.3680    -4.1130    -0.8050 C.3   1 <1>  -0.1600 
 15 C       -7.6010    -3.6820     0.0230 C.3   1 <1>  -0.0800 
 16 C       -9.0150    -1.7660     0.9500 C.3   1 <1>  -0.1600 
 17 C       -8.1570    -1.6800    -1.4010 C.3   1 <1>  -0.2400 
 18 C       -8.8550    -4.4600    -0.4330 C.3   1 <1>  -0.0990 
 19 C       -9.9700    -2.9320     1.2930 C.3   1 <1>  -0.0190 
 20 C      -10.1620    -3.8710     0.0980 C.2   1 <1>   0.3280 
 21 C      -11.2840    -2.3800     1.8750 C.3   1 <1>  -0.2400 
 22 N      -11.3100    -4.1290    -0.3900 N.2   1 <1>  -0.5030 
 23 N      -11.4760    -4.9860    -1.4500 N.pl3 1 <1>  -0.5690 
 24 H       -2.8450    -0.6680    -2.4950 H     1 <1>   0.4000 
 25 H       -2.0120     0.3160    -0.6390 H     1 <1>   0.0800 
 26 H       -2.3030    -2.4880    -1.2020 H     1 <1>   0.0800 
 27 H       -1.0220    -1.7270    -0.2860 H     1 <1>   0.0800 
 28 H       -4.0890    -1.5950     2.2700 H     1 <1>   0.0800 
 29 H       -5.2680     0.9770     1.4400 H     1 <1>   0.0800 
 30 H       -4.7070     1.4710    -0.1220 H     1 <1>   0.0800 
 31 H       -3.3230     0.5990     2.6580 H     1 <1>   0.0800 
 32 H       -2.6090     1.5270     1.3700 H     1 <1>   0.0800 
 33 H       -1.8620     0.0480     1.8910 H     1 <1>   0.0800 
 34 H       -1.9620    -2.2380     1.7240 H     1 <1>   0.0800 
 35 H       -2.7910    -3.4940     0.8760 H     1 <1>   0.0800 
 36 H       -5.4390    -3.1040     1.4360 H     1 <1>   0.0800 
 37 H       -5.9030    -0.3230    -1.1670 H     1 <1>   0.0800 
 38 H       -6.9740     0.5380    -0.1070 H     1 <1>   0.0800 
 39 H       -6.6460    -1.1560     1.6220 H     1 <1>   0.0800 
 40 H       -5.0980    -2.5060    -1.4700 H     1 <1>   0.0800 
 41 H       -4.2700    -3.7970    -0.6780 H     1 <1>   0.0800 
 42 H       -6.0930    -5.1090    -0.5030 H     1 <1>   0.0800 
 43 H       -6.6140    -4.1580    -1.8520 H     1 <1>   0.0800 
 44 H       -7.4180    -3.9850     1.0400 H     1 <1>   0.0800 
 45 H       -8.6940    -1.3560     1.8890 H     1 <1>   0.0800 
 46 H       -9.5840    -0.9860     0.4740 H     1 <1>   0.0800 
 47 H       -9.0430    -2.1670    -1.7620 H     1 <1>   0.0800 
 48 H       -7.3610    -1.8910    -2.0900 H     1 <1>   0.0800 
 49 H       -8.3610    -0.6260    -1.4440 H     1 <1>   0.0800 
 50 H       -8.7780    -5.4790    -0.1010 H     1 <1>   0.0800 
 51 H       -8.8990    -4.4690    -1.5070 H     1 <1>   0.0800 
 52 H       -9.5100    -3.5180     2.0700 H     1 <1>   0.0800 
 53 H      -11.8060    -1.7980     1.1350 H     1 <1>   0.0800 
 54 H      -11.0880    -1.7590     2.7310 H     1 <1>   0.0800 
 55 H      -11.9230    -3.1900     2.1790 H     1 <1>   0.0800 
 56 H      -10.7560    -5.6910    -1.6450 H     1 <1>   0.3110 
 57 H      -12.4330    -5.2920    -1.6690 H     1 <1>   0.3110 
@<TRIPOS>BOND
  1   1   2  1   
  2   1  24  1   
  3   2   3  1   
  4   2   4  1   
  5   2  25  1   
  6   3   5  1   
  7   3   6  1   
  8   3   7  1   
  9   4   8  1   
 10   4  26  1   
 11   4  27  1   
 12   5   8  1   
 13   5   9  1   
 14   5  28  1   
 15   6  10  1   
 16   6  29  1   
 17   6  30  1   
 18   7  31  1   
 19   7  32  1   
 20   7  33  1   
 21   8  34  1   
 22   8  35  1   
 23   9  11  1   
 24   9  12  1   
 25   9  36  1   
 26  10  11  1   
 27  10  37  1   
 28  10  38  1   
 29  11  13  1   
 30  11  39  1   
 31  12  14  1   
 32  12  40  1   
 33  12  41  1   
 34  13  15  1   
 35  13  16  1   
 36  13  17  1   
 37  14  15  1   
 38  14  42  1   
 39  14  43  1   
 40  15  18  1   
 41  15  44  1   
 42  16  19  1   
 43  16  45  1   
 44  16  46  1   
 45  17  47  1   
 46  17  48  1   
 47  17  49  1   
 48  18  20  1   
 49  18  50  1   
 50  18  51  1   
 51  19  20  1   
 52  19  21  1   
 53  19  52  1   
 54  20  22  2   
 55  21  53  1   
 56  21  54  1   
 57  21  55  1   
 58  22  23  1   
 59  23  56  1   
 60  23  57  1   
@<TRIPOS>SUBSTRUCTURE
  1 ****  11 GROUP 4 **** **** 0

# MOE 2024.06 (io_trps.svl 2023.06)
