@<TRIPOS>MOLECULE
NONAME
43 45 1 0 0 
SMALL
USER_CHARGES


@<TRIPOS>ATOM
  1 N       -0.0260    -0.0460     0.1000 N.pl3 1 <1>  -0.8380 
  2 C       -1.2610    -0.6750    -0.0040 C.ar  1 <1>   0.1000 
  3 C       -0.0540     1.4120     0.4040 C.3   1 <1>   0.2090 
  4 C        1.0060    -0.4540    -0.8920 C.3   1 <1>   0.2090 
  5 C       -2.1220    -0.4190    -1.0660 C.ar  1 <1>  -0.1500 
  6 C       -1.6520    -1.5830     0.9700 C.ar  1 <1>  -0.1500 
  7 C        1.3510     1.9130     0.7980 C.3   1 <1>   0.3430 
  8 C        2.3970     0.0730    -0.4810 C.3   1 <1>   0.3430 
  9 C       -3.3460    -1.0570    -1.1510 C.ar  1 <1>  -0.1500 
 10 C       -2.8750    -2.2230     0.8890 C.ar  1 <1>  -0.1500 
 11 N        2.4110     1.5680    -0.2290 N.4   1 <1>  -0.9590 
 12 C       -3.7250    -1.9600    -0.1720 C.ar  1 <1>  -0.1500 
 13 C        3.7570     2.0570     0.1780 C.3   1 <1>   0.4230 
 14 C        3.8010     3.5910     0.2710 C.3   1 <1>  -0.1600 
 15 C        4.8270     1.6770    -0.8560 C.3   1 <1>  -0.1600 
 16 C        4.7830     4.0720    -0.8000 C.3   1 <1>  -0.0800 
 17 C        5.7330     2.8980    -0.9880 C.3   1 <1>  -0.1600 
 18 C        5.5060     5.3650    -0.4150 C.3   1 <1>  -0.2400 
 19 H       -0.7380     1.5880     1.2170 H     1 <1>   0.0800 
 20 H       -0.4120     1.9550    -0.4530 H     1 <1>   0.0800 
 21 H        0.7430    -0.0790    -1.8660 H     1 <1>   0.0800 
 22 H        1.0340    -1.5300    -0.9490 H     1 <1>   0.0800 
 23 H       -1.8350     0.2800    -1.8280 H     1 <1>   0.1500 
 24 H       -0.9910    -1.7850     1.7910 H     1 <1>   0.1500 
 25 H        1.6090     1.4630     1.7430 H     1 <1>   0.0800 
 26 H        1.3050     2.9780     0.9450 H     1 <1>   0.0800 
 27 H        3.1010    -0.1800    -1.2550 H     1 <1>   0.0800 
 28 H        2.6950    -0.4440     0.4160 H     1 <1>   0.0800 
 29 H       -4.0070    -0.8530    -1.9750 H     1 <1>   0.1500 
 30 H       -3.1680    -2.9260     1.6500 H     1 <1>   0.1500 
 31 H        2.1680     2.0390    -1.1080 H     1 <1>   0.4500 
 32 H       -4.6770    -2.4580    -0.2360 H     1 <1>   0.1500 
 33 H        4.0260     1.6420     1.1370 H     1 <1>   0.0800 
 34 H        4.1840     3.8520     1.2430 H     1 <1>   0.0800 
 35 H        2.8500     4.0720     0.1380 H     1 <1>   0.0800 
 36 H        4.3850     1.4910    -1.8200 H     1 <1>   0.0800 
 37 H        5.3910     0.8160    -0.5450 H     1 <1>   0.0800 
 38 H        4.2470     4.2310    -1.7220 H     1 <1>   0.0800 
 39 H        6.2350     2.9330    -1.9410 H     1 <1>   0.0800 
 40 H        6.4730     2.8890    -0.2040 H     1 <1>   0.0800 
 41 H        6.0650     5.2420     0.4970 H     1 <1>   0.0800 
 42 H        4.7980     6.1640    -0.2770 H     1 <1>   0.0800 
 43 H        6.1900     5.6530    -1.1950 H     1 <1>   0.0800 
@<TRIPOS>BOND
  1   1   2  1   
  2   1   3  1   
  3   1   4  1   
  4   2   5  ar  
  5   2   6  ar  
  6   3   7  1   
  7   3  19  1   
  8   3  20  1   
  9   4   8  1   
 10   4  21  1   
 11   4  22  1   
 12   5   9  ar  
 13   5  23  1   
 14   6  10  ar  
 15   6  24  1   
 16   7  11  1   
 17   7  25  1   
 18   7  26  1   
 19   8  11  1   
 20   8  27  1   
 21   8  28  1   
 22   9  12  ar  
 23   9  29  1   
 24  10  12  ar  
 25  10  30  1   
 26  11  13  1   
 27  11  31  1   
 28  12  32  1   
 29  13  14  1   
 30  13  15  1   
 31  13  33  1   
 32  14  16  1   
 33  14  34  1   
 34  14  35  1   
 35  15  17  1   
 36  15  36  1   
 37  15  37  1   
 38  16  17  1   
 39  16  18  1   
 40  16  38  1   
 41  17  39  1   
 42  17  40  1   
 43  18  41  1   
 44  18  42  1   
 45  18  43  1   
@<TRIPOS>SUBSTRUCTURE
  1 ****   3 GROUP 4 **** **** 0

# MOE 2024.06 (io_trps.svl 2023.06)
