@<TRIPOS>MOLECULE
NONAME
51 55 1 0 0 
SMALL
USER_CHARGES


@<TRIPOS>ATOM
  1 S       -0.2250    -0.3920     0.7650 S.3   1 <1>  -0.0800 
  2 C        0.9770    -1.3250    -0.0600 C.2   1 <1>   0.4420 
  3 C       -1.4030    -1.0830    -0.3070 C.2   1 <1>   0.1980 
  4 N        0.4790    -2.0290    -1.0090 N.2   1 <1>  -0.3380 
  5 N        2.2730    -1.1970     0.3790 N.am  1 <1>  -0.4940 
  6 N       -0.8740    -1.8890    -1.1400 N.2   1 <1>  -0.3380 
  7 C       -2.8740    -0.6750    -0.1480 C.3   1 <1>   0.1800 
  8 C        3.4140    -1.7900    -0.0540 C.2   1 <1>   0.6900 
  9 C       -3.7540    -1.4010    -1.1960 C.3   1 <1>  -0.1600 
 10 C       -3.0430     0.8490    -0.3500 C.3   1 <1>  -0.1600 
 11 C       -3.3940    -1.0510     1.2600 C.3   1 <1>  -0.1600 
 12 O        4.4610    -1.2330     0.1890 O.2   1 <1>  -0.5700 
 13 N        3.4450    -2.9670    -0.7250 N.am  1 <1>  -0.5470 
 14 C       -5.2340    -1.0020    -1.0480 C.3   1 <1>  -0.0800 
 15 C       -4.5190     1.2620    -0.1940 C.3   1 <1>  -0.0800 
 16 C       -4.8720    -0.6460     1.4230 C.3   1 <1>  -0.0800 
 17 C        3.3140    -4.2330    -0.1360 C.ar  1 <1>   0.1170 
 18 C       -5.3670     0.5190    -1.2430 C.3   1 <1>  -0.1600 
 19 C       -5.7170    -1.3780     0.3650 C.3   1 <1>  -0.1600 
 20 C       -5.0050     0.8740     1.2160 C.3   1 <1>  -0.1600 
 21 C        4.3760    -5.1360    -0.2240 C.ar  1 <1>   0.0820 
 22 C        2.1640    -4.6310     0.5350 C.ar  1 <1>  -0.1500 
 23 O        5.5150    -4.7800    -0.8680 O.3   1 <1>  -0.3620 
 24 C        4.2850    -6.4010     0.3320 C.ar  1 <1>  -0.1500 
 25 C        2.0740    -5.8920     1.1000 C.ar  1 <1>  -0.1500 
 26 C        6.5160    -4.2100    -0.0530 C.3   1 <1>   0.0400 
 27 C        3.1330    -6.7790     0.9990 C.ar  1 <1>  -0.1500 
 28 H        2.4640    -0.4300     1.0150 H     1 <1>   0.3700 
 29 H       -3.6560    -2.4660    -1.0770 H     1 <1>   0.0800 
 30 H       -3.4140    -1.1560    -2.1870 H     1 <1>   0.0800 
 31 H       -2.6930     1.1230    -1.3310 H     1 <1>   0.0800 
 32 H       -2.4520     1.3880     0.3680 H     1 <1>   0.0800 
 33 H       -3.2910    -2.1110     1.4110 H     1 <1>   0.0800 
 34 H       -2.8120    -0.5560     2.0160 H     1 <1>   0.0800 
 35 H        4.2390    -2.9750    -1.3650 H     1 <1>   0.3700 
 36 H       -5.8260    -1.5170    -1.7850 H     1 <1>   0.0800 
 37 H       -4.6180     2.3250    -0.3340 H     1 <1>   0.0800 
 38 H       -5.2170    -0.9100     2.4090 H     1 <1>   0.0800 
 39 H       -6.3990     0.8090    -1.1490 H     1 <1>   0.0800 
 40 H       -5.0430     0.7900    -2.2330 H     1 <1>   0.0800 
 41 H       -5.6400    -2.4420     0.5060 H     1 <1>   0.0800 
 42 H       -6.7540    -1.1090     0.4780 H     1 <1>   0.0800 
 43 H       -6.0340     1.1680     1.3380 H     1 <1>   0.0800 
 44 H       -4.4290     1.3980     1.9580 H     1 <1>   0.0800 
 45 H        1.3290    -3.9620     0.6120 H     1 <1>   0.1500 
 46 H        5.1110    -7.0820     0.2400 H     1 <1>   0.1500 
 47 H        1.1750    -6.1850     1.6140 H     1 <1>   0.1500 
 48 H        6.8130    -4.9290     0.6890 H     1 <1>   0.0800 
 49 H        6.1240    -3.3260     0.4190 H     1 <1>   0.0800 
 50 H        7.3530    -3.9530    -0.6760 H     1 <1>   0.0800 
 51 H        3.0590    -7.7610     1.4340 H     1 <1>   0.1500 
@<TRIPOS>BOND
  1   1   2  1   
  2   1   3  1   
  3   2   4  2   
  4   2   5  1   
  5   3   6  2   
  6   3   7  1   
  7   4   6  1   
  8   5   8  am  
  9   5  28  1   
 10   7   9  1   
 11   7  10  1   
 12   7  11  1   
 13   8  12  2   
 14   8  13  am  
 15   9  14  1   
 16   9  29  1   
 17   9  30  1   
 18  10  15  1   
 19  10  31  1   
 20  10  32  1   
 21  11  16  1   
 22  11  33  1   
 23  11  34  1   
 24  13  17  1   
 25  13  35  1   
 26  14  18  1   
 27  14  19  1   
 28  14  36  1   
 29  15  18  1   
 30  15  20  1   
 31  15  37  1   
 32  16  19  1   
 33  16  20  1   
 34  16  38  1   
 35  17  21  ar  
 36  17  22  ar  
 37  18  39  1   
 38  18  40  1   
 39  19  41  1   
 40  19  42  1   
 41  20  43  1   
 42  20  44  1   
 43  21  23  1   
 44  21  24  ar  
 45  22  25  ar  
 46  22  45  1   
 47  23  26  1   
 48  24  27  ar  
 49  24  46  1   
 50  25  27  ar  
 51  25  47  1   
 52  26  48  1   
 53  26  49  1   
 54  26  50  1   
 55  27  51  1   
@<TRIPOS>SUBSTRUCTURE
  1 ****   4 GROUP 4 **** **** 0

# MOE 2024.06 (io_trps.svl 2023.06)
