@<TRIPOS>MOLECULE
22265
46 47 1 0 0 
SMALL
USER_CHARGES


@<TRIPOS>ATOM
  1 S       -1.0430     0.4550    -0.8170 S.3   1 <1>  -0.0800 
  2 C       -0.0170     1.0570     0.4480 C.2   1 <1>   0.4420 
  3 C       -1.1010    -1.0410     0.0460 C.2   1 <1>   0.1980 
  4 N        0.2470     0.1640     1.3270 N.2   1 <1>  -0.3380 
  5 N        0.4510     2.3510     0.4090 N.am  1 <1>  -0.4940 
  6 N       -0.3880    -1.0260     1.1010 N.2   1 <1>  -0.3380 
  7 C       -1.9700    -2.1410    -0.5410 C.3   1 <1>   0.0200 
  8 C       -0.1650     3.5190     0.0720 C.2   1 <1>   0.5690 
  9 C       -2.1050    -3.3530     0.3930 C.3   1 <1>  -0.1600 
 10 O        0.4940     4.5240    -0.0170 O.2   1 <1>  -0.5700 
 11 C       -1.6710     3.6070    -0.1640 C.3   1 <1>   0.1810 
 12 C       -2.9450    -4.4680    -0.2410 C.3   1 <1>  -0.2400 
 13 O       -2.3720     3.0440     0.9360 O.3   1 <1>  -0.3620 
 14 C       -3.4220     2.2220     0.7140 C.ar  1 <1>   0.0820 
 15 C       -4.3520     2.4460    -0.2910 C.ar  1 <1>  -0.1500 
 16 C       -3.5460     1.1100     1.5230 C.ar  1 <1>  -0.1500 
 17 C       -5.3920     1.5530    -0.5060 C.ar  1 <1>  -0.1440 
 18 C       -4.5800     0.2180     1.3150 C.ar  1 <1>  -0.1500 
 19 C       -5.5130     0.4200     0.3030 C.ar  1 <1>  -0.1440 
 20 C       -6.3720     1.8640    -1.6300 C.3   1 <1>  -0.0970 
 21 C       -6.6400    -0.6080     0.1300 C.3   1 <1>   0.0630 
 22 C       -7.5120    -0.6820     1.3880 C.3   1 <1>  -0.2400 
 23 C       -6.0740    -1.9890    -0.2180 C.3   1 <1>  -0.2400 
 24 H        1.3660     2.4880     0.8320 H     1 <1>   0.3700 
 25 H       -1.5400    -2.4510    -1.4760 H     1 <1>   0.0800 
 26 H       -2.9450    -1.7330    -0.7370 H     1 <1>   0.0800 
 27 H       -2.5610    -3.0400     1.3170 H     1 <1>   0.0800 
 28 H       -1.1250    -3.7370     0.6230 H     1 <1>   0.0800 
 29 H       -1.9250     3.0860    -1.0670 H     1 <1>   0.0800 
 30 H       -1.9690     4.6360    -0.2500 H     1 <1>   0.0800 
 31 H       -3.9350    -4.1150    -0.4710 H     1 <1>   0.0800 
 32 H       -3.0290    -5.2950     0.4420 H     1 <1>   0.0800 
 33 H       -2.4830    -4.8210    -1.1460 H     1 <1>   0.0800 
 34 H       -4.2670     3.3250    -0.9020 H     1 <1>   0.1500 
 35 H       -2.8280     0.9400     2.3060 H     1 <1>   0.1500 
 36 H       -4.6510    -0.6420     1.9560 H     1 <1>   0.1500 
 37 H       -6.1110     2.7750    -2.1360 H     1 <1>   0.0800 
 38 H       -7.3640     1.9770    -1.2310 H     1 <1>   0.0800 
 39 H       -6.3690     1.0670    -2.3530 H     1 <1>   0.0800 
 40 H       -7.2850    -0.3230    -0.6790 H     1 <1>   0.0800 
 41 H       -6.9500    -1.0460     2.2290 H     1 <1>   0.0800 
 42 H       -8.3470    -1.3390     1.2240 H     1 <1>   0.0800 
 43 H       -7.8890     0.2970     1.6270 H     1 <1>   0.0800 
 44 H       -5.4700    -2.3710     0.5840 H     1 <1>   0.0800 
 45 H       -5.4700    -1.9210    -1.1050 H     1 <1>   0.0800 
 46 H       -6.8750    -2.6820    -0.4030 H     1 <1>   0.0800 
@<TRIPOS>BOND
  1   1   2  1   
  2   1   3  1   
  3   2   4  2   
  4   2   5  1   
  5   3   6  2   
  6   3   7  1   
  7   4   6  1   
  8   5   8  am  
  9   5  24  1   
 10   7   9  1   
 11   7  25  1   
 12   7  26  1   
 13   8  10  2   
 14   8  11  1   
 15   9  12  1   
 16   9  27  1   
 17   9  28  1   
 18  11  13  1   
 19  11  29  1   
 20  11  30  1   
 21  12  31  1   
 22  12  32  1   
 23  12  33  1   
 24  13  14  1   
 25  14  15  ar  
 26  14  16  ar  
 27  15  17  ar  
 28  15  34  1   
 29  16  18  ar  
 30  16  35  1   
 31  17  19  ar  
 32  17  20  1   
 33  18  19  ar  
 34  18  36  1   
 35  19  21  1   
 36  20  37  1   
 37  20  38  1   
 38  20  39  1   
 39  21  22  1   
 40  21  23  1   
 41  21  40  1   
 42  22  41  1   
 43  22  42  1   
 44  22  43  1   
 45  23  44  1   
 46  23  45  1   
 47  23  46  1   
@<TRIPOS>SUBSTRUCTURE
  1 ****  16 GROUP 4 **** **** 0

# MOE 2024.06 (io_trps.svl 2023.06)
