@<TRIPOS>MOLECULE
NONAME
47 48 1 0 0 
SMALL
USER_CHARGES


@<TRIPOS>ATOM
  1 O        1.5230    -6.2650    -0.1650 O.3   1 <1>  -0.3630 
  2 C        0.3060    -6.8640    -0.2230 C.ar  1 <1>   0.0830 
  3 C        2.7090    -7.0160    -0.1860 C.3   1 <1>   0.1200 
  4 C       -0.8000    -6.0300    -0.1960 C.ar  1 <1>  -0.1500 
  5 C        0.1230    -8.2410    -0.3050 C.ar  1 <1>  -0.1500 
  6 C        3.8700    -6.0270    -0.1040 C.3   1 <1>  -0.1600 
  7 C       -2.0870    -6.5440    -0.2490 C.ar  1 <1>  -0.1440 
  8 C       -1.1560    -8.7620    -0.3590 C.ar  1 <1>  -0.1500 
  9 C        5.2100    -6.7600    -0.1110 C.3   1 <1>   0.3430 
 10 C       -2.2540    -7.9200    -0.3320 C.ar  1 <1>  -0.1500 
 11 C       -3.2870    -5.5990    -0.2180 C.3   1 <1>   0.0640 
 12 N        6.3360    -5.7860    -0.1430 N.4   1 <1>  -0.9590 
 13 C       -4.1600    -5.8640     1.0130 C.3   1 <1>  -0.2400 
 14 C       -4.1100    -5.7170    -1.5040 C.3   1 <1>  -0.2400 
 15 C        7.6070    -6.4650    -0.5340 C.3   1 <1>   0.3430 
 16 C        6.4900    -5.0470     1.1490 C.3   1 <1>   0.3430 
 17 C        8.7150    -5.4260    -0.7120 C.3   1 <1>  -0.1600 
 18 C        7.5760    -3.9790     1.0080 C.3   1 <1>  -0.1600 
 19 C        8.9110    -4.5810     0.5530 C.3   1 <1>  -0.1600 
 20 H        2.7350    -7.5770    -1.1060 H     1 <1>   0.0800 
 21 H        2.6990    -7.6820     0.6610 H     1 <1>   0.0800 
 22 H       -0.6410    -4.9690    -0.1320 H     1 <1>   0.1500 
 23 H        0.9520    -8.9210    -0.3290 H     1 <1>   0.1500 
 24 H        3.7580    -5.4590     0.8020 H     1 <1>   0.0800 
 25 H        3.8130    -5.3670    -0.9520 H     1 <1>   0.0800 
 26 H       -1.3030    -9.8260    -0.4230 H     1 <1>   0.1500 
 27 H        5.2540    -7.3880    -0.9870 H     1 <1>   0.0800 
 28 H        5.2900    -7.3910     0.7600 H     1 <1>   0.0800 
 29 H       -3.2420    -8.3420    -0.3750 H     1 <1>   0.1500 
 30 H       -2.9270    -4.5860    -0.1520 H     1 <1>   0.0800 
 31 H        6.1340    -5.0850    -0.8690 H     1 <1>   0.4500 
 32 H       -4.5880    -6.8490     0.9750 H     1 <1>   0.0800 
 33 H       -4.9570    -5.1440     1.0670 H     1 <1>   0.0800 
 34 H       -3.5650    -5.7830     1.9060 H     1 <1>   0.0800 
 35 H       -4.5370    -6.6990    -1.5980 H     1 <1>   0.0800 
 36 H       -3.4810    -5.5340    -2.3570 H     1 <1>   0.0800 
 37 H       -4.9060    -4.9940    -1.5050 H     1 <1>   0.0800 
 38 H        7.4710    -7.0030    -1.4580 H     1 <1>   0.0800 
 39 H        7.8950    -7.1680     0.2310 H     1 <1>   0.0800 
 40 H        6.7620    -5.7360     1.9330 H     1 <1>   0.0800 
 41 H        5.5620    -4.5720     1.4230 H     1 <1>   0.0800 
 42 H        8.4780    -4.7880    -1.5470 H     1 <1>   0.0800 
 43 H        9.6360    -5.9310    -0.9480 H     1 <1>   0.0800 
 44 H        7.7130    -3.4900     1.9570 H     1 <1>   0.0800 
 45 H        7.2520    -3.2300     0.3060 H     1 <1>   0.0800 
 46 H        9.6220    -3.7940     0.3620 H     1 <1>   0.0800 
 47 H        9.3130    -5.2000     1.3390 H     1 <1>   0.0800 
@<TRIPOS>BOND
  1   1   2  1   
  2   1   3  1   
  3   2   4  ar  
  4   2   5  ar  
  5   3   6  1   
  6   3  20  1   
  7   3  21  1   
  8   4   7  ar  
  9   4  22  1   
 10   5   8  ar  
 11   5  23  1   
 12   6   9  1   
 13   6  24  1   
 14   6  25  1   
 15   7  10  ar  
 16   7  11  1   
 17   8  10  ar  
 18   8  26  1   
 19   9  12  1   
 20   9  27  1   
 21   9  28  1   
 22  10  29  1   
 23  11  13  1   
 24  11  14  1   
 25  11  30  1   
 26  12  15  1   
 27  12  16  1   
 28  12  31  1   
 29  13  32  1   
 30  13  33  1   
 31  13  34  1   
 32  14  35  1   
 33  14  36  1   
 34  14  37  1   
 35  15  17  1   
 36  15  38  1   
 37  15  39  1   
 38  16  18  1   
 39  16  40  1   
 40  16  41  1   
 41  17  19  1   
 42  17  42  1   
 43  17  43  1   
 44  18  19  1   
 45  18  44  1   
 46  18  45  1   
 47  19  46  1   
 48  19  47  1   
@<TRIPOS>SUBSTRUCTURE
  1 ****   1 GROUP 4 **** **** 0

# MOE 2024.06 (io_trps.svl 2023.06)
