@<TRIPOS>MOLECULE
NONAME
29 30 1 0 0 
SMALL
USER_CHARGES


@<TRIPOS>ATOM
  1 P       -0.2150     0.4330     0.2370 P.3   1 <1>   1.2420 
  2 O       -0.6790     1.6080    -0.5080 O.2   1 <1>  -0.7000 
  3 O        0.3520    -0.7150    -0.7480 O.3   1 <1>  -0.5510 
  4 O        1.0500     0.8100     1.1600 O.3   1 <1>  -0.5510 
  5 C       -1.5040    -0.2920     1.2830 C.3   1 <1>   0.4850 
  6 C        1.4170    -1.5530    -0.4300 C.3   1 <1>   0.0400 
  7 C        1.9910     1.7300     0.7160 C.3   1 <1>   0.0400 
  8 O       -2.0730     0.5700     2.2570 O.3   1 <1>  -0.6800 
  9 C       -1.0090    -1.5910     1.9300 C.2   1 <1>   0.5690 
 10 C       -2.6970    -0.8440     0.4970 C.ar  1 <1>  -0.1440 
 11 O       -0.0400    -1.7260     2.6390 O.2   1 <1>  -0.5700 
 12 N       -1.8130    -2.6250     1.5750 N.am  1 <1>  -0.5470 
 13 C       -2.8150    -2.2010     0.7250 C.ar  1 <1>   0.1170 
 14 C       -3.5810    -0.1940    -0.3470 C.ar  1 <1>  -0.1500 
 15 C       -3.8240    -2.9390     0.1300 C.ar  1 <1>  -0.1500 
 16 C       -4.5930    -0.9280    -0.9490 C.ar  1 <1>  -0.1500 
 17 C       -4.7150    -2.2910    -0.7110 C.ar  1 <1>  -0.1500 
 18 H        1.5690    -2.2290    -1.2540 H     1 <1>   0.0800 
 19 H        1.1920    -2.1130     0.4590 H     1 <1>   0.0800 
 20 H        2.3040    -0.9630    -0.2810 H     1 <1>   0.0800 
 21 H        2.7670     1.8060     1.4570 H     1 <1>   0.0800 
 22 H        1.5110     2.6860     0.5880 H     1 <1>   0.0800 
 23 H        2.4020     1.3950    -0.2200 H     1 <1>   0.0800 
 24 H       -2.4900     1.3290     1.8060 H     1 <1>   0.4000 
 25 H       -1.6860    -3.5680     1.9430 H     1 <1>   0.3700 
 26 H       -3.4890     0.8620    -0.5420 H     1 <1>   0.1500 
 27 H       -3.9090    -3.9940     0.3170 H     1 <1>   0.1500 
 28 H       -5.2890    -0.4360    -1.6070 H     1 <1>   0.1500 
 29 H       -5.5060    -2.8460    -1.1840 H     1 <1>   0.1500 
@<TRIPOS>BOND
  1   1   2  2   
  2   1   3  1   
  3   1   4  1   
  4   1   5  1   
  5   3   6  1   
  6   4   7  1   
  7   5   8  1   
  8   5   9  1   
  9   5  10  1   
 10   6  18  1   
 11   6  19  1   
 12   6  20  1   
 13   7  21  1   
 14   7  22  1   
 15   7  23  1   
 16   8  24  1   
 17   9  11  2   
 18   9  12  am  
 19  10  13  ar  
 20  10  14  ar  
 21  12  13  1   
 22  12  25  1   
 23  13  15  ar  
 24  14  16  ar  
 25  14  26  1   
 26  15  17  ar  
 27  15  27  1   
 28  16  17  ar  
 29  16  28  1   
 30  17  29  1   
@<TRIPOS>SUBSTRUCTURE
  1 ****   5 GROUP 4 **** **** 0

# MOE 2024.06 (io_trps.svl 2023.06)
