@<TRIPOS>MOLECULE
NONAME
51 54 1 0 0 
SMALL
USER_CHARGES


@<TRIPOS>ATOM
  1 F        1.0120    -1.8510    -1.4520 F     1 <1>  -0.1900 
  2 C        0.0540    -2.0880    -0.5850 C.ar  1 <1>   0.1900 
  3 C        0.3830    -2.3480     0.7510 C.ar  1 <1>   0.1000 
  4 C       -1.2470    -2.0670    -1.0470 C.ar  1 <1>  -0.1500 
  5 N        1.6900    -2.3790     1.2600 N.pl3 1 <1>  -0.8380 
  6 C       -0.6730    -2.5910     1.6200 C.ar  1 <1>  -0.1500 
  7 C       -2.2770    -2.3130    -0.1540 C.ar  1 <1>  -0.1500 
  8 C        2.5390    -3.5560     0.8950 C.3   1 <1>   0.2090 
  9 C        2.3980    -1.0710     1.4080 C.3   1 <1>   0.2090 
 10 C       -1.9860    -2.5740     1.1760 C.ar  1 <1>  -0.1500 
 11 C        3.5370    -3.2330    -0.2370 C.3   1 <1>   0.3430 
 12 C        3.3980    -0.8080     0.2610 C.3   1 <1>   0.3430 
 13 N        4.3230    -1.9710     0.0190 N.4   1 <1>  -0.9590 
 14 C        5.2610    -1.7010    -1.0940 C.3   1 <1>   0.4810 
 15 C        6.2650    -2.8310    -1.1430 C.2   1 <1>  -0.2540 
 16 C        6.2610    -3.8050    -2.1810 C.2   1 <1>  -0.2880 
 17 C        7.3840    -2.7920     0.1640 C.3   1 <1>   0.1160 
 18 C        7.5090    -4.9620    -2.0110 C.3   1 <1>  -0.0220 
 19 C        8.7500    -3.7090     0.6650 C.3   1 <1>   0.0000 
 20 C        7.7560    -3.8280    -0.5200 C.3   1 <1>   0.0000 
 21 C        8.5980    -4.7850    -0.6680 C.3   1 <1>   0.0000 
 22 C        8.5970    -4.4170     2.0370 C.3   1 <1>  -0.2400 
 23 C       10.0640    -2.8860     0.6820 C.3   1 <1>  -0.2400 
 24 H       -1.4530    -1.8630    -2.0830 H     1 <1>   0.1500 
 25 H       -0.4580    -2.7950     2.6530 H     1 <1>   0.1500 
 26 H       -3.3000    -2.3020    -0.4910 H     1 <1>   0.1500 
 27 H        1.9060    -4.3710     0.5860 H     1 <1>   0.0800 
 28 H        3.0780    -3.8810     1.7680 H     1 <1>   0.0800 
 29 H        2.9180    -1.0610     2.3500 H     1 <1>   0.0800 
 30 H        1.6730    -0.2740     1.4330 H     1 <1>   0.0800 
 31 H       -2.7870    -2.7650     1.8700 H     1 <1>   0.1500 
 32 H        2.9830    -3.1310    -1.1550 H     1 <1>   0.0800 
 33 H        4.2090    -4.0670    -0.3560 H     1 <1>   0.0800 
 34 H        3.9700     0.0740     0.4930 H     1 <1>   0.0800 
 35 H        2.8340    -0.6060    -0.6340 H     1 <1>   0.0800 
 36 H        4.8860    -2.1290     0.8620 H     1 <1>   0.4500 
 37 H        5.7760    -0.7650    -0.9430 H     1 <1>   0.0800 
 38 H        4.7210    -1.6510    -2.0260 H     1 <1>   0.0800 
 39 H        5.6050    -3.9010    -3.0320 H     1 <1>   0.1500 
 40 H        6.7420    -2.8960     1.0250 H     1 <1>   0.0000 
 41 H        8.0940    -4.9580    -2.9170 H     1 <1>   0.0800 
 42 H        7.0610    -5.9400    -1.9530 H     1 <1>   0.0800 
 43 H        8.2960    -3.1510    -1.3070 H     1 <1>   0.0000 
 44 H        6.9330    -4.5130    -0.0660 H     1 <1>   0.0000 
 45 H        9.5470    -4.6390    -1.1610 H     1 <1>   0.0000 
 46 H        7.7040    -5.0140     2.0730 H     1 <1>   0.0800 
 47 H        8.5570    -3.6930     2.8310 H     1 <1>   0.0800 
 48 H        9.4380    -5.0670     2.2100 H     1 <1>   0.0800 
 49 H       10.2140    -2.3720    -0.2510 H     1 <1>   0.0800 
 50 H       10.9060    -3.5360     0.8470 H     1 <1>   0.0800 
 51 H       10.0360    -2.1550     1.4700 H     1 <1>   0.0800 
@<TRIPOS>BOND
  1   1   2  1   
  2   2   3  ar  
  3   2   4  ar  
  4   3   5  1   
  5   3   6  ar  
  6   4   7  ar  
  7   4  24  1   
  8   5   8  1   
  9   5   9  1   
 10   6  10  ar  
 11   6  25  1   
 12   7  10  ar  
 13   7  26  1   
 14   8  11  1   
 15   8  27  1   
 16   8  28  1   
 17   9  12  1   
 18   9  29  1   
 19   9  30  1   
 20  10  31  1   
 21  11  13  1   
 22  11  32  1   
 23  11  33  1   
 24  12  13  1   
 25  12  34  1   
 26  12  35  1   
 27  13  14  1   
 28  13  36  1   
 29  14  15  1   
 30  14  37  1   
 31  14  38  1   
 32  15  16  2   
 33  15  17  1   
 34  16  18  1   
 35  16  39  1   
 36  17  19  1   
 37  17  20  1   
 38  17  40  1   
 39  18  21  1   
 40  18  41  1   
 41  18  42  1   
 42  19  21  1   
 43  19  22  1   
 44  19  23  1   
 45  20  21  1   
 46  20  43  1   
 47  20  44  1   
 48  21  45  1   
 49  22  46  1   
 50  22  47  1   
 51  22  48  1   
 52  23  49  1   
 53  23  50  1   
 54  23  51  1   
@<TRIPOS>SUBSTRUCTURE
  1 ****  11 GROUP 4 **** **** 0

# MOE 2024.06 (io_trps.svl 2023.06)
