@<TRIPOS>MOLECULE
NONAME
43 44 1 0 0 
SMALL
USER_CHARGES


@<TRIPOS>ATOM
  1 O       -0.4880    -2.9430    -1.4830 O.2   1 <1>  -0.5700 
  2 C       -1.2450    -2.5000    -0.6610 C.2   1 <1>   0.5690 
  3 N       -0.8840    -1.4360     0.0810 N.am  1 <1>  -0.8000 
  4 C       -2.6150    -3.1450    -0.4690 C.3   1 <1>  -0.0190 
  5 C       -3.7500    -2.2000    -0.9060 C.3   1 <1>  -0.1600 
  6 C       -2.8340    -3.6210     0.9800 C.3   1 <1>  -0.1600 
  7 C       -5.1250    -2.8360    -0.6900 C.3   1 <1>   0.1400 
  8 C       -4.2240    -4.2340     1.1610 C.3   1 <1>   0.1400 
  9 N       -5.2580    -3.2490     0.7360 N.am  1 <1>  -0.6600 
 10 C       -6.2620    -2.8560     1.6000 C.2   1 <1>   0.5690 
 11 O       -6.2830    -3.2600     2.7430 O.2   1 <1>  -0.5700 
 12 C       -7.4070    -1.8920     1.2120 C.3   1 <1>   0.2610 
 13 O       -8.0380    -2.2450    -0.0130 O.3   1 <1>  -0.3630 
 14 C       -6.9630    -0.4210     1.0970 C.3   1 <1>  -0.1600 
 15 C       -8.6710    -3.4320    -0.1920 C.ar  1 <1>   0.0820 
 16 C       -6.3970     0.1340     2.4120 C.3   1 <1>  -0.2400 
 17 C       -9.0580    -3.7360    -1.4870 C.ar  1 <1>  -0.1500 
 18 C       -8.9400    -4.3380     0.8320 C.ar  1 <1>  -0.1500 
 19 C       -9.7000    -4.9290    -1.7680 C.ar  1 <1>  -0.1500 
 20 C       -9.5810    -5.5310     0.5490 C.ar  1 <1>  -0.1500 
 21 C       -9.9600    -5.8280    -0.7490 C.ar  1 <1>  -0.1500 
 22 H        0.0370    -1.0210    -0.0600 H     1 <1>   0.3700 
 23 H       -1.4740    -1.0200     0.8000 H     1 <1>   0.3700 
 24 H       -2.6460    -4.0120    -1.1060 H     1 <1>   0.0800 
 25 H       -3.6330    -1.9600    -1.9490 H     1 <1>   0.0800 
 26 H       -3.7040    -1.2810    -0.3500 H     1 <1>   0.0800 
 27 H       -2.7340    -2.7990     1.6670 H     1 <1>   0.0800 
 28 H       -2.0890    -4.3540     1.2340 H     1 <1>   0.0800 
 29 H       -5.2330    -3.7060    -1.3160 H     1 <1>   0.0800 
 30 H       -5.8820    -2.1330    -0.9750 H     1 <1>   0.0800 
 31 H       -4.3590    -4.5170     2.1910 H     1 <1>   0.0800 
 32 H       -4.3180    -5.1220     0.5600 H     1 <1>   0.0800 
 33 H       -8.1620    -1.9480     1.9750 H     1 <1>   0.0800 
 34 H       -7.8160     0.1710     0.8140 H     1 <1>   0.0800 
 35 H       -6.2160    -0.3250     0.3310 H     1 <1>   0.0800 
 36 H       -5.5090    -0.4010     2.7030 H     1 <1>   0.0800 
 37 H       -7.1240     0.0460     3.2020 H     1 <1>   0.0800 
 38 H       -6.1450     1.1730     2.2950 H     1 <1>   0.0800 
 39 H       -8.8540    -3.0320    -2.2740 H     1 <1>   0.1500 
 40 H       -8.6620    -4.1380     1.8500 H     1 <1>   0.1500 
 41 H       -9.9970    -5.1570    -2.7770 H     1 <1>   0.1500 
 42 H       -9.7840    -6.2310     1.3410 H     1 <1>   0.1500 
 43 H      -10.4580    -6.7580    -0.9650 H     1 <1>   0.1500 
@<TRIPOS>BOND
  1   1   2  2   
  2   2   3  am  
  3   2   4  1   
  4   3  22  1   
  5   3  23  1   
  6   4   5  1   
  7   4   6  1   
  8   4  24  1   
  9   5   7  1   
 10   5  25  1   
 11   5  26  1   
 12   6   8  1   
 13   6  27  1   
 14   6  28  1   
 15   7   9  1   
 16   7  29  1   
 17   7  30  1   
 18   8   9  1   
 19   8  31  1   
 20   8  32  1   
 21   9  10  am  
 22  10  11  2   
 23  10  12  1   
 24  12  13  1   
 25  12  14  1   
 26  12  33  1   
 27  13  15  1   
 28  14  16  1   
 29  14  34  1   
 30  14  35  1   
 31  15  17  ar  
 32  15  18  ar  
 33  16  36  1   
 34  16  37  1   
 35  16  38  1   
 36  17  19  ar  
 37  17  39  1   
 38  18  20  ar  
 39  18  40  1   
 40  19  21  ar  
 41  19  41  1   
 42  20  21  ar  
 43  20  42  1   
 44  21  43  1   
@<TRIPOS>SUBSTRUCTURE
  1 ****   9 GROUP 4 **** **** 0

# MOE 2024.06 (io_trps.svl 2023.06)
