@<TRIPOS>MOLECULE
NONAME
43 44 1 0 0 
SMALL
USER_CHARGES


@<TRIPOS>ATOM
  1 CL       0.4320     0.8650    -1.7320 Cl    1 <1>  -0.1770 
  2 C        1.0020     2.2770    -0.8700 C.ar  1 <1>   0.1770 
  3 C        0.1820     3.3870    -0.7290 C.ar  1 <1>   0.0830 
  4 C        2.2770     2.2420    -0.3390 C.ar  1 <1>  -0.1500 
  5 O       -1.0540     3.3290    -1.2980 O.3   1 <1>  -0.3630 
  6 C        0.6680     4.5010    -0.0330 C.ar  1 <1>   0.0830 
  7 C        2.7640     3.3430     0.3500 C.ar  1 <1>  -0.1440 
  8 C       -2.1960     3.7340    -0.5500 C.3   1 <1>   0.1810 
  9 O       -0.1300     5.5990     0.0840 O.3   1 <1>  -0.3630 
 10 C        1.9560     4.4630     0.5020 C.ar  1 <1>  -0.1500 
 11 C        4.1670     3.3200     0.9210 C.3   1 <1>   0.4870 
 12 C       -3.4150     2.8880    -0.9040 C.2   1 <1>   0.5690 
 13 C        0.2290     6.7340     0.8420 C.3   1 <1>   0.0400 
 14 N        5.0840     3.7020    -0.1730 N.4   1 <1>  -0.9060 
 15 O       -4.4970     3.1990    -0.4770 O.2   1 <1>  -0.5700 
 16 N       -3.2860     1.7920    -1.6800 N.am  1 <1>  -0.8000 
 17 C        6.5070     3.7680     0.2050 C.3   1 <1>   0.4230 
 18 C        7.2780     4.3280    -0.9830 C.3   1 <1>  -0.1600 
 19 C        7.0680     2.3540     0.3330 C.3   1 <1>  -0.1600 
 20 C        7.4770     3.1520    -1.9480 C.3   1 <1>  -0.1600 
 21 C        7.3420     1.8800    -1.1000 C.3   1 <1>  -0.1600 
 22 H        2.8620     1.3480    -0.4740 H     1 <1>   0.1500 
 23 H       -2.3960     4.7650    -0.7730 H     1 <1>   0.0800 
 24 H       -1.9870     3.6250     0.4980 H     1 <1>   0.0800 
 25 H        2.3360     5.3120     1.0410 H     1 <1>   0.1500 
 26 H        4.3990     2.3320     1.2840 H     1 <1>   0.0800 
 27 H        4.2440     4.0190     1.7390 H     1 <1>   0.0800 
 28 H       -0.5910     7.4300     0.8070 H     1 <1>   0.0800 
 29 H        1.1030     7.1860     0.4080 H     1 <1>   0.0800 
 30 H        0.4070     6.4360     1.8600 H     1 <1>   0.0800 
 31 H        4.7850     4.6060    -0.5530 H     1 <1>   0.4500 
 32 H        4.9950     3.0290    -0.9420 H     1 <1>   0.4500 
 33 H       -4.1010     1.2300    -1.9230 H     1 <1>   0.3700 
 34 H       -2.3840     1.5140    -2.0730 H     1 <1>   0.3700 
 35 H        6.6510     4.3580     1.0970 H     1 <1>   0.0800 
 36 H        8.2460     4.6480    -0.6340 H     1 <1>   0.0800 
 37 H        6.7970     5.1710    -1.4480 H     1 <1>   0.0800 
 38 H        6.4370     1.6770     0.8790 H     1 <1>   0.0800 
 39 H        8.0100     2.4160     0.8520 H     1 <1>   0.0800 
 40 H        8.4460     3.2040    -2.4190 H     1 <1>   0.0800 
 41 H        6.7260     3.1630    -2.7200 H     1 <1>   0.0800 
 42 H        6.5270     1.2780    -1.4650 H     1 <1>   0.0800 
 43 H        8.2430     1.2900    -1.1410 H     1 <1>   0.0800 
@<TRIPOS>BOND
  1   1   2  1   
  2   2   3  ar  
  3   2   4  ar  
  4   3   5  1   
  5   3   6  ar  
  6   4   7  ar  
  7   4  22  1   
  8   5   8  1   
  9   6   9  1   
 10   6  10  ar  
 11   7  10  ar  
 12   7  11  1   
 13   8  12  1   
 14   8  23  1   
 15   8  24  1   
 16   9  13  1   
 17  10  25  1   
 18  11  14  1   
 19  11  26  1   
 20  11  27  1   
 21  12  15  2   
 22  12  16  am  
 23  13  28  1   
 24  13  29  1   
 25  13  30  1   
 26  14  17  1   
 27  14  31  1   
 28  14  32  1   
 29  16  33  1   
 30  16  34  1   
 31  17  18  1   
 32  17  19  1   
 33  17  35  1   
 34  18  20  1   
 35  18  36  1   
 36  18  37  1   
 37  19  21  1   
 38  19  38  1   
 39  19  39  1   
 40  20  21  1   
 41  20  40  1   
 42  20  41  1   
 43  21  42  1   
 44  21  43  1   
@<TRIPOS>SUBSTRUCTURE
  1 ****   7 GROUP 4 **** **** 0

# MOE 2024.06 (io_trps.svl 2023.06)
