@<TRIPOS>MOLECULE
NONAME
36 36 1 0 0 
SMALL
USER_CHARGES


@<TRIPOS>ATOM
  1 O        0.5890    -1.0650     0.1530 O.3   1 <1>  -0.6800 
  2 C        0.2370    -1.4100    -1.1560 C.3   1 <1>   0.1200 
  3 C        0.8420    -2.7790    -1.5380 C.3   1 <1>   0.3430 
  4 N        1.1570    -3.5910    -0.3160 N.4   1 <1>  -0.9590 
  5 C        2.4720    -4.2900    -0.4140 C.3   1 <1>   0.3430 
  6 C        0.0740    -4.5550     0.0660 C.3   1 <1>   0.3430 
  7 C        3.6560    -3.3160    -0.2980 C.3   1 <1>  -0.0800 
  8 C       -1.1910    -3.8720     0.6040 C.3   1 <1>   0.1200 
  9 C        4.9680    -4.0730    -0.5840 C.3   1 <1>  -0.0220 
 10 C        3.7270    -2.6300     1.0840 C.3   1 <1>  -0.1600 
 11 O       -2.0810    -4.8650     0.9750 O.3   1 <1>  -0.6800 
 12 C        6.1780    -3.2180    -0.2580 C.2   1 <1>  -0.2880 
 13 C        4.8550    -1.5870     1.1350 C.3   1 <1>  -0.0220 
 14 C        6.1240    -2.1150     0.4920 C.2   1 <1>  -0.2880 
 15 H        0.3110    -0.1430     0.3580 H     1 <1>   0.4000 
 16 H        0.5980    -0.6470    -1.8250 H     1 <1>   0.0800 
 17 H       -0.8370    -1.4400    -1.2200 H     1 <1>   0.0800 
 18 H        1.7490    -2.5920    -2.0880 H     1 <1>   0.0800 
 19 H        0.1750    -3.3140    -2.1940 H     1 <1>   0.0800 
 20 H        1.2320    -2.8720     0.4310 H     1 <1>   0.4500 
 21 H        2.5300    -4.8210    -1.3500 H     1 <1>   0.0800 
 22 H        2.5540    -5.0130     0.3820 H     1 <1>   0.0800 
 23 H        0.4430    -5.2070     0.8410 H     1 <1>   0.0800 
 24 H       -0.1890    -5.1620    -0.7840 H     1 <1>   0.0800 
 25 H        3.5660    -2.5520    -1.0500 H     1 <1>   0.0800 
 26 H       -1.6660    -3.2710    -0.1490 H     1 <1>   0.0800 
 27 H       -0.9670    -3.2790     1.4750 H     1 <1>   0.0800 
 28 H        5.0040    -4.3480    -1.6250 H     1 <1>   0.0800 
 29 H        5.0250    -4.9740     0.0030 H     1 <1>   0.0800 
 30 H        3.9160    -3.3740     1.8400 H     1 <1>   0.0800 
 31 H        2.8030    -2.1380     1.3300 H     1 <1>   0.0800 
 32 H       -2.9000    -4.4930     1.3680 H     1 <1>   0.4000 
 33 H        7.0950    -3.5870    -0.6890 H     1 <1>   0.1500 
 34 H        5.0520    -1.3280     2.1610 H     1 <1>   0.0800 
 35 H        4.5530    -0.6920     0.6190 H     1 <1>   0.0800 
 36 H        6.9910    -1.5080     0.7020 H     1 <1>   0.1500 
@<TRIPOS>BOND
  1   1   2  1   
  2   1  15  1   
  3   2   3  1   
  4   2  16  1   
  5   2  17  1   
  6   3   4  1   
  7   3  18  1   
  8   3  19  1   
  9   4   5  1   
 10   4   6  1   
 11   4  20  1   
 12   5   7  1   
 13   5  21  1   
 14   5  22  1   
 15   6   8  1   
 16   6  23  1   
 17   6  24  1   
 18   7   9  1   
 19   7  10  1   
 20   7  25  1   
 21   8  11  1   
 22   8  26  1   
 23   8  27  1   
 24   9  12  1   
 25   9  28  1   
 26   9  29  1   
 27  10  13  1   
 28  10  30  1   
 29  10  31  1   
 30  11  32  1   
 31  12  14  2   
 32  12  33  1   
 33  13  14  1   
 34  13  34  1   
 35  13  35  1   
 36  14  36  1   
@<TRIPOS>SUBSTRUCTURE
  1 ****   4 GROUP 4 **** **** 0

# MOE 2024.06 (io_trps.svl 2023.06)
