@<TRIPOS>MOLECULE
NONAME
39 39 1 0 0 
SMALL
USER_CHARGES


@<TRIPOS>ATOM
  1 O       -0.0050     0.4730     2.4260 O.2   1 <1>  -0.5700 
  2 C       -0.5520     1.0440     1.5110 C.2   1 <1>   0.5690 
  3 N        0.1220     1.4600     0.4100 N.am  1 <1>  -0.7300 
  4 C       -2.0460     1.3310     1.6040 C.3   1 <1>   0.1810 
  5 C        1.5490     1.2790     0.1350 C.3   1 <1>   0.2200 
  6 O       -2.6840     1.1440     0.3460 O.3   1 <1>  -0.3630 
  7 C        2.1820     2.6680    -0.0170 C.3   1 <1>  -0.1600 
  8 C        1.6670     0.4250    -1.1250 C.3   1 <1>  -0.2400 
  9 C       -3.5050     2.1290    -0.0920 C.ar  1 <1>   0.0820 
 10 C        3.7110     2.6260    -0.1610 C.3   1 <1>  -0.1600 
 11 C       -3.0270     3.3960    -0.4440 C.ar  1 <1>   0.0820 
 12 C       -4.8540     1.8360    -0.1990 C.ar  1 <1>  -0.1500 
 13 C        4.2970     4.0400    -0.2090 C.3   1 <1>  -0.2400 
 14 O       -1.6860     3.6330    -0.3540 O.3   1 <1>  -0.3630 
 15 C       -3.9320     4.3590    -0.8820 C.ar  1 <1>  -0.1500 
 16 C       -5.7440     2.8010    -0.6370 C.ar  1 <1>  -0.1500 
 17 C       -1.1440     4.9110    -0.6060 C.3   1 <1>   0.0400 
 18 C       -5.2820     4.0610    -0.9740 C.ar  1 <1>  -0.1500 
 19 H       -0.4210     1.9570    -0.3060 H     1 <1>   0.3700 
 20 H       -2.1950     2.3400     1.9400 H     1 <1>   0.0800 
 21 H       -2.5000     0.6550     2.3050 H     1 <1>   0.0800 
 22 H        2.0080     0.7620     0.9640 H     1 <1>   0.0800 
 23 H        1.9390     3.2430     0.8600 H     1 <1>   0.0800 
 24 H        1.7570     3.1620    -0.8730 H     1 <1>   0.0800 
 25 H        1.2560     0.9410    -1.9740 H     1 <1>   0.0800 
 26 H        1.1410    -0.5020    -0.9850 H     1 <1>   0.0800 
 27 H        2.6960     0.1930    -1.3260 H     1 <1>   0.0800 
 28 H        3.9850     2.1070    -1.0630 H     1 <1>   0.0800 
 29 H        4.1370     2.0950     0.6740 H     1 <1>   0.0800 
 30 H       -5.2020     0.8520     0.0610 H     1 <1>   0.1500 
 31 H        3.8990     4.5850    -1.0470 H     1 <1>   0.0800 
 32 H        5.3670     3.9910    -0.3100 H     1 <1>   0.0800 
 33 H        4.0650     4.5750     0.6960 H     1 <1>   0.0800 
 34 H       -3.6120     5.3450    -1.1600 H     1 <1>   0.1500 
 35 H       -6.7920     2.5700    -0.7160 H     1 <1>   0.1500 
 36 H       -0.0850     4.8680    -0.4250 H     1 <1>   0.0800 
 37 H       -1.5980     5.6220     0.0610 H     1 <1>   0.0800 
 38 H       -1.3280     5.1730    -1.6330 H     1 <1>   0.0800 
 39 H       -5.9760     4.8110    -1.3140 H     1 <1>   0.1500 
@<TRIPOS>BOND
  1   1   2  2   
  2   2   3  am  
  3   2   4  1   
  4   3   5  1   
  5   3  19  1   
  6   4   6  1   
  7   4  20  1   
  8   4  21  1   
  9   5   7  1   
 10   5   8  1   
 11   5  22  1   
 12   6   9  1   
 13   7  10  1   
 14   7  23  1   
 15   7  24  1   
 16   8  25  1   
 17   8  26  1   
 18   8  27  1   
 19   9  11  ar  
 20   9  12  ar  
 21  10  13  1   
 22  10  28  1   
 23  10  29  1   
 24  11  14  1   
 25  11  15  ar  
 26  12  16  ar  
 27  12  30  1   
 28  13  31  1   
 29  13  32  1   
 30  13  33  1   
 31  14  17  1   
 32  15  18  ar  
 33  15  34  1   
 34  16  18  ar  
 35  16  35  1   
 36  17  36  1   
 37  17  37  1   
 38  17  38  1   
 39  18  39  1   
@<TRIPOS>SUBSTRUCTURE
  1 ****  14 GROUP 4 **** **** 0

# MOE 2024.06 (io_trps.svl 2023.06)
