@<TRIPOS>MOLECULE
NONAME
46 47 1 0 0 
SMALL
USER_CHARGES


@<TRIPOS>ATOM
  1 O       -1.0770    -0.0920    -0.4490 O.3   1 <1>  -0.5600 
  2 C       -1.6270     1.1490    -0.7810 C.3   1 <1>   0.1200 
  3 C       -1.7860    -0.8150     0.5140 C.3   1 <1>   0.1200 
  4 C       -3.0560     0.9680    -1.3300 C.3   1 <1>   0.3430 
  5 C       -3.2220    -1.0870     0.0250 C.3   1 <1>   0.3430 
  6 N       -3.9230     0.1860    -0.3780 N.4   1 <1>  -0.9590 
  7 C       -5.2670    -0.0680    -0.9950 C.3   1 <1>   0.3430 
  8 C       -6.2830    -0.6520    -0.0050 C.3   1 <1>   0.1200 
  9 O       -7.4860    -0.7870    -0.6830 O.3   1 <1>  -0.5600 
 10 C       -8.5280    -1.3010     0.0930 C.3   1 <1>   0.1200 
 11 C       -9.7840    -1.3990    -0.7680 C.3   1 <1>   0.1200 
 12 O      -10.8180    -1.9230     0.0340 O.3   1 <1>  -0.3630 
 13 C      -12.0720    -2.1360    -0.4510 C.ar  1 <1>   0.0830 
 14 C      -13.0310    -2.6710     0.4130 C.ar  1 <1>  -0.1430 
 15 C      -12.4130    -1.8430    -1.7690 C.ar  1 <1>  -0.1500 
 16 C      -14.3170    -2.9230    -0.0600 C.ar  1 <1>  -0.1430 
 17 C      -12.6690    -2.9870     1.8650 C.3   1 <1>  -0.0970 
 18 C      -13.6930    -2.0860    -2.2260 C.ar  1 <1>  -0.1500 
 19 C      -14.6380    -2.6240    -1.3750 C.ar  1 <1>  -0.1500 
 20 C      -15.4010    -3.5250     0.8260 C.3   1 <1>  -0.0970 
 21 H       -0.9960     1.5950    -1.5300 H     1 <1>   0.0800 
 22 H       -1.6190     1.7790     0.0920 H     1 <1>   0.0800 
 23 H       -1.7840    -0.2610     1.4370 H     1 <1>   0.0800 
 24 H       -1.2660    -1.7440     0.6720 H     1 <1>   0.0800 
 25 H       -2.9900     0.4490    -2.2730 H     1 <1>   0.0800 
 26 H       -3.4900     1.9360    -1.5160 H     1 <1>   0.0800 
 27 H       -3.7730    -1.5840     0.8070 H     1 <1>   0.0800 
 28 H       -3.1690    -1.7560    -0.8180 H     1 <1>   0.0800 
 29 H       -4.0450     0.7640     0.4640 H     1 <1>   0.4500 
 30 H       -5.1620    -0.7480    -1.8240 H     1 <1>   0.0800 
 31 H       -5.6680     0.8600    -1.3700 H     1 <1>   0.0800 
 32 H       -6.4360     0.0160     0.8250 H     1 <1>   0.0800 
 33 H       -5.9790    -1.6260     0.3380 H     1 <1>   0.0800 
 34 H       -8.7060    -0.6380     0.9220 H     1 <1>   0.0800 
 35 H       -8.2510    -2.2800     0.4450 H     1 <1>   0.0800 
 36 H       -9.6240    -2.0690    -1.5940 H     1 <1>   0.0800 
 37 H      -10.0830    -0.4250    -1.1110 H     1 <1>   0.0800 
 38 H      -11.7020    -1.4280    -2.4560 H     1 <1>   0.1500 
 39 H      -11.8080    -2.4350     2.1910 H     1 <1>   0.0800 
 40 H      -12.4580    -4.0360     1.9630 H     1 <1>   0.0800 
 41 H      -13.4750    -2.7290     2.5250 H     1 <1>   0.0800 
 42 H      -13.9550    -1.8580    -3.2440 H     1 <1>   0.1500 
 43 H      -15.6300    -2.8100    -1.7470 H     1 <1>   0.1500 
 44 H      -15.0320    -4.4090     1.3140 H     1 <1>   0.0800 
 45 H      -16.2640    -3.8000     0.2480 H     1 <1>   0.0800 
 46 H      -15.7040    -2.8110     1.5690 H     1 <1>   0.0800 
@<TRIPOS>BOND
  1   1   2  1   
  2   1   3  1   
  3   2   4  1   
  4   2  21  1   
  5   2  22  1   
  6   3   5  1   
  7   3  23  1   
  8   3  24  1   
  9   4   6  1   
 10   4  25  1   
 11   4  26  1   
 12   5   6  1   
 13   5  27  1   
 14   5  28  1   
 15   6   7  1   
 16   6  29  1   
 17   7   8  1   
 18   7  30  1   
 19   7  31  1   
 20   8   9  1   
 21   8  32  1   
 22   8  33  1   
 23   9  10  1   
 24  10  11  1   
 25  10  34  1   
 26  10  35  1   
 27  11  12  1   
 28  11  36  1   
 29  11  37  1   
 30  12  13  1   
 31  13  14  ar  
 32  13  15  ar  
 33  14  16  ar  
 34  14  17  1   
 35  15  18  ar  
 36  15  38  1   
 37  16  19  ar  
 38  16  20  1   
 39  17  39  1   
 40  17  40  1   
 41  17  41  1   
 42  18  19  ar  
 43  18  42  1   
 44  19  43  1   
 45  20  44  1   
 46  20  45  1   
 47  20  46  1   
@<TRIPOS>SUBSTRUCTURE
  1 ****  10 GROUP 4 **** **** 0

# MOE 2024.06 (io_trps.svl 2023.06)
