@<TRIPOS>MOLECULE
NONAME
44 45 1 0 0 
SMALL
USER_CHARGES


@<TRIPOS>ATOM
  1 S       -1.0060    -0.2070    -0.5080 S.3   1 <1>  -0.2860 
  2 C        0.7760    -0.3190    -0.7160 C.2   1 <1>   0.2420 
  3 C       -1.6480    -0.7560    -2.1670 C.3   1 <1>   0.1310 
  4 N        1.3230    -0.6490    -1.8310 N.2   1 <1>  -0.3380 
  5 N        1.6500    -0.0610     0.2610 N.pl3 1 <1>   0.0480 
  6 C       -3.1630    -0.6510    -2.2400 C.2   1 <1>   0.5690 
  7 N        2.6370    -0.6110    -1.6130 N.2   1 <1>  -0.3380 
  8 C        2.8190    -0.2630    -0.3820 C.2   1 <1>   0.0060 
  9 C        1.3220     0.3560     1.6560 C.3   1 <1>   0.1760 
 10 O       -3.7440    -1.4110    -2.9750 O.2   1 <1>  -0.5700 
 11 N       -3.7930     0.2880    -1.4800 N.am  1 <1>  -0.7300 
 12 C        4.2070    -0.1160     0.2140 C.3   1 <1>  -0.0600 
 13 C        1.5950     1.8520     1.8510 C.3   1 <1>  -0.2400 
 14 C        2.0550    -0.4890     2.7050 C.3   1 <1>  -0.2400 
 15 C       -5.2310     0.5690    -1.2850 C.3   1 <1>   0.3640 
 16 C       -5.7310    -0.1780    -0.0540 C.ar  1 <1>  -0.1430 
 17 C       -6.0880     0.2790    -2.5170 C.3   1 <1>  -0.2400 
 18 C       -5.6480    -1.5620     0.0230 C.ar  1 <1>  -0.1500 
 19 C       -6.2780     0.5220     1.0130 C.ar  1 <1>  -0.1500 
 20 C       -6.1020    -2.2350     1.1430 C.ar  1 <1>  -0.1500 
 21 C       -6.7340    -0.1500     2.1350 C.ar  1 <1>  -0.1500 
 22 C       -6.6460    -1.5290     2.2010 C.ar  1 <1>  -0.1500 
 23 H       -1.3330    -1.7730    -2.3070 H     1 <1>   0.0800 
 24 H       -1.1930    -0.1290    -2.9110 H     1 <1>   0.0800 
 25 H        0.2690     0.1950     1.8060 H     1 <1>   0.0800 
 26 H       -3.2130     0.7490    -0.7770 H     1 <1>   0.3700 
 27 H        4.4050    -0.9250     0.8920 H     1 <1>   0.0800 
 28 H        4.3060     0.8210     0.7270 H     1 <1>   0.0800 
 29 H        4.9410    -0.1490    -0.5720 H     1 <1>   0.0800 
 30 H        2.6420     2.0730     1.7530 H     1 <1>   0.0800 
 31 H        1.2770     2.1560     2.8320 H     1 <1>   0.0800 
 32 H        1.0440     2.4260     1.1270 H     1 <1>   0.0800 
 33 H        3.1020    -0.2570     2.7370 H     1 <1>   0.0800 
 34 H        1.9230    -1.5370     2.4980 H     1 <1>   0.0800 
 35 H        1.6450    -0.2870     3.6780 H     1 <1>   0.0800 
 36 H       -5.3150     1.6250    -1.0940 H     1 <1>   0.0800 
 37 H       -6.1580    -0.7780    -2.6980 H     1 <1>   0.0800 
 38 H       -5.6740     0.7640    -3.3820 H     1 <1>   0.0800 
 39 H       -7.0830     0.6500    -2.3550 H     1 <1>   0.0800 
 40 H       -5.2270    -2.1210    -0.7970 H     1 <1>   0.1500 
 41 H       -6.3560     1.5940     0.9790 H     1 <1>   0.1500 
 42 H       -6.0320    -3.3080     1.1890 H     1 <1>   0.1500 
 43 H       -7.1580     0.4000     2.9570 H     1 <1>   0.1500 
 44 H       -7.0000    -2.0510     3.0720 H     1 <1>   0.1500 
@<TRIPOS>BOND
  1   1   2  1   
  2   1   3  1   
  3   2   4  2   
  4   2   5  1   
  5   3   6  1   
  6   3  23  1   
  7   3  24  1   
  8   4   7  1   
  9   5   8  1   
 10   5   9  1   
 11   6  10  2   
 12   6  11  am  
 13   7   8  2   
 14   8  12  1   
 15   9  13  1   
 16   9  14  1   
 17   9  25  1   
 18  11  15  1   
 19  11  26  1   
 20  12  27  1   
 21  12  28  1   
 22  12  29  1   
 23  13  30  1   
 24  13  31  1   
 25  13  32  1   
 26  14  33  1   
 27  14  34  1   
 28  14  35  1   
 29  15  16  1   
 30  15  17  1   
 31  15  36  1   
 32  16  18  ar  
 33  16  19  ar  
 34  17  37  1   
 35  17  38  1   
 36  17  39  1   
 37  18  20  ar  
 38  18  40  1   
 39  19  21  ar  
 40  19  41  1   
 41  20  22  ar  
 42  20  42  1   
 43  21  22  ar  
 44  21  43  1   
 45  22  44  1   
@<TRIPOS>SUBSTRUCTURE
  1 ****   1 GROUP 4 **** **** 0

# MOE 2024.06 (io_trps.svl 2023.06)
