@<TRIPOS>MOLECULE
NONAME
40 43 1 0 0 
SMALL
USER_CHARGES


@<TRIPOS>ATOM
  1 O        0.1170    -0.4080    -1.3990 O.2   1 <1>  -0.5700 
  2 C        0.0140    -1.3330    -0.6000 C.2   1 <1>   0.8660 
  3 N       -1.2010    -1.8890    -0.3800 N.2   1 <1>  -0.6610 
  4 C        1.1630    -1.8020     0.0780 C.2   1 <1>  -0.2370 
  5 C       -1.2690    -2.8720     0.4730 C.2   1 <1>   0.5500 
  6 N        2.4770    -1.4710     0.0890 N.pl3 1 <1>   0.0480 
  7 C        1.0360    -2.8110     0.9510 C.2   1 <1>   0.3100 
  8 N       -0.1970    -3.3470     1.1490 N.pl3 1 <1>  -0.5330 
  9 N       -2.4640    -3.4740     0.7210 N.pl3 1 <1>  -0.7880 
 10 C        3.0300    -2.3270     0.9860 C.2   1 <1>   0.0360 
 11 C        3.1050    -0.4000    -0.7200 C.3   1 <1>   0.2390 
 12 N        2.1870    -3.1550     1.5300 N.2   1 <1>  -0.5650 
 13 C       -2.6180    -4.9590     0.8040 C.3   1 <1>   0.2090 
 14 C       -3.7630    -2.7800     0.4530 C.3   1 <1>   0.2090 
 15 C        4.5990    -0.3000    -0.4470 C.ar  1 <1>  -0.1430 
 16 C       -3.4180    -5.4880    -0.4010 C.3   1 <1>   0.1200 
 17 C       -4.4870    -3.4290    -0.7380 C.3   1 <1>   0.1200 
 18 C        5.0720     0.5240     0.5630 C.ar  1 <1>  -0.1500 
 19 C        5.4990    -1.0390    -1.2010 C.ar  1 <1>  -0.1500 
 20 O       -4.6360    -4.8090    -0.5360 O.3   1 <1>  -0.5600 
 21 C        6.4290     0.6080     0.8170 C.ar  1 <1>  -0.1500 
 22 C        6.8570    -0.9550    -0.9470 C.ar  1 <1>  -0.1500 
 23 C        7.3230    -0.1310     0.0620 C.ar  1 <1>  -0.1500 
 24 H       -0.3170    -4.0290     1.8890 H     1 <1>   0.4000 
 25 H        4.0830    -2.3070     1.2160 H     1 <1>   0.1500 
 26 H        2.6240     0.5330    -0.4850 H     1 <1>   0.0800 
 27 H        2.9330    -0.6100    -1.7600 H     1 <1>   0.0800 
 28 H       -3.1360    -5.2130     1.7120 H     1 <1>   0.0800 
 29 H       -1.6570    -5.4410     0.8190 H     1 <1>   0.0800 
 30 H       -3.6050    -1.7350     0.2520 H     1 <1>   0.0800 
 31 H       -4.3880    -2.8510     1.3260 H     1 <1>   0.0800 
 32 H       -3.6380    -6.5330    -0.2710 H     1 <1>   0.0800 
 33 H       -2.8530    -5.3640    -1.3090 H     1 <1>   0.0800 
 34 H       -3.9300    -3.2670    -1.6450 H     1 <1>   0.0800 
 35 H       -5.4680    -3.0040    -0.8530 H     1 <1>   0.0800 
 36 H        4.3870     1.1020     1.1600 H     1 <1>   0.1500 
 37 H        5.1490    -1.6860    -1.9870 H     1 <1>   0.1500 
 38 H        6.7920     1.2490     1.6030 H     1 <1>   0.1500 
 39 H        7.5510    -1.5310    -1.5340 H     1 <1>   0.1500 
 40 H        8.3790    -0.0650     0.2600 H     1 <1>   0.1500 
@<TRIPOS>BOND
  1   1   2  2   
  2   2   3  1   
  3   2   4  1   
  4   3   5  2   
  5   4   6  1   
  6   4   7  2   
  7   5   8  1   
  8   5   9  1   
  9   6  10  1   
 10   6  11  1   
 11   7   8  1   
 12   7  12  1   
 13   8  24  1   
 14   9  13  1   
 15   9  14  1   
 16  10  12  2   
 17  10  25  1   
 18  11  15  1   
 19  11  26  1   
 20  11  27  1   
 21  13  16  1   
 22  13  28  1   
 23  13  29  1   
 24  14  17  1   
 25  14  30  1   
 26  14  31  1   
 27  15  18  ar  
 28  15  19  ar  
 29  16  20  1   
 30  16  32  1   
 31  16  33  1   
 32  17  20  1   
 33  17  34  1   
 34  17  35  1   
 35  18  21  ar  
 36  18  36  1   
 37  19  22  ar  
 38  19  37  1   
 39  21  23  ar  
 40  21  38  1   
 41  22  23  ar  
 42  22  39  1   
 43  23  40  1   
@<TRIPOS>SUBSTRUCTURE
  1 ****   4 GROUP 4 **** **** 0

# MOE 2024.06 (io_trps.svl 2023.06)
