@<TRIPOS>MOLECULE
NONAME
32 32 1 0 0 
SMALL
USER_CHARGES


@<TRIPOS>ATOM
  1 CL       0.3760     0.0620    -0.8970 Cl    1 <1>  -0.1770 
  2 C        0.2030     1.7370    -0.4500 C.ar  1 <1>   0.1770 
  3 C       -0.7930     2.4980    -1.0290 C.ar  1 <1>  -0.1500 
  4 C        1.0620     2.2880     0.4790 C.ar  1 <1>  -0.1500 
  5 C       -0.9290     3.8280    -0.6720 C.ar  1 <1>  -0.1500 
  6 C        0.9170     3.6190     0.8270 C.ar  1 <1>  -0.1500 
  7 C       -0.0770     4.4300     0.2660 C.ar  1 <1>   0.0860 
  8 C       -0.1870     5.8230     0.6650 C.2   1 <1>   0.4230 
  9 O        0.5140     6.3000     1.5220 O.2   1 <1>  -0.5700 
 10 C       -1.2220     6.7270    -0.0100 C.3   1 <1>  -0.0990 
 11 C       -1.2160     8.2140     0.4070 C.3   1 <1>  -0.1600 
 12 C        0.0560     8.9720    -0.0270 C.3   1 <1>  -0.0990 
 13 C        0.0200    10.4690     0.2840 C.2   1 <1>   0.6590 
 14 O       -0.9990    11.0130     0.6120 O.2   1 <1>  -0.5700 
 15 O        1.1350    11.1840     0.1570 O.3   1 <1>  -0.4300 
 16 C        2.4080    10.6690    -0.1540 C.3   1 <1>   0.1200 
 17 C        3.3750    11.8440    -0.2530 C.3   1 <1>  -0.2400 
 18 H       -1.4520     2.0450    -1.7490 H     1 <1>   0.1500 
 19 H        1.8320     1.6810     0.9210 H     1 <1>   0.1500 
 20 H       -1.7170     4.3930    -1.1370 H     1 <1>   0.1500 
 21 H        1.5890     4.0440     1.5550 H     1 <1>   0.1500 
 22 H       -2.1950     6.3300     0.2170 H     1 <1>   0.0800 
 23 H       -1.0860     6.6730    -1.0750 H     1 <1>   0.0800 
 24 H       -1.3250     8.2870     1.4770 H     1 <1>   0.0800 
 25 H       -2.0730     8.6940    -0.0360 H     1 <1>   0.0800 
 26 H        0.1950     8.8590    -1.0860 H     1 <1>   0.0800 
 27 H        0.9010     8.5420     0.4740 H     1 <1>   0.0800 
 28 H        2.3520    10.1450    -1.0930 H     1 <1>   0.0800 
 29 H        2.7090     9.9960     0.6320 H     1 <1>   0.0800 
 30 H        3.0600    12.5190    -1.0280 H     1 <1>   0.0800 
 31 H        4.3610    11.4860    -0.4880 H     1 <1>   0.0800 
 32 H        3.4150    12.3690     0.6850 H     1 <1>   0.0800 
@<TRIPOS>BOND
  1   1   2  1   
  2   2   3  ar  
  3   2   4  ar  
  4   3   5  ar  
  5   3  18  1   
  6   4   6  ar  
  7   4  19  1   
  8   5   7  ar  
  9   5  20  1   
 10   6   7  ar  
 11   6  21  1   
 12   7   8  1   
 13   8   9  2   
 14   8  10  1   
 15  10  11  1   
 16  10  22  1   
 17  10  23  1   
 18  11  12  1   
 19  11  24  1   
 20  11  25  1   
 21  12  13  1   
 22  12  26  1   
 23  12  27  1   
 24  13  14  2   
 25  13  15  1   
 26  15  16  1   
 27  16  17  1   
 28  16  28  1   
 29  16  29  1   
 30  17  30  1   
 31  17  31  1   
 32  17  32  1   
@<TRIPOS>SUBSTRUCTURE
  1 ****   8 GROUP 4 **** **** 0

# MOE 2024.06 (io_trps.svl 2023.06)
