@<TRIPOS>MOLECULE
NONAME
47 48 1 0 0 
SMALL
USER_CHARGES


@<TRIPOS>ATOM
  1 O       -7.4240     5.8780    -0.0920 O.3   1 <1>  -0.3630 
  2 C       -8.1710     4.7440    -0.0030 C.ar  1 <1>   0.0820 
  3 C       -6.0260     5.8610     0.0240 C.3   1 <1>   0.1200 
  4 C       -9.5580     4.8570    -0.1230 C.ar  1 <1>  -0.1440 
  5 C       -7.5920     3.4920     0.2040 C.ar  1 <1>  -0.1500 
  6 C       -5.5510     7.3070    -0.1230 C.3   1 <1>   0.3430 
  7 C      -10.3290     3.7070    -0.0320 C.ar  1 <1>  -0.1500 
  8 C      -10.2520     6.2070    -0.3510 C.3   1 <1>   0.0630 
  9 C       -8.3750     2.3550     0.2900 C.ar  1 <1>  -0.1440 
 10 N       -4.0670     7.4150    -0.0150 N.4   1 <1>  -0.9060 
 11 C       -9.7480     2.4700     0.1720 C.ar  1 <1>  -0.1500 
 12 C      -11.1960     6.5410     0.8090 C.3   1 <1>  -0.2400 
 13 C      -11.0090     6.2160    -1.6840 C.3   1 <1>  -0.2400 
 14 C       -7.7440     0.9930     0.5160 C.3   1 <1>  -0.0970 
 15 C       -3.5730     8.8000    -0.1510 C.3   1 <1>   0.4860 
 16 C       -2.0720     8.7210    -0.0180 C.ar  1 <1>  -0.1430 
 17 C       -1.4750     8.8300     1.2310 C.ar  1 <1>  -0.1500 
 18 C       -1.2800     8.5280    -1.1410 C.ar  1 <1>  -0.1500 
 19 C       -0.1000     8.7350     1.3540 C.ar  1 <1>  -0.1500 
 20 C        0.0950     8.4330    -1.0140 C.ar  1 <1>  -0.1500 
 21 C        0.6840     8.5340     0.2330 C.ar  1 <1>  -0.1500 
 22 H       -5.6340     5.2410    -0.7630 H     1 <1>   0.0800 
 23 H       -5.7770     5.4660     0.9940 H     1 <1>   0.0800 
 24 H       -6.5320     3.3740     0.3010 H     1 <1>   0.1500 
 25 H       -6.0160     7.9000     0.6490 H     1 <1>   0.0800 
 26 H       -5.8740     7.6780    -1.0820 H     1 <1>   0.0800 
 27 H      -11.3990     3.7650    -0.1200 H     1 <1>   0.1500 
 28 H       -9.5220     6.9940    -0.3990 H     1 <1>   0.0800 
 29 H       -3.5950     6.8520    -0.7330 H     1 <1>   0.4500 
 30 H       -3.7290     7.0590     0.8880 H     1 <1>   0.4500 
 31 H      -10.3730     1.5960     0.2400 H     1 <1>   0.1500 
 32 H      -12.0010     5.8310     0.8680 H     1 <1>   0.0800 
 33 H      -11.6150     7.5220     0.6780 H     1 <1>   0.0800 
 34 H      -10.6540     6.5210     1.7380 H     1 <1>   0.0800 
 35 H      -11.8100     5.5000    -1.6780 H     1 <1>   0.0800 
 36 H      -10.3370     5.9700    -2.4870 H     1 <1>   0.0800 
 37 H      -11.4240     7.1900    -1.8710 H     1 <1>   0.0800 
 38 H       -7.6880     0.7880     1.5700 H     1 <1>   0.0800 
 39 H       -6.7520     0.9600     0.1010 H     1 <1>   0.0800 
 40 H       -8.3310     0.2250     0.0450 H     1 <1>   0.0800 
 41 H       -3.9810     9.4300     0.6230 H     1 <1>   0.0800 
 42 H       -3.8390     9.2080    -1.1140 H     1 <1>   0.0800 
 43 H       -2.0610     8.9930     2.1200 H     1 <1>   0.1500 
 44 H       -1.7110     8.4520    -2.1250 H     1 <1>   0.1500 
 45 H        0.3660     8.8200     2.3220 H     1 <1>   0.1500 
 46 H        0.7120     8.2840    -1.8840 H     1 <1>   0.1500 
 47 H        1.7550     8.4620     0.3310 H     1 <1>   0.1500 
@<TRIPOS>BOND
  1   1   2  1   
  2   1   3  1   
  3   2   4  ar  
  4   2   5  ar  
  5   3   6  1   
  6   3  22  1   
  7   3  23  1   
  8   4   7  ar  
  9   4   8  1   
 10   5   9  ar  
 11   5  24  1   
 12   6  10  1   
 13   6  25  1   
 14   6  26  1   
 15   7  11  ar  
 16   7  27  1   
 17   8  12  1   
 18   8  13  1   
 19   8  28  1   
 20   9  11  ar  
 21   9  14  1   
 22  10  15  1   
 23  10  29  1   
 24  10  30  1   
 25  11  31  1   
 26  12  32  1   
 27  12  33  1   
 28  12  34  1   
 29  13  35  1   
 30  13  36  1   
 31  13  37  1   
 32  14  38  1   
 33  14  39  1   
 34  14  40  1   
 35  15  16  1   
 36  15  41  1   
 37  15  42  1   
 38  16  17  ar  
 39  16  18  ar  
 40  17  19  ar  
 41  17  43  1   
 42  18  20  ar  
 43  18  44  1   
 44  19  21  ar  
 45  19  45  1   
 46  20  21  ar  
 47  20  46  1   
 48  21  47  1   
@<TRIPOS>SUBSTRUCTURE
  1 ****   3 GROUP 4 **** **** 0

# MOE 2024.06 (io_trps.svl 2023.06)
