@<TRIPOS>MOLECULE
NONAME
37 38 1 0 0 
SMALL
USER_CHARGES


@<TRIPOS>ATOM
  1 F       -2.8000     1.6600     1.5910 F     1 <1>  -0.1900 
  2 C       -1.8200     2.3420     1.0580 C.ar  1 <1>   0.1900 
  3 C       -1.7590     2.4590    -0.3220 C.ar  1 <1>  -0.1440 
  4 C       -0.8920     2.9260     1.8980 C.ar  1 <1>  -0.1500 
  5 C       -0.7150     3.1920    -0.8690 C.ar  1 <1>  -0.1500 
  6 C       -2.8080     1.8010    -1.1940 C.3   1 <1>   0.4870 
  7 C        0.1390     3.6580     1.3360 C.ar  1 <1>  -0.1500 
  8 C        0.2250     3.7880    -0.0420 C.ar  1 <1>  -0.1500 
  9 N       -4.1150     2.4750    -0.9730 N.4   1 <1>  -0.9590 
 10 C       -5.2540     1.7300    -1.5500 C.3   1 <1>   0.3430 
 11 C       -4.1230     3.9030    -1.3570 C.3   1 <1>   0.3430 
 12 C       -5.9730     1.0050    -0.4160 C.3   1 <1>  -0.1600 
 13 C       -4.6800     4.7230    -0.1930 C.3   1 <1>  -0.1600 
 14 C       -6.8980     1.9000     0.4290 C.3   1 <1>  -0.1600 
 15 C       -6.1160     4.3700     0.2440 C.3   1 <1>  -0.1600 
 16 C       -6.2530     3.1120     1.1300 C.3   1 <1>  -0.1600 
 17 H       -0.9740     2.8120     2.9650 H     1 <1>   0.1500 
 18 H       -0.6160     3.3080    -1.9360 H     1 <1>   0.1500 
 19 H       -2.8830     0.7590    -0.9240 H     1 <1>   0.0800 
 20 H       -2.5240     1.8670    -2.2310 H     1 <1>   0.0800 
 21 H        0.8770     4.1240     1.9690 H     1 <1>   0.1500 
 22 H        1.0350     4.3560    -0.4700 H     1 <1>   0.1500 
 23 H       -4.2680     2.4700     0.0470 H     1 <1>   0.4500 
 24 H       -4.9020     1.0190    -2.2800 H     1 <1>   0.0800 
 25 H       -5.9450     2.4030    -2.0340 H     1 <1>   0.0800 
 26 H       -4.7260     4.0540    -2.2380 H     1 <1>   0.0800 
 27 H       -3.1220     4.2400    -1.5710 H     1 <1>   0.0800 
 28 H       -5.2620     0.5000     0.2160 H     1 <1>   0.0800 
 29 H       -6.5880     0.2400    -0.8590 H     1 <1>   0.0800 
 30 H       -4.6790     5.7520    -0.5090 H     1 <1>   0.0800 
 31 H       -4.0100     4.6650     0.6480 H     1 <1>   0.0800 
 32 H       -7.3240     1.2740     1.1970 H     1 <1>   0.0800 
 33 H       -7.7260     2.2360    -0.1740 H     1 <1>   0.0800 
 34 H       -6.7660     4.3150    -0.6120 H     1 <1>   0.0800 
 35 H       -6.4700     5.2030     0.8310 H     1 <1>   0.0800 
 36 H       -5.3220     2.8430     1.5990 H     1 <1>   0.0800 
 37 H       -6.9160     3.3780     1.9370 H     1 <1>   0.0800 
@<TRIPOS>BOND
  1   1   2  1   
  2   2   3  ar  
  3   2   4  ar  
  4   3   5  ar  
  5   3   6  1   
  6   4   7  ar  
  7   4  17  1   
  8   5   8  ar  
  9   5  18  1   
 10   6   9  1   
 11   6  19  1   
 12   6  20  1   
 13   7   8  ar  
 14   7  21  1   
 15   8  22  1   
 16   9  10  1   
 17   9  11  1   
 18   9  23  1   
 19  10  12  1   
 20  10  24  1   
 21  10  25  1   
 22  11  13  1   
 23  11  26  1   
 24  11  27  1   
 25  12  14  1   
 26  12  28  1   
 27  12  29  1   
 28  13  15  1   
 29  13  30  1   
 30  13  31  1   
 31  14  16  1   
 32  14  32  1   
 33  14  33  1   
 34  15  16  1   
 35  15  34  1   
 36  15  35  1   
 37  16  36  1   
 38  16  37  1   
@<TRIPOS>SUBSTRUCTURE
  1 ****   9 GROUP 4 **** **** 0

# MOE 2024.06 (io_trps.svl 2023.06)
