@<TRIPOS>MOLECULE
NONAME
53 55 1 0 0 
SMALL
USER_CHARGES


@<TRIPOS>ATOM
  1 F       -1.2820    -0.8590    -2.2210 F     1 <1>  -0.1900 
  2 C       -1.0630    -2.0150    -1.6560 C.ar  1 <1>   0.1900 
  3 C       -0.9500    -2.0740    -0.2810 C.ar  1 <1>  -0.1500 
  4 C       -0.9530    -3.1370    -2.4530 C.ar  1 <1>  -0.1500 
  5 C       -0.7240    -3.3030     0.3150 C.ar  1 <1>  -0.1500 
  6 C       -0.7270    -4.3620    -1.8500 C.ar  1 <1>  -0.1500 
  7 C       -0.6210    -4.4510    -0.4640 C.ar  1 <1>  -0.1430 
  8 C       -0.4010    -5.7990     0.1960 C.3   1 <1>   0.4870 
  9 N       -1.6800    -6.5720     0.1210 N.4   1 <1>  -0.9590 
 10 C       -2.7590    -5.8990     0.8970 C.3   1 <1>   0.3430 
 11 C       -1.4760    -7.9850     0.5310 C.3   1 <1>   0.3430 
 12 C       -4.0770    -6.6510     0.7120 C.3   1 <1>  -0.1600 
 13 C       -2.7750    -8.7720     0.3420 C.3   1 <1>  -0.1600 
 14 C       -3.9580    -8.1350     1.0900 C.3   1 <1>   0.4230 
 15 N       -5.2260    -8.8560     0.7560 N.4   1 <1>  -0.9590 
 16 C       -6.4910    -8.2880     1.3530 C.3   1 <1>   0.3430 
 17 C       -5.2260   -10.3450     1.0100 C.3   1 <1>   0.3430 
 18 C       -7.7420    -8.9480     0.7210 C.3   1 <1>   0.1100 
 19 C       -6.5000   -11.0070     0.4270 C.3   1 <1>   0.1100 
 20 N       -7.3810   -10.0200    -0.2420 N.3   1 <1>  -0.8100 
 21 C       -8.5780   -10.6930    -0.7960 C.3   1 <1>   0.1100 
 22 C       -9.3300    -9.8010    -1.7930 C.3   1 <1>   0.1200 
 23 O      -10.4170   -10.4990    -2.2940 O.3   1 <1>  -0.6800 
 24 H       -1.0330    -1.1720     0.3010 H     1 <1>   0.1500 
 25 H       -1.0390    -3.0420    -3.5220 H     1 <1>   0.1500 
 26 H       -0.6260    -3.3440     1.3880 H     1 <1>   0.1500 
 27 H       -0.6290    -5.2320    -2.4770 H     1 <1>   0.1500 
 28 H       -0.0990    -5.6640     1.2220 H     1 <1>   0.0800 
 29 H        0.3840    -6.3230    -0.3260 H     1 <1>   0.0800 
 30 H       -1.9430    -6.5360    -0.8740 H     1 <1>   0.4500 
 31 H       -2.8800    -4.8820     0.5570 H     1 <1>   0.0800 
 32 H       -2.4950    -5.8710     1.9430 H     1 <1>   0.0800 
 33 H       -1.1720    -8.0250     1.5660 H     1 <1>   0.0800 
 34 H       -0.6950    -8.4330    -0.0650 H     1 <1>   0.0800 
 35 H       -4.3930    -6.5470    -0.3110 H     1 <1>   0.0800 
 36 H       -4.8030    -6.1660     1.3390 H     1 <1>   0.0800 
 37 H       -2.5950    -9.7650     0.7120 H     1 <1>   0.0800 
 38 H       -2.9890    -8.8380    -0.7100 H     1 <1>   0.0800 
 39 H       -3.7800    -8.2100     2.1510 H     1 <1>   0.0800 
 40 H       -5.4210    -8.8060    -0.2590 H     1 <1>   0.4500 
 41 H       -6.5520    -7.2280     1.1790 H     1 <1>   0.0800 
 42 H       -6.5040    -8.4480     2.4190 H     1 <1>   0.0800 
 43 H       -5.1740   -10.5440     2.0680 H     1 <1>   0.0800 
 44 H       -4.3720   -10.8070     0.5460 H     1 <1>   0.0800 
 45 H       -8.3110    -8.1850     0.2180 H     1 <1>   0.0800 
 46 H       -8.3660    -9.3480     1.5040 H     1 <1>   0.0800 
 47 H       -7.0370   -11.5040     1.2190 H     1 <1>   0.0800 
 48 H       -6.2040   -11.7620    -0.2820 H     1 <1>   0.0800 
 49 H       -9.2440   -10.9800     0.0010 H     1 <1>   0.0800 
 50 H       -8.2700   -11.5820    -1.3200 H     1 <1>   0.0800 
 51 H       -8.6990    -9.5190    -2.6170 H     1 <1>   0.0800 
 52 H       -9.7160    -8.9210    -1.3100 H     1 <1>   0.0800 
 53 H      -10.1320   -11.1970    -2.9170 H     1 <1>   0.4000 
@<TRIPOS>BOND
  1   1   2  1   
  2   2   3  ar  
  3   2   4  ar  
  4   3   5  ar  
  5   3  24  1   
  6   4   6  ar  
  7   4  25  1   
  8   5   7  ar  
  9   5  26  1   
 10   6   7  ar  
 11   6  27  1   
 12   7   8  1   
 13   8   9  1   
 14   8  28  1   
 15   8  29  1   
 16   9  10  1   
 17   9  11  1   
 18   9  30  1   
 19  10  12  1   
 20  10  31  1   
 21  10  32  1   
 22  11  13  1   
 23  11  33  1   
 24  11  34  1   
 25  12  14  1   
 26  12  35  1   
 27  12  36  1   
 28  13  14  1   
 29  13  37  1   
 30  13  38  1   
 31  14  15  1   
 32  14  39  1   
 33  15  16  1   
 34  15  17  1   
 35  15  40  1   
 36  16  18  1   
 37  16  41  1   
 38  16  42  1   
 39  17  19  1   
 40  17  43  1   
 41  17  44  1   
 42  18  20  1   
 43  18  45  1   
 44  18  46  1   
 45  19  20  1   
 46  19  47  1   
 47  19  48  1   
 48  20  21  1   
 49  21  22  1   
 50  21  49  1   
 51  21  50  1   
 52  22  23  1   
 53  22  51  1   
 54  22  52  1   
 55  23  53  1   
@<TRIPOS>SUBSTRUCTURE
  1 ****  12 GROUP 4 **** **** 0

# MOE 2024.06 (io_trps.svl 2023.06)
