@<TRIPOS>MOLECULE
NONAME
43 45 1 0 0 
SMALL
USER_CHARGES


@<TRIPOS>ATOM
  1 O       -2.1020     0.1630    -0.1590 O.2   1 <1>  -0.5700 
  2 C       -2.3080     1.3380     0.0930 C.2   1 <1>   0.7150 
  3 N       -3.2860     2.0000    -0.6260 N.am  1 <1>  -0.6600 
  4 C       -1.5320     2.0150     1.1120 C.2   1 <1>   0.0550 
  5 C       -3.8720     1.4170    -1.8750 C.3   1 <1>   0.1400 
  6 C       -4.0470     3.1720    -0.0920 C.3   1 <1>   0.1400 
  7 O       -1.2120     1.4060     2.2510 O.3   1 <1>  -0.2800 
  8 C       -1.0090     3.2740     1.1420 C.2   1 <1>  -0.1500 
  9 C       -5.3530     1.0710    -1.6750 C.3   1 <1>   0.1400 
 10 C       -5.5430     2.8480     0.0690 C.3   1 <1>   0.1400 
 11 C       -0.5100     2.2310     2.9940 C.2   1 <1>  -0.0100 
 12 C       -0.3480     3.4120     2.3630 C.2   1 <1>  -0.1500 
 13 N       -6.1140     2.2630    -1.1850 N.am  1 <1>  -0.6600 
 14 C       -7.2530     2.6930    -1.8240 C.2   1 <1>   0.5690 
 15 O       -7.6460     2.1550    -2.8330 O.2   1 <1>  -0.5700 
 16 C       -8.0690     3.8770    -1.3130 C.3   1 <1>   0.0440 
 17 C       -8.6500     3.6870     0.0870 C.ar  1 <1>  -0.1440 
 18 C       -9.1790     2.4640     0.4740 C.ar  1 <1>  -0.1500 
 19 C       -8.6580     4.7420     0.9860 C.ar  1 <1>  -0.1500 
 20 C       -9.6990     2.2870     1.7450 C.ar  1 <1>  -0.1440 
 21 C       -9.1790     4.5730     2.2570 C.ar  1 <1>  -0.1500 
 22 C       -9.6980     3.3480     2.6360 C.ar  1 <1>  -0.1500 
 23 C      -10.2700     0.9390     2.1460 C.3   1 <1>  -0.0970 
 24 H       -3.3380     0.5310    -2.1710 H     1 <1>   0.0800 
 25 H       -3.7830     2.1320    -2.6740 H     1 <1>   0.0800 
 26 H       -3.9370     4.0000    -0.7710 H     1 <1>   0.0800 
 27 H       -3.6620     3.4730     0.8650 H     1 <1>   0.0800 
 28 H       -1.0710     4.0290     0.3790 H     1 <1>   0.1500 
 29 H       -5.4370     0.2750    -0.9550 H     1 <1>   0.0800 
 30 H       -5.7580     0.7150    -2.6060 H     1 <1>   0.0800 
 31 H       -6.0590     3.7470     0.3480 H     1 <1>   0.0800 
 32 H       -5.6680     2.1390     0.8700 H     1 <1>   0.0800 
 33 H       -0.1630     1.8980     3.9570 H     1 <1>   0.1500 
 34 H        0.1770     4.2870     2.7040 H     1 <1>   0.1500 
 35 H       -8.8830     4.0470    -1.9930 H     1 <1>   0.0800 
 36 H       -7.4430     4.7490    -1.3420 H     1 <1>   0.0800 
 37 H       -9.1880     1.6400    -0.2190 H     1 <1>   0.1500 
 38 H       -8.2630     5.7030     0.7050 H     1 <1>   0.1500 
 39 H       -9.1850     5.3950     2.9510 H     1 <1>   0.1500 
 40 H      -10.1030     3.2260     3.6250 H     1 <1>   0.1500 
 41 H      -11.2370     0.8060     1.6950 H     1 <1>   0.0800 
 42 H      -10.3740     0.8700     3.2140 H     1 <1>   0.0800 
 43 H       -9.6200     0.1500     1.8150 H     1 <1>   0.0800 
@<TRIPOS>BOND
  1   1   2  2   
  2   2   3  am  
  3   2   4  1   
  4   3   5  1   
  5   3   6  1   
  6   4   7  1   
  7   4   8  2   
  8   5   9  1   
  9   5  24  1   
 10   5  25  1   
 11   6  10  1   
 12   6  26  1   
 13   6  27  1   
 14   7  11  1   
 15   8  12  1   
 16   8  28  1   
 17   9  13  1   
 18   9  29  1   
 19   9  30  1   
 20  10  13  1   
 21  10  31  1   
 22  10  32  1   
 23  11  12  2   
 24  11  33  1   
 25  12  34  1   
 26  13  14  am  
 27  14  15  2   
 28  14  16  1   
 29  16  17  1   
 30  16  35  1   
 31  16  36  1   
 32  17  18  ar  
 33  17  19  ar  
 34  18  20  ar  
 35  18  37  1   
 36  19  21  ar  
 37  19  38  1   
 38  20  22  ar  
 39  20  23  1   
 40  21  22  ar  
 41  21  39  1   
 42  22  40  1   
 43  23  41  1   
 44  23  42  1   
 45  23  43  1   
@<TRIPOS>SUBSTRUCTURE
  1 ****  10 GROUP 4 **** **** 0

# MOE 2024.06 (io_trps.svl 2023.06)
