@<TRIPOS>MOLECULE
NONAME
41 42 1 0 0 
SMALL
USER_CHARGES


@<TRIPOS>ATOM
  1 O      -11.3560     3.0650     0.4070 O.3   1 <1>  -0.3630 
  2 C      -10.4330     2.2380    -0.1370 C.ar  1 <1>   0.0830 
  3 C      -12.6580     2.6170     0.7070 C.3   1 <1>   0.1200 
  4 C       -9.2080     2.8030    -0.4450 C.ar  1 <1>  -0.1500 
  5 C      -10.6500     0.8870    -0.3920 C.ar  1 <1>  -0.1500 
  6 C      -13.4440     3.7960     1.2730 C.3   1 <1>  -0.2400 
  7 C       -8.1930     2.0360    -0.9970 C.ar  1 <1>  -0.1430 
  8 C       -9.6410     0.1210    -0.9500 C.ar  1 <1>  -0.1500 
  9 C       -8.4160     0.6910    -1.2520 C.ar  1 <1>  -0.1500 
 10 C       -6.8560     2.6670    -1.3000 C.3   1 <1>   0.4860 
 11 N       -6.1020     2.6610    -0.0310 N.4   1 <1>  -0.9060 
 12 C       -4.7490     3.2350    -0.1070 C.3   1 <1>   0.4230 
 13 C       -4.0110     2.8860     1.1900 C.3   1 <1>  -0.1600 
 14 C       -4.8290     4.7560    -0.3040 C.3   1 <1>  -0.1600 
 15 C       -2.6100     3.5160     1.2180 C.3   1 <1>  -0.1600 
 16 C       -3.4320     5.3920    -0.2760 C.3   1 <1>  -0.1600 
 17 C       -2.6830     5.0340     1.0140 C.3   1 <1>  -0.1600 
 18 H      -12.5890     1.8240     1.4320 H     1 <1>   0.0800 
 19 H      -13.1140     2.2580    -0.1990 H     1 <1>   0.0800 
 20 H       -9.0780     3.8520    -0.2440 H     1 <1>   0.1500 
 21 H      -11.5900     0.4190    -0.1670 H     1 <1>   0.1500 
 22 H      -12.9740     4.1580     2.1700 H     1 <1>   0.0800 
 23 H      -14.4440     3.4860     1.5120 H     1 <1>   0.0800 
 24 H      -13.4950     4.5890     0.5490 H     1 <1>   0.0800 
 25 H       -9.8150    -0.9240    -1.1500 H     1 <1>   0.1500 
 26 H       -7.6510     0.0700    -1.6890 H     1 <1>   0.1500 
 27 H       -6.9990     3.6750    -1.6560 H     1 <1>   0.0800 
 28 H       -6.3380     2.0970    -2.0540 H     1 <1>   0.0800 
 29 H       -6.0540     1.6910     0.2970 H     1 <1>   0.4500 
 30 H       -6.6550     3.1640     0.6710 H     1 <1>   0.4500 
 31 H       -4.2100     2.8000    -0.9340 H     1 <1>   0.0800 
 32 H       -3.9080     1.8190     1.2800 H     1 <1>   0.0800 
 33 H       -4.5640     3.2510     2.0390 H     1 <1>   0.0800 
 34 H       -5.4200     5.1970     0.4810 H     1 <1>   0.0800 
 35 H       -5.2840     4.9910    -1.2500 H     1 <1>   0.0800 
 36 H       -1.9990     3.0810     0.4450 H     1 <1>   0.0800 
 37 H       -2.1370     3.3050     2.1630 H     1 <1>   0.0800 
 38 H       -3.5190     6.4640    -0.3500 H     1 <1>   0.0800 
 39 H       -2.8600     5.0540    -1.1240 H     1 <1>   0.0800 
 40 H       -1.6840     5.4390     0.9740 H     1 <1>   0.0800 
 41 H       -3.1790     5.4870     1.8560 H     1 <1>   0.0800 
@<TRIPOS>BOND
  1   1   2  1   
  2   1   3  1   
  3   2   4  ar  
  4   2   5  ar  
  5   3   6  1   
  6   3  18  1   
  7   3  19  1   
  8   4   7  ar  
  9   4  20  1   
 10   5   8  ar  
 11   5  21  1   
 12   6  22  1   
 13   6  23  1   
 14   6  24  1   
 15   7   9  ar  
 16   7  10  1   
 17   8   9  ar  
 18   8  25  1   
 19   9  26  1   
 20  10  11  1   
 21  10  27  1   
 22  10  28  1   
 23  11  12  1   
 24  11  29  1   
 25  11  30  1   
 26  12  13  1   
 27  12  14  1   
 28  12  31  1   
 29  13  15  1   
 30  13  32  1   
 31  13  33  1   
 32  14  16  1   
 33  14  34  1   
 34  14  35  1   
 35  15  17  1   
 36  15  36  1   
 37  15  37  1   
 38  16  17  1   
 39  16  38  1   
 40  16  39  1   
 41  17  40  1   
 42  17  41  1   
@<TRIPOS>SUBSTRUCTURE
  1 ****   7 GROUP 4 **** **** 0

# MOE 2024.06 (io_trps.svl 2023.06)
