@<TRIPOS>MOLECULE
NONAME
40 41 1 0 0 
SMALL
USER_CHARGES


@<TRIPOS>ATOM
  1 O       -0.5470     0.1300    -0.0700 O.3   1 <1>  -0.3630 
  2 C        0.6620     0.7460    -0.0740 C.ar  1 <1>   0.0830 
  3 C       -1.7420     0.8810    -0.0340 C.3   1 <1>   0.1200 
  4 C        0.8270     2.1270    -0.0440 C.ar  1 <1>  -0.1500 
  5 C        1.7790    -0.0730    -0.1100 C.ar  1 <1>  -0.1500 
  6 C       -2.9200    -0.0860    -0.0390 C.3   1 <1>   0.1200 
  7 C        2.0960     2.6810    -0.0510 C.ar  1 <1>   0.0830 
  8 C        3.0500     0.4740    -0.1170 C.ar  1 <1>  -0.1500 
  9 O       -4.1130     0.6670    -0.0040 O.3   1 <1>  -0.3630 
 10 O        2.1660     4.0360    -0.0200 O.3   1 <1>  -0.3630 
 11 C        3.2120     1.8490    -0.0870 C.ar  1 <1>  -0.1500 
 12 C       -5.3260     0.0600     0.0010 C.ar  1 <1>   0.0830 
 13 C        3.4040     4.7060    -0.0230 C.3   1 <1>   0.1200 
 14 C       -5.5040    -1.3210    -0.0290 C.ar  1 <1>  -0.1500 
 15 C       -6.4370     0.8860     0.0370 C.ar  1 <1>  -0.1500 
 16 C        3.1280     6.2060     0.0160 C.3   1 <1>  -0.2400 
 17 C       -6.7810    -1.8540    -0.0220 C.ar  1 <1>  -0.1500 
 18 C       -7.7120     0.3490     0.0440 C.ar  1 <1>  -0.1500 
 19 C       -7.8910    -1.0250     0.0160 C.ar  1 <1>  -0.1430 
 20 C       -9.2890    -1.6150     0.0220 C.3   1 <1>  -0.0970 
 21 H       -1.7730     1.5110    -0.9060 H     1 <1>   0.0800 
 22 H       -1.7460     1.4700     0.8660 H     1 <1>   0.0800 
 23 H       -0.0090     2.7980    -0.0160 H     1 <1>   0.1500 
 24 H        1.6460    -1.1400    -0.1330 H     1 <1>   0.1500 
 25 H       -2.8900    -0.7150     0.8330 H     1 <1>   0.0800 
 26 H       -2.9170    -0.6740    -0.9400 H     1 <1>   0.0800 
 27 H        3.9110    -0.1700    -0.1450 H     1 <1>   0.1500 
 28 H        4.2080     2.2480    -0.0930 H     1 <1>   0.1500 
 29 H        3.9340     4.4400    -0.9220 H     1 <1>   0.0800 
 30 H        3.9610     4.3990     0.8450 H     1 <1>   0.0800 
 31 H       -4.6680    -1.9920    -0.0580 H     1 <1>   0.1500 
 32 H       -6.2970     1.9510     0.0590 H     1 <1>   0.1500 
 33 H        2.5580     6.4990    -0.8470 H     1 <1>   0.0800 
 34 H        4.0570     6.7480     0.0140 H     1 <1>   0.0800 
 35 H        2.5850     6.4580     0.9090 H     1 <1>   0.0800 
 36 H       -6.9090    -2.9220    -0.0470 H     1 <1>   0.1500 
 37 H       -8.5640     1.0050     0.0700 H     1 <1>   0.1500 
 38 H       -9.2900    -2.5750     0.5050 H     1 <1>   0.0800 
 39 H       -9.6380    -1.7330    -0.9880 H     1 <1>   0.0800 
 40 H       -9.9670    -0.9700     0.5510 H     1 <1>   0.0800 
@<TRIPOS>BOND
  1   1   2  1   
  2   1   3  1   
  3   2   4  ar  
  4   2   5  ar  
  5   3   6  1   
  6   3  21  1   
  7   3  22  1   
  8   4   7  ar  
  9   4  23  1   
 10   5   8  ar  
 11   5  24  1   
 12   6   9  1   
 13   6  25  1   
 14   6  26  1   
 15   7  10  1   
 16   7  11  ar  
 17   8  11  ar  
 18   8  27  1   
 19   9  12  1   
 20  10  13  1   
 21  11  28  1   
 22  12  14  ar  
 23  12  15  ar  
 24  13  16  1   
 25  13  29  1   
 26  13  30  1   
 27  14  17  ar  
 28  14  31  1   
 29  15  18  ar  
 30  15  32  1   
 31  16  33  1   
 32  16  34  1   
 33  16  35  1   
 34  17  19  ar  
 35  17  36  1   
 36  18  19  ar  
 37  18  37  1   
 38  19  20  1   
 39  20  38  1   
 40  20  39  1   
 41  20  40  1   
@<TRIPOS>SUBSTRUCTURE
  1 ****   3 GROUP 4 **** **** 0

# MOE 2024.06 (io_trps.svl 2023.06)
