@<TRIPOS>MOLECULE
NONAME
49 50 1 0 0 
SMALL
USER_CHARGES


@<TRIPOS>ATOM
  1 O        0.4590     1.1450     2.1130 O.2   1 <1>  -0.5700 
  2 C        0.2090     1.8100     1.1380 C.2   1 <1>   0.5690 
  3 N        1.1270     2.0370     0.1640 N.am  1 <1>  -0.7300 
  4 C       -1.1690     2.4270     1.0000 C.3   1 <1>  -0.0990 
  5 C        2.4940     1.4660     0.1540 C.3   1 <1>   0.1400 
  6 C       -2.2250     1.4360     0.4750 C.3   1 <1>  -0.0800 
  7 C        3.4750     2.4490     0.7920 C.3   1 <1>  -0.0160 
  8 C       -1.8920     0.9350    -0.9440 C.3   1 <1>  -0.1600 
  9 C       -3.6190     2.0880     0.5010 C.3   1 <1>  -0.1600 
 10 C        4.8890     1.8910     0.7360 C.ar  1 <1>  -0.1440 
 11 C       -2.9750    -0.0120    -1.4770 C.3   1 <1>  -0.1600 
 12 C       -4.6990     1.1370    -0.0300 C.3   1 <1>  -0.1600 
 13 C        5.7660     2.2830    -0.2630 C.ar  1 <1>  -0.1500 
 14 C        5.3070     0.9790     1.6890 C.ar  1 <1>  -0.1500 
 15 C       -4.3590     0.6470    -1.4420 C.3   1 <1>  -0.1600 
 16 C        7.0630     1.7740    -0.3240 C.ar  1 <1>   0.0820 
 17 C        6.5860     0.4570     1.6350 C.ar  1 <1>  -0.1500 
 18 O        7.9350     2.1910    -1.2870 O.3   1 <1>  -0.3620 
 19 C        7.4690     0.8320     0.6360 C.ar  1 <1>   0.0820 
 20 C        7.7470     3.4070    -1.9780 C.3   1 <1>   0.0400 
 21 O        8.6900     0.2290     0.6940 O.3   1 <1>  -0.3630 
 22 C        9.4190    -0.0560    -0.4790 C.3   1 <1>   0.0400 
 23 H        0.8710     2.6050    -0.6430 H     1 <1>   0.3700 
 24 H       -1.1150     3.2830     0.3540 H     1 <1>   0.0800 
 25 H       -1.4640     2.7730     1.9740 H     1 <1>   0.0800 
 26 H        2.7880     1.2540    -0.8590 H     1 <1>   0.0800 
 27 H        2.5040     0.5410     0.7070 H     1 <1>   0.0800 
 28 H       -2.2400     0.5850     1.1380 H     1 <1>   0.0800 
 29 H        3.1960     2.6130     1.8180 H     1 <1>   0.0800 
 30 H        3.4340     3.3910     0.2760 H     1 <1>   0.0800 
 31 H       -0.9530     0.4110    -0.9380 H     1 <1>   0.0800 
 32 H       -1.8020     1.7750    -1.6110 H     1 <1>   0.0800 
 33 H       -3.6120     2.9810    -0.1010 H     1 <1>   0.0800 
 34 H       -3.8680     2.3720     1.5100 H     1 <1>   0.0800 
 35 H       -2.9920    -0.9050    -0.8750 H     1 <1>   0.0800 
 36 H       -2.7390    -0.3010    -2.4860 H     1 <1>   0.0800 
 37 H       -5.6500     1.6410    -0.0420 H     1 <1>   0.0800 
 38 H       -4.7840     0.2900     0.6300 H     1 <1>   0.0800 
 39 H        5.4230     2.9880    -0.9940 H     1 <1>   0.1500 
 40 H        4.6390     0.6680     2.4740 H     1 <1>   0.1500 
 41 H       -5.1030    -0.0600    -1.7680 H     1 <1>   0.0800 
 42 H       -4.3750     1.4810    -2.1230 H     1 <1>   0.0800 
 43 H        6.9090    -0.2540     2.3740 H     1 <1>   0.1500 
 44 H        8.6400     3.6120    -2.5400 H     1 <1>   0.0800 
 45 H        7.5770     4.1920    -1.2630 H     1 <1>   0.0800 
 46 H        6.9120     3.3040    -2.6470 H     1 <1>   0.0800 
 47 H       10.1360    -0.8230    -0.2510 H     1 <1>   0.0800 
 48 H        9.9310     0.8360    -0.7950 H     1 <1>   0.0800 
 49 H        8.7410    -0.3970    -1.2410 H     1 <1>   0.0800 
@<TRIPOS>BOND
  1   1   2  2   
  2   2   3  am  
  3   2   4  1   
  4   3   5  1   
  5   3  23  1   
  6   4   6  1   
  7   4  24  1   
  8   4  25  1   
  9   5   7  1   
 10   5  26  1   
 11   5  27  1   
 12   6   8  1   
 13   6   9  1   
 14   6  28  1   
 15   7  10  1   
 16   7  29  1   
 17   7  30  1   
 18   8  11  1   
 19   8  31  1   
 20   8  32  1   
 21   9  12  1   
 22   9  33  1   
 23   9  34  1   
 24  10  13  ar  
 25  10  14  ar  
 26  11  15  1   
 27  11  35  1   
 28  11  36  1   
 29  12  15  1   
 30  12  37  1   
 31  12  38  1   
 32  13  16  ar  
 33  13  39  1   
 34  14  17  ar  
 35  14  40  1   
 36  15  41  1   
 37  15  42  1   
 38  16  18  1   
 39  16  19  ar  
 40  17  19  ar  
 41  17  43  1   
 42  18  20  1   
 43  19  21  1   
 44  20  44  1   
 45  20  45  1   
 46  20  46  1   
 47  21  22  1   
 48  22  47  1   
 49  22  48  1   
 50  22  49  1   
@<TRIPOS>SUBSTRUCTURE
  1 ****   5 GROUP 4 **** **** 0

# MOE 2024.06 (io_trps.svl 2023.06)
