@<TRIPOS>MOLECULE
NONAME
35 36 1 0 0 
SMALL
USER_CHARGES


@<TRIPOS>ATOM
  1 CL       0.2340    -0.5550    -0.9940 Cl    1 <1>  -0.1770 
  2 C       -0.9530     0.6470    -0.5040 C.ar  1 <1>   0.1770 
  3 C       -2.2890     0.3100    -0.6650 C.ar  1 <1>   0.1770 
  4 C       -0.6130     1.9000     0.0320 C.ar  1 <1>   0.0820 
  5 CL      -2.7440    -1.2420    -1.3310 Cl    1 <1>  -0.1770 
  6 C       -3.3000     1.1820    -0.3060 C.ar  1 <1>  -0.1500 
  7 O        0.6360     2.4010     0.2580 O.3   1 <1>  -0.3630 
  8 C       -1.6400     2.7640     0.3890 C.ar  1 <1>  -0.1500 
  9 C       -2.9710     2.4170     0.2250 C.ar  1 <1>  -0.1500 
 10 C        1.8310     1.7470    -0.0870 C.3   1 <1>   0.1200 
 11 C        2.9960     2.6710     0.2790 C.3   1 <1>   0.3430 
 12 N        4.3280     2.1140    -0.1330 N.4   1 <1>  -0.9590 
 13 C        4.6770     0.8610     0.6060 C.3   1 <1>   0.3430 
 14 C        5.3900     3.1510     0.0300 C.3   1 <1>   0.3430 
 15 C        5.9860     0.2880     0.0600 C.3   1 <1>  -0.1600 
 16 C        6.7140     2.6280    -0.5300 C.3   1 <1>  -0.1600 
 17 C        7.1290     1.3090     0.1330 C.3   1 <1>  -0.1600 
 18 H       -4.3290     0.8960    -0.4410 H     1 <1>   0.1500 
 19 H       -1.3950     3.7270     0.8030 H     1 <1>   0.1500 
 20 H       -3.7490     3.1060     0.5090 H     1 <1>   0.1500 
 21 H        1.8160     1.5610    -1.1470 H     1 <1>   0.0800 
 22 H        1.8800     0.8320     0.4750 H     1 <1>   0.0800 
 23 H        2.9880     2.8400     1.3430 H     1 <1>   0.0800 
 24 H        2.8400     3.6160    -0.2160 H     1 <1>   0.0800 
 25 H        4.2950     1.8800    -1.1350 H     1 <1>   0.4500 
 26 H        3.8960     0.1260     0.4910 H     1 <1>   0.0800 
 27 H        4.7900     1.0750     1.6570 H     1 <1>   0.0800 
 28 H        5.5110     3.3890     1.0750 H     1 <1>   0.0800 
 29 H        5.1120     4.0530    -0.4940 H     1 <1>   0.0800 
 30 H        5.8410    -0.0300    -0.9590 H     1 <1>   0.0800 
 31 H        6.2530    -0.5850     0.6310 H     1 <1>   0.0800 
 32 H        7.4810     3.3650    -0.3650 H     1 <1>   0.0800 
 33 H        6.6250     2.4930    -1.5950 H     1 <1>   0.0800 
 34 H        8.0050     0.9130    -0.3540 H     1 <1>   0.0800 
 35 H        7.3830     1.4900     1.1640 H     1 <1>   0.0800 
@<TRIPOS>BOND
  1   1   2  1   
  2   2   3  ar  
  3   2   4  ar  
  4   3   5  1   
  5   3   6  ar  
  6   4   7  1   
  7   4   8  ar  
  8   6   9  ar  
  9   6  18  1   
 10   7  10  1   
 11   8   9  ar  
 12   8  19  1   
 13   9  20  1   
 14  10  11  1   
 15  10  21  1   
 16  10  22  1   
 17  11  12  1   
 18  11  23  1   
 19  11  24  1   
 20  12  13  1   
 21  12  14  1   
 22  12  25  1   
 23  13  15  1   
 24  13  26  1   
 25  13  27  1   
 26  14  16  1   
 27  14  28  1   
 28  14  29  1   
 29  15  17  1   
 30  15  30  1   
 31  15  31  1   
 32  16  17  1   
 33  16  32  1   
 34  16  33  1   
 35  17  34  1   
 36  17  35  1   
@<TRIPOS>SUBSTRUCTURE
  1 ****  10 GROUP 4 **** **** 0

# MOE 2024.06 (io_trps.svl 2023.06)
