@<TRIPOS>MOLECULE
NONAME
47 48 1 0 0 
SMALL
USER_CHARGES


@<TRIPOS>ATOM
  1 O        0.3280     0.4810     0.2730 O.3   1 <1>  -0.3630 
  2 C        0.2220     1.8280     0.1340 C.ar  1 <1>   0.0830 
  3 C       -0.6710    -0.2590     0.9400 C.3   1 <1>   0.0400 
  4 C       -0.8140     2.5820     0.6740 C.ar  1 <1>  -0.1500 
  5 C        1.2180     2.4580    -0.5900 C.ar  1 <1>  -0.1500 
  6 C       -0.8510     3.9530     0.4810 C.ar  1 <1>   0.0830 
  7 C        1.2040     3.8330    -0.7760 C.ar  1 <1>   0.1000 
  8 O       -1.9030     4.6150     1.0280 O.3   1 <1>  -0.3630 
  9 C        0.1580     4.5760    -0.2450 C.ar  1 <1>  -0.1500 
 10 N        2.2290     4.4480    -1.4820 N.pl3 1 <1>  -0.8690 
 11 C       -2.1490     5.9690     0.7220 C.3   1 <1>   0.0400 
 12 C        3.1550     5.2860    -0.7160 C.3   1 <1>   0.2890 
 13 C        3.6120     6.4360    -1.6040 C.3   1 <1>  -0.1600 
 14 C        4.3400     4.4390    -0.2620 C.3   1 <1>  -0.1600 
 15 C        4.6650     7.2770    -0.8900 C.3   1 <1>   0.3430 
 16 C        5.3800     5.3110     0.4350 C.3   1 <1>   0.3430 
 17 N        5.8130     6.4140    -0.4780 N.4   1 <1>  -0.9590 
 18 C        6.8930     7.2480     0.1220 C.3   1 <1>   0.3430 
 19 C        8.2090     6.4690     0.1700 C.3   1 <1>  -0.1600 
 20 C        9.3510     7.3580     0.6740 C.3   1 <1>  -0.2400 
 21 H       -0.3950    -1.2970     0.9080 H     1 <1>   0.0800 
 22 H       -1.6090    -0.1140     0.4340 H     1 <1>   0.0800 
 23 H       -0.7280     0.0730     1.9610 H     1 <1>   0.0800 
 24 H       -1.6050     2.1340     1.2430 H     1 <1>   0.1500 
 25 H        2.0090     1.8640    -1.0050 H     1 <1>   0.1500 
 26 H        0.1520     5.6320    -0.4180 H     1 <1>   0.1500 
 27 H        2.7170     3.7990    -2.1090 H     1 <1>   0.4000 
 28 H       -3.0710     6.2560     1.1960 H     1 <1>   0.0800 
 29 H       -2.2390     6.0760    -0.3450 H     1 <1>   0.0800 
 30 H       -1.3410     6.5670     1.1040 H     1 <1>   0.0800 
 31 H        2.6450     5.6830     0.1490 H     1 <1>   0.0800 
 32 H        2.7650     7.0560    -1.8380 H     1 <1>   0.0800 
 33 H        4.0150     6.0600    -2.5280 H     1 <1>   0.0800 
 34 H        4.7920     3.9410    -1.1000 H     1 <1>   0.0800 
 35 H        3.9930     3.6900     0.4290 H     1 <1>   0.0800 
 36 H        4.2260     7.7400    -0.0200 H     1 <1>   0.0800 
 37 H        5.0070     8.0570    -1.5520 H     1 <1>   0.0800 
 38 H        6.2240     4.7000     0.7100 H     1 <1>   0.0800 
 39 H        4.9570     5.7260     1.3360 H     1 <1>   0.0800 
 40 H        6.1950     5.9830    -1.3310 H     1 <1>   0.4500 
 41 H        6.6150     7.5620     1.1160 H     1 <1>   0.0800 
 42 H        7.0420     8.1320    -0.4780 H     1 <1>   0.0800 
 43 H        8.4620     6.1160    -0.8150 H     1 <1>   0.0800 
 44 H        8.1250     5.6240     0.8310 H     1 <1>   0.0800 
 45 H        9.4950     8.2050     0.0250 H     1 <1>   0.0800 
 46 H       10.2700     6.7970     0.7000 H     1 <1>   0.0800 
 47 H        9.1500     7.7160     1.6700 H     1 <1>   0.0800 
@<TRIPOS>BOND
  1   1   2  1   
  2   1   3  1   
  3   2   4  ar  
  4   2   5  ar  
  5   3  21  1   
  6   3  22  1   
  7   3  23  1   
  8   4   6  ar  
  9   4  24  1   
 10   5   7  ar  
 11   5  25  1   
 12   6   8  1   
 13   6   9  ar  
 14   7   9  ar  
 15   7  10  1   
 16   8  11  1   
 17   9  26  1   
 18  10  12  1   
 19  10  27  1   
 20  11  28  1   
 21  11  29  1   
 22  11  30  1   
 23  12  13  1   
 24  12  14  1   
 25  12  31  1   
 26  13  15  1   
 27  13  32  1   
 28  13  33  1   
 29  14  16  1   
 30  14  34  1   
 31  14  35  1   
 32  15  17  1   
 33  15  36  1   
 34  15  37  1   
 35  16  17  1   
 36  16  38  1   
 37  16  39  1   
 38  17  18  1   
 39  17  40  1   
 40  18  19  1   
 41  18  41  1   
 42  18  42  1   
 43  19  20  1   
 44  19  43  1   
 45  19  44  1   
 46  20  45  1   
 47  20  46  1   
 48  20  47  1   
@<TRIPOS>SUBSTRUCTURE
  1 ****  12 GROUP 4 **** **** 0

# MOE 2024.06 (io_trps.svl 2023.06)
