@<TRIPOS>MOLECULE
NONAME
30 30 1 0 0 
SMALL
USER_CHARGES


@<TRIPOS>ATOM
  1 O       -5.4880     4.1310    -0.4550 O.2   1 <1>  -0.5700 
  2 C       -6.0660     3.0950    -0.2060 C.2   1 <1>   0.6340 
  3 O       -5.3260     1.9870    -0.0600 O.3   1 <1>  -0.4300 
  4 C       -7.5080     2.9950    -0.0580 C.ar  1 <1>   0.0860 
  5 C       -3.9210     2.0390    -0.2020 C.3   1 <1>   0.1200 
  6 C       -8.3210     4.1210    -0.2020 C.ar  1 <1>  -0.1500 
  7 C       -8.1450     1.7840     0.2310 C.ar  1 <1>  -0.1500 
  8 C       -3.3470     0.6400     0.0490 C.3   1 <1>   0.3430 
  9 C       -9.6950     4.0480    -0.0650 C.ar  1 <1>  -0.1500 
 10 C       -9.5190     1.7040     0.3700 C.ar  1 <1>  -0.1500 
 11 N       -1.8580     0.5820    -0.1540 N.4   1 <1>  -0.9590 
 12 C      -10.2980     2.8370     0.2210 C.ar  1 <1>  -0.1500 
 13 C       -1.3840    -0.8370    -0.1100 C.3   1 <1>   0.2630 
 14 C       -1.1130     1.4080     0.8510 C.3   1 <1>   0.2630 
 15 H       -3.5450     2.7490     0.5140 H     1 <1>   0.0800 
 16 H       -3.7030     2.3710    -1.2020 H     1 <1>   0.0800 
 17 H       -7.8670     5.0720    -0.4250 H     1 <1>   0.1500 
 18 H       -7.5630     0.8890     0.3510 H     1 <1>   0.1500 
 19 H       -3.8250    -0.0450    -0.6330 H     1 <1>   0.0800 
 20 H       -3.5870     0.3390     1.0560 H     1 <1>   0.0800 
 21 H      -10.2970     4.9340    -0.1810 H     1 <1>   0.1500 
 22 H       -9.9880     0.7610     0.5930 H     1 <1>   0.1500 
 23 H       -1.6510     0.9530    -1.0960 H     1 <1>   0.4500 
 24 H      -11.3680     2.7780     0.3280 H     1 <1>   0.1500 
 25 H       -1.5830    -1.2690     0.8580 H     1 <1>   0.0800 
 26 H       -0.3230    -0.8840    -0.2960 H     1 <1>   0.0800 
 27 H       -1.8890    -1.4250    -0.8600 H     1 <1>   0.0800 
 28 H       -1.3230     1.0620     1.8510 H     1 <1>   0.0800 
 29 H       -1.4010     2.4440     0.7780 H     1 <1>   0.0800 
 30 H       -0.0510     1.3380     0.6790 H     1 <1>   0.0800 
@<TRIPOS>BOND
  1   1   2  2   
  2   2   3  1   
  3   2   4  1   
  4   3   5  1   
  5   4   6  ar  
  6   4   7  ar  
  7   5   8  1   
  8   5  15  1   
  9   5  16  1   
 10   6   9  ar  
 11   6  17  1   
 12   7  10  ar  
 13   7  18  1   
 14   8  11  1   
 15   8  19  1   
 16   8  20  1   
 17   9  12  ar  
 18   9  21  1   
 19  10  12  ar  
 20  10  22  1   
 21  11  13  1   
 22  11  14  1   
 23  11  23  1   
 24  12  24  1   
 25  13  25  1   
 26  13  26  1   
 27  13  27  1   
 28  14  28  1   
 29  14  29  1   
 30  14  30  1   
@<TRIPOS>SUBSTRUCTURE
  1 ****   3 GROUP 4 **** **** 0

# MOE 2024.06 (io_trps.svl 2023.06)
