@<TRIPOS>MOLECULE
NONAME
47 50 1 0 0 
SMALL
USER_CHARGES


@<TRIPOS>ATOM
  1 BR      -0.9500    -2.3560    -2.3280 Br    1 <1>  -0.1110 
  2 C       -0.8450    -1.9400    -0.4480 C.ar  1 <1>   0.1110 
  3 C        0.2990    -2.2430     0.2810 C.ar  1 <1>  -0.1440 
  4 C       -1.9450    -1.3240     0.1200 C.ar  1 <1>  -0.1500 
  5 C        0.3150    -1.9010     1.6250 C.ar  1 <1>  -0.1500 
  6 C        1.5150    -2.9240    -0.3330 C.3   1 <1>   0.2540 
  7 C       -1.9080    -0.9930     1.4630 C.ar  1 <1>  -0.1500 
  8 C       -0.7780    -1.2820     2.2110 C.ar  1 <1>  -0.1500 
  9 N        2.6190    -1.9580    -0.5010 N.3   1 <1>  -0.8100 
 10 C        3.8630    -2.6260    -0.9460 C.3   1 <1>   0.1100 
 11 C        2.2610    -0.8560    -1.4320 C.3   1 <1>   0.1100 
 12 C        5.0420    -1.6310    -1.0920 C.3   1 <1>   0.3430 
 13 C        3.4320     0.1280    -1.6690 C.3   1 <1>   0.3430 
 14 N        4.6080    -0.2200    -0.8050 N.4   1 <1>  -0.9590 
 15 C        5.7150     0.7760    -0.8450 C.3   1 <1>   0.4230 
 16 C        6.9310     0.4300     0.1980 C.3   1 <1>  -0.0800 
 17 C        5.1770     2.3200    -0.4870 C.3   1 <1>  -0.1600 
 18 C        6.5910     1.7140     0.3710 C.3   1 <1>  -0.1600 
 19 C        7.9960     1.0930     1.2470 C.3   1 <1>  -0.1600 
 20 C        6.2260     2.9810     0.5810 C.3   1 <1>  -0.0800 
 21 C        7.4820     2.6500     1.5770 C.3   1 <1>  -0.1600 
 22 H       -2.8130    -1.1080    -0.4770 H     1 <1>   0.1500 
 23 H        1.1850    -2.1150     2.2220 H     1 <1>   0.1500 
 24 H        1.2740    -3.3820    -1.2760 H     1 <1>   0.0800 
 25 H        1.8300    -3.7080     0.3340 H     1 <1>   0.0800 
 26 H       -2.7540    -0.5150     1.9250 H     1 <1>   0.1500 
 27 H       -0.7510    -1.0240     3.2570 H     1 <1>   0.1500 
 28 H        3.6970    -3.1180    -1.8910 H     1 <1>   0.0800 
 29 H        4.1380    -3.3840    -0.2310 H     1 <1>   0.0800 
 30 H        1.4330    -0.2980    -1.0260 H     1 <1>   0.0800 
 31 H        1.9420    -1.2590    -2.3780 H     1 <1>   0.0800 
 32 H        5.4380    -1.6970    -2.0920 H     1 <1>   0.0800 
 33 H        5.8240    -1.9230    -0.4120 H     1 <1>   0.0800 
 34 H        3.0890     1.1260    -1.4540 H     1 <1>   0.0800 
 35 H        3.7170     0.0960    -2.7070 H     1 <1>   0.0800 
 36 H        4.2140    -0.2600     0.1480 H     1 <1>   0.4500 
 37 H        6.1300     0.7940    -1.8410 H     1 <1>   0.0800 
 38 H        6.5010    -0.3420     0.8210 H     1 <1>   0.0800 
 39 H        4.1930     2.3020    -0.0440 H     1 <1>   0.0800 
 40 H        5.1280     2.9160    -1.3850 H     1 <1>   0.0800 
 41 H        5.8650     1.3800     1.2390 H     1 <1>   0.0800 
 42 H        7.3240     2.0650    -0.4830 H     1 <1>   0.0800 
 43 H        8.9860     1.1160     0.8130 H     1 <1>   0.0800 
 44 H        8.0600     0.5180     2.1580 H     1 <1>   0.0800 
 45 H        6.6370     3.7950    -0.0030 H     1 <1>   0.0800 
 46 H        8.2890     3.3530     1.4340 H     1 <1>   0.0800 
 47 H        7.1690     2.7290     2.6080 H     1 <1>   0.0800 
@<TRIPOS>BOND
  1   1   2  1   
  2   2   3  ar  
  3   2   4  ar  
  4   3   5  ar  
  5   3   6  1   
  6   4   7  ar  
  7   4  22  1   
  8   5   8  ar  
  9   5  23  1   
 10   6   9  1   
 11   6  24  1   
 12   6  25  1   
 13   7   8  ar  
 14   7  26  1   
 15   8  27  1   
 16   9  10  1   
 17   9  11  1   
 18  10  12  1   
 19  10  28  1   
 20  10  29  1   
 21  11  13  1   
 22  11  30  1   
 23  11  31  1   
 24  12  14  1   
 25  12  32  1   
 26  12  33  1   
 27  13  14  1   
 28  13  34  1   
 29  13  35  1   
 30  14  15  1   
 31  14  36  1   
 32  15  16  1   
 33  15  17  1   
 34  15  37  1   
 35  16  18  1   
 36  16  19  1   
 37  16  38  1   
 38  17  20  1   
 39  17  39  1   
 40  17  40  1   
 41  18  20  1   
 42  18  41  1   
 43  18  42  1   
 44  19  21  1   
 45  19  43  1   
 46  19  44  1   
 47  20  21  1   
 48  20  45  1   
 49  21  46  1   
 50  21  47  1   
@<TRIPOS>SUBSTRUCTURE
  1 ****   9 GROUP 4 **** **** 0

# MOE 2024.06 (io_trps.svl 2023.06)
