@<TRIPOS>MOLECULE
NONAME
48 49 1 0 0 
SMALL
USER_CHARGES


@<TRIPOS>ATOM
  1 O       -1.8420    -1.5090     2.4060 O.2   1 <1>  -0.5700 
  2 C       -2.0140    -1.1430     1.2590 C.2   1 <1>   0.5440 
  3 N       -1.1710    -1.6270     0.3040 N.am  1 <1>  -0.7300 
  4 C       -3.0770    -0.2110     0.9180 C.ar  1 <1>   0.0860 
  5 C       -0.0040    -2.5180     0.5510 C.3   1 <1>   0.2810 
  6 C       -3.5810    -0.1030    -0.3810 C.ar  1 <1>  -0.1500 
  7 C       -3.6390     0.6200     1.8890 C.ar  1 <1>  -0.1500 
  8 C        1.2100    -2.0820    -0.2950 C.2   1 <1>   0.5690 
  9 C       -0.4290    -3.9900     0.3190 C.3   1 <1>  -0.0800 
 10 C       -4.5850     0.7960    -0.6950 C.ar  1 <1>  -0.1500 
 11 C       -4.6440     1.5200     1.5820 C.ar  1 <1>  -0.1500 
 12 O        1.0140    -1.6310    -1.4030 O.2   1 <1>  -0.5700 
 13 N        2.4620    -2.2150     0.2530 N.am  1 <1>  -0.5470 
 14 C        0.6710    -4.9810     0.7320 C.3   1 <1>  -0.2400 
 15 C       -0.8620    -4.2860    -1.1290 C.3   1 <1>  -0.2400 
 16 C       -5.1180     1.6110     0.2870 C.ar  1 <1>  -0.1500 
 17 C        3.7350    -1.9220    -0.2590 C.ar  1 <1>   0.1170 
 18 C        4.8380    -2.5480     0.3130 C.ar  1 <1>  -0.1500 
 19 C        3.9530    -1.0270    -1.3010 C.ar  1 <1>  -0.1500 
 20 C        6.1240    -2.2980    -0.1370 C.ar  1 <1>  -0.1430 
 21 C        5.2320    -0.7730    -1.7600 C.ar  1 <1>  -0.1500 
 22 C        6.3160    -1.4070    -1.1800 C.ar  1 <1>  -0.1500 
 23 C        7.3130    -2.9960     0.5030 C.3   1 <1>  -0.0170 
 24 C        7.6000    -4.3230    -0.2030 C.3   1 <1>  -0.2400 
 25 H       -1.1640    -1.2240    -0.6380 H     1 <1>   0.3700 
 26 H        0.2740    -2.4160     1.5850 H     1 <1>   0.0800 
 27 H       -3.1910    -0.7330    -1.1590 H     1 <1>   0.1500 
 28 H       -3.2770     0.5550     2.9010 H     1 <1>   0.1500 
 29 H       -1.2760    -4.1730     0.9610 H     1 <1>   0.0800 
 30 H       -4.9560     0.8610    -1.7040 H     1 <1>   0.1500 
 31 H       -5.0560     2.1490     2.3520 H     1 <1>   0.1500 
 32 H        2.4810    -2.6360     1.1790 H     1 <1>   0.3700 
 33 H        1.5290    -4.9000     0.0880 H     1 <1>   0.0800 
 34 H        0.2990    -5.9890     0.6670 H     1 <1>   0.0800 
 35 H        0.9750    -4.8050     1.7490 H     1 <1>   0.0800 
 36 H       -0.0460    -4.1360    -1.8150 H     1 <1>   0.0800 
 37 H       -1.6750    -3.6450    -1.4210 H     1 <1>   0.0800 
 38 H       -1.1960    -5.3050    -1.2170 H     1 <1>   0.0800 
 39 H       -5.9000     2.3100     0.0450 H     1 <1>   0.1500 
 40 H        4.6900    -3.2430     1.1180 H     1 <1>   0.1500 
 41 H        3.1250    -0.5190    -1.7600 H     1 <1>   0.1500 
 42 H        5.3840    -0.0810    -2.5700 H     1 <1>   0.1500 
 43 H        7.3080    -1.2060    -1.5450 H     1 <1>   0.1500 
 44 H        7.1120    -3.1770     1.5440 H     1 <1>   0.0800 
 45 H        8.1810    -2.3620     0.4440 H     1 <1>   0.0800 
 46 H        6.7440    -4.9720    -0.1360 H     1 <1>   0.0800 
 47 H        8.4430    -4.8120     0.2510 H     1 <1>   0.0800 
 48 H        7.8180    -4.1500    -1.2420 H     1 <1>   0.0800 
@<TRIPOS>BOND
  1   1   2  2   
  2   2   3  am  
  3   2   4  1   
  4   3   5  1   
  5   3  25  1   
  6   4   6  ar  
  7   4   7  ar  
  8   5   8  1   
  9   5   9  1   
 10   5  26  1   
 11   6  10  ar  
 12   6  27  1   
 13   7  11  ar  
 14   7  28  1   
 15   8  12  2   
 16   8  13  am  
 17   9  14  1   
 18   9  15  1   
 19   9  29  1   
 20  10  16  ar  
 21  10  30  1   
 22  11  16  ar  
 23  11  31  1   
 24  13  17  1   
 25  13  32  1   
 26  14  33  1   
 27  14  34  1   
 28  14  35  1   
 29  15  36  1   
 30  15  37  1   
 31  15  38  1   
 32  16  39  1   
 33  17  18  ar  
 34  17  19  ar  
 35  18  20  ar  
 36  18  40  1   
 37  19  21  ar  
 38  19  41  1   
 39  20  22  ar  
 40  20  23  1   
 41  21  22  ar  
 42  21  42  1   
 43  22  43  1   
 44  23  24  1   
 45  23  44  1   
 46  23  45  1   
 47  24  46  1   
 48  24  47  1   
 49  24  48  1   
@<TRIPOS>SUBSTRUCTURE
  1 ****   8 GROUP 4 **** **** 0

# MOE 2024.06 (io_trps.svl 2023.06)
