@<TRIPOS>MOLECULE
NONAME
47 49 1 0 0 
SMALL
USER_CHARGES


@<TRIPOS>ATOM
  1 S       -0.1870    -2.0730    -0.1930 S.o2  1 <1>   1.4470 
  2 O        0.2150    -3.1390     0.6970 O.2   1 <1>  -0.6500 
  3 O       -1.3760    -2.2190    -0.9980 O.2   1 <1>  -0.6500 
  4 N        1.0490    -1.8720    -1.3050 N.am  1 <1>  -0.9140 
  5 C       -0.2200    -0.4950     0.7010 C.ar  1 <1>  -0.0090 
  6 C        1.5880    -3.1110    -1.8760 C.3   1 <1>   0.3370 
  7 C       -1.4160     0.0350     1.1710 C.ar  1 <1>  -0.1500 
  8 C        0.9460     0.2150     0.9640 C.ar  1 <1>  -0.1500 
  9 C        3.1200    -3.0010    -2.1210 C.2   1 <1>   0.5690 
 10 C        0.7920    -3.4210    -3.1520 C.3   1 <1>  -0.2400 
 11 C       -1.4490     1.2290     1.8710 C.ar  1 <1>  -0.1500 
 12 C        0.9210     1.4070     1.6650 C.ar  1 <1>  -0.1500 
 13 O        3.5140    -2.8490    -3.2580 O.2   1 <1>  -0.5700 
 14 N        4.0160    -3.0450    -1.0760 N.am  1 <1>  -0.6600 
 15 C       -0.2790     1.9230     2.1220 C.ar  1 <1>  -0.1430 
 16 C        3.6570    -3.2130     0.3600 C.3   1 <1>   0.2840 
 17 C        5.4220    -2.6000    -1.2460 C.3   1 <1>   0.1400 
 18 C       -0.3090     3.2300     2.8930 C.3   1 <1>  -0.0970 
 19 C        3.9960    -1.9550     1.1530 C.ar  1 <1>  -0.1430 
 20 C        5.5540    -1.1750    -0.6980 C.3   1 <1>  -0.0170 
 21 C        4.8930    -1.0070     0.6680 C.ar  1 <1>  -0.1430 
 22 C        3.3940    -1.7610     2.3870 C.ar  1 <1>  -0.1500 
 23 C        5.1750     0.1180     1.4260 C.ar  1 <1>  -0.1500 
 24 C        3.6800    -0.6350     3.1380 C.ar  1 <1>  -0.1500 
 25 C        4.5730     0.3050     2.6570 C.ar  1 <1>  -0.1500 
 26 H        0.6350    -1.3560    -2.0760 H     1 <1>   0.4200 
 27 H        1.4420    -3.9350    -1.2020 H     1 <1>   0.0800 
 28 H       -2.3360    -0.4940     0.9850 H     1 <1>   0.1500 
 29 H        1.8930    -0.1660     0.6200 H     1 <1>   0.1500 
 30 H        0.8920    -2.6230    -3.8660 H     1 <1>   0.0800 
 31 H       -0.2470    -3.5830    -2.9310 H     1 <1>   0.0800 
 32 H        1.1790    -4.3180    -3.6020 H     1 <1>   0.0800 
 33 H       -2.3910     1.6130     2.2220 H     1 <1>   0.1500 
 34 H        1.8460     1.9260     1.8530 H     1 <1>   0.1500 
 35 H        4.2180    -4.0370     0.7620 H     1 <1>   0.0800 
 36 H        2.6190    -3.4430     0.4810 H     1 <1>   0.0800 
 37 H        5.7120    -2.6240    -2.2830 H     1 <1>   0.0800 
 38 H        6.0710    -3.2620    -0.7000 H     1 <1>   0.0800 
 39 H        0.5000     3.8680     2.5840 H     1 <1>   0.0800 
 40 H       -0.2140     3.0330     3.9450 H     1 <1>   0.0800 
 41 H       -1.2350     3.7490     2.7180 H     1 <1>   0.0800 
 42 H        5.0890    -0.4980    -1.3920 H     1 <1>   0.0800 
 43 H        6.5960    -0.9190    -0.6350 H     1 <1>   0.0800 
 44 H        2.6940    -2.4850     2.7690 H     1 <1>   0.1500 
 45 H        5.8650     0.8570     1.0580 H     1 <1>   0.1500 
 46 H        3.2070    -0.4920     4.0940 H     1 <1>   0.1500 
 47 H        4.7980     1.1800     3.2400 H     1 <1>   0.1500 
@<TRIPOS>BOND
  1   1   2  2   
  2   1   3  2   
  3   1   4  am  
  4   1   5  1   
  5   4   6  1   
  6   4  26  1   
  7   5   7  ar  
  8   5   8  ar  
  9   6   9  1   
 10   6  10  1   
 11   6  27  1   
 12   7  11  ar  
 13   7  28  1   
 14   8  12  ar  
 15   8  29  1   
 16   9  13  2   
 17   9  14  am  
 18  10  30  1   
 19  10  31  1   
 20  10  32  1   
 21  11  15  ar  
 22  11  33  1   
 23  12  15  ar  
 24  12  34  1   
 25  14  16  1   
 26  14  17  1   
 27  15  18  1   
 28  16  19  1   
 29  16  35  1   
 30  16  36  1   
 31  17  20  1   
 32  17  37  1   
 33  17  38  1   
 34  18  39  1   
 35  18  40  1   
 36  18  41  1   
 37  19  21  ar  
 38  19  22  ar  
 39  20  21  1   
 40  20  42  1   
 41  20  43  1   
 42  21  23  ar  
 43  22  24  ar  
 44  22  44  1   
 45  23  25  ar  
 46  23  45  1   
 47  24  25  ar  
 48  24  46  1   
 49  25  47  1   
@<TRIPOS>SUBSTRUCTURE
  1 ****   8 GROUP 4 **** **** 0

# MOE 2024.06 (io_trps.svl 2023.06)
