@<TRIPOS>MOLECULE
NONAME
49 50 1 0 0 
SMALL
USER_CHARGES


@<TRIPOS>ATOM
  1 O        0.4080     0.6880     3.0120 O.2   1 <1>  -0.5700 
  2 C        0.0510     0.0540     2.0500 C.2   1 <1>   0.5690 
  3 N        0.8860    -0.3460     1.0420 N.am  1 <1>  -0.5470 
  4 C       -1.4180    -0.3320     1.9590 C.3   1 <1>   0.0450 
  5 C        2.2610    -0.1630     0.8190 C.ar  1 <1>   0.1170 
  6 C       -1.7180    -1.2400     0.7690 C.ar  1 <1>  -0.1430 
  7 C        2.8820    -0.9520    -0.1400 C.ar  1 <1>  -0.1500 
  8 C        3.0280     0.7750     1.4990 C.ar  1 <1>  -0.1500 
  9 C       -1.5960    -2.6160     0.8930 C.ar  1 <1>  -0.1500 
 10 C       -2.0920    -0.6970    -0.4500 C.ar  1 <1>  -0.1500 
 11 C        4.2380    -0.8150    -0.4150 C.ar  1 <1>   0.0830 
 12 C        4.3770     0.9190     1.2320 C.ar  1 <1>  -0.1500 
 13 C       -1.8410    -3.4390    -0.1920 C.ar  1 <1>  -0.1500 
 14 C       -2.3370    -1.5200    -1.5360 C.ar  1 <1>  -0.1500 
 15 O        4.8860    -1.5770    -1.3500 O.3   1 <1>  -0.3630 
 16 C        5.0030     0.1310     0.2750 C.ar  1 <1>   0.1170 
 17 C       -2.2110    -2.8910    -1.4070 C.ar  1 <1>  -0.1500 
 18 C        4.2090    -2.5780    -2.0800 C.3   1 <1>   0.0400 
 19 N        6.3730     0.2330    -0.0420 N.am  1 <1>  -0.5470 
 20 C        7.3910     1.0090     0.4280 C.2   1 <1>   0.5690 
 21 O        7.2700     1.8420     1.2920 O.2   1 <1>  -0.5700 
 22 C        8.7620     0.8040    -0.1890 C.3   1 <1>  -0.0990 
 23 C        9.4070    -0.5190     0.2540 C.3   1 <1>  -0.1600 
 24 C       10.7970    -0.6980    -0.3700 C.3   1 <1>  -0.1600 
 25 C       11.4330    -2.0170     0.0750 C.3   1 <1>  -0.2400 
 26 H        0.4090    -0.9130     0.3370 H     1 <1>   0.3700 
 27 H       -1.9990     0.5690     1.8890 H     1 <1>   0.0800 
 28 H       -1.6950    -0.8250     2.8720 H     1 <1>   0.0800 
 29 H        2.2840    -1.6730    -0.6610 H     1 <1>   0.1500 
 30 H        2.5790     1.4060     2.2440 H     1 <1>   0.1500 
 31 H       -1.3070    -3.0550     1.8340 H     1 <1>   0.1500 
 32 H       -2.1930     0.3700    -0.5650 H     1 <1>   0.1500 
 33 H        4.9350     1.6550     1.7800 H     1 <1>   0.1500 
 34 H       -1.7470    -4.5070    -0.0900 H     1 <1>   0.1500 
 35 H       -2.6290    -1.0930    -2.4800 H     1 <1>   0.1500 
 36 H       -2.4050    -3.5320    -2.2500 H     1 <1>   0.1500 
 37 H        4.9160    -3.0480    -2.7390 H     1 <1>   0.0800 
 38 H        3.4230    -2.1210    -2.6550 H     1 <1>   0.0800 
 39 H        3.8130    -3.3050    -1.3920 H     1 <1>   0.0800 
 40 H        6.6320    -0.4360    -0.7670 H     1 <1>   0.3700 
 41 H        9.3910     1.6250     0.1050 H     1 <1>   0.0800 
 42 H        8.6670     0.8300    -1.2590 H     1 <1>   0.0800 
 43 H        8.7780    -1.3440    -0.0330 H     1 <1>   0.0800 
 44 H        9.4920    -0.5250     1.3280 H     1 <1>   0.0800 
 45 H       11.4340     0.1180    -0.0750 H     1 <1>   0.0800 
 46 H       10.7180    -0.6880    -1.4440 H     1 <1>   0.0800 
 47 H       11.5410    -2.0400     1.1450 H     1 <1>   0.0800 
 48 H       12.4070    -2.1240    -0.3690 H     1 <1>   0.0800 
 49 H       10.8250    -2.8510    -0.2300 H     1 <1>   0.0800 
@<TRIPOS>BOND
  1   1   2  2   
  2   2   3  am  
  3   2   4  1   
  4   3   5  1   
  5   3  26  1   
  6   4   6  1   
  7   4  27  1   
  8   4  28  1   
  9   5   7  ar  
 10   5   8  ar  
 11   6   9  ar  
 12   6  10  ar  
 13   7  11  ar  
 14   7  29  1   
 15   8  12  ar  
 16   8  30  1   
 17   9  13  ar  
 18   9  31  1   
 19  10  14  ar  
 20  10  32  1   
 21  11  15  1   
 22  11  16  ar  
 23  12  16  ar  
 24  12  33  1   
 25  13  17  ar  
 26  13  34  1   
 27  14  17  ar  
 28  14  35  1   
 29  15  18  1   
 30  16  19  1   
 31  17  36  1   
 32  18  37  1   
 33  18  38  1   
 34  18  39  1   
 35  19  20  am  
 36  19  40  1   
 37  20  21  2   
 38  20  22  1   
 39  22  23  1   
 40  22  41  1   
 41  22  42  1   
 42  23  24  1   
 43  23  43  1   
 44  23  44  1   
 45  24  25  1   
 46  24  45  1   
 47  24  46  1   
 48  25  47  1   
 49  25  48  1   
 50  25  49  1   
@<TRIPOS>SUBSTRUCTURE
  1 ****   7 GROUP 4 **** **** 0

# MOE 2024.06 (io_trps.svl 2023.06)
