@<TRIPOS>MOLECULE
NONAME
40 41 1 0 0 
SMALL
USER_CHARGES


@<TRIPOS>ATOM
  1 N       -0.0510     0.2000    -0.5260 N.4   1 <1>  -0.9590 
  2 C       -1.2690    -0.6370    -0.8270 C.3   1 <1>   0.3430 
  3 C       -0.1740     1.6610    -0.8330 C.3   1 <1>   0.3430 
  4 C        1.1570    -0.3400    -1.2270 C.3   1 <1>   0.4860 
  5 C       -2.3120    -0.6760     0.3280 C.3   1 <1>   0.3430 
  6 C       -1.5120     2.2840    -0.4300 C.3   1 <1>  -0.1600 
  7 C        2.3700     0.2830    -0.5730 C.ar  1 <1>  -0.1440 
  8 N       -2.9830     0.6320     0.6890 N.4   1 <1>  -0.9590 
  9 C       -2.0820     1.8050     0.9030 C.3   1 <1>   0.3430 
 10 C        2.8040    -0.1650     0.6670 C.ar  1 <1>  -0.1500 
 11 C        3.0510     1.3180    -1.1990 C.ar  1 <1>  -0.1500 
 12 C       -3.8390     0.4370     1.9090 C.3   1 <1>   0.2630 
 13 C        3.8910     0.4310     1.2810 C.ar  1 <1>  -0.1500 
 14 C        4.1370     1.9100    -0.5810 C.ar  1 <1>  -0.1500 
 15 C        4.5600     1.4730     0.6620 C.ar  1 <1>  -0.1440 
 16 C        5.7540     2.1240     1.3390 C.3   1 <1>  -0.0970 
 17 H        0.2080     0.1160     0.4670 H     1 <1>   0.4500 
 18 H       -0.9540    -1.6540    -1.0040 H     1 <1>   0.0800 
 19 H       -1.7410    -0.2910    -1.7330 H     1 <1>   0.0800 
 20 H       -0.0270     1.8250    -1.8900 H     1 <1>   0.0800 
 21 H        0.6200     2.1870    -0.3220 H     1 <1>   0.0800 
 22 H        1.1330    -0.1000    -2.2780 H     1 <1>   0.0800 
 23 H        1.2140    -1.4120    -1.1200 H     1 <1>   0.0800 
 24 H       -1.8240    -1.0730     1.2030 H     1 <1>   0.0800 
 25 H       -3.0780    -1.3850     0.0550 H     1 <1>   0.0800 
 26 H       -2.2320     2.1640    -1.2200 H     1 <1>   0.0800 
 27 H       -1.3390     3.3430    -0.3480 H     1 <1>   0.0800 
 28 H       -3.6360     0.8880    -0.0710 H     1 <1>   0.4500 
 29 H       -2.6610     2.6120     1.3290 H     1 <1>   0.0800 
 30 H       -1.2930     1.5670     1.5990 H     1 <1>   0.0800 
 31 H        2.3180    -0.9820     1.1720 H     1 <1>   0.1500 
 32 H        2.7570     1.6760    -2.1710 H     1 <1>   0.1500 
 33 H       -3.2320     0.1820     2.7630 H     1 <1>   0.0800 
 34 H       -4.5540    -0.3550     1.7470 H     1 <1>   0.0800 
 35 H       -4.3840     1.3400     2.1350 H     1 <1>   0.0800 
 36 H        4.2240     0.0800     2.2430 H     1 <1>   0.1500 
 37 H        4.6600     2.7140    -1.0720 H     1 <1>   0.1500 
 38 H        6.2890     1.4050     1.9330 H     1 <1>   0.0800 
 39 H        5.4220     2.9230     1.9780 H     1 <1>   0.0800 
 40 H        6.4320     2.5250     0.6070 H     1 <1>   0.0800 
@<TRIPOS>BOND
  1   1   2  1   
  2   1   3  1   
  3   1   4  1   
  4   1  17  1   
  5   2   5  1   
  6   2  18  1   
  7   2  19  1   
  8   3   6  1   
  9   3  20  1   
 10   3  21  1   
 11   4   7  1   
 12   4  22  1   
 13   4  23  1   
 14   5   8  1   
 15   5  24  1   
 16   5  25  1   
 17   6   9  1   
 18   6  26  1   
 19   6  27  1   
 20   7  10  ar  
 21   7  11  ar  
 22   8   9  1   
 23   8  12  1   
 24   8  28  1   
 25   9  29  1   
 26   9  30  1   
 27  10  13  ar  
 28  10  31  1   
 29  11  14  ar  
 30  11  32  1   
 31  12  33  1   
 32  12  34  1   
 33  12  35  1   
 34  13  15  ar  
 35  13  36  1   
 36  14  15  ar  
 37  14  37  1   
 38  15  16  1   
 39  16  38  1   
 40  16  39  1   
 41  16  40  1   
@<TRIPOS>SUBSTRUCTURE
  1 ****   1 GROUP 4 **** **** 0

# MOE 2024.06 (io_trps.svl 2023.06)
