@<TRIPOS>MOLECULE
NONAME
40 42 1 0 0 
SMALL
USER_CHARGES


@<TRIPOS>ATOM
  1 S        0.3860    -0.1120     1.0420 S.o2  1 <1>   1.4470 
  2 O        1.6560    -0.2440     1.7230 O.2   1 <1>  -0.6500 
  3 O       -0.7990    -0.6800     1.6460 O.2   1 <1>  -0.6500 
  4 N        0.5620    -0.8730    -0.4650 N.am  1 <1>  -0.8490 
  5 C        0.1200     1.6270     0.6060 C.ar  1 <1>  -0.0090 
  6 C        1.1610    -2.2320    -0.3460 C.3   1 <1>   0.2570 
  7 C       -0.6890    -0.9210    -1.2310 C.3   1 <1>   0.1160 
  8 C       -0.9230     2.3560     1.1190 C.ar  1 <1>  -0.1500 
  9 C        1.0010     2.2720    -0.2810 C.ar  1 <1>  -0.1500 
 10 C        2.6740    -2.2950    -0.6080 C.2   1 <1>   0.5690 
 11 C       -1.1380     3.7080     0.7840 C.ar  1 <1>   0.0000 
 12 C        0.8240     3.5820    -0.6280 C.ar  1 <1>  -0.1500 
 13 O        3.0720    -3.0260    -1.4870 O.2   1 <1>  -0.5700 
 14 N        3.5210    -1.5510     0.1510 N.am  1 <1>  -0.5790 
 15 C       -0.2460     4.3350    -0.1090 C.ar  1 <1>   0.0000 
 16 C       -2.2110     4.4570     1.3080 C.ar  1 <1>  -0.1500 
 17 C        4.9810    -1.4840     0.0240 C.3   1 <1>   0.0490 
 18 C       -0.4610     5.6870    -0.4460 C.ar  1 <1>  -0.1500 
 19 C       -2.3960     5.7670     0.9640 C.ar  1 <1>  -0.1500 
 20 C        5.7810    -1.2850     1.2670 C.3   1 <1>  -0.2000 
 21 C        5.6410    -0.1690     0.2750 C.3   1 <1>  -0.2000 
 22 C       -1.5110     6.3890     0.0770 C.ar  1 <1>  -0.1500 
 23 H        0.7040    -2.8930    -1.0610 H     1 <1>   0.0800 
 24 H        0.9630    -2.6430     0.6290 H     1 <1>   0.0800 
 25 H       -1.0910     0.0710    -1.3510 H     1 <1>   0.0800 
 26 H       -1.4200    -1.5330    -0.7280 H     1 <1>   0.0800 
 27 H       -0.5050    -1.3270    -2.2120 H     1 <1>   0.0800 
 28 H       -1.6120     1.8930     1.8040 H     1 <1>   0.1500 
 29 H        1.8250     1.7070    -0.6870 H     1 <1>   0.1500 
 30 H        1.5050     4.0630    -1.3080 H     1 <1>   0.1500 
 31 H        3.1140    -0.9540     0.8860 H     1 <1>   0.3700 
 32 H       -2.8890     3.9760     1.9910 H     1 <1>   0.1500 
 33 H        5.3730    -2.1240    -0.7520 H     1 <1>   0.1000 
 34 H        0.2220     6.1610    -1.1280 H     1 <1>   0.1500 
 35 H       -3.2170     6.3340     1.3680 H     1 <1>   0.1500 
 36 H        6.7340    -1.7760     1.3500 H     1 <1>   0.1000 
 37 H        5.2650    -1.2150     2.2090 H     1 <1>   0.1000 
 38 H        5.0290     0.6790     0.5260 H     1 <1>   0.1000 
 39 H        6.5000     0.0970    -0.3160 H     1 <1>   0.1000 
 40 H       -1.6710     7.4210    -0.1830 H     1 <1>   0.1500 
@<TRIPOS>BOND
  1   1   2  2   
  2   1   3  2   
  3   1   4  am  
  4   1   5  1   
  5   4   6  1   
  6   4   7  1   
  7   5   8  ar  
  8   5   9  ar  
  9   6  10  1   
 10   6  23  1   
 11   6  24  1   
 12   7  25  1   
 13   7  26  1   
 14   7  27  1   
 15   8  11  ar  
 16   8  28  1   
 17   9  12  ar  
 18   9  29  1   
 19  10  13  2   
 20  10  14  am  
 21  11  15  ar  
 22  11  16  ar  
 23  12  15  ar  
 24  12  30  1   
 25  14  17  1   
 26  14  31  1   
 27  15  18  ar  
 28  16  19  ar  
 29  16  32  1   
 30  17  20  1   
 31  17  21  1   
 32  17  33  1   
 33  18  22  ar  
 34  18  34  1   
 35  19  22  ar  
 36  19  35  1   
 37  20  21  1   
 38  20  36  1   
 39  20  37  1   
 40  21  38  1   
 41  21  39  1   
 42  22  40  1   
@<TRIPOS>SUBSTRUCTURE
  1 ****   5 GROUP 4 **** **** 0

# MOE 2024.06 (io_trps.svl 2023.06)
