@<TRIPOS>MOLECULE
NONAME
38 39 1 0 0 
SMALL
USER_CHARGES


@<TRIPOS>ATOM
  1 S        0.0570     0.1780     1.1310 S.o2  1 <1>   1.4470 
  2 O        0.6690    -1.1190     0.9400 O.2   1 <1>  -0.6500 
  3 O        0.3210     0.9110     2.3510 O.2   1 <1>  -0.6500 
  4 N        0.5730     1.1530    -0.1540 N.am  1 <1>  -0.8490 
  5 C       -1.7320     0.0440     0.8510 C.ar  1 <1>  -0.0090 
  6 C        0.1880     2.5520    -0.0550 C.3   1 <1>   0.1960 
  7 C        2.0160     1.1590    -0.3080 C.3   1 <1>   0.1960 
  8 C       -2.6130     0.9810     1.3660 C.ar  1 <1>  -0.1500 
  9 C       -2.2640    -0.9830     0.0840 C.ar  1 <1>  -0.1500 
 10 C        1.0790     3.2590    -1.0690 C.3   1 <1>  -0.1600 
 11 C        2.3020     2.3530    -1.2120 C.3   1 <1>  -0.1600 
 12 C       -3.9930     0.9440     1.1490 C.ar  1 <1>   0.0860 
 13 C       -3.6220    -1.0680    -0.1500 C.ar  1 <1>  -0.1500 
 14 C       -4.4950    -0.1160     0.3730 C.ar  1 <1>   0.0820 
 15 C       -4.8160     1.9990     1.7240 C.2   1 <1>   0.5440 
 16 O       -5.8310    -0.1880     0.1420 O.3   1 <1>  -0.3630 
 17 O       -4.3360     3.0670     2.0420 O.2   1 <1>  -0.5700 
 18 N       -6.1410     1.8660     1.9470 N.am  1 <1>  -0.8000 
 19 C       -6.4260    -1.1720    -0.6740 C.3   1 <1>   0.1200 
 20 C       -7.9280    -0.9050    -0.7110 C.3   1 <1>  -0.2400 
 21 H        0.3990     2.9330     0.9320 H     1 <1>   0.0800 
 22 H       -0.8570     2.6890    -0.2780 H     1 <1>   0.0800 
 23 H        2.3610     0.2330    -0.7370 H     1 <1>   0.0800 
 24 H        2.4850     1.3060     0.6520 H     1 <1>   0.0800 
 25 H       -2.2120     1.7820     1.9660 H     1 <1>   0.1500 
 26 H       -1.6000    -1.7230    -0.3340 H     1 <1>   0.1500 
 27 H        1.3390     4.2450    -0.7290 H     1 <1>   0.0800 
 28 H        0.5610     3.3360    -2.0090 H     1 <1>   0.0800 
 29 H        2.4040     2.0200    -2.2300 H     1 <1>   0.0800 
 30 H        3.2090     2.8460    -0.9120 H     1 <1>   0.0800 
 31 H       -3.9770    -1.8870    -0.7470 H     1 <1>   0.1500 
 32 H       -6.6760     2.6640     2.2860 H     1 <1>   0.3700 
 33 H       -6.6580     1.0820     1.5410 H     1 <1>   0.3700 
 34 H       -6.2240    -2.1400    -0.2490 H     1 <1>   0.0800 
 35 H       -6.0030    -1.0990    -1.6610 H     1 <1>   0.0800 
 36 H       -8.3440    -0.9720     0.2790 H     1 <1>   0.0800 
 37 H       -8.4110    -1.6360    -1.3340 H     1 <1>   0.0800 
 38 H       -8.1220     0.0710    -1.1190 H     1 <1>   0.0800 
@<TRIPOS>BOND
  1   1   2  2   
  2   1   3  2   
  3   1   4  am  
  4   1   5  1   
  5   4   6  1   
  6   4   7  1   
  7   5   8  ar  
  8   5   9  ar  
  9   6  10  1   
 10   6  21  1   
 11   6  22  1   
 12   7  11  1   
 13   7  23  1   
 14   7  24  1   
 15   8  12  ar  
 16   8  25  1   
 17   9  13  ar  
 18   9  26  1   
 19  10  11  1   
 20  10  27  1   
 21  10  28  1   
 22  11  29  1   
 23  11  30  1   
 24  12  14  ar  
 25  12  15  1   
 26  13  14  ar  
 27  13  31  1   
 28  14  16  1   
 29  15  17  2   
 30  15  18  am  
 31  16  19  1   
 32  18  32  1   
 33  18  33  1   
 34  19  20  1   
 35  19  34  1   
 36  19  35  1   
 37  20  36  1   
 38  20  37  1   
 39  20  38  1   
@<TRIPOS>SUBSTRUCTURE
  1 ****   8 GROUP 4 **** **** 0

# MOE 2024.06 (io_trps.svl 2023.06)
