@<TRIPOS>MOLECULE
NONAME
54 56 1 0 0 
SMALL
USER_CHARGES


@<TRIPOS>ATOM
  1 O        1.8130     1.3820    -1.5010 O.2   1 <1>  -0.5700 
  2 C        0.7390     1.5740    -0.9570 C.2   1 <1>   0.5440 
  3 N       -0.2590     0.6380    -1.1250 N.am  1 <1>  -0.6600 
  4 C        0.5530     2.7520    -0.1370 C.ar  1 <1>   0.0860 
  5 C       -0.1500    -0.4640    -2.1260 C.3   1 <1>   0.1400 
  6 C       -1.4460     0.4970    -0.2290 C.3   1 <1>   0.1400 
  7 C        1.3960     3.0130     0.9550 C.ar  1 <1>   0.1170 
  8 C       -0.4790     3.6500    -0.4160 C.ar  1 <1>  -0.1500 
  9 C       -1.4940    -0.6800    -2.8410 C.3   1 <1>   0.1200 
 10 C       -2.7160     0.2400    -1.0560 C.3   1 <1>   0.1200 
 11 N        2.4650     2.1440     1.2140 N.am  1 <1>  -0.5470 
 12 C        1.1620     4.1400     1.7390 C.ar  1 <1>  -0.1500 
 13 C       -0.6970     4.7640     0.3690 C.ar  1 <1>  -0.1500 
 14 O       -2.5320    -0.8500    -1.9150 O.3   1 <1>  -0.5600 
 15 C        3.2130     1.8810     2.3330 C.2   1 <1>   0.5690 
 16 C        0.1260     5.0060     1.4550 C.ar  1 <1>  -0.1500 
 17 O        3.0210     2.4190     3.3980 O.2   1 <1>  -0.5700 
 18 C        4.3250     0.8250     2.2390 C.3   1 <1>   0.2610 
 19 O        4.7900     0.6780     0.9010 O.3   1 <1>  -0.3630 
 20 C        3.8310    -0.5510     2.7200 C.3   1 <1>  -0.1600 
 21 C        5.3450     1.7220     0.2380 C.ar  1 <1>   0.0820 
 22 C        4.9230    -1.6310     2.6920 C.3   1 <1>  -0.2400 
 23 C        5.1140     1.7940    -1.1250 C.ar  1 <1>  -0.1500 
 24 C        6.0990     2.7090     0.8630 C.ar  1 <1>  -0.1500 
 25 C        5.6150     2.8480    -1.8710 C.ar  1 <1>  -0.1440 
 26 C        6.6060     3.7600     0.1190 C.ar  1 <1>  -0.1500 
 27 C        6.3640     3.8300    -1.2430 C.ar  1 <1>  -0.1500 
 28 C        5.3350     2.9190    -3.3610 C.3   1 <1>  -0.0970 
 29 H        0.1380    -1.3710    -1.6240 H     1 <1>   0.0800 
 30 H        0.6060    -0.2340    -2.8570 H     1 <1>   0.0800 
 31 H       -1.5830     1.3740     0.3770 H     1 <1>   0.0800 
 32 H       -1.2870    -0.3360     0.4330 H     1 <1>   0.0800 
 33 H       -1.1140     3.4640    -1.2650 H     1 <1>   0.1500 
 34 H       -1.4510    -1.5630    -3.4520 H     1 <1>   0.0800 
 35 H       -1.7260     0.1640    -3.4680 H     1 <1>   0.0800 
 36 H       -2.9690     1.1040    -1.6450 H     1 <1>   0.0800 
 37 H       -3.5410     0.0090    -0.4070 H     1 <1>   0.0800 
 38 H        2.7840     1.6260     0.3810 H     1 <1>   0.3700 
 39 H        1.8010     4.3500     2.5770 H     1 <1>   0.1500 
 40 H       -1.5000     5.4450     0.1410 H     1 <1>   0.1500 
 41 H       -0.0370     5.8720     2.0740 H     1 <1>   0.1500 
 42 H        5.1520     1.1280     2.8530 H     1 <1>   0.0800 
 43 H        2.9990    -0.8590     2.1090 H     1 <1>   0.0800 
 44 H        3.4700    -0.4490     3.7290 H     1 <1>   0.0800 
 45 H        5.2700    -1.7930     1.6860 H     1 <1>   0.0800 
 46 H        4.5320    -2.5600     3.0690 H     1 <1>   0.0800 
 47 H        5.7590    -1.3380     3.3030 H     1 <1>   0.0800 
 48 H        4.5290     1.0250    -1.5980 H     1 <1>   0.1500 
 49 H        6.3040     2.6750     1.9160 H     1 <1>   0.1500 
 50 H        7.1880     4.5270     0.5990 H     1 <1>   0.1500 
 51 H        6.7600     4.6520    -1.8110 H     1 <1>   0.1500 
 52 H        4.3500     2.5390    -3.5700 H     1 <1>   0.0800 
 53 H        6.0570     2.3300    -3.8960 H     1 <1>   0.0800 
 54 H        5.3870     3.9350    -3.7070 H     1 <1>   0.0800 
@<TRIPOS>BOND
  1   1   2  2   
  2   2   3  am  
  3   2   4  1   
  4   3   5  1   
  5   3   6  1   
  6   4   7  ar  
  7   4   8  ar  
  8   5   9  1   
  9   5  29  1   
 10   5  30  1   
 11   6  10  1   
 12   6  31  1   
 13   6  32  1   
 14   7  11  1   
 15   7  12  ar  
 16   8  13  ar  
 17   8  33  1   
 18   9  14  1   
 19   9  34  1   
 20   9  35  1   
 21  10  14  1   
 22  10  36  1   
 23  10  37  1   
 24  11  15  am  
 25  11  38  1   
 26  12  16  ar  
 27  12  39  1   
 28  13  16  ar  
 29  13  40  1   
 30  15  17  2   
 31  15  18  1   
 32  16  41  1   
 33  18  19  1   
 34  18  20  1   
 35  18  42  1   
 36  19  21  1   
 37  20  22  1   
 38  20  43  1   
 39  20  44  1   
 40  21  23  ar  
 41  21  24  ar  
 42  22  45  1   
 43  22  46  1   
 44  22  47  1   
 45  23  25  ar  
 46  23  48  1   
 47  24  26  ar  
 48  24  49  1   
 49  25  27  ar  
 50  25  28  1   
 51  26  27  ar  
 52  26  50  1   
 53  27  51  1   
 54  28  52  1   
 55  28  53  1   
 56  28  54  1   
@<TRIPOS>SUBSTRUCTURE
  1 ****  11 GROUP 4 **** **** 0

# MOE 2024.06 (io_trps.svl 2023.06)
