@<TRIPOS>MOLECULE
NONAME
46 47 1 0 0 
SMALL
USER_CHARGES


@<TRIPOS>ATOM
  1 O        1.1070    -1.1230    -1.5370 O.2   1 <1>  -0.5700 
  2 C        0.6280    -0.3440    -0.7500 C.2   1 <1>   0.5690 
  3 N        0.9260    -0.3310     0.5760 N.am  1 <1>  -0.7300 
  4 C       -0.3520     0.6950    -1.2710 C.3   1 <1>   0.0440 
  5 C        2.0710    -0.9580     1.2620 C.3   1 <1>   0.3640 
  6 C       -0.4860     1.8910    -0.3260 C.ar  1 <1>  -0.1440 
  7 C        3.3520    -0.1960     0.8890 C.ar  1 <1>  -0.1440 
  8 C        2.0170    -2.4790     1.1160 C.3   1 <1>  -0.2400 
  9 C        0.4900     2.8830    -0.2520 C.ar  1 <1>  -0.1440 
 10 C       -1.5990     1.9650     0.5000 C.ar  1 <1>  -0.1500 
 11 C        4.4380    -0.7020     0.1680 C.ar  1 <1>   0.0820 
 12 C        3.4190     1.1260     1.3130 C.ar  1 <1>  -0.1500 
 13 C        0.3370     3.9230     0.6530 C.ar  1 <1>  -0.1500 
 14 C        1.7310     2.8680    -1.1360 C.3   1 <1>  -0.0970 
 15 C       -1.7450     3.0070     1.3960 C.ar  1 <1>  -0.1500 
 16 O        4.4640    -1.9760    -0.2780 O.3   1 <1>  -0.3630 
 17 C        5.5420     0.0960    -0.0990 C.ar  1 <1>  -0.1500 
 18 C        4.5110     1.9330     1.0380 C.ar  1 <1>   0.0820 
 19 C       -0.7740     3.9870     1.4740 C.ar  1 <1>  -0.1500 
 20 C        4.3530    -2.1470    -1.6730 C.3   1 <1>   0.0400 
 21 C        5.5840     1.4090     0.3280 C.ar  1 <1>  -0.1500 
 22 O        4.4530     3.2130     1.4900 O.3   1 <1>  -0.3620 
 23 C        5.5340     4.0980     1.3020 C.3   1 <1>   0.0400 
 24 H        0.5410     0.4640     1.0920 H     1 <1>   0.3700 
 25 H       -1.3030     0.2160    -1.4080 H     1 <1>   0.0800 
 26 H       -0.0220     1.0280    -2.2380 H     1 <1>   0.0800 
 27 H        1.9290    -0.7760     2.3130 H     1 <1>   0.0800 
 28 H        2.0860    -2.7780     0.0880 H     1 <1>   0.0800 
 29 H        1.0970    -2.8530     1.5250 H     1 <1>   0.0800 
 30 H        2.8360    -2.9210     1.6550 H     1 <1>   0.0800 
 31 H       -2.3620     1.2070     0.4540 H     1 <1>   0.1500 
 32 H        2.6060     1.5610     1.8660 H     1 <1>   0.1500 
 33 H        1.0860     4.6920     0.7230 H     1 <1>   0.1500 
 34 H        2.1980     1.9000    -1.1320 H     1 <1>   0.0800 
 35 H        2.4580     3.5800    -0.7870 H     1 <1>   0.0800 
 36 H        1.4640     3.1210    -2.1460 H     1 <1>   0.0800 
 37 H       -2.6110     3.0570     2.0320 H     1 <1>   0.1500 
 38 H        6.3720    -0.3190    -0.6390 H     1 <1>   0.1500 
 39 H       -0.8810     4.8000     2.1710 H     1 <1>   0.1500 
 40 H        4.1880    -3.1900    -1.8720 H     1 <1>   0.0800 
 41 H        5.2630    -1.8200    -2.1430 H     1 <1>   0.0800 
 42 H        3.5190    -1.5710    -2.0310 H     1 <1>   0.0800 
 43 H        6.4510     2.0000     0.1010 H     1 <1>   0.1500 
 44 H        5.2760     5.0400     1.7530 H     1 <1>   0.0800 
 45 H        5.6990     4.2310     0.2480 H     1 <1>   0.0800 
 46 H        6.4060     3.6910     1.7820 H     1 <1>   0.0800 
@<TRIPOS>BOND
  1   1   2  2   
  2   2   3  am  
  3   2   4  1   
  4   3   5  1   
  5   3  24  1   
  6   4   6  1   
  7   4  25  1   
  8   4  26  1   
  9   5   7  1   
 10   5   8  1   
 11   5  27  1   
 12   6   9  ar  
 13   6  10  ar  
 14   7  11  ar  
 15   7  12  ar  
 16   8  28  1   
 17   8  29  1   
 18   8  30  1   
 19   9  13  ar  
 20   9  14  1   
 21  10  15  ar  
 22  10  31  1   
 23  11  16  1   
 24  11  17  ar  
 25  12  18  ar  
 26  12  32  1   
 27  13  19  ar  
 28  13  33  1   
 29  14  34  1   
 30  14  35  1   
 31  14  36  1   
 32  15  19  ar  
 33  15  37  1   
 34  16  20  1   
 35  17  21  ar  
 36  17  38  1   
 37  18  21  ar  
 38  18  22  1   
 39  19  39  1   
 40  20  40  1   
 41  20  41  1   
 42  20  42  1   
 43  21  43  1   
 44  22  23  1   
 45  23  44  1   
 46  23  45  1   
 47  23  46  1   
@<TRIPOS>SUBSTRUCTURE
  1 ****  12 GROUP 4 **** **** 0

# MOE 2024.06 (io_trps.svl 2023.06)
