@<TRIPOS>MOLECULE
NONAME
42 42 1 0 0 
SMALL
USER_CHARGES


@<TRIPOS>ATOM
  1 S       -0.0750     0.3930    -0.7630 S.o2  1 <1>   1.4470 
  2 O       -0.3120     0.6010    -2.1770 O.2   1 <1>  -0.6500 
  3 O       -0.6610    -0.7570    -0.1090 O.2   1 <1>  -0.6500 
  4 N       -0.6380     1.7850     0.0310 N.am  1 <1>  -0.8490 
  5 C        1.7040     0.4230    -0.4090 C.ar  1 <1>  -0.0090 
  6 C       -0.2390     3.0110    -0.6610 C.3   1 <1>   0.1960 
  7 C       -2.0810     1.7320     0.2800 C.3   1 <1>   0.1960 
  8 C        2.1690     0.4830     0.8990 C.ar  1 <1>  -0.1500 
  9 C        2.6510     0.3920    -1.4260 C.ar  1 <1>  -0.1500 
 10 C       -0.2210     4.1790     0.3230 C.3   1 <1>  -0.2400 
 11 C       -2.3080     1.3650     1.7420 C.3   1 <1>  -0.2400 
 12 C        3.5230     0.5170     1.1820 C.ar  1 <1>  -0.1500 
 13 C        4.0050     0.4260    -1.1490 C.ar  1 <1>  -0.1500 
 14 C        4.4650     0.4950     0.1620 C.ar  1 <1>   0.1170 
 15 N        5.8260     0.5250     0.4960 N.am  1 <1>  -0.5470 
 16 C        6.9150     0.9310    -0.2290 C.2   1 <1>   0.5690 
 17 O        6.8370     1.3880    -1.3430 O.2   1 <1>  -0.5700 
 18 C        8.2930     0.8100     0.4330 C.3   1 <1>  -0.0190 
 19 C        8.8840     2.1940     0.7460 C.3   1 <1>  -0.2400 
 20 C        9.2740     0.0040    -0.4350 C.3   1 <1>  -0.2400 
 21 H       -0.9030     3.2100    -1.4880 H     1 <1>   0.0800 
 22 H        0.7560     2.8990    -1.0590 H     1 <1>   0.0800 
 23 H       -2.5560     1.0080    -0.3640 H     1 <1>   0.0800 
 24 H       -2.5430     2.6850     0.0890 H     1 <1>   0.0800 
 25 H        1.4530     0.5050     1.7050 H     1 <1>   0.1500 
 26 H        2.3240     0.3410    -2.4520 H     1 <1>   0.1500 
 27 H       -1.2040     4.3890     0.7010 H     1 <1>   0.0800 
 28 H        0.1430     5.0600    -0.1730 H     1 <1>   0.0800 
 29 H        0.4360     3.9550     1.1440 H     1 <1>   0.0800 
 30 H       -1.9000     0.3920     1.9530 H     1 <1>   0.0800 
 31 H       -3.3610     1.3430     1.9510 H     1 <1>   0.0800 
 32 H       -1.8440     2.0930     2.3830 H     1 <1>   0.0800 
 33 H        3.8450     0.5670     2.2060 H     1 <1>   0.1500 
 34 H        4.7070     0.3970    -1.9630 H     1 <1>   0.1500 
 35 H        6.0330     0.2400     1.4500 H     1 <1>   0.3700 
 36 H        8.1780     0.2830     1.3630 H     1 <1>   0.0800 
 37 H        9.0280     2.7500    -0.1650 H     1 <1>   0.0800 
 38 H        9.8320     2.0970     1.2440 H     1 <1>   0.0800 
 39 H        8.2170     2.7500     1.3800 H     1 <1>   0.0800 
 40 H        9.4380     0.5040    -1.3750 H     1 <1>   0.0800 
 41 H        8.8730    -0.9740    -0.6380 H     1 <1>   0.0800 
 42 H       10.2190    -0.1090     0.0650 H     1 <1>   0.0800 
@<TRIPOS>BOND
  1   1   2  2   
  2   1   3  2   
  3   1   4  am  
  4   1   5  1   
  5   4   6  1   
  6   4   7  1   
  7   5   8  ar  
  8   5   9  ar  
  9   6  10  1   
 10   6  21  1   
 11   6  22  1   
 12   7  11  1   
 13   7  23  1   
 14   7  24  1   
 15   8  12  ar  
 16   8  25  1   
 17   9  13  ar  
 18   9  26  1   
 19  10  27  1   
 20  10  28  1   
 21  10  29  1   
 22  11  30  1   
 23  11  31  1   
 24  11  32  1   
 25  12  14  ar  
 26  12  33  1   
 27  13  14  ar  
 28  13  34  1   
 29  14  15  1   
 30  15  16  am  
 31  15  35  1   
 32  16  17  2   
 33  16  18  1   
 34  18  19  1   
 35  18  20  1   
 36  18  36  1   
 37  19  37  1   
 38  19  38  1   
 39  19  39  1   
 40  20  40  1   
 41  20  41  1   
 42  20  42  1   
@<TRIPOS>SUBSTRUCTURE
  1 ****   8 GROUP 4 **** **** 0

# MOE 2024.06 (io_trps.svl 2023.06)
