@<TRIPOS>MOLECULE
NONAME
50 51 1 0 0 
SMALL
USER_CHARGES


@<TRIPOS>ATOM
  1 CL      -2.2730     2.4700     2.9180 Cl    1 <1>  -0.1770 
  2 C       -2.3230     1.7300     1.3330 C.ar  1 <1>   0.1770 
  3 C       -1.3100     1.9710     0.4120 C.ar  1 <1>   0.0830 
  4 C       -3.3930     0.9090     1.0310 C.ar  1 <1>  -0.1500 
  5 O       -0.2880     2.7900     0.7740 O.3   1 <1>  -0.3630 
  6 C       -1.3960     1.3590    -0.8350 C.ar  1 <1>  -0.1500 
  7 C       -3.4890     0.2990    -0.2140 C.ar  1 <1>  -0.0090 
  8 C        0.7920     3.0600    -0.0890 C.3   1 <1>   0.1200 
  9 C       -2.4720     0.5370    -1.1330 C.ar  1 <1>  -0.1500 
 10 S       -4.8910    -0.7810    -0.6160 S.o2  1 <1>   1.4470 
 11 C        1.7540     3.9940     0.6390 C.3   1 <1>  -0.2400 
 12 O       -5.0480    -0.8720    -2.0520 O.2   1 <1>  -0.6500 
 13 O       -4.7860    -1.9940     0.1630 O.2   1 <1>  -0.6500 
 14 N       -6.2270     0.0880    -0.0350 N.am  1 <1>  -0.8490 
 15 C       -7.3960    -0.7780     0.1400 C.3   1 <1>   0.1960 
 16 C       -6.5360     1.2510    -0.8730 C.3   1 <1>   0.1960 
 17 C       -8.5350    -0.0050     0.8100 C.3   1 <1>  -0.1600 
 18 C       -7.6350     2.0940    -0.2240 C.3   1 <1>  -0.1600 
 19 C       -8.9040     1.2600     0.0170 C.3   1 <1>  -0.0190 
 20 C       -9.9880     2.0710     0.7240 C.2   1 <1>   0.5690 
 21 O       -9.7510     2.5730     1.7960 O.2   1 <1>  -0.5700 
 22 N      -11.1990     2.2020     0.1210 N.am  1 <1>  -0.7300 
 23 C      -12.3400     2.9650     0.6680 C.3   1 <1>   0.1400 
 24 C      -12.8390     3.9460    -0.3930 C.3   1 <1>  -0.1600 
 25 C      -14.0320     4.7610     0.1190 C.3   1 <1>  -0.2400 
 26 H       -4.1570     0.7460     1.7710 H     1 <1>   0.1500 
 27 H       -0.6400     1.5070    -1.5830 H     1 <1>   0.1500 
 28 H        0.4100     3.5280    -0.9800 H     1 <1>   0.0800 
 29 H        1.2770     2.1300    -0.3320 H     1 <1>   0.0800 
 30 H       -2.5240     0.0690    -2.1030 H     1 <1>   0.1500 
 31 H        1.2560     4.9130     0.8930 H     1 <1>   0.0800 
 32 H        2.5930     4.2210     0.0070 H     1 <1>   0.0800 
 33 H        2.1170     3.5250     1.5360 H     1 <1>   0.0800 
 34 H       -7.1390    -1.6160     0.7670 H     1 <1>   0.0800 
 35 H       -7.7140    -1.1600    -0.8170 H     1 <1>   0.0800 
 36 H       -6.8530     0.9260    -1.8520 H     1 <1>   0.0800 
 37 H       -5.6550     1.8600    -0.9910 H     1 <1>   0.0800 
 38 H       -8.2280     0.2680     1.8060 H     1 <1>   0.0800 
 39 H       -9.3970    -0.6420     0.8990 H     1 <1>   0.0800 
 40 H       -7.8670     2.9310    -0.8570 H     1 <1>   0.0800 
 41 H       -7.2690     2.4820     0.7110 H     1 <1>   0.0800 
 42 H       -9.2850     0.9520    -0.9400 H     1 <1>   0.0800 
 43 H      -11.3690     1.7530    -0.7790 H     1 <1>   0.3700 
 44 H      -12.0350     3.5040     1.5510 H     1 <1>   0.0800 
 45 H      -13.1250     2.2810     0.9430 H     1 <1>   0.0800 
 46 H      -13.1370     3.4050    -1.2740 H     1 <1>   0.0800 
 47 H      -12.0410     4.6200    -0.6540 H     1 <1>   0.0800 
 48 H      -14.8520     4.1120     0.3740 H     1 <1>   0.0800 
 49 H      -14.3630     5.4470    -0.6400 H     1 <1>   0.0800 
 50 H      -13.7530     5.3270     0.9910 H     1 <1>   0.0800 
@<TRIPOS>BOND
  1   1   2  1   
  2   2   3  ar  
  3   2   4  ar  
  4   3   5  1   
  5   3   6  ar  
  6   4   7  ar  
  7   4  26  1   
  8   5   8  1   
  9   6   9  ar  
 10   6  27  1   
 11   7   9  ar  
 12   7  10  1   
 13   8  11  1   
 14   8  28  1   
 15   8  29  1   
 16   9  30  1   
 17  10  12  2   
 18  10  13  2   
 19  10  14  am  
 20  11  31  1   
 21  11  32  1   
 22  11  33  1   
 23  14  15  1   
 24  14  16  1   
 25  15  17  1   
 26  15  34  1   
 27  15  35  1   
 28  16  18  1   
 29  16  36  1   
 30  16  37  1   
 31  17  19  1   
 32  17  38  1   
 33  17  39  1   
 34  18  19  1   
 35  18  40  1   
 36  18  41  1   
 37  19  20  1   
 38  19  42  1   
 39  20  21  2   
 40  20  22  am  
 41  22  23  1   
 42  22  43  1   
 43  23  24  1   
 44  23  44  1   
 45  23  45  1   
 46  24  25  1   
 47  24  46  1   
 48  24  47  1   
 49  25  48  1   
 50  25  49  1   
 51  25  50  1   
@<TRIPOS>SUBSTRUCTURE
  1 ****  16 GROUP 4 **** **** 0

# MOE 2024.06 (io_trps.svl 2023.06)
