@<TRIPOS>MOLECULE
NONAME
33 34 1 0 0 
SMALL
USER_CHARGES


@<TRIPOS>ATOM
  1 BR      -0.3780     0.9250    -2.3120 Br    1 <1>  -0.0580 
  2 C       -1.9610     0.6300    -1.2700 C.2   1 <1>   0.0980 
  3 S       -3.3870     0.1530    -2.1510 S.3   1 <1>  -0.0800 
  4 C       -2.1730     0.7290     0.0530 C.2   1 <1>  -0.1500 
  5 C       -4.3280     0.0830    -0.6490 C.2   1 <1>  -0.0450 
  6 C       -3.5210     0.4140     0.3990 C.2   1 <1>  -0.1500 
  7 C       -5.7190    -0.2840    -0.7230 C.2   1 <1>   0.7150 
  8 O       -6.2080    -0.7800    -1.7210 O.2   1 <1>  -0.5700 
  9 N       -6.5750    -0.0240     0.3230 N.am  1 <1>  -0.6600 
 10 C       -6.8190     1.3950     0.7070 C.3   1 <1>   0.1400 
 11 C       -7.7760    -0.8940     0.4970 C.3   1 <1>   0.1400 
 12 C       -8.0080     1.9640    -0.0990 C.3   1 <1>   0.3430 
 13 C       -8.9530    -0.3400    -0.3280 C.3   1 <1>   0.3430 
 14 N       -9.2420     1.1050     0.0030 N.4   1 <1>  -0.9590 
 15 C      -10.3340     1.6440    -0.8370 C.3   1 <1>   0.4810 
 16 C      -11.6220     1.0460    -0.3220 C.2   1 <1>  -0.2880 
 17 C      -12.5240     1.6900     0.4270 C.2   1 <1>  -0.3000 
 18 H       -1.4360     1.0050     0.7860 H     1 <1>   0.1500 
 19 H       -3.8360     0.4400     1.4270 H     1 <1>   0.1500 
 20 H       -5.9420     1.9880     0.5110 H     1 <1>   0.0800 
 21 H       -7.0250     1.4520     1.7620 H     1 <1>   0.0800 
 22 H       -8.0410    -0.9460     1.5390 H     1 <1>   0.0800 
 23 H       -7.5500    -1.8950     0.1660 H     1 <1>   0.0800 
 24 H       -7.7070     2.0350    -1.1320 H     1 <1>   0.0800 
 25 H       -8.2250     2.9610     0.2490 H     1 <1>   0.0800 
 26 H       -9.8260    -0.9440    -0.1440 H     1 <1>   0.0800 
 27 H       -8.7010    -0.4320    -1.3720 H     1 <1>   0.0800 
 28 H       -9.5940     1.1410     0.9690 H     1 <1>   0.4500 
 29 H      -10.1830     1.4040    -1.8780 H     1 <1>   0.0800 
 30 H      -10.3800     2.7160    -0.7320 H     1 <1>   0.0800 
 31 H      -11.7660     0.0230    -0.6270 H     1 <1>   0.1500 
 32 H      -13.4410     1.2410     0.7770 H     1 <1>   0.1500 
 33 H      -12.4430     2.7130     0.7570 H     1 <1>   0.1500 
@<TRIPOS>BOND
  1   1   2  1   
  2   2   3  1   
  3   2   4  2   
  4   3   5  1   
  5   4   6  1   
  6   4  18  1   
  7   5   6  2   
  8   5   7  1   
  9   6  19  1   
 10   7   8  2   
 11   7   9  am  
 12   9  10  1   
 13   9  11  1   
 14  10  12  1   
 15  10  20  1   
 16  10  21  1   
 17  11  13  1   
 18  11  22  1   
 19  11  23  1   
 20  12  14  1   
 21  12  24  1   
 22  12  25  1   
 23  13  14  1   
 24  13  26  1   
 25  13  27  1   
 26  14  15  1   
 27  14  28  1   
 28  15  16  1   
 29  15  29  1   
 30  15  30  1   
 31  16  17  2   
 32  16  31  1   
 33  17  32  1   
 34  17  33  1   
@<TRIPOS>SUBSTRUCTURE
  1 ****   9 GROUP 4 **** **** 0

# MOE 2024.06 (io_trps.svl 2023.06)
