@<TRIPOS>MOLECULE
NONAME
48 49 1 0 0 
SMALL
USER_CHARGES


@<TRIPOS>ATOM
  1 O       -1.9650    -0.8330    -1.2240 O.3   1 <1>  -0.5600 
  2 C       -2.7780     0.2680    -1.5100 C.3   1 <1>   0.1200 
  3 C       -2.0040    -1.2670     0.1040 C.3   1 <1>   0.1200 
  4 C       -4.2500    -0.0570    -1.1900 C.3   1 <1>   0.3430 
  5 C       -3.4400    -1.6660     0.4930 C.3   1 <1>   0.3430 
  6 N       -4.4170    -0.5530     0.2240 N.4   1 <1>  -0.9590 
  7 C       -5.8090    -1.0080     0.4880 C.3   1 <1>   0.3430 
  8 C       -6.7600     0.1840     0.6050 C.3   1 <1>  -0.1600 
  9 C       -8.2070    -0.2950     0.7380 C.3   1 <1>   0.1200 
 10 O       -8.4600    -1.1970    -0.3180 O.3   1 <1>  -0.3630 
 11 C       -9.7090    -1.7070    -0.4620 C.ar  1 <1>   0.0820 
 12 C       -9.9220    -3.0930    -0.5460 C.ar  1 <1>  -0.1440 
 13 C      -10.7740    -0.8160    -0.5440 C.ar  1 <1>  -0.1500 
 14 C      -11.2450    -3.5200    -0.6750 C.ar  1 <1>  -0.1500 
 15 C       -8.7620    -4.1300    -0.5030 C.3   1 <1>   0.1430 
 16 C      -12.0690    -1.2730    -0.6740 C.ar  1 <1>  -0.1500 
 17 C      -12.3020    -2.6300    -0.7340 C.ar  1 <1>  -0.1500 
 18 C       -7.7680    -3.8800    -1.6500 C.3   1 <1>  -0.2400 
 19 C       -9.2350    -5.5880    -0.6690 C.3   1 <1>  -0.2400 
 20 C       -8.0430    -4.0710     0.8550 C.3   1 <1>  -0.2400 
 21 H       -2.6670     0.4920    -2.5560 H     1 <1>   0.0800 
 22 H       -2.4320     1.1130    -0.9400 H     1 <1>   0.0800 
 23 H       -1.6290    -0.4820     0.7380 H     1 <1>   0.0800 
 24 H       -1.3480    -2.1170     0.1880 H     1 <1>   0.0800 
 25 H       -4.5880    -0.8130    -1.8810 H     1 <1>   0.0800 
 26 H       -4.8480     0.8240    -1.3490 H     1 <1>   0.0800 
 27 H       -3.4650    -1.9350     1.5360 H     1 <1>   0.0800 
 28 H       -3.7150    -2.5360    -0.0810 H     1 <1>   0.0800 
 29 H       -4.1940     0.2220     0.8630 H     1 <1>   0.4500 
 30 H       -5.8440    -1.5700     1.4070 H     1 <1>   0.0800 
 31 H       -6.1360    -1.6560    -0.3090 H     1 <1>   0.0800 
 32 H       -6.7060     0.8070    -0.2680 H     1 <1>   0.0800 
 33 H       -6.5110     0.7750     1.4680 H     1 <1>   0.0800 
 34 H       -8.8800     0.5400     0.6730 H     1 <1>   0.0800 
 35 H       -8.3710    -0.8150     1.6670 H     1 <1>   0.0800 
 36 H      -10.6070     0.2430    -0.5220 H     1 <1>   0.1500 
 37 H      -11.5040    -4.5590    -0.7370 H     1 <1>   0.1500 
 38 H      -12.8890    -0.5780    -0.7310 H     1 <1>   0.1500 
 39 H      -13.3090    -2.9970    -0.8330 H     1 <1>   0.1500 
 40 H       -8.2880    -3.9140    -2.5910 H     1 <1>   0.0800 
 41 H       -6.9990    -4.6320    -1.6610 H     1 <1>   0.0800 
 42 H       -7.2940    -2.9240    -1.5730 H     1 <1>   0.0800 
 43 H       -9.9010    -5.8670     0.1290 H     1 <1>   0.0800 
 44 H       -8.4010    -6.2660    -0.6490 H     1 <1>   0.0800 
 45 H       -9.7410    -5.7180    -1.6090 H     1 <1>   0.0800 
 46 H       -7.5930    -3.1160     1.0210 H     1 <1>   0.0800 
 47 H       -7.2740    -4.8200     0.9100 H     1 <1>   0.0800 
 48 H       -8.7500    -4.2490     1.6460 H     1 <1>   0.0800 
@<TRIPOS>BOND
  1   1   2  1   
  2   1   3  1   
  3   2   4  1   
  4   2  21  1   
  5   2  22  1   
  6   3   5  1   
  7   3  23  1   
  8   3  24  1   
  9   4   6  1   
 10   4  25  1   
 11   4  26  1   
 12   5   6  1   
 13   5  27  1   
 14   5  28  1   
 15   6   7  1   
 16   6  29  1   
 17   7   8  1   
 18   7  30  1   
 19   7  31  1   
 20   8   9  1   
 21   8  32  1   
 22   8  33  1   
 23   9  10  1   
 24   9  34  1   
 25   9  35  1   
 26  10  11  1   
 27  11  12  ar  
 28  11  13  ar  
 29  12  14  ar  
 30  12  15  1   
 31  13  16  ar  
 32  13  36  1   
 33  14  17  ar  
 34  14  37  1   
 35  15  18  1   
 36  15  19  1   
 37  15  20  1   
 38  16  17  ar  
 39  16  38  1   
 40  17  39  1   
 41  18  40  1   
 42  18  41  1   
 43  18  42  1   
 44  19  43  1   
 45  19  44  1   
 46  19  45  1   
 47  20  46  1   
 48  20  47  1   
 49  20  48  1   
@<TRIPOS>SUBSTRUCTURE
  1 ****  10 GROUP 4 **** **** 0

# MOE 2024.06 (io_trps.svl 2023.06)
