@<TRIPOS>MOLECULE
NONAME
40 41 1 0 0 
SMALL
USER_CHARGES


@<TRIPOS>ATOM
  1 F       -1.6630     0.9570     1.2660 F     1 <1>  -0.1900 
  2 C       -0.9710     1.9170     0.7110 C.ar  1 <1>   0.1900 
  3 C       -1.4700     2.5120    -0.4340 C.ar  1 <1>  -0.1440 
  4 C        0.2200     2.3070     1.2990 C.ar  1 <1>  -0.1500 
  5 C       -0.7190     3.5380    -0.9750 C.ar  1 <1>   0.1900 
  6 C       -2.7650     2.0540    -1.0640 C.3   1 <1>   0.4860 
  7 C        0.9490     3.3380     0.7240 C.ar  1 <1>  -0.1500 
  8 F       -1.1640     4.1390    -2.0460 F     1 <1>  -0.1900 
  9 C        0.4770     3.9620    -0.4220 C.ar  1 <1>  -0.1500 
 10 N       -3.9020     2.4070    -0.1510 N.4   1 <1>  -0.9590 
 11 C       -5.1470     1.6030    -0.3930 C.3   1 <1>   0.4230 
 12 C       -4.1000     3.9000    -0.2110 C.3   1 <1>   0.2630 
 13 C       -6.2840     2.0790     0.5280 C.3   1 <1>  -0.1600 
 14 C       -4.8720     0.1110    -0.1360 C.3   1 <1>  -0.1600 
 15 C       -7.5300     1.2010     0.4090 C.3   1 <1>   0.3430 
 16 C       -6.1390    -0.7390    -0.2420 C.3   1 <1>   0.3430 
 17 N       -7.1810    -0.2190     0.6850 N.4   1 <1>  -0.9590 
 18 C       -8.4090    -1.0790     0.6200 C.3   1 <1>   0.2630 
 19 H        0.5740     1.8140     2.1890 H     1 <1>   0.1500 
 20 H       -2.7030     0.9890    -1.2090 H     1 <1>   0.0800 
 21 H       -2.8980     2.5180    -2.0290 H     1 <1>   0.0800 
 22 H        1.8800     3.6540     1.1660 H     1 <1>   0.1500 
 23 H        1.0310     4.7650    -0.8800 H     1 <1>   0.1500 
 24 H       -3.5540     2.1810     0.7940 H     1 <1>   0.4500 
 25 H       -5.4590     1.7310    -1.4180 H     1 <1>   0.0800 
 26 H       -4.4710     4.1940    -1.1800 H     1 <1>   0.0800 
 27 H       -3.1650     4.4110    -0.0380 H     1 <1>   0.0800 
 28 H       -4.7980     4.2250     0.5430 H     1 <1>   0.0800 
 29 H       -6.5820     3.0770     0.2640 H     1 <1>   0.0800 
 30 H       -5.9600     2.0840     1.5550 H     1 <1>   0.0800 
 31 H       -4.4430    -0.0300     0.8410 H     1 <1>   0.0800 
 32 H       -4.1810    -0.2760    -0.8620 H     1 <1>   0.0800 
 33 H       -7.9460     1.2880    -0.5830 H     1 <1>   0.0800 
 34 H       -8.2770     1.5380     1.1130 H     1 <1>   0.0800 
 35 H       -5.9060    -1.7640     0.0060 H     1 <1>   0.0800 
 36 H       -6.5100    -0.7180    -1.2550 H     1 <1>   0.0800 
 37 H       -6.8230    -0.2880     1.6520 H     1 <1>   0.4500 
 38 H       -8.8390    -1.0540    -0.3690 H     1 <1>   0.0800 
 39 H       -9.1500    -0.7310     1.3240 H     1 <1>   0.0800 
 40 H       -8.1670    -2.1010     0.8630 H     1 <1>   0.0800 
@<TRIPOS>BOND
  1   1   2  1   
  2   2   3  ar  
  3   2   4  ar  
  4   3   5  ar  
  5   3   6  1   
  6   4   7  ar  
  7   4  19  1   
  8   5   8  1   
  9   5   9  ar  
 10   6  10  1   
 11   6  20  1   
 12   6  21  1   
 13   7   9  ar  
 14   7  22  1   
 15   9  23  1   
 16  10  11  1   
 17  10  12  1   
 18  10  24  1   
 19  11  13  1   
 20  11  14  1   
 21  11  25  1   
 22  12  26  1   
 23  12  27  1   
 24  12  28  1   
 25  13  15  1   
 26  13  29  1   
 27  13  30  1   
 28  14  16  1   
 29  14  31  1   
 30  14  32  1   
 31  15  17  1   
 32  15  33  1   
 33  15  34  1   
 34  16  17  1   
 35  16  35  1   
 36  16  36  1   
 37  17  18  1   
 38  17  37  1   
 39  18  38  1   
 40  18  39  1   
 41  18  40  1   
@<TRIPOS>SUBSTRUCTURE
  1 ****  10 GROUP 4 **** **** 0

# MOE 2024.06 (io_trps.svl 2023.06)
