@<TRIPOS>MOLECULE
NONAME
39 41 1 0 0 
SMALL
USER_CHARGES


@<TRIPOS>ATOM
  1 F        1.5770    -0.5390    -0.4650 F     1 <1>  -0.3400 
  2 C        1.1560    -1.8030    -0.5010 C.3   1 <1>   1.0200 
  3 F        2.2690    -2.5300    -0.4850 F     1 <1>  -0.3400 
  4 F        0.6460    -1.9750    -1.7190 F     1 <1>  -0.3400 
  5 C        0.1270    -2.1520     0.6620 C.3   1 <1>   0.5800 
  6 O        0.7120    -2.1220     1.9350 O.3   1 <1>  -0.6800 
  7 N       -0.4690    -3.5220     0.5040 N.am  1 <1>  -0.2980 
  8 C       -1.1430    -1.2520     0.7290 C.3   1 <1>  -0.0190 
  9 N       -1.8300    -3.4470     0.2840 N.2   1 <1>  -0.5120 
 10 C        0.2860    -4.6870     0.6150 C.2   1 <1>   0.5440 
 11 C       -2.2200    -2.2590     0.4070 C.2   1 <1>   0.3280 
 12 C       -1.2790    -0.0030    -0.1780 C.3   1 <1>  -0.1600 
 13 O        1.3900    -4.6070     1.1270 O.2   1 <1>  -0.5700 
 14 C       -0.1850    -5.9720     0.1360 C.ar  1 <1>   0.0860 
 15 C       -3.6480    -1.7650     0.2780 C.3   1 <1>  -0.0990 
 16 C       -2.7100     0.5540    -0.1440 C.3   1 <1>  -0.1600 
 17 C       -1.4550    -6.4820     0.4210 C.ar  1 <1>  -0.1500 
 18 C        0.6560    -6.7750    -0.6400 C.ar  1 <1>  -0.1500 
 19 C       -3.7240    -0.5070    -0.5990 C.3   1 <1>  -0.1600 
 20 C       -1.8680    -7.7090    -0.0600 C.ar  1 <1>  -0.1500 
 21 C        0.2480    -8.0030    -1.1210 C.ar  1 <1>  -0.1500 
 22 C       -1.0240    -8.4840    -0.8440 C.ar  1 <1>   0.1000 
 23 N       -1.4390    -9.7020    -1.3340 N.pl3 1 <1>  -0.9000 
 24 H        1.2470    -2.9500     2.0140 H     1 <1>   0.4000 
 25 H       -1.3000    -0.9350     1.7450 H     1 <1>   0.0800 
 26 H       -1.0510    -0.2440    -1.2010 H     1 <1>   0.0800 
 27 H       -0.5950     0.7620     0.1490 H     1 <1>   0.0800 
 28 H       -4.0190    -1.5380     1.2620 H     1 <1>   0.0800 
 29 H       -4.2630    -2.5430    -0.1380 H     1 <1>   0.0800 
 30 H       -2.7750     1.4100    -0.7940 H     1 <1>   0.0800 
 31 H       -2.9500     0.8820     0.8540 H     1 <1>   0.0800 
 32 H       -2.1260    -5.9050     1.0310 H     1 <1>   0.1500 
 33 H        1.6480    -6.4210    -0.8610 H     1 <1>   0.1500 
 34 H       -4.7200    -0.0990    -0.5580 H     1 <1>   0.0800 
 35 H       -3.5220    -0.7770    -1.6220 H     1 <1>   0.0800 
 36 H       -2.8500    -8.0740     0.1740 H     1 <1>   0.1500 
 37 H        0.9170    -8.5980    -1.7140 H     1 <1>   0.1500 
 38 H       -0.9200   -10.1270    -2.1070 H     1 <1>   0.4000 
 39 H       -2.4410    -9.9080    -1.3540 H     1 <1>   0.4000 
@<TRIPOS>BOND
  1   1   2  1   
  2   2   3  1   
  3   2   4  1   
  4   2   5  1   
  5   5   6  1   
  6   5   7  1   
  7   5   8  1   
  8   6  24  1   
  9   7   9  1   
 10   7  10  am  
 11   8  11  1   
 12   8  12  1   
 13   8  25  1   
 14   9  11  2   
 15  10  13  2   
 16  10  14  1   
 17  11  15  1   
 18  12  16  1   
 19  12  26  1   
 20  12  27  1   
 21  14  17  ar  
 22  14  18  ar  
 23  15  19  1   
 24  15  28  1   
 25  15  29  1   
 26  16  19  1   
 27  16  30  1   
 28  16  31  1   
 29  17  20  ar  
 30  17  32  1   
 31  18  21  ar  
 32  18  33  1   
 33  19  34  1   
 34  19  35  1   
 35  20  22  ar  
 36  20  36  1   
 37  21  22  ar  
 38  21  37  1   
 39  22  23  1   
 40  23  38  1   
 41  23  39  1   
@<TRIPOS>SUBSTRUCTURE
  1 ****   7 GROUP 4 **** **** 0

# MOE 2024.06 (io_trps.svl 2023.06)
