@<TRIPOS>MOLECULE
NONAME
51 53 1 0 0 
SMALL
USER_CHARGES


@<TRIPOS>ATOM
  1 O        1.1420    -2.1670    -1.2660 O.2   1 <1>  -0.5700 
  2 C        0.7950    -2.7360    -0.2470 C.2   1 <1>   0.7060 
  3 O       -0.4270    -3.2740    -0.2530 O.3   1 <1>  -0.2330 
  4 C        1.6090    -2.8660     0.9370 C.2   1 <1>   0.0290 
  5 C       -0.9620    -3.9530     0.7890 C.ar  1 <1>   0.0830 
  6 C        2.9340    -2.2830     0.9740 C.2   1 <1>   0.6160 
  7 C        1.0940    -3.5470     2.0000 C.2   1 <1>  -0.1780 
  8 C       -2.2480    -4.4830     0.6860 C.ar  1 <1>   0.0830 
  9 C       -0.2110    -4.1140     1.9560 C.ar  1 <1>   0.0280 
 10 O        3.6670    -2.4990     1.9210 O.2   1 <1>  -0.5700 
 11 N        3.4310    -1.4840    -0.0180 N.am  1 <1>  -0.7300 
 12 O       -2.9190    -4.2860    -0.4810 O.3   1 <1>  -0.3630 
 13 C       -2.7850    -5.1800     1.7620 C.ar  1 <1>  -0.1500 
 14 C       -0.7730    -4.8170     3.0210 C.ar  1 <1>  -0.1500 
 15 C        4.7200    -0.7710     0.0220 C.3   1 <1>   0.1400 
 16 C       -4.2200    -4.7840    -0.6830 C.3   1 <1>   0.1200 
 17 C       -2.0450    -5.3440     2.9250 C.ar  1 <1>  -0.1500 
 18 C        5.8220    -1.7270    -0.4370 C.3   1 <1>  -0.1600 
 19 C       -4.6620    -4.3850    -2.0870 C.3   1 <1>  -0.2400 
 20 C        7.1970    -1.1180    -0.1780 C.3   1 <1>   0.3430 
 21 N        8.2630    -2.1240    -0.4310 N.4   1 <1>  -0.9590 
 22 C        9.5960    -1.7040     0.1190 C.3   1 <1>   0.3430 
 23 C        8.3980    -2.5450    -1.8700 C.3   1 <1>   0.3430 
 24 C       10.6800    -2.7770    -0.1370 C.3   1 <1>   0.1200 
 25 C        9.5670    -3.5380    -2.0670 C.3   1 <1>   0.1200 
 26 O       10.1620    -3.8720    -0.8430 O.3   1 <1>  -0.5600 
 27 H        1.6580    -3.6770     2.9090 H     1 <1>   0.1500 
 28 H        2.8350    -1.3410    -0.8490 H     1 <1>   0.3700 
 29 H       -3.7710    -5.6030     1.7230 H     1 <1>   0.1500 
 30 H       -0.2060    -4.9490     3.9260 H     1 <1>   0.1500 
 31 H        4.9040    -0.4460     1.0330 H     1 <1>   0.0800 
 32 H        4.6700     0.0980    -0.6130 H     1 <1>   0.0800 
 33 H       -4.8700    -4.3510     0.0580 H     1 <1>   0.0800 
 34 H       -4.1950    -5.8560    -0.5820 H     1 <1>   0.0800 
 35 H       -2.4680    -5.8860     3.7540 H     1 <1>   0.1500 
 36 H        5.6860    -1.9320    -1.4830 H     1 <1>   0.0800 
 37 H        5.7350    -2.6410     0.1240 H     1 <1>   0.0800 
 38 H       -4.6660    -3.3140    -2.1820 H     1 <1>   0.0800 
 39 H       -5.6550    -4.7510    -2.2750 H     1 <1>   0.0800 
 40 H       -3.9950    -4.8080    -2.8170 H     1 <1>   0.0800 
 41 H        7.2440    -0.8020     0.8520 H     1 <1>   0.0800 
 42 H        7.3430    -0.2520    -0.8040 H     1 <1>   0.0800 
 43 H        8.0310    -2.9920     0.0790 H     1 <1>   0.4500 
 44 H        9.5190    -1.5320     1.1800 H     1 <1>   0.0800 
 45 H        9.9070    -0.7790    -0.3370 H     1 <1>   0.0800 
 46 H        8.5650    -1.6820    -2.4940 H     1 <1>   0.0800 
 47 H        7.4870    -3.0130    -2.2030 H     1 <1>   0.0800 
 48 H       11.0660    -3.1440     0.7980 H     1 <1>   0.0800 
 49 H       11.5010    -2.3630    -0.6980 H     1 <1>   0.0800 
 50 H       10.3200    -3.1200    -2.7130 H     1 <1>   0.0800 
 51 H        9.2080    -4.4480    -2.5170 H     1 <1>   0.0800 
@<TRIPOS>BOND
  1   1   2  2   
  2   2   3  1   
  3   2   4  1   
  4   3   5  1   
  5   4   6  1   
  6   4   7  2   
  7   5   8  ar  
  8   5   9  ar  
  9   6  10  2   
 10   6  11  am  
 11   7   9  1   
 12   7  27  1   
 13   8  12  1   
 14   8  13  ar  
 15   9  14  ar  
 16  11  15  1   
 17  11  28  1   
 18  12  16  1   
 19  13  17  ar  
 20  13  29  1   
 21  14  17  ar  
 22  14  30  1   
 23  15  18  1   
 24  15  31  1   
 25  15  32  1   
 26  16  19  1   
 27  16  33  1   
 28  16  34  1   
 29  17  35  1   
 30  18  20  1   
 31  18  36  1   
 32  18  37  1   
 33  19  38  1   
 34  19  39  1   
 35  19  40  1   
 36  20  21  1   
 37  20  41  1   
 38  20  42  1   
 39  21  22  1   
 40  21  23  1   
 41  21  43  1   
 42  22  24  1   
 43  22  44  1   
 44  22  45  1   
 45  23  25  1   
 46  23  46  1   
 47  23  47  1   
 48  24  26  1   
 49  24  48  1   
 50  24  49  1   
 51  25  26  1   
 52  25  50  1   
 53  25  51  1   
@<TRIPOS>SUBSTRUCTURE
  1 ****   6 GROUP 4 **** **** 0

# MOE 2024.06 (io_trps.svl 2023.06)
