@<TRIPOS>MOLECULE
NONAME
45 47 1 0 0 
SMALL
USER_CHARGES


@<TRIPOS>ATOM
  1 O        0.1320    -0.0980     1.3550 O.co2 1 <1>  -0.9000 
  2 C        0.5320    -0.7470     0.3830 C.2   1 <1>   0.9060 
  3 O        0.1260    -0.5120    -0.7550 O.co2 1 <1>  -0.9000 
  4 C        1.6430    -1.7510     0.6440 C.3   1 <1>  -0.1860 
  5 C        3.2310    -1.0910     0.7870 C.3   1 <1>  -0.0190 
  6 C        1.7370    -2.9840    -0.4610 C.3   1 <1>   0.0580 
  7 C        3.4590     0.4290     0.6590 C.2   1 <1>   0.5690 
  8 C        4.1810    -1.9720    -0.2560 C.3   1 <1>   0.0580 
  9 C        2.8440    -3.8320    -1.2770 C.2   1 <1>  -0.2880 
 10 C        2.9130    -2.3780    -0.2920 C.3   1 <1>  -0.1600 
 11 O        4.5580     0.8150     0.3260 O.2   1 <1>  -0.5700 
 12 N        2.4650     1.3050     0.9790 N.am  1 <1>  -0.5470 
 13 C        4.1230    -3.3040    -1.1690 C.2   1 <1>  -0.2880 
 14 C        2.3070     2.6490     0.6310 C.ar  1 <1>   0.1170 
 15 C        3.3460     3.5680     0.6570 C.ar  1 <1>  -0.1500 
 16 C        1.0420     3.0610     0.2430 C.ar  1 <1>  -0.1500 
 17 C        3.1300     4.8940     0.2930 C.ar  1 <1>   0.0820 
 18 C        0.7980     4.3780    -0.1250 C.ar  1 <1>   0.0820 
 19 O        4.1300     5.8260     0.2890 O.3   1 <1>  -0.3630 
 20 C        1.8500     5.2960    -0.0940 C.ar  1 <1>   0.0820 
 21 O       -0.4370     4.8050    -0.5280 O.3   1 <1>  -0.3630 
 22 C        5.4570     5.4680     0.6010 C.3   1 <1>   0.0400 
 23 O        1.6290     6.5970    -0.4400 O.3   1 <1>  -0.3630 
 24 C       -1.5060     3.8890    -0.6490 C.3   1 <1>   0.0400 
 25 C        1.7060     6.8530    -1.8210 C.3   1 <1>   0.0400 
 26 H        1.3800    -2.1840     1.5970 H     1 <1>   0.0800 
 27 H        3.5670    -1.3060     1.7900 H     1 <1>   0.0800 
 28 H        1.0660    -2.6840    -1.2540 H     1 <1>   0.0800 
 29 H        4.5350    -1.2440    -0.9720 H     1 <1>   0.0800 
 30 H        2.5170    -4.7010    -1.8220 H     1 <1>   0.1500 
 31 H        2.7020    -1.6890    -1.2090 H     1 <1>   0.0800 
 32 H        3.1520    -3.1430     0.6260 H     1 <1>   0.0800 
 33 H        1.5670     0.8600     1.2520 H     1 <1>   0.3700 
 34 H        5.0390    -3.6600    -1.6100 H     1 <1>   0.1500 
 35 H        4.3100     3.2190     0.9650 H     1 <1>   0.1500 
 36 H        0.2670     2.3140     0.2320 H     1 <1>   0.1500 
 37 H        5.7860     4.7100    -0.0880 H     1 <1>   0.0800 
 38 H        6.0710     6.3450     0.5030 H     1 <1>   0.0800 
 39 H        5.4920     5.1080     1.6140 H     1 <1>   0.0800 
 40 H       -2.3660     4.4220    -1.0100 H     1 <1>   0.0800 
 41 H       -1.7150     3.4650     0.3170 H     1 <1>   0.0800 
 42 H       -1.2300     3.1180    -1.3480 H     1 <1>   0.0800 
 43 H        2.6900     6.5910    -2.1660 H     1 <1>   0.0800 
 44 H        0.9590     6.2660    -2.3250 H     1 <1>   0.0800 
 45 H        1.5230     7.9000    -1.9780 H     1 <1>   0.0800 
@<TRIPOS>BOND
  1   1   2  ar  
  2   2   3  ar  
  3   2   4  1   
  4   4   5  1   
  5   4   6  1   
  6   4  26  1   
  7   5   7  1   
  8   5   8  1   
  9   5  27  1   
 10   6   9  1   
 11   6  10  1   
 12   6  28  1   
 13   7  11  2   
 14   7  12  am  
 15   8  10  1   
 16   8  13  1   
 17   8  29  1   
 18   9  13  2   
 19   9  30  1   
 20  10  31  1   
 21  10  32  1   
 22  12  14  1   
 23  12  33  1   
 24  13  34  1   
 25  14  15  ar  
 26  14  16  ar  
 27  15  17  ar  
 28  15  35  1   
 29  16  18  ar  
 30  16  36  1   
 31  17  19  1   
 32  17  20  ar  
 33  18  20  ar  
 34  18  21  1   
 35  19  22  1   
 36  20  23  1   
 37  21  24  1   
 38  22  37  1   
 39  22  38  1   
 40  22  39  1   
 41  23  25  1   
 42  24  40  1   
 43  24  41  1   
 44  24  42  1   
 45  25  43  1   
 46  25  44  1   
 47  25  45  1   
@<TRIPOS>SUBSTRUCTURE
  1 ****  12 GROUP 4 **** **** 0

# MOE 2024.06 (io_trps.svl 2023.06)
