@<TRIPOS>MOLECULE
NONAME
44 46 1 0 0 
SMALL
USER_CHARGES


@<TRIPOS>ATOM
  1 CL      -0.0260     0.0570     1.0240 Cl    1 <1>  -0.1770 
  2 C        0.9770    -1.3660     1.1230 C.ar  1 <1>   0.1770 
  3 C        0.5350    -2.5870     0.6360 C.ar  1 <1>  -0.0090 
  4 C        2.2260    -1.2200     1.6980 C.ar  1 <1>  -0.1500 
  5 S       -1.1110    -2.7360    -0.1000 S.o2  1 <1>   1.4470 
  6 C        1.4150    -3.6610     0.7220 C.ar  1 <1>  -0.1500 
  7 C        3.0700    -2.3100     1.7860 C.ar  1 <1>  -0.1500 
  8 O       -1.0670    -2.1970    -1.4420 O.2   1 <1>  -0.6500 
  9 O       -2.1300    -2.2750     0.8180 O.2   1 <1>  -0.6500 
 10 N       -1.3420    -4.4080    -0.2660 N.am  1 <1>  -0.8490 
 11 C        2.6820    -3.5540     1.2920 C.ar  1 <1>   0.0860 
 12 C       -1.7360    -5.1040     0.9510 C.3   1 <1>   0.1960 
 13 C       -2.3570    -4.7480    -1.2460 C.3   1 <1>   0.1960 
 14 C        3.5490    -4.7120     1.3750 C.2   1 <1>   0.5440 
 15 C       -2.2110    -6.4640     0.4590 C.3   1 <1>  -0.1600 
 16 C       -2.6810    -6.2140    -0.9740 C.3   1 <1>  -0.1600 
 17 O        3.1540    -5.6870     1.9840 O.2   1 <1>  -0.5700 
 18 N        4.7930    -4.7400     0.7760 N.am  1 <1>  -0.6600 
 19 C        5.2460    -3.7570    -0.2480 C.3   1 <1>   0.1400 
 20 C        5.7270    -5.8860     0.9700 C.3   1 <1>   0.1400 
 21 C        5.4460    -4.4680    -1.5910 C.3   1 <1>  -0.1600 
 22 C        5.9270    -6.6170    -0.3610 C.3   1 <1>  -0.1600 
 23 C        6.4030    -5.6620    -1.4650 C.3   1 <1>  -0.1600 
 24 H        2.5290    -0.2570     2.0730 H     1 <1>   0.1500 
 25 H        1.1270    -4.6260     0.3380 H     1 <1>   0.1500 
 26 H        4.0410    -2.2080     2.2420 H     1 <1>   0.1500 
 27 H       -2.5570    -4.5940     1.4300 H     1 <1>   0.0800 
 28 H       -0.9140    -5.1910     1.6430 H     1 <1>   0.0800 
 29 H       -1.9920    -4.5940    -2.2490 H     1 <1>   0.0800 
 30 H       -3.2350    -4.1420    -1.0880 H     1 <1>   0.0800 
 31 H       -2.9960    -6.8490     1.0860 H     1 <1>   0.0800 
 32 H       -1.3850    -7.1540     0.4650 H     1 <1>   0.0800 
 33 H       -2.1400    -6.8410    -1.6610 H     1 <1>   0.0800 
 34 H       -3.7350    -6.3940    -1.0900 H     1 <1>   0.0800 
 35 H        6.1750    -3.3200     0.0750 H     1 <1>   0.0800 
 36 H        4.5290    -2.9660    -0.3740 H     1 <1>   0.0800 
 37 H        5.3440    -6.5730     1.7060 H     1 <1>   0.0800 
 38 H        6.6700    -5.5120     1.3270 H     1 <1>   0.0800 
 39 H        5.8350    -3.7690    -2.3100 H     1 <1>   0.0800 
 40 H        4.4900    -4.8080    -1.9490 H     1 <1>   0.0800 
 41 H        4.9940    -7.0710    -0.6470 H     1 <1>   0.0800 
 42 H        6.6460    -7.4060    -0.2280 H     1 <1>   0.0800 
 43 H        7.3900    -5.3060    -1.2270 H     1 <1>   0.0800 
 44 H        6.4560    -6.1880    -2.4030 H     1 <1>   0.0800 
@<TRIPOS>BOND
  1   1   2  1   
  2   2   3  ar  
  3   2   4  ar  
  4   3   5  1   
  5   3   6  ar  
  6   4   7  ar  
  7   4  24  1   
  8   5   8  2   
  9   5   9  2   
 10   5  10  am  
 11   6  11  ar  
 12   6  25  1   
 13   7  11  ar  
 14   7  26  1   
 15  10  12  1   
 16  10  13  1   
 17  11  14  1   
 18  12  15  1   
 19  12  27  1   
 20  12  28  1   
 21  13  16  1   
 22  13  29  1   
 23  13  30  1   
 24  14  17  2   
 25  14  18  am  
 26  15  16  1   
 27  15  31  1   
 28  15  32  1   
 29  16  33  1   
 30  16  34  1   
 31  18  19  1   
 32  18  20  1   
 33  19  21  1   
 34  19  35  1   
 35  19  36  1   
 36  20  22  1   
 37  20  37  1   
 38  20  38  1   
 39  21  23  1   
 40  21  39  1   
 41  21  40  1   
 42  22  23  1   
 43  22  41  1   
 44  22  42  1   
 45  23  43  1   
 46  23  44  1   
@<TRIPOS>SUBSTRUCTURE
  1 ****   6 GROUP 4 **** **** 0

# MOE 2024.06 (io_trps.svl 2023.06)
