@<TRIPOS>MOLECULE
NONAME
44 45 1 0 0 
SMALL
USER_CHARGES


@<TRIPOS>ATOM
  1 S        0.1810     0.9860    -0.9880 S.o2  1 <1>   1.3330 
  2 O        0.5720     2.0400    -1.8980 O.2   1 <1>  -0.6500 
  3 O        0.0260    -0.3660    -1.4760 O.2   1 <1>  -0.6500 
  4 N       -1.2770     1.4460    -0.2600 N.am  1 <1>  -0.8490 
  5 C        1.3170     0.9490     0.4030 C.3   1 <1>  -0.0550 
  6 C       -1.4050     2.9130    -0.1160 C.3   1 <1>   0.1960 
  7 C       -2.4440     0.9310    -1.0090 C.3   1 <1>   0.1960 
  8 C        2.7500     0.5440     0.0200 C.3   1 <1>  -0.1600 
  9 C       -2.7090     3.3190     0.5980 C.3   1 <1>   0.2090 
 10 C       -3.7840     1.2940    -0.3370 C.3   1 <1>   0.2090 
 11 C        3.6710     0.5320     1.2450 C.3   1 <1>  -0.1600 
 12 N       -3.8970     2.7640    -0.1090 N.pl3 1 <1>  -0.8380 
 13 C        5.0950     0.1280     0.8550 C.3   1 <1>  -0.2400 
 14 C       -5.1420     3.2380     0.3030 C.ar  1 <1>   0.1000 
 15 C       -5.9060     4.0540    -0.5320 C.ar  1 <1>  -0.1440 
 16 C       -5.6410     2.9040     1.5580 C.ar  1 <1>  -0.1500 
 17 C       -7.1400     4.5170    -0.1050 C.ar  1 <1>  -0.1500 
 18 C       -5.3910     4.4390    -1.9120 C.3   1 <1>  -0.0970 
 19 C       -6.8730     3.3680     1.9800 C.ar  1 <1>  -0.1500 
 20 C       -7.6250     4.1770     1.1470 C.ar  1 <1>  -0.1500 
 21 H        0.9440     0.2560     1.1310 H     1 <1>   0.0800 
 22 H        1.3440     1.9200     0.8580 H     1 <1>   0.0800 
 23 H       -1.3930     3.3810    -1.0870 H     1 <1>   0.0800 
 24 H       -0.5710     3.2960     0.4440 H     1 <1>   0.0800 
 25 H       -2.3860    -0.1410    -1.0780 H     1 <1>   0.0800 
 26 H       -2.4370     1.3270    -2.0110 H     1 <1>   0.0800 
 27 H        3.1290     1.2360    -0.7130 H     1 <1>   0.0800 
 28 H        2.7310    -0.4360    -0.4290 H     1 <1>   0.0800 
 29 H       -2.7850     4.3920     0.6240 H     1 <1>   0.0800 
 30 H       -2.6890     2.9580     1.6110 H     1 <1>   0.0800 
 31 H       -3.8590     0.7760     0.6020 H     1 <1>   0.0800 
 32 H       -4.5970     0.9720    -0.9640 H     1 <1>   0.0800 
 33 H        3.2960    -0.1640     1.9770 H     1 <1>   0.0800 
 34 H        3.6940     1.5110     1.6940 H     1 <1>   0.0800 
 35 H        5.1020    -0.8580     0.4230 H     1 <1>   0.0800 
 36 H        5.7290     0.1240     1.7240 H     1 <1>   0.0800 
 37 H        5.5020     0.8210     0.1390 H     1 <1>   0.0800 
 38 H       -5.0580     2.2760     2.2040 H     1 <1>   0.1500 
 39 H       -7.7330     5.1460    -0.7440 H     1 <1>   0.1500 
 40 H       -5.2200     3.5510    -2.4930 H     1 <1>   0.0800 
 41 H       -4.4630     4.9710    -1.8150 H     1 <1>   0.0800 
 42 H       -6.0950     5.0620    -2.4320 H     1 <1>   0.0800 
 43 H       -7.2480     3.1020     2.9520 H     1 <1>   0.1500 
 44 H       -8.5840     4.5410     1.4700 H     1 <1>   0.1500 
@<TRIPOS>BOND
  1   1   2  2   
  2   1   3  2   
  3   1   4  am  
  4   1   5  1   
  5   4   6  1   
  6   4   7  1   
  7   5   8  1   
  8   5  21  1   
  9   5  22  1   
 10   6   9  1   
 11   6  23  1   
 12   6  24  1   
 13   7  10  1   
 14   7  25  1   
 15   7  26  1   
 16   8  11  1   
 17   8  27  1   
 18   8  28  1   
 19   9  12  1   
 20   9  29  1   
 21   9  30  1   
 22  10  12  1   
 23  10  31  1   
 24  10  32  1   
 25  11  13  1   
 26  11  33  1   
 27  11  34  1   
 28  12  14  1   
 29  13  35  1   
 30  13  36  1   
 31  13  37  1   
 32  14  15  ar  
 33  14  16  ar  
 34  15  17  ar  
 35  15  18  1   
 36  16  19  ar  
 37  16  38  1   
 38  17  20  ar  
 39  17  39  1   
 40  18  40  1   
 41  18  41  1   
 42  18  42  1   
 43  19  20  ar  
 44  19  43  1   
 45  20  44  1   
@<TRIPOS>SUBSTRUCTURE
  1 ****   6 GROUP 4 **** **** 0

# MOE 2024.06 (io_trps.svl 2023.06)
