@<TRIPOS>MOLECULE
NONAME
44 48 1 0 0 
SMALL
USER_CHARGES


@<TRIPOS>ATOM
  1 S       -0.4790    -0.4060    -2.1010 S.3   1 <1>  -0.0800 
  2 C       -1.7830     0.4970    -1.3180 C.ar  1 <1>   0.2970 
  3 C        0.6240     0.9730    -1.9490 C.ar  1 <1>   0.0400 
  4 N       -2.9610    -0.0630    -1.1220 N.ar  1 <1>  -0.5670 
  5 C       -1.3630     1.7800    -0.9840 C.ar  1 <1>   0.0000 
  6 C        1.9470     1.0790    -2.3490 C.ar  1 <1>   0.1390 
  7 C        0.0170     2.0240    -1.3450 C.ar  1 <1>   0.2560 
  8 C       -3.8330     0.7310    -0.5200 C.ar  1 <1>   0.4100 
  9 C       -2.3110     2.5990    -0.3680 C.ar  1 <1>  -0.1440 
 10 O        2.5480     0.1420    -2.9110 O.3   1 <1>  -0.8290 
 11 N        2.5840     2.2400    -2.1140 N.ar  1 <1>  -0.3100 
 12 N        0.6970     3.1610    -1.1270 N.ar  1 <1>  -0.2560 
 13 N       -5.0780     0.1890    -0.2800 N.pl3 1 <1>  -0.8380 
 14 C       -3.5520     2.0480    -0.1290 C.ar  1 <1>  -0.1440 
 15 C       -2.0290     4.0340     0.0520 C.3   1 <1>  -0.0170 
 16 N        1.9540     3.2350    -1.5170 N.ar  1 <1>   0.0000 
 17 C       -5.8170    -0.3320    -1.4670 C.3   1 <1>   0.2090 
 18 C       -5.1460    -0.7800     0.8500 C.3   1 <1>   0.2090 
 19 C       -4.6520     2.8590     0.5480 C.3   1 <1>   0.2640 
 20 C       -3.3170     4.8340     0.3220 C.3   1 <1>   0.2800 
 21 C       -7.2470    -0.7500    -1.0790 C.3   1 <1>   0.1200 
 22 C       -6.6050    -1.1800     1.1390 C.3   1 <1>   0.1200 
 23 O       -4.1800     4.0620     1.0980 O.3   1 <1>  -0.5600 
 24 C       -4.0260     5.2650    -0.9730 C.3   1 <1>  -0.2400 
 25 C       -3.0090     6.0750     1.1600 C.3   1 <1>  -0.2400 
 26 O       -7.2350    -1.6640    -0.0160 O.3   1 <1>  -0.5600 
 27 H       -1.4700     4.5430    -0.7120 H     1 <1>   0.0800 
 28 H       -1.4220     4.0140     0.9390 H     1 <1>   0.0800 
 29 H       -5.2970    -1.1840    -1.8730 H     1 <1>   0.0800 
 30 H       -5.8530     0.4280    -2.2270 H     1 <1>   0.0800 
 31 H       -4.7110    -0.3370     1.7290 H     1 <1>   0.0800 
 32 H       -4.5770    -1.6600     0.6030 H     1 <1>   0.0800 
 33 H       -5.0830     2.2930     1.3540 H     1 <1>   0.0800 
 34 H       -5.4320     3.0880    -0.1570 H     1 <1>   0.0800 
 35 H       -7.7340    -1.2220    -1.9120 H     1 <1>   0.0800 
 36 H       -7.8200     0.1120    -0.7840 H     1 <1>   0.0800 
 37 H       -7.1590    -0.3320     1.5030 H     1 <1>   0.0800 
 38 H       -6.6350    -1.9580     1.8800 H     1 <1>   0.0800 
 39 H       -4.1790     4.4300    -1.6320 H     1 <1>   0.0800 
 40 H       -3.4200     5.9810    -1.4980 H     1 <1>   0.0800 
 41 H       -4.9710     5.7220    -0.7460 H     1 <1>   0.0800 
 42 H       -2.5670     5.7910     2.0980 H     1 <1>   0.0800 
 43 H       -3.9120     6.6250     1.3550 H     1 <1>   0.0800 
 44 H       -2.3230     6.7180     0.6400 H     1 <1>   0.0800 
@<TRIPOS>BOND
  1   1   2  1   
  2   1   3  1   
  3   2   4  ar  
  4   2   5  ar  
  5   3   6  ar  
  6   3   7  ar  
  7   4   8  ar  
  8   5   7  1   
  9   5   9  ar  
 10   6  10  1   
 11   6  11  ar  
 12   7  12  ar  
 13   8  13  1   
 14   8  14  ar  
 15   9  14  ar  
 16   9  15  1   
 17  11  16  ar  
 18  12  16  ar  
 19  13  17  1   
 20  13  18  1   
 21  14  19  1   
 22  15  20  1   
 23  15  27  1   
 24  15  28  1   
 25  17  21  1   
 26  17  29  1   
 27  17  30  1   
 28  18  22  1   
 29  18  31  1   
 30  18  32  1   
 31  19  23  1   
 32  19  33  1   
 33  19  34  1   
 34  20  23  1   
 35  20  24  1   
 36  20  25  1   
 37  21  26  1   
 38  21  35  1   
 39  21  36  1   
 40  22  26  1   
 41  22  37  1   
 42  22  38  1   
 43  24  39  1   
 44  24  40  1   
 45  24  41  1   
 46  25  42  1   
 47  25  43  1   
 48  25  44  1   
@<TRIPOS>SUBSTRUCTURE
  1 ****   9 GROUP 4 **** **** 0

# MOE 2024.06 (io_trps.svl 2023.06)
