@<TRIPOS>MOLECULE
NONAME
40 42 1 0 0 
SMALL
USER_CHARGES


@<TRIPOS>ATOM
  1 CL       1.6620     1.2710    -3.2180 Cl    1 <1>  -0.1770 
  2 C        2.2810     1.3450    -1.5880 C.ar  1 <1>   0.1770 
  3 C        3.4990     0.7600    -1.3040 C.ar  1 <1>  -0.1500 
  4 C        1.5420     1.9870    -0.6130 C.ar  1 <1>  -0.1500 
  5 C        4.0010     0.8130    -0.0090 C.ar  1 <1>   0.1000 
  6 C        2.0380     2.0430     0.6790 C.ar  1 <1>  -0.1500 
  7 N        5.2220     0.2370     0.3210 N.pl3 1 <1>  -0.8380 
  8 C        3.2580     1.4590     0.9730 C.ar  1 <1>  -0.1500 
  9 C        6.4360     0.8710    -0.2710 C.3   1 <1>   0.2090 
 10 C        5.2590    -1.2540     0.3520 C.3   1 <1>   0.2090 
 11 C        7.7130     0.3610     0.4300 C.3   1 <1>   0.3430 
 12 C        6.5420    -1.7540     1.0510 C.3   1 <1>   0.3430 
 13 N        7.7930    -1.1490     0.4630 N.4   1 <1>  -0.9590 
 14 C        9.0190    -1.6260     1.1560 C.3   1 <1>   0.4860 
 15 C       10.2360    -1.1420     0.3950 C.ar  1 <1>  -0.1430 
 16 C       10.4840    -1.5880    -0.8940 C.ar  1 <1>   0.1900 
 17 C       11.1330    -0.2450     0.9590 C.ar  1 <1>  -0.1500 
 18 F        9.6420    -2.4230    -1.4450 F     1 <1>  -0.1900 
 19 C       11.5780    -1.1750    -1.6290 C.ar  1 <1>  -0.1500 
 20 C       12.2360     0.1830     0.2360 C.ar  1 <1>  -0.1500 
 21 C       12.4610    -0.2780    -1.0530 C.ar  1 <1>  -0.1500 
 22 H        4.0460     0.2700    -2.0840 H     1 <1>   0.1500 
 23 H        0.5960     2.4340    -0.8630 H     1 <1>   0.1500 
 24 H        1.4750     2.5390     1.4520 H     1 <1>   0.1500 
 25 H        3.6460     1.5010     1.9750 H     1 <1>   0.1500 
 26 H        6.3690     1.9400    -0.1560 H     1 <1>   0.0800 
 27 H        6.4850     0.6540    -1.3240 H     1 <1>   0.0800 
 28 H        5.2130    -1.6400    -0.6520 H     1 <1>   0.0800 
 29 H        4.3970    -1.6180     0.8860 H     1 <1>   0.0800 
 30 H        7.7140     0.7440     1.4360 H     1 <1>   0.0800 
 31 H        8.5740     0.7650    -0.0780 H     1 <1>   0.0800 
 32 H        6.5840    -2.8280     0.9790 H     1 <1>   0.0800 
 33 H        6.4720    -1.4940     2.0940 H     1 <1>   0.0800 
 34 H        7.8770    -1.4710    -0.5120 H     1 <1>   0.4500 
 35 H        9.0300    -2.7040     1.1870 H     1 <1>   0.0800 
 36 H        9.0450    -1.2550     2.1680 H     1 <1>   0.0800 
 37 H       10.9930     0.1280     1.9610 H     1 <1>   0.1500 
 38 H       11.7380    -1.5460    -2.6270 H     1 <1>   0.1500 
 39 H       12.9320     0.8780     0.6770 H     1 <1>   0.1500 
 40 H       13.3230     0.0600    -1.6040 H     1 <1>   0.1500 
@<TRIPOS>BOND
  1   1   2  1   
  2   2   3  ar  
  3   2   4  ar  
  4   3   5  ar  
  5   3  22  1   
  6   4   6  ar  
  7   4  23  1   
  8   5   7  1   
  9   5   8  ar  
 10   6   8  ar  
 11   6  24  1   
 12   7   9  1   
 13   7  10  1   
 14   8  25  1   
 15   9  11  1   
 16   9  26  1   
 17   9  27  1   
 18  10  12  1   
 19  10  28  1   
 20  10  29  1   
 21  11  13  1   
 22  11  30  1   
 23  11  31  1   
 24  12  13  1   
 25  12  32  1   
 26  12  33  1   
 27  13  14  1   
 28  13  34  1   
 29  14  15  1   
 30  14  35  1   
 31  14  36  1   
 32  15  16  ar  
 33  15  17  ar  
 34  16  18  1   
 35  16  19  ar  
 36  17  20  ar  
 37  17  37  1   
 38  19  21  ar  
 39  19  38  1   
 40  20  21  ar  
 41  20  39  1   
 42  21  40  1   
@<TRIPOS>SUBSTRUCTURE
  1 ****   9 GROUP 4 **** **** 0

# MOE 2024.06 (io_trps.svl 2023.06)
