@<TRIPOS>MOLECULE
NONAME
33 33 1 0 0 
SMALL
USER_CHARGES


@<TRIPOS>ATOM
  1 O       -0.6910    -0.8070     1.9500 O.2   1 <1>  -0.5700 
  2 C       -0.7070    -0.9760     0.7670 C.2   1 <1>   0.4480 
  3 C       -1.4060    -2.2100     0.1440 C.3   1 <1>   0.3410 
  4 C       -0.0050     0.0120    -0.1470 C.3   1 <1>  -0.1790 
  5 O       -1.7870    -1.9750    -1.1780 O.3   1 <1>  -0.6800 
  6 C       -2.6770    -2.6230     0.9240 C.3   1 <1>  -0.0800 
  7 C       -0.4180    -3.3800     0.1050 C.3   1 <1>  -0.1600 
  8 C       -3.2530    -3.9210     0.3500 C.3   1 <1>   0.3430 
  9 C       -3.7710    -1.5330     0.9460 C.3   1 <1>  -0.2400 
 10 C       -1.0480    -4.6470    -0.4710 C.3   1 <1>   0.4230 
 11 N       -2.2410    -5.0210     0.3450 N.4   1 <1>  -0.9590 
 12 C       -0.0210    -5.7810    -0.4590 C.3   1 <1>  -0.2400 
 13 C       -2.8990    -6.2800    -0.1290 C.3   1 <1>   0.2630 
 14 H        0.6690    -0.5040    -0.8060 H     1 <1>   0.0800 
 15 H        0.5600     0.7120     0.4430 H     1 <1>   0.0800 
 16 H       -0.7240     0.5570    -0.7280 H     1 <1>   0.0800 
 17 H       -2.3070    -1.1470    -1.2370 H     1 <1>   0.4000 
 18 H       -2.4000    -2.8110     1.9480 H     1 <1>   0.0800 
 19 H       -0.0530    -3.5730     1.0980 H     1 <1>   0.0800 
 20 H        0.4310    -3.0990    -0.4940 H     1 <1>   0.0800 
 21 H       -3.5880    -3.7370    -0.6590 H     1 <1>   0.0800 
 22 H       -4.1080    -4.2160     0.9380 H     1 <1>   0.0800 
 23 H       -4.1360    -1.3160    -0.0430 H     1 <1>   0.0800 
 24 H       -3.3940    -0.6230     1.3810 H     1 <1>   0.0800 
 25 H       -4.6040    -1.8550     1.5470 H     1 <1>   0.0800 
 26 H       -1.3530    -4.4510    -1.4880 H     1 <1>   0.0800 
 27 H       -1.9170    -5.1650     1.3100 H     1 <1>   0.4500 
 28 H        0.2400    -6.0600     0.5460 H     1 <1>   0.0800 
 29 H        0.8770    -5.4570    -0.9580 H     1 <1>   0.0800 
 30 H       -0.3790    -6.6400    -0.9940 H     1 <1>   0.0800 
 31 H       -3.1940    -6.1820    -1.1610 H     1 <1>   0.0800 
 32 H       -3.7750    -6.4900     0.4630 H     1 <1>   0.0800 
 33 H       -2.2240    -7.1160    -0.0410 H     1 <1>   0.0800 
@<TRIPOS>BOND
  1   1   2  2   
  2   2   3  1   
  3   2   4  1   
  4   3   5  1   
  5   3   6  1   
  6   3   7  1   
  7   4  14  1   
  8   4  15  1   
  9   4  16  1   
 10   5  17  1   
 11   6   8  1   
 12   6   9  1   
 13   6  18  1   
 14   7  10  1   
 15   7  19  1   
 16   7  20  1   
 17   8  11  1   
 18   8  21  1   
 19   8  22  1   
 20   9  23  1   
 21   9  24  1   
 22   9  25  1   
 23  10  11  1   
 24  10  12  1   
 25  10  26  1   
 26  11  13  1   
 27  11  27  1   
 28  12  28  1   
 29  12  29  1   
 30  12  30  1   
 31  13  31  1   
 32  13  32  1   
 33  13  33  1   
@<TRIPOS>SUBSTRUCTURE
  1 ****   3 GROUP 4 **** **** 0

# MOE 2024.06 (io_trps.svl 2023.06)
