@<TRIPOS>MOLECULE
NONAME
56 59 1 0 0 
SMALL
USER_CHARGES


@<TRIPOS>ATOM
  1 F       -3.8270     1.0300    -1.4830 F     1 <1>  -0.1900 
  2 C       -4.2890    -0.0890    -0.9830 C.ar  1 <1>   0.1900 
  3 C       -3.4750    -0.8310    -0.1480 C.ar  1 <1>  -0.1500 
  4 C       -5.5730    -0.4840    -1.3090 C.ar  1 <1>  -0.1500 
  5 C       -3.9720    -2.0120     0.3750 C.ar  1 <1>  -0.1500 
  6 C       -6.0540    -1.6680    -0.7770 C.ar  1 <1>  -0.1500 
  7 C       -5.2590    -2.4410     0.0680 C.ar  1 <1>   0.1000 
  8 N       -5.7240    -3.6320     0.6120 N.pl3 1 <1>  -0.8380 
  9 C       -6.0060    -4.7280    -0.3690 C.3   1 <1>   0.2090 
 10 C       -6.8400    -3.4990     1.6030 C.3   1 <1>   0.2090 
 11 C       -6.2870    -6.0700     0.3360 C.3   1 <1>   0.2090 
 12 C       -7.1570    -4.8350     2.3060 C.3   1 <1>   0.2090 
 13 N       -7.3970    -5.9500     1.3310 N.pl3 1 <1>  -0.8380 
 14 C       -8.6790    -6.1790     0.8760 C.ar  1 <1>   0.4100 
 15 N       -9.4910    -5.1690     0.7710 N.ar  1 <1>  -0.6200 
 16 C       -9.0480    -7.4840     0.5190 C.ar  1 <1>  -0.1500 
 17 C      -10.7310    -5.4080     0.2860 C.ar  1 <1>   0.3100 
 18 C      -10.2900    -7.7670     0.0400 C.ar  1 <1>  -0.1430 
 19 C      -11.2160    -6.6920    -0.0760 C.ar  1 <1>   0.0000 
 20 C      -11.5510    -4.2850     0.1380 C.ar  1 <1>  -0.1500 
 21 C      -10.5960    -9.2080    -0.3510 C.3   1 <1>  -0.0970 
 22 C      -12.5680    -6.7690    -0.5160 C.ar  1 <1>   0.0830 
 23 C      -12.8360    -4.3690    -0.3390 C.ar  1 <1>   0.0830 
 24 O      -13.0930    -7.9840    -0.8160 O.3   1 <1>  -0.3630 
 25 C      -13.3580    -5.6400    -0.6570 C.ar  1 <1>   0.0830 
 26 O      -13.6130    -3.2670    -0.5260 O.3   1 <1>  -0.3630 
 27 C      -14.0200    -8.5270     0.0980 C.3   1 <1>   0.0400 
 28 O      -14.6320    -5.7740    -1.1370 O.3   1 <1>  -0.3630 
 29 C      -13.0900    -1.9600    -0.4330 C.3   1 <1>   0.0400 
 30 C      -15.6980    -5.2790    -0.3540 C.3   1 <1>   0.0400 
 31 H       -2.4830    -0.4920     0.0830 H     1 <1>   0.1500 
 32 H       -6.1740     0.1210    -1.9620 H     1 <1>   0.1500 
 33 H       -3.3710    -2.6180     1.0290 H     1 <1>   0.1500 
 34 H       -7.0480    -2.0010    -1.0120 H     1 <1>   0.1500 
 35 H       -5.1600    -4.8400    -1.0250 H     1 <1>   0.0800 
 36 H       -6.8620    -4.4650    -0.9660 H     1 <1>   0.0800 
 37 H       -7.7270    -3.1530     1.1010 H     1 <1>   0.0800 
 38 H       -6.5700    -2.7660     2.3420 H     1 <1>   0.0800 
 39 H       -5.3950    -6.3950     0.8400 H     1 <1>   0.0800 
 40 H       -6.5380    -6.8080    -0.4050 H     1 <1>   0.0800 
 41 H       -8.0230    -4.7110     2.9320 H     1 <1>   0.0800 
 42 H       -6.3300    -5.0990     2.9410 H     1 <1>   0.0800 
 43 H       -8.3030    -8.2460     0.6450 H     1 <1>   0.1500 
 44 H      -11.1130    -3.3470     0.4150 H     1 <1>   0.1500 
 45 H       -9.7210    -9.8270    -0.2700 H     1 <1>   0.0800 
 46 H      -10.9370    -9.2500    -1.3700 H     1 <1>   0.0800 
 47 H      -11.3530    -9.6140     0.2940 H     1 <1>   0.0800 
 48 H      -14.1910    -9.5540    -0.1700 H     1 <1>   0.0800 
 49 H      -14.9400    -7.9780     0.0380 H     1 <1>   0.0800 
 50 H      -13.6080    -8.4670     1.0900 H     1 <1>   0.0800 
 51 H      -13.8660    -1.2690    -0.7100 H     1 <1>   0.0800 
 52 H      -12.2600    -1.8660    -1.1120 H     1 <1>   0.0800 
 53 H      -12.7830    -1.7760     0.5810 H     1 <1>   0.0800 
 54 H      -16.5820    -5.8350    -0.6050 H     1 <1>   0.0800 
 55 H      -15.8490    -4.2410    -0.5850 H     1 <1>   0.0800 
 56 H      -15.4630    -5.4060     0.6880 H     1 <1>   0.0800 
@<TRIPOS>BOND
  1   1   2  1   
  2   2   3  ar  
  3   2   4  ar  
  4   3   5  ar  
  5   3  31  1   
  6   4   6  ar  
  7   4  32  1   
  8   5   7  ar  
  9   5  33  1   
 10   6   7  ar  
 11   6  34  1   
 12   7   8  1   
 13   8   9  1   
 14   8  10  1   
 15   9  11  1   
 16   9  35  1   
 17   9  36  1   
 18  10  12  1   
 19  10  37  1   
 20  10  38  1   
 21  11  13  1   
 22  11  39  1   
 23  11  40  1   
 24  12  13  1   
 25  12  41  1   
 26  12  42  1   
 27  13  14  1   
 28  14  15  ar  
 29  14  16  ar  
 30  15  17  ar  
 31  16  18  ar  
 32  16  43  1   
 33  17  19  ar  
 34  17  20  ar  
 35  18  19  ar  
 36  18  21  1   
 37  19  22  ar  
 38  20  23  ar  
 39  20  44  1   
 40  21  45  1   
 41  21  46  1   
 42  21  47  1   
 43  22  24  1   
 44  22  25  ar  
 45  23  25  ar  
 46  23  26  1   
 47  24  27  1   
 48  25  28  1   
 49  26  29  1   
 50  27  48  1   
 51  27  49  1   
 52  27  50  1   
 53  28  30  1   
 54  29  51  1   
 55  29  52  1   
 56  29  53  1   
 57  30  54  1   
 58  30  55  1   
 59  30  56  1   
@<TRIPOS>SUBSTRUCTURE
  1 ****  15 GROUP 4 **** **** 0

# MOE 2024.06 (io_trps.svl 2023.06)
