@<TRIPOS>MOLECULE
NONAME
50 52 1 0 0 
SMALL
USER_CHARGES


@<TRIPOS>ATOM
  1 CL      -3.2110    -1.7950     4.0910 Cl    1 <1>  -0.1770 
  2 C       -3.4320    -2.5170     2.5190 C.ar  1 <1>   0.1770 
  3 C       -2.7760    -1.9830     1.4270 C.ar  1 <1>  -0.1500 
  4 C       -4.2610    -3.6130     2.3850 C.ar  1 <1>  -0.1500 
  5 C       -2.9590    -2.5590     0.1810 C.ar  1 <1>  -0.1500 
  6 C       -4.4330    -4.1800     1.1330 C.ar  1 <1>  -0.1500 
  7 C       -3.7880    -3.6660     0.0100 C.ar  1 <1>  -0.0090 
  8 S       -4.0560    -4.4000    -1.6280 S.o2  1 <1>   1.4470 
  9 O       -3.0930    -3.8550    -2.5600 O.2   1 <1>  -0.6500 
 10 O       -4.2270    -5.8300    -1.5070 O.2   1 <1>  -0.6500 
 11 N       -5.5960    -3.7200    -2.0650 N.am  1 <1>  -0.6930 
 12 C       -6.7580    -4.0490    -1.3830 C.ar  1 <1>   0.1990 
 13 C       -5.5830    -2.5650    -2.9950 C.3   1 <1>   0.1160 
 14 C       -7.2480    -5.3500    -1.3770 C.ar  1 <1>  -0.1500 
 15 C       -7.4680    -3.0860    -0.6720 C.ar  1 <1>  -0.1500 
 16 C       -8.3990    -5.6750    -0.6880 C.ar  1 <1>  -0.1500 
 17 C       -8.6220    -3.4120     0.0140 C.ar  1 <1>  -0.1500 
 18 C       -9.1250    -4.7160     0.0210 C.ar  1 <1>   0.0860 
 19 C      -10.3430    -5.0660     0.7290 C.2   1 <1>   0.5440 
 20 O      -10.5630    -6.2110     1.0780 O.2   1 <1>  -0.5700 
 21 N      -11.3310    -4.1420     0.9830 N.am  1 <1>  -0.6600 
 22 C      -12.0480    -3.5320    -0.1720 C.3   1 <1>   0.1400 
 23 C      -12.2060    -4.3460     2.1760 C.3   1 <1>   0.1400 
 24 C      -13.2770    -4.3910    -0.5450 C.3   1 <1>   0.3430 
 25 C      -13.4140    -5.2230     1.7990 C.3   1 <1>   0.3430 
 26 N      -14.1850    -4.6500     0.6330 N.4   1 <1>  -0.9590 
 27 C      -15.3040    -5.5630     0.2490 C.3   1 <1>   0.2630 
 28 H       -2.1330    -1.1300     1.5550 H     1 <1>   0.1500 
 29 H       -4.7600    -4.0150     3.2490 H     1 <1>   0.1500 
 30 H       -2.4460    -2.1450    -0.6730 H     1 <1>   0.1500 
 31 H       -5.0790    -5.0360     1.0240 H     1 <1>   0.1500 
 32 H       -5.0970    -2.8470    -3.9140 H     1 <1>   0.0800 
 33 H       -5.0450    -1.7440    -2.5540 H     1 <1>   0.0800 
 34 H       -6.5880    -2.2520    -3.2210 H     1 <1>   0.0800 
 35 H       -6.7160    -6.1120    -1.9210 H     1 <1>   0.1500 
 36 H       -7.1010    -2.0760    -0.6510 H     1 <1>   0.1500 
 37 H       -8.7470    -6.6950    -0.6960 H     1 <1>   0.1500 
 38 H       -9.1390    -2.6460     0.5630 H     1 <1>   0.1500 
 39 H      -11.3890    -3.4690    -1.0220 H     1 <1>   0.0800 
 40 H      -12.3570    -2.5330     0.0810 H     1 <1>   0.0800 
 41 H      -12.5350    -3.3940     2.5540 H     1 <1>   0.0800 
 42 H      -11.6430    -4.8330     2.9560 H     1 <1>   0.0800 
 43 H      -12.9200    -5.3320    -0.9330 H     1 <1>   0.0800 
 44 H      -13.8260    -3.8990    -1.3310 H     1 <1>   0.0800 
 45 H      -14.0600    -5.3250     2.6550 H     1 <1>   0.0800 
 46 H      -13.0440    -6.2040     1.5430 H     1 <1>   0.0800 
 47 H      -14.5800    -3.7480     0.9340 H     1 <1>   0.4500 
 48 H      -14.9150    -6.5200    -0.0620 H     1 <1>   0.0800 
 49 H      -15.8720    -5.1410    -0.5640 H     1 <1>   0.0800 
 50 H      -15.9660    -5.7180     1.0860 H     1 <1>   0.0800 
@<TRIPOS>BOND
  1   1   2  1   
  2   2   3  ar  
  3   2   4  ar  
  4   3   5  ar  
  5   3  28  1   
  6   4   6  ar  
  7   4  29  1   
  8   5   7  ar  
  9   5  30  1   
 10   6   7  ar  
 11   6  31  1   
 12   7   8  1   
 13   8   9  2   
 14   8  10  2   
 15   8  11  am  
 16  11  12  1   
 17  11  13  1   
 18  12  14  ar  
 19  12  15  ar  
 20  13  32  1   
 21  13  33  1   
 22  13  34  1   
 23  14  16  ar  
 24  14  35  1   
 25  15  17  ar  
 26  15  36  1   
 27  16  18  ar  
 28  16  37  1   
 29  17  18  ar  
 30  17  38  1   
 31  18  19  1   
 32  19  20  2   
 33  19  21  am  
 34  21  22  1   
 35  21  23  1   
 36  22  24  1   
 37  22  39  1   
 38  22  40  1   
 39  23  25  1   
 40  23  41  1   
 41  23  42  1   
 42  24  26  1   
 43  24  43  1   
 44  24  44  1   
 45  25  26  1   
 46  25  45  1   
 47  25  46  1   
 48  26  27  1   
 49  26  47  1   
 50  27  48  1   
 51  27  49  1   
 52  27  50  1   
@<TRIPOS>SUBSTRUCTURE
  1 ****  17 GROUP 4 **** **** 0

# MOE 2024.06 (io_trps.svl 2023.06)
