@<TRIPOS>MOLECULE
NONAME
47 48 1 0 0 
SMALL
USER_CHARGES


@<TRIPOS>ATOM
  1 O       -0.5450    -0.3100     0.7500 O.3   1 <1>  -0.3630 
  2 C       -1.8270    -0.4410     0.3410 C.ar  1 <1>   0.0830 
  3 C        0.4330    -0.4780    -0.2470 C.3   1 <1>   0.1200 
  4 C       -2.4370    -1.6930     0.3780 C.ar  1 <1>  -0.1440 
  5 C       -2.5270     0.6800    -0.1010 C.ar  1 <1>  -0.1440 
  6 C        1.8090    -0.3630     0.4090 C.3   1 <1>  -0.1600 
  7 C       -3.7430    -1.8200    -0.0650 C.ar  1 <1>  -0.1500 
  8 C       -1.7010    -2.9190     0.9000 C.3   1 <1>  -0.0960 
  9 C       -3.8320     0.5290    -0.5400 C.ar  1 <1>  -0.1500 
 10 C       -1.8910     2.0620    -0.1070 C.3   1 <1>  -0.0970 
 11 C        2.9320    -0.5380    -0.6210 C.3   1 <1>  -0.1600 
 12 C       -4.4370    -0.7150    -0.5260 C.ar  1 <1>  -0.1500 
 13 C        4.3100    -0.4280     0.0450 C.3   1 <1>  -0.1600 
 14 C        5.4450    -0.5990    -0.9690 C.3   1 <1>   0.0210 
 15 C        6.7920    -0.4820    -0.2770 C.2   1 <1>  -0.1810 
 16 C        7.5220     0.6870    -0.0690 C.2   1 <1>   0.1080 
 17 C        7.5470    -1.4600     0.2710 C.2   1 <1>  -0.3320 
 18 N        8.6380     0.4670     0.5510 N.2   1 <1>  -0.7070 
 19 C        7.1100     2.0770    -0.4990 C.3   1 <1>  -0.0590 
 20 N        8.6520    -0.8600     0.7600 N.pl3 1 <1>   0.3000 
 21 C        7.2990    -2.9550     0.3780 C.3   1 <1>  -0.0600 
 22 H        0.2940     0.2860    -0.9910 H     1 <1>   0.0800 
 23 H        0.3000    -1.4460    -0.6950 H     1 <1>   0.0800 
 24 H        1.8970    -1.1190     1.1700 H     1 <1>   0.0800 
 25 H        1.8940     0.6050     0.8740 H     1 <1>   0.0800 
 26 H       -4.2290    -2.7790    -0.0520 H     1 <1>   0.1500 
 27 H       -1.0390    -3.2980     0.1440 H     1 <1>   0.0800 
 28 H       -2.3940    -3.6930     1.1740 H     1 <1>   0.0800 
 29 H       -1.1240    -2.6610     1.7710 H     1 <1>   0.0800 
 30 H       -4.3870     1.3810    -0.8930 H     1 <1>   0.1500 
 31 H       -1.2540     2.1690    -0.9660 H     1 <1>   0.0800 
 32 H       -1.3030     2.2030     0.7830 H     1 <1>   0.0800 
 33 H       -2.6430     2.8290    -0.1360 H     1 <1>   0.0800 
 34 H        2.8410     0.2180    -1.3820 H     1 <1>   0.0800 
 35 H        2.8380    -1.5020    -1.0920 H     1 <1>   0.0800 
 36 H       -5.4510    -0.8230    -0.8690 H     1 <1>   0.1500 
 37 H        4.4070    -1.1840     0.8060 H     1 <1>   0.0800 
 38 H        4.4060     0.5310     0.5230 H     1 <1>   0.0800 
 39 H        5.3710     0.1490    -1.7380 H     1 <1>   0.0800 
 40 H        5.3700    -1.5620    -1.4420 H     1 <1>   0.0800 
 41 H        6.1000     2.2720    -0.1960 H     1 <1>   0.0800 
 42 H        7.1880     2.1610    -1.5670 H     1 <1>   0.0800 
 43 H        7.7570     2.8040    -0.0440 H     1 <1>   0.0800 
 44 H        9.4300    -1.3250     1.2420 H     1 <1>   0.2700 
 45 H        6.3410    -3.2120    -0.0360 H     1 <1>   0.0800 
 46 H        7.3140    -3.2590     1.4090 H     1 <1>   0.0800 
 47 H        8.0590    -3.4950    -0.1580 H     1 <1>   0.0800 
@<TRIPOS>BOND
  1   1   2  1   
  2   1   3  1   
  3   2   4  ar  
  4   2   5  ar  
  5   3   6  1   
  6   3  22  1   
  7   3  23  1   
  8   4   7  ar  
  9   4   8  1   
 10   5   9  ar  
 11   5  10  1   
 12   6  11  1   
 13   6  24  1   
 14   6  25  1   
 15   7  12  ar  
 16   7  26  1   
 17   8  27  1   
 18   8  28  1   
 19   8  29  1   
 20   9  12  ar  
 21   9  30  1   
 22  10  31  1   
 23  10  32  1   
 24  10  33  1   
 25  11  13  1   
 26  11  34  1   
 27  11  35  1   
 28  12  36  1   
 29  13  14  1   
 30  13  37  1   
 31  13  38  1   
 32  14  15  1   
 33  14  39  1   
 34  14  40  1   
 35  15  16  1   
 36  15  17  2   
 37  16  18  2   
 38  16  19  1   
 39  17  20  1   
 40  17  21  1   
 41  18  20  1   
 42  19  41  1   
 43  19  42  1   
 44  19  43  1   
 45  20  44  1   
 46  21  45  1   
 47  21  46  1   
 48  21  47  1   
@<TRIPOS>SUBSTRUCTURE
  1 ****   6 GROUP 4 **** **** 0

# MOE 2024.06 (io_trps.svl 2023.06)
