@<TRIPOS>MOLECULE
NONAME
43 44 1 0 0 
SMALL
USER_CHARGES


@<TRIPOS>ATOM
  1 BR      -0.1790    -0.3760     0.3070 Br    1 <1>  -0.1110 
  2 C       -1.1650    -1.9380    -0.2350 C.ar  1 <1>   0.1110 
  3 C       -1.3500    -2.9540     0.6810 C.ar  1 <1>  -0.1500 
  4 C       -1.6600    -2.0010    -1.5220 C.ar  1 <1>  -0.1500 
  5 C       -2.0640    -4.0810     0.2970 C.ar  1 <1>  -0.1440 
  6 C       -2.3700    -3.1250    -1.9050 C.ar  1 <1>  -0.1500 
  7 C       -2.5760    -4.1680    -1.0000 C.ar  1 <1>   0.0830 
  8 C       -2.2820    -5.2040     1.2970 C.3   1 <1>   0.4870 
  9 O       -3.2790    -5.2880    -1.3220 O.3   1 <1>  -0.3630 
 10 N       -3.7330    -5.4570     1.4170 N.4   1 <1>  -0.9060 
 11 C       -3.8540    -5.4600    -2.6050 C.3   1 <1>   0.0400 
 12 C       -4.5270    -4.3180     1.9150 C.3   1 <1>   0.4860 
 13 C       -5.9200    -4.5250     1.3690 C.ar  1 <1>  -0.1430 
 14 C       -6.1960    -4.1520     0.0610 C.ar  1 <1>  -0.1500 
 15 C       -6.9200    -5.0950     2.1430 C.ar  1 <1>  -0.1500 
 16 C       -7.4500    -4.3600    -0.4840 C.ar  1 <1>   0.0830 
 17 C       -8.1770    -5.3110     1.6030 C.ar  1 <1>  -0.1500 
 18 O       -7.6340    -3.9560    -1.7650 O.3   1 <1>  -0.3630 
 19 C       -8.4470    -4.9670     0.2890 C.ar  1 <1>   0.0830 
 20 C       -8.6180    -2.9670    -1.9880 C.3   1 <1>   0.0400 
 21 O       -9.6840    -5.2430    -0.1860 O.3   1 <1>  -0.3630 
 22 C       -9.7700    -6.2370    -1.1840 C.3   1 <1>   0.0400 
 23 H       -0.9320    -2.8460     1.6670 H     1 <1>   0.1500 
 24 H       -1.4910    -1.1870    -2.2070 H     1 <1>   0.1500 
 25 H       -2.7490    -3.1650    -2.9100 H     1 <1>   0.1500 
 26 H       -1.8650    -4.9400     2.2550 H     1 <1>   0.0800 
 27 H       -1.7840    -6.0910     0.9370 H     1 <1>   0.0800 
 28 H       -3.9500    -6.3110     1.9360 H     1 <1>   0.4500 
 29 H       -4.0520    -5.6120     0.4450 H     1 <1>   0.4500 
 30 H       -4.3550    -6.4110    -2.6290 H     1 <1>   0.0800 
 31 H       -3.0730    -5.4450    -3.3460 H     1 <1>   0.0800 
 32 H       -4.5660    -4.6730    -2.7840 H     1 <1>   0.0800 
 33 H       -4.1350    -3.3860     1.5400 H     1 <1>   0.0800 
 34 H       -4.5340    -4.2920     2.9920 H     1 <1>   0.0800 
 35 H       -5.4480    -3.6880    -0.5580 H     1 <1>   0.1500 
 36 H       -6.7420    -5.3800     3.1670 H     1 <1>   0.1500 
 37 H       -8.9590    -5.7530     2.1950 H     1 <1>   0.1500 
 38 H       -8.5320    -2.6300    -3.0050 H     1 <1>   0.0800 
 39 H       -8.4490    -2.1470    -1.3130 H     1 <1>   0.0800 
 40 H       -9.5930    -3.3870    -1.8270 H     1 <1>   0.0800 
 41 H      -10.8080    -6.3890    -1.4180 H     1 <1>   0.0800 
 42 H       -9.3410    -7.1470    -0.8050 H     1 <1>   0.0800 
 43 H       -9.2410    -5.9100    -2.0610 H     1 <1>   0.0800 
@<TRIPOS>BOND
  1   1   2  1   
  2   2   3  ar  
  3   2   4  ar  
  4   3   5  ar  
  5   3  23  1   
  6   4   6  ar  
  7   4  24  1   
  8   5   7  ar  
  9   5   8  1   
 10   6   7  ar  
 11   6  25  1   
 12   7   9  1   
 13   8  10  1   
 14   8  26  1   
 15   8  27  1   
 16   9  11  1   
 17  10  12  1   
 18  10  28  1   
 19  10  29  1   
 20  11  30  1   
 21  11  31  1   
 22  11  32  1   
 23  12  13  1   
 24  12  33  1   
 25  12  34  1   
 26  13  14  ar  
 27  13  15  ar  
 28  14  16  ar  
 29  14  35  1   
 30  15  17  ar  
 31  15  36  1   
 32  16  18  1   
 33  16  19  ar  
 34  17  19  ar  
 35  17  37  1   
 36  18  20  1   
 37  19  21  1   
 38  20  38  1   
 39  20  39  1   
 40  20  40  1   
 41  21  22  1   
 42  22  41  1   
 43  22  42  1   
 44  22  43  1   
@<TRIPOS>SUBSTRUCTURE
  1 ****  14 GROUP 4 **** **** 0

# MOE 2024.06 (io_trps.svl 2023.06)
