@<TRIPOS>MOLECULE
NONAME
32 34 1 0 0 
SMALL
USER_CHARGES


@<TRIPOS>ATOM
  1 O        0.2340    -1.5170     1.7040 O.2   1 <1>  -0.5700 
  2 C       -0.3070    -2.1240     0.8000 C.2   1 <1>   0.5440 
  3 N        0.3350    -2.9160    -0.1470 N.am  1 <1>  -0.0580 
  4 C       -1.7190    -2.1580     0.5580 C.ar  1 <1>   0.0860 
  5 N        1.7130    -2.8970    -0.4050 N.2   1 <1>  -0.5120 
  6 C       -0.6510    -3.4410    -0.9800 C.2   1 <1>   0.5440 
  7 C       -1.9320    -2.9710    -0.5420 C.ar  1 <1>   0.0860 
  8 C       -2.7930    -1.5540     1.2020 C.ar  1 <1>  -0.1500 
  9 C        2.4130    -3.9490    -0.4980 C.2   1 <1>   0.3280 
 10 O       -0.4600    -4.1880    -1.9200 O.2   1 <1>  -0.5700 
 11 C       -3.2200    -3.1930    -1.0120 C.ar  1 <1>  -0.1500 
 12 C       -4.0770    -1.7750     0.7330 C.ar  1 <1>  -0.1500 
 13 C        3.8930    -3.8490    -0.8360 C.3   1 <1>  -0.0990 
 14 C        1.9510    -5.3920    -0.2910 C.3   1 <1>  -0.0990 
 15 C       -4.2900    -2.5920    -0.3700 C.ar  1 <1>  -0.1500 
 16 C        4.7580    -4.5700     0.2070 C.3   1 <1>  -0.1600 
 17 C        2.8270    -6.1170     0.7420 C.3   1 <1>  -0.1600 
 18 C        4.3150    -6.0290     0.3780 C.3   1 <1>  -0.1600 
 19 H       -2.6130    -0.9230     2.0560 H     1 <1>   0.1500 
 20 H       -3.3720    -3.8280    -1.8690 H     1 <1>   0.1500 
 21 H       -4.9160    -1.3120     1.2260 H     1 <1>   0.1500 
 22 H        4.0540    -4.2850    -1.8050 H     1 <1>   0.0800 
 23 H        4.1810    -2.8130    -0.8880 H     1 <1>   0.0800 
 24 H        0.9320    -5.4350     0.0420 H     1 <1>   0.0800 
 25 H        2.0040    -5.9040    -1.2350 H     1 <1>   0.0800 
 26 H       -5.2940    -2.7570    -0.7270 H     1 <1>   0.1500 
 27 H        5.7910    -4.5360    -0.0940 H     1 <1>   0.0800 
 28 H        4.6710    -4.0580     1.1510 H     1 <1>   0.0800 
 29 H        2.6720    -5.6690     1.7090 H     1 <1>   0.0800 
 30 H        2.5300    -7.1500     0.8050 H     1 <1>   0.0800 
 31 H        4.9020    -6.4940     1.1520 H     1 <1>   0.0800 
 32 H        4.4930    -6.5680    -0.5370 H     1 <1>   0.0800 
@<TRIPOS>BOND
  1   1   2  2   
  2   2   3  am  
  3   2   4  1   
  4   3   5  1   
  5   3   6  am  
  6   4   7  ar  
  7   4   8  ar  
  8   5   9  2   
  9   6   7  1   
 10   6  10  2   
 11   7  11  ar  
 12   8  12  ar  
 13   8  19  1   
 14   9  13  1   
 15   9  14  1   
 16  11  15  ar  
 17  11  20  1   
 18  12  15  ar  
 19  12  21  1   
 20  13  16  1   
 21  13  22  1   
 22  13  23  1   
 23  14  17  1   
 24  14  24  1   
 25  14  25  1   
 26  15  26  1   
 27  16  18  1   
 28  16  27  1   
 29  16  28  1   
 30  17  18  1   
 31  17  29  1   
 32  17  30  1   
 33  18  31  1   
 34  18  32  1   
@<TRIPOS>SUBSTRUCTURE
  1 ****   3 GROUP 4 **** **** 0

# MOE 2024.06 (io_trps.svl 2023.06)
