@<TRIPOS>MOLECULE
NONAME
46 47 1 0 0 
SMALL
USER_CHARGES


@<TRIPOS>ATOM
  1 S       -0.9730     1.2820     0.6850 S.o2  1 <1>   1.4470 
  2 O       -1.7590     2.4840     0.8740 O.2   1 <1>  -0.6500 
  3 O       -1.0500     0.2350     1.6780 O.2   1 <1>  -0.6500 
  4 N       -1.4630     0.6080    -0.7920 N.am  1 <1>  -0.8490 
  5 C        0.7700     1.7020     0.3970 C.ar  1 <1>  -0.0090 
  6 C       -2.6560    -0.2850    -0.6610 C.3   1 <1>   0.2570 
  7 C       -1.5850     1.5980    -1.8670 C.3   1 <1>   0.1960 
  8 C        1.6520     0.7520    -0.1160 C.ar  1 <1>  -0.1500 
  9 C        1.2610     2.9750     0.6840 C.ar  1 <1>  -0.1500 
 10 C       -4.0510     0.3660    -0.6190 C.2   1 <1>   0.5690 
 11 C       -1.6490     0.9130    -3.2300 C.3   1 <1>  -0.2400 
 12 C        2.9840     1.0570    -0.3440 C.ar  1 <1>  -0.1500 
 13 C        2.5900     3.2990     0.4630 C.ar  1 <1>  -0.1500 
 14 O       -4.9290    -0.1400    -1.2780 O.2   1 <1>  -0.5700 
 15 N       -4.2820     1.4790     0.1270 N.am  1 <1>  -0.7300 
 16 C        3.4290     2.3300    -0.0500 C.ar  1 <1>   0.1900 
 17 C       -5.5580     2.1950     0.2370 C.3   1 <1>   0.2200 
 18 F        4.6810     2.6270    -0.2630 F     1 <1>  -0.1900 
 19 C       -5.4030     3.5720    -0.4160 C.3   1 <1>  -0.1600 
 20 C       -5.9230     2.3210     1.7190 C.3   1 <1>  -0.1600 
 21 C       -6.6680     4.4210    -0.2310 C.3   1 <1>  -0.1600 
 22 C       -7.1910     3.1670     1.9090 C.3   1 <1>  -0.1600 
 23 C       -7.0390     4.5470     1.2530 C.3   1 <1>  -0.1600 
 24 H       -2.5580    -0.9060     0.2110 H     1 <1>   0.0800 
 25 H       -2.6540    -0.9610    -1.4970 H     1 <1>   0.0800 
 26 H       -0.7190     2.2390    -1.8590 H     1 <1>   0.0800 
 27 H       -2.4530     2.2220    -1.7210 H     1 <1>   0.0800 
 28 H        1.2880    -0.2380    -0.3380 H     1 <1>   0.1500 
 29 H        0.5960     3.7220     1.0870 H     1 <1>   0.1500 
 30 H       -0.8240     0.2330    -3.3470 H     1 <1>   0.0800 
 31 H       -1.5900     1.6550    -4.0050 H     1 <1>   0.0800 
 32 H       -2.5770     0.3830    -3.3550 H     1 <1>   0.0800 
 33 H        3.6660     0.3250    -0.7410 H     1 <1>   0.1500 
 34 H        2.9720     4.2800     0.6840 H     1 <1>   0.1500 
 35 H       -3.4990     1.9410     0.6090 H     1 <1>   0.3700 
 36 H       -6.3320     1.6450    -0.2730 H     1 <1>   0.0800 
 37 H       -5.2100     3.4450    -1.4670 H     1 <1>   0.0800 
 38 H       -4.5670     4.0860     0.0260 H     1 <1>   0.0800 
 39 H       -5.1100     2.7840     2.2510 H     1 <1>   0.0800 
 40 H       -6.0850     1.3400     2.1290 H     1 <1>   0.0800 
 41 H       -7.4850     3.9640    -0.7640 H     1 <1>   0.0800 
 42 H       -6.5100     5.4010    -0.6480 H     1 <1>   0.0800 
 43 H       -7.3900     3.2870     2.9610 H     1 <1>   0.0800 
 44 H       -8.0300     2.6550     1.4710 H     1 <1>   0.0800 
 45 H       -7.9600     5.0950     1.3500 H     1 <1>   0.0800 
 46 H       -6.2710     5.1010     1.7660 H     1 <1>   0.0800 
@<TRIPOS>BOND
  1   1   2  2   
  2   1   3  2   
  3   1   4  am  
  4   1   5  1   
  5   4   6  1   
  6   4   7  1   
  7   5   8  ar  
  8   5   9  ar  
  9   6  10  1   
 10   6  24  1   
 11   6  25  1   
 12   7  11  1   
 13   7  26  1   
 14   7  27  1   
 15   8  12  ar  
 16   8  28  1   
 17   9  13  ar  
 18   9  29  1   
 19  10  14  2   
 20  10  15  am  
 21  11  30  1   
 22  11  31  1   
 23  11  32  1   
 24  12  16  ar  
 25  12  33  1   
 26  13  16  ar  
 27  13  34  1   
 28  15  17  1   
 29  15  35  1   
 30  16  18  1   
 31  17  19  1   
 32  17  20  1   
 33  17  36  1   
 34  19  21  1   
 35  19  37  1   
 36  19  38  1   
 37  20  22  1   
 38  20  39  1   
 39  20  40  1   
 40  21  23  1   
 41  21  41  1   
 42  21  42  1   
 43  22  23  1   
 44  22  43  1   
 45  22  44  1   
 46  23  45  1   
 47  23  46  1   
@<TRIPOS>SUBSTRUCTURE
  1 ****   2 GROUP 4 **** **** 0

# MOE 2024.06 (io_trps.svl 2023.06)
