@<TRIPOS>MOLECULE
NONAME
38 38 1 0 0 
SMALL
USER_CHARGES


@<TRIPOS>ATOM
  1 O       -0.5140     0.3900     0.0840 O.2   1 <1>  -0.5700 
  2 C       -0.3100     1.5670    -0.1740 C.2   1 <1>   0.5440 
  3 N       -1.3200     2.3120    -0.7120 N.am  1 <1>  -0.4300 
  4 C        0.9750     2.1900     0.0760 C.ar  1 <1>   0.0860 
  5 N       -2.7370     1.9500    -0.6600 N.am  1 <1>  -0.4300 
  6 C        2.1770     1.7140    -0.4660 C.ar  1 <1>  -0.1430 
  7 C        1.0280     3.3270     0.8840 C.ar  1 <1>  -0.1500 
  8 C       -3.6080     2.3810     0.2920 C.2   1 <1>   0.5690 
  9 C        3.3700     2.3700    -0.2030 C.ar  1 <1>  -0.1500 
 10 C        2.2000     0.4740    -1.3510 C.3   1 <1>  -0.0960 
 11 C        2.2190     3.9780     1.1410 C.ar  1 <1>  -0.1500 
 12 O       -3.3390     3.3010     1.0370 O.2   1 <1>  -0.5700 
 13 C       -4.9690     1.6950     0.4220 C.3   1 <1>  -0.0190 
 14 C        3.3940     3.4980     0.5950 C.ar  1 <1>  -0.1500 
 15 C       -4.7610     0.2500     0.9370 C.3   1 <1>  -0.1600 
 16 C       -5.7570     1.7770    -0.9090 C.3   1 <1>  -0.1600 
 17 C       -6.0520    -0.5140     1.2530 C.3   1 <1>  -0.2400 
 18 C       -7.2680     1.9750    -0.7160 C.3   1 <1>  -0.2400 
 19 H       -1.1200     3.2810    -0.9810 H     1 <1>   0.3700 
 20 H       -3.0100     1.1620    -1.2540 H     1 <1>   0.3700 
 21 H        0.1170     3.7010     1.3230 H     1 <1>   0.1500 
 22 H        4.2930     2.0040    -0.6180 H     1 <1>   0.1500 
 23 H        1.4840     0.5690    -2.1480 H     1 <1>   0.0800 
 24 H        1.9500    -0.3950    -0.7660 H     1 <1>   0.0800 
 25 H        3.1710     0.3220    -1.7850 H     1 <1>   0.0800 
 26 H        2.2330     4.8530     1.7680 H     1 <1>   0.1500 
 27 H       -5.5110     2.2430     1.1740 H     1 <1>   0.0800 
 28 H        4.3260     4.0000     0.7930 H     1 <1>   0.1500 
 29 H       -4.1750     0.3000     1.8400 H     1 <1>   0.0800 
 30 H       -4.1880    -0.3170     0.2230 H     1 <1>   0.0800 
 31 H       -5.5770     0.8970    -1.5030 H     1 <1>   0.0800 
 32 H       -5.4020     2.6230    -1.4750 H     1 <1>   0.0800 
 33 H       -6.6830     0.0630     1.9060 H     1 <1>   0.0800 
 34 H       -5.8130    -1.4410     1.7440 H     1 <1>   0.0800 
 35 H       -6.5890    -0.7460     0.3510 H     1 <1>   0.0800 
 36 H       -7.7120     1.1580    -0.1810 H     1 <1>   0.0800 
 37 H       -7.7510     2.0510    -1.6740 H     1 <1>   0.0800 
 38 H       -7.4590     2.8830    -0.1710 H     1 <1>   0.0800 
@<TRIPOS>BOND
  1   1   2  2   
  2   2   3  am  
  3   2   4  1   
  4   3   5  1   
  5   3  19  1   
  6   4   6  ar  
  7   4   7  ar  
  8   5   8  am  
  9   5  20  1   
 10   6   9  ar  
 11   6  10  1   
 12   7  11  ar  
 13   7  21  1   
 14   8  12  2   
 15   8  13  1   
 16   9  14  ar  
 17   9  22  1   
 18  10  23  1   
 19  10  24  1   
 20  10  25  1   
 21  11  14  ar  
 22  11  26  1   
 23  13  15  1   
 24  13  16  1   
 25  13  27  1   
 26  14  28  1   
 27  15  17  1   
 28  15  29  1   
 29  15  30  1   
 30  16  18  1   
 31  16  31  1   
 32  16  32  1   
 33  17  33  1   
 34  17  34  1   
 35  17  35  1   
 36  18  36  1   
 37  18  37  1   
 38  18  38  1   
@<TRIPOS>SUBSTRUCTURE
  1 ****   3 GROUP 4 **** **** 0

# MOE 2024.06 (io_trps.svl 2023.06)
