@<TRIPOS>MOLECULE
NONAME
47 49 1 0 0 
SMALL
USER_CHARGES


@<TRIPOS>ATOM
  1 S       -0.9530     0.1910    -1.2000 S.o2  1 <1>   1.5760 
  2 O       -1.1400    -0.1340    -2.5970 O.2   1 <1>  -0.6500 
  3 O       -0.1040     1.2870    -0.7890 O.2   1 <1>  -0.6500 
  4 N       -0.4690    -1.2100    -0.3790 N.am  1 <1>  -0.8490 
  5 N       -2.4770     0.4200    -0.5110 N.am  1 <1>  -0.8490 
  6 C        0.6870    -0.9830     0.5040 C.3   1 <1>   0.1960 
  7 C       -0.1750    -2.3290    -1.2890 C.3   1 <1>   0.1960 
  8 C       -2.4270     0.7060     0.9290 C.3   1 <1>   0.1960 
  9 C       -3.4200    -0.6640    -0.8200 C.3   1 <1>   0.1960 
 10 C        1.0860    -2.2730     1.2420 C.3   1 <1>   0.1200 
 11 C        0.2500    -3.5860    -0.5080 C.3   1 <1>   0.1200 
 12 C       -3.8180     1.0540     1.4840 C.3   1 <1>   0.1400 
 13 C       -4.8340    -0.3630    -0.2930 C.3   1 <1>   0.1400 
 14 O        1.3350    -3.3040     0.3290 O.3   1 <1>  -0.5600 
 15 N       -4.8090    -0.0190     1.1640 N.am  1 <1>  -0.6600 
 16 C       -5.6310    -0.5480     2.1300 C.2   1 <1>   0.5690 
 17 O       -5.5190    -0.2250     3.2900 O.2   1 <1>  -0.5700 
 18 C       -6.7110    -1.5720     1.7970 C.3   1 <1>   0.0440 
 19 C       -7.7520    -1.0750     0.7950 C.ar  1 <1>  -0.1440 
 20 C       -8.2880     0.1990     0.9100 C.ar  1 <1>  -0.1500 
 21 C       -8.1720    -1.8960    -0.2420 C.ar  1 <1>  -0.1500 
 22 C       -9.2210     0.6520    -0.0060 C.ar  1 <1>  -0.1500 
 23 C       -9.1050    -1.4440    -1.1590 C.ar  1 <1>  -0.1500 
 24 C       -9.6290    -0.1690    -1.0420 C.ar  1 <1>  -0.1500 
 25 H        0.4460    -0.2250     1.2310 H     1 <1>   0.0800 
 26 H        1.5290    -0.6330    -0.0700 H     1 <1>   0.0800 
 27 H        0.6140    -2.0540    -1.9700 H     1 <1>   0.0800 
 28 H       -1.0500    -2.5620    -1.8720 H     1 <1>   0.0800 
 29 H       -1.7700     1.5400     1.1080 H     1 <1>   0.0800 
 30 H       -2.0440    -0.1450     1.4640 H     1 <1>   0.0800 
 31 H       -3.0750    -1.5860    -0.3840 H     1 <1>   0.0800 
 32 H       -3.4740    -0.7990    -1.8870 H     1 <1>   0.0800 
 33 H        0.3020    -2.5850     1.9100 H     1 <1>   0.0800 
 34 H        1.9850    -2.1140     1.8110 H     1 <1>   0.0800 
 35 H        0.5540    -4.3620    -1.1880 H     1 <1>   0.0800 
 36 H       -0.5640    -3.9500     0.0940 H     1 <1>   0.0800 
 37 H       -4.1490     1.9790     1.0480 H     1 <1>   0.0800 
 38 H       -3.7440     1.1990     2.5480 H     1 <1>   0.0800 
 39 H       -5.4540    -1.2200    -0.4770 H     1 <1>   0.0800 
 40 H       -5.2460     0.4660    -0.8410 H     1 <1>   0.0800 
 41 H       -7.2200    -1.8370     2.7060 H     1 <1>   0.0800 
 42 H       -6.2300    -2.4580     1.4310 H     1 <1>   0.0800 
 43 H       -7.9800     0.8470     1.7130 H     1 <1>   0.1500 
 44 H       -7.7790    -2.8920    -0.3440 H     1 <1>   0.1500 
 45 H       -9.6310     1.6420     0.0900 H     1 <1>   0.1500 
 46 H       -9.4270    -2.0840    -1.9620 H     1 <1>   0.1500 
 47 H      -10.3550     0.1840    -1.7540 H     1 <1>   0.1500 
@<TRIPOS>BOND
  1   1   2  2   
  2   1   3  2   
  3   1   4  am  
  4   1   5  am  
  5   4   6  1   
  6   4   7  1   
  7   5   8  1   
  8   5   9  1   
  9   6  10  1   
 10   6  25  1   
 11   6  26  1   
 12   7  11  1   
 13   7  27  1   
 14   7  28  1   
 15   8  12  1   
 16   8  29  1   
 17   8  30  1   
 18   9  13  1   
 19   9  31  1   
 20   9  32  1   
 21  10  14  1   
 22  10  33  1   
 23  10  34  1   
 24  11  14  1   
 25  11  35  1   
 26  11  36  1   
 27  12  15  1   
 28  12  37  1   
 29  12  38  1   
 30  13  15  1   
 31  13  39  1   
 32  13  40  1   
 33  15  16  am  
 34  16  17  2   
 35  16  18  1   
 36  18  19  1   
 37  18  41  1   
 38  18  42  1   
 39  19  20  ar  
 40  19  21  ar  
 41  20  22  ar  
 42  20  43  1   
 43  21  23  ar  
 44  21  44  1   
 45  22  24  ar  
 46  22  45  1   
 47  23  24  ar  
 48  23  46  1   
 49  24  47  1   
@<TRIPOS>SUBSTRUCTURE
  1 ****   9 GROUP 4 **** **** 0

# MOE 2024.06 (io_trps.svl 2023.06)
