@<TRIPOS>MOLECULE
NONAME
48 50 1 0 0 
SMALL
USER_CHARGES


@<TRIPOS>ATOM
  1 S        0.0290     0.0000     0.0470 S.o2  1 <1>   1.0900 
  2 O       -0.0170    -0.6590    -1.2400 O.2   1 <1>  -0.6500 
  3 O       -0.0150    -0.7640     1.2760 O.2   1 <1>  -0.6500 
  4 C        1.4980     1.0360     0.0870 C.3   1 <1>   0.0890 
  5 C       -1.2770     1.2350     0.1020 C.3   1 <1>   0.0890 
  6 C        2.8090     0.2590     0.0700 C.ar  1 <1>  -0.1440 
  7 C       -2.6860     0.6580     0.0630 C.ar  1 <1>  -0.1440 
  8 C        3.5420     0.0850     1.2330 C.ar  1 <1>  -0.1500 
  9 C        3.2790    -0.2910    -1.1120 C.ar  1 <1>  -0.1500 
 10 C       -3.4630     0.7750    -1.0800 C.ar  1 <1>  -0.1500 
 11 C       -3.2040     0.0100     1.1740 C.ar  1 <1>  -0.1500 
 12 C        4.7360    -0.6120     1.2060 C.ar  1 <1>  -0.1500 
 13 C        4.4740    -0.9860    -1.1310 C.ar  1 <1>  -0.1500 
 14 C       -4.7470     0.2580    -1.1080 C.ar  1 <1>  -0.1500 
 15 C       -4.4880    -0.5070     1.1460 C.ar  1 <1>  -0.1500 
 16 C        5.2370    -1.1520     0.0220 C.ar  1 <1>   0.0860 
 17 C       -5.2610    -0.3810     0.0060 C.ar  1 <1>  -0.1500 
 18 C        6.5000    -1.8680    -0.0140 C.2   1 <1>   0.5440 
 19 O        6.5230    -3.0000    -0.4600 O.2   1 <1>  -0.5700 
 20 N        7.6760    -1.2970     0.4340 N.am  1 <1>  -0.6600 
 21 C        7.8580     0.1660     0.6480 C.3   1 <1>   0.1400 
 22 C        8.9260    -2.0960     0.5850 C.3   1 <1>   0.1400 
 23 C        8.9230     0.7030    -0.3160 C.3   1 <1>  -0.1600 
 24 C        9.9930    -1.5780    -0.3840 C.3   1 <1>  -0.1600 
 25 C       10.2410    -0.0740    -0.1990 C.3   1 <1>  -0.1600 
 26 H        1.4770     1.6470     0.9680 H     1 <1>   0.0800 
 27 H        1.4920     1.6940    -0.7600 H     1 <1>   0.0800 
 28 H       -1.1640     1.9080    -0.7250 H     1 <1>   0.0800 
 29 H       -1.1850     1.8120     1.0010 H     1 <1>   0.0800 
 30 H        3.1860     0.4830     2.1680 H     1 <1>   0.1500 
 31 H        2.7130    -0.1910    -2.0240 H     1 <1>   0.1500 
 32 H       -3.0770     1.2630    -1.9580 H     1 <1>   0.1500 
 33 H       -2.6110    -0.1040     2.0660 H     1 <1>   0.1500 
 34 H        5.2950    -0.7500     2.1150 H     1 <1>   0.1500 
 35 H        4.8300    -1.4190    -2.0510 H     1 <1>   0.1500 
 36 H       -5.3450     0.3510    -1.9980 H     1 <1>   0.1500 
 37 H       -4.8830    -1.0100     2.0120 H     1 <1>   0.1500 
 38 H       -6.2580    -0.7840    -0.0160 H     1 <1>   0.1500 
 39 H        8.1680     0.3340     1.6650 H     1 <1>   0.0800 
 40 H        6.9390     0.7000     0.4840 H     1 <1>   0.0800 
 41 H        8.7390    -3.1390     0.3940 H     1 <1>   0.0800 
 42 H        9.2760    -2.0050     1.5980 H     1 <1>   0.0800 
 43 H        9.0980     1.7440    -0.1090 H     1 <1>   0.0800 
 44 H        8.5470     0.6270    -1.3210 H     1 <1>   0.0800 
 45 H        9.6660    -1.7740    -1.3900 H     1 <1>   0.0800 
 46 H       10.9080    -2.1200    -0.2260 H     1 <1>   0.0800 
 47 H       10.6750     0.1000     0.7700 H     1 <1>   0.0800 
 48 H       10.9360     0.2730    -0.9440 H     1 <1>   0.0800 
@<TRIPOS>BOND
  1   1   2  2   
  2   1   3  2   
  3   1   4  1   
  4   1   5  1   
  5   4   6  1   
  6   4  26  1   
  7   4  27  1   
  8   5   7  1   
  9   5  28  1   
 10   5  29  1   
 11   6   8  ar  
 12   6   9  ar  
 13   7  10  ar  
 14   7  11  ar  
 15   8  12  ar  
 16   8  30  1   
 17   9  13  ar  
 18   9  31  1   
 19  10  14  ar  
 20  10  32  1   
 21  11  15  ar  
 22  11  33  1   
 23  12  16  ar  
 24  12  34  1   
 25  13  16  ar  
 26  13  35  1   
 27  14  17  ar  
 28  14  36  1   
 29  15  17  ar  
 30  15  37  1   
 31  16  18  1   
 32  17  38  1   
 33  18  19  2   
 34  18  20  am  
 35  20  21  1   
 36  20  22  1   
 37  21  23  1   
 38  21  39  1   
 39  21  40  1   
 40  22  24  1   
 41  22  41  1   
 42  22  42  1   
 43  23  25  1   
 44  23  43  1   
 45  23  44  1   
 46  24  25  1   
 47  24  45  1   
 48  24  46  1   
 49  25  47  1   
 50  25  48  1   
@<TRIPOS>SUBSTRUCTURE
  1 ****   6 GROUP 4 **** **** 0

# MOE 2024.06 (io_trps.svl 2023.06)
