@<TRIPOS>MOLECULE
NONAME
47 48 1 0 0 
SMALL
USER_CHARGES


@<TRIPOS>ATOM
  1 O        0.6180     1.6160     0.3480 O.3   1 <1>  -0.3630 
  2 C        1.9720     1.5390     0.2510 C.ar  1 <1>   0.0830 
  3 C        0.1250     1.6980     1.6670 C.3   1 <1>   0.0400 
  4 C        2.7480     2.7050     0.2920 C.ar  1 <1>   0.0830 
  5 C        2.6120     0.2960     0.1520 C.ar  1 <1>   0.0820 
  6 O        2.2430     3.9670     0.3400 O.3   1 <1>  -0.3630 
  7 C        4.1300     2.6170     0.2990 C.ar  1 <1>  -0.1500 
  8 O        1.9880    -0.9110     0.0560 O.3   1 <1>  -0.3630 
  9 C        3.9960     0.2340     0.1590 C.ar  1 <1>  -0.1500 
 10 C        1.1750     4.3210    -0.5150 C.3   1 <1>   0.0400 
 11 C        4.7620     1.3860     0.2320 C.ar  1 <1>  -0.1430 
 12 C        0.7610    -1.0410    -0.6320 C.3   1 <1>   0.0400 
 13 C        6.2700     1.3070     0.2240 C.3   1 <1>   0.4860 
 14 N        6.6790     1.3410    -1.1950 N.4   1 <1>  -0.9060 
 15 C        8.1490     1.2980    -1.3700 C.3   1 <1>   0.4860 
 16 C        8.7360     2.5810    -0.8220 C.ar  1 <1>  -0.1430 
 17 C        9.2270     2.6110     0.4790 C.ar  1 <1>   0.0830 
 18 C        8.7880     3.7210    -1.6090 C.ar  1 <1>  -0.1500 
 19 O        9.1420     1.4630     1.2010 O.3   1 <1>  -0.3620 
 20 C        9.7640     3.7910     0.9850 C.ar  1 <1>  -0.1500 
 21 C        9.3220     4.8920    -1.0990 C.ar  1 <1>  -0.1500 
 22 C        9.8000     1.3360     2.4470 C.3   1 <1>   0.0400 
 23 C        9.8070     4.9260     0.1950 C.ar  1 <1>  -0.1500 
 24 H       -0.9480     1.7490     1.6240 H     1 <1>   0.0800 
 25 H        0.5190     2.5830     2.1340 H     1 <1>   0.0800 
 26 H        0.4330     0.8200     2.2080 H     1 <1>   0.0800 
 27 H        4.6920     3.5330     0.3590 H     1 <1>   0.1500 
 28 H        4.4530    -0.7390     0.1090 H     1 <1>   0.1500 
 29 H        1.1970     5.3860    -0.6550 H     1 <1>   0.0800 
 30 H        0.2470     4.0380    -0.0540 H     1 <1>   0.0800 
 31 H        1.2960     3.8210    -1.4600 H     1 <1>   0.0800 
 32 H        0.6450    -2.0700    -0.9210 H     1 <1>   0.0800 
 33 H        0.7750    -0.4120    -1.5050 H     1 <1>   0.0800 
 34 H       -0.0410    -0.7590     0.0260 H     1 <1>   0.0800 
 35 H        6.6010     0.3950     0.6950 H     1 <1>   0.0800 
 36 H        6.6860     2.1450     0.7600 H     1 <1>   0.0800 
 37 H        6.3200     2.2150    -1.5910 H     1 <1>   0.4500 
 38 H        6.2170     0.5690    -1.6850 H     1 <1>   0.4500 
 39 H        8.3970     1.2120    -2.4150 H     1 <1>   0.0800 
 40 H        8.5670     0.4490    -0.8510 H     1 <1>   0.0800 
 41 H        8.4240     3.7190    -2.6230 H     1 <1>   0.1500 
 42 H       10.1500     3.8530     1.9850 H     1 <1>   0.1500 
 43 H        9.3650     5.7800    -1.7090 H     1 <1>   0.1500 
 44 H        9.3590     2.0210     3.1510 H     1 <1>   0.0800 
 45 H       10.8470     1.5460     2.3150 H     1 <1>   0.0800 
 46 H        9.6740     0.3270     2.7960 H     1 <1>   0.0800 
 47 H       10.2230     5.8390     0.5870 H     1 <1>   0.1500 
@<TRIPOS>BOND
  1   1   2  1   
  2   1   3  1   
  3   2   4  ar  
  4   2   5  ar  
  5   3  24  1   
  6   3  25  1   
  7   3  26  1   
  8   4   6  1   
  9   4   7  ar  
 10   5   8  1   
 11   5   9  ar  
 12   6  10  1   
 13   7  11  ar  
 14   7  27  1   
 15   8  12  1   
 16   9  11  ar  
 17   9  28  1   
 18  10  29  1   
 19  10  30  1   
 20  10  31  1   
 21  11  13  1   
 22  12  32  1   
 23  12  33  1   
 24  12  34  1   
 25  13  14  1   
 26  13  35  1   
 27  13  36  1   
 28  14  15  1   
 29  14  37  1   
 30  14  38  1   
 31  15  16  1   
 32  15  39  1   
 33  15  40  1   
 34  16  17  ar  
 35  16  18  ar  
 36  17  19  1   
 37  17  20  ar  
 38  18  21  ar  
 39  18  41  1   
 40  19  22  1   
 41  20  23  ar  
 42  20  42  1   
 43  21  23  ar  
 44  21  43  1   
 45  22  44  1   
 46  22  45  1   
 47  22  46  1   
 48  23  47  1   
@<TRIPOS>SUBSTRUCTURE
  1 ****  11 GROUP 4 **** **** 0

# MOE 2024.06 (io_trps.svl 2023.06)
