@<TRIPOS>MOLECULE
NONAME
29 30 1 0 0 
SMALL
USER_CHARGES


@<TRIPOS>ATOM
  1 BR       1.3030    -0.3180     0.9030 Br    1 <1>  -0.1110 
  2 C        0.3870    -1.8510     0.1770 C.ar  1 <1>   0.1110 
  3 C        0.8480    -2.4640    -0.9740 C.ar  1 <1>   0.1900 
  4 C       -0.7390    -2.3190     0.8290 C.ar  1 <1>  -0.1500 
  5 F        1.9110    -2.0100    -1.5830 F     1 <1>  -0.1900 
  6 C        0.1920    -3.5620    -1.4970 C.ar  1 <1>  -0.1500 
  7 C       -1.4130    -3.4190     0.3070 C.ar  1 <1>  -0.1440 
  8 C       -0.9400    -4.0370    -0.8500 C.ar  1 <1>  -0.1500 
  9 C       -2.6600    -3.9430     0.9990 C.3   1 <1>   0.4870 
 10 N       -3.8530    -3.5560     0.2000 N.4   1 <1>  -0.9590 
 11 C       -4.0150    -2.0720     0.0200 C.3   1 <1>   0.3430 
 12 C       -5.1310    -4.1750     0.6890 C.3   1 <1>   0.3430 
 13 C       -5.2490    -1.7450    -0.8530 C.3   1 <1>   0.1200 
 14 C       -6.3430    -3.7100    -0.1520 C.3   1 <1>   0.1200 
 15 O       -5.9320    -2.9120    -1.2290 O.3   1 <1>  -0.5600 
 16 H       -1.0650    -1.8210     1.7260 H     1 <1>   0.1500 
 17 H        0.5660    -4.0310    -2.3910 H     1 <1>   0.1500 
 18 H       -1.4410    -4.8980    -1.2610 H     1 <1>   0.1500 
 19 H       -2.7290    -3.5320     1.9930 H     1 <1>   0.0800 
 20 H       -2.5990    -5.0160     1.0770 H     1 <1>   0.0800 
 21 H       -3.7260    -3.9120    -0.7580 H     1 <1>   0.4500 
 22 H       -3.1370    -1.6570    -0.4490 H     1 <1>   0.0800 
 23 H       -4.1280    -1.5930     0.9790 H     1 <1>   0.0800 
 24 H       -5.3020    -3.9120     1.7200 H     1 <1>   0.0800 
 25 H       -5.0640    -5.2500     0.6360 H     1 <1>   0.0800 
 26 H       -4.9410    -1.2430    -1.7550 H     1 <1>   0.0800 
 27 H       -5.9300    -1.1000    -0.3260 H     1 <1>   0.0800 
 28 H       -7.0340    -3.1450     0.4520 H     1 <1>   0.0800 
 29 H       -6.8670    -4.5600    -0.5530 H     1 <1>   0.0800 
@<TRIPOS>BOND
  1   1   2  1   
  2   2   3  ar  
  3   2   4  ar  
  4   3   5  1   
  5   3   6  ar  
  6   4   7  ar  
  7   4  16  1   
  8   6   8  ar  
  9   6  17  1   
 10   7   8  ar  
 11   7   9  1   
 12   8  18  1   
 13   9  10  1   
 14   9  19  1   
 15   9  20  1   
 16  10  11  1   
 17  10  12  1   
 18  10  21  1   
 19  11  13  1   
 20  11  22  1   
 21  11  23  1   
 22  12  14  1   
 23  12  24  1   
 24  12  25  1   
 25  13  15  1   
 26  13  26  1   
 27  13  27  1   
 28  14  15  1   
 29  14  28  1   
 30  14  29  1   
@<TRIPOS>SUBSTRUCTURE
  1 ****   7 GROUP 4 **** **** 0

# MOE 2024.06 (io_trps.svl 2023.06)
