@<TRIPOS>MOLECULE
NONAME
39 40 1 0 0 
SMALL
USER_CHARGES


@<TRIPOS>ATOM
  1 S       -0.0810    -0.0480     0.1590 S.3   1 <1>  -0.3320 
  2 C       -1.6420    -0.8520    -0.2370 C.ar  1 <1>   0.1020 
  3 C        0.5360    -0.8080     1.7250 C.3   1 <1>  -0.0100 
  4 C       -2.2060    -1.8180     0.5810 C.ar  1 <1>  -0.1500 
  5 C       -2.2670    -0.4640    -1.4060 C.ar  1 <1>  -0.1500 
  6 C       -3.4130    -2.3930     0.2200 C.ar  1 <1>  -0.1500 
  7 C       -3.4730    -1.0400    -1.7650 C.ar  1 <1>  -0.1500 
  8 C       -4.0550    -2.0030    -0.9500 C.ar  1 <1>  -0.1430 
  9 C       -5.3870    -2.6190    -1.3360 C.3   1 <1>   0.4860 
 10 N       -6.4490    -2.0620    -0.4530 N.4   1 <1>  -0.9590 
 11 C       -7.7380    -2.7840    -0.6260 C.3   1 <1>   0.3430 
 12 C       -6.5990    -0.5870    -0.6250 C.3   1 <1>   0.3430 
 13 C       -8.7370    -2.2980     0.4220 C.3   1 <1>  -0.1600 
 14 C       -7.5740    -0.0510     0.4210 C.3   1 <1>  -0.1600 
 15 C       -8.9370    -0.7700     0.3790 C.3   1 <1>  -0.0190 
 16 C       -9.8210    -0.3130     1.5370 C.2   1 <1>   0.5690 
 17 O       -9.4600    -0.5170     2.6660 O.2   1 <1>  -0.5700 
 18 N      -10.9880     0.3100     1.3010 N.am  1 <1>  -0.8000 
 19 H        1.4780    -0.3450     1.9590 H     1 <1>   0.0800 
 20 H        0.6620    -1.8620     1.5570 H     1 <1>   0.0800 
 21 H       -0.1850    -0.6130     2.4980 H     1 <1>   0.0800 
 22 H       -1.7210    -2.1270     1.4860 H     1 <1>   0.1500 
 23 H       -1.8040     0.2840    -2.0280 H     1 <1>   0.1500 
 24 H       -3.8360    -3.1470     0.8610 H     1 <1>   0.1500 
 25 H       -3.9410    -0.7280    -2.6830 H     1 <1>   0.1500 
 26 H       -5.3270    -3.6880    -1.2160 H     1 <1>   0.0800 
 27 H       -5.6070    -2.4030    -2.3680 H     1 <1>   0.0800 
 28 H       -6.1280    -2.2050     0.5140 H     1 <1>   0.4500 
 29 H       -7.5880    -3.8460    -0.5090 H     1 <1>   0.0800 
 30 H       -8.1310    -2.6020    -1.6130 H     1 <1>   0.0800 
 31 H       -6.9680    -0.3670    -1.6140 H     1 <1>   0.0800 
 32 H       -5.6450    -0.0980    -0.5010 H     1 <1>   0.0800 
 33 H       -8.3910    -2.5950     1.3980 H     1 <1>   0.0800 
 34 H       -9.6830    -2.7850     0.2600 H     1 <1>   0.0800 
 35 H       -7.7220     1.0020     0.2580 H     1 <1>   0.0800 
 36 H       -7.1320    -0.1600     1.3970 H     1 <1>   0.0800 
 37 H       -9.4290    -0.5160    -0.5440 H     1 <1>   0.0800 
 38 H      -11.5560     0.6030     2.0990 H     1 <1>   0.3700 
 39 H      -11.3720     0.5260     0.3820 H     1 <1>   0.3700 
@<TRIPOS>BOND
  1   1   2  1   
  2   1   3  1   
  3   2   4  ar  
  4   2   5  ar  
  5   3  19  1   
  6   3  20  1   
  7   3  21  1   
  8   4   6  ar  
  9   4  22  1   
 10   5   7  ar  
 11   5  23  1   
 12   6   8  ar  
 13   6  24  1   
 14   7   8  ar  
 15   7  25  1   
 16   8   9  1   
 17   9  10  1   
 18   9  26  1   
 19   9  27  1   
 20  10  11  1   
 21  10  12  1   
 22  10  28  1   
 23  11  13  1   
 24  11  29  1   
 25  11  30  1   
 26  12  14  1   
 27  12  31  1   
 28  12  32  1   
 29  13  15  1   
 30  13  33  1   
 31  13  34  1   
 32  14  15  1   
 33  14  35  1   
 34  14  36  1   
 35  15  16  1   
 36  15  37  1   
 37  16  17  2   
 38  16  18  am  
 39  18  38  1   
 40  18  39  1   
@<TRIPOS>SUBSTRUCTURE
  1 ****  10 GROUP 4 **** **** 0

# MOE 2024.06 (io_trps.svl 2023.06)
