@<TRIPOS>MOLECULE
NONAME
50 51 1 0 0 
SMALL
USER_CHARGES


@<TRIPOS>ATOM
  1 O        0.1180    -0.1720     0.2510 O.2   1 <1>  -0.5700 
  2 C        0.2100    -1.3790     0.1430 C.2   1 <1>   0.5440 
  3 N        1.4490    -1.9750     0.0680 N.am  1 <1>  -0.5470 
  4 C       -0.9840    -2.1990     0.0820 C.ar  1 <1>   0.0860 
  5 C        2.7400    -1.4180     0.0820 C.ar  1 <1>   0.1170 
  6 C       -2.1460    -1.7210    -0.5260 C.ar  1 <1>  -0.1500 
  7 C       -1.0290    -3.4890     0.6190 C.ar  1 <1>  -0.1500 
  8 C        3.7880    -2.1660     0.6030 C.ar  1 <1>  -0.1500 
  9 C        3.0180    -0.1560    -0.4270 C.ar  1 <1>  -0.1500 
 10 C       -3.2920    -2.4890    -0.6140 C.ar  1 <1>  -0.1500 
 11 C       -2.1700    -4.2640     0.5320 C.ar  1 <1>  -0.1500 
 12 C        5.0860    -1.6670     0.6190 C.ar  1 <1>   0.0830 
 13 C        4.3050     0.3480    -0.4170 C.ar  1 <1>  -0.1500 
 14 C       -3.3090    -3.7760    -0.0850 C.ar  1 <1>   0.0830 
 15 O        6.1440    -2.3690     1.1310 O.3   1 <1>  -0.3630 
 16 C        5.3580    -0.3970     0.1000 C.ar  1 <1>   0.1170 
 17 O       -4.3820    -4.5970    -0.1310 O.3   1 <1>  -0.3630 
 18 C        5.9680    -3.6320     1.7340 C.3   1 <1>   0.0400 
 19 N        6.6890     0.0630     0.1350 N.am  1 <1>  -0.5470 
 20 C       -5.6010    -4.1950    -0.7160 C.3   1 <1>   0.0400 
 21 C        7.3180     1.1490    -0.4000 C.2   1 <1>   0.5690 
 22 O        6.7700     1.9940    -1.0650 O.2   1 <1>  -0.5700 
 23 C        8.8050     1.2900    -0.1370 C.3   1 <1>  -0.0990 
 24 C        9.6360     0.2670    -0.9300 C.3   1 <1>  -0.1600 
 25 C       11.1360     0.4370    -0.6580 C.3   1 <1>  -0.1600 
 26 C       11.9560    -0.5840    -1.4510 C.3   1 <1>  -0.2400 
 27 H        1.4250    -2.9870    -0.0300 H     1 <1>   0.3700 
 28 H       -2.1420    -0.7240    -0.9340 H     1 <1>   0.1500 
 29 H       -0.1680    -3.8920     1.1200 H     1 <1>   0.1500 
 30 H        3.5650    -3.1370     0.9960 H     1 <1>   0.1500 
 31 H        2.2260     0.4440    -0.8380 H     1 <1>   0.1500 
 32 H       -4.1580    -2.0730    -1.0940 H     1 <1>   0.1500 
 33 H       -2.1920    -5.2560     0.9480 H     1 <1>   0.1500 
 34 H        4.4790     1.3300    -0.8160 H     1 <1>   0.1500 
 35 H        6.9260    -3.9740     2.0820 H     1 <1>   0.0800 
 36 H        5.5810    -4.3190     1.0020 H     1 <1>   0.0800 
 37 H        5.2930    -3.5310     2.5670 H     1 <1>   0.0800 
 38 H        7.2960    -0.5960     0.6230 H     1 <1>   0.3700 
 39 H       -6.2980    -5.0080    -0.6260 H     1 <1>   0.0800 
 40 H       -5.4320    -3.9710    -1.7550 H     1 <1>   0.0800 
 41 H       -5.9730    -3.3340    -0.1910 H     1 <1>   0.0800 
 42 H        8.9820     1.1730     0.9170 H     1 <1>   0.0800 
 43 H        9.1050     2.2850    -0.4120 H     1 <1>   0.0800 
 44 H        9.4440     0.4010    -1.9820 H     1 <1>   0.0800 
 45 H        9.3350    -0.7310    -0.6630 H     1 <1>   0.0800 
 46 H       11.3330     0.3090     0.3930 H     1 <1>   0.0800 
 47 H       11.4440     1.4310    -0.9370 H     1 <1>   0.0800 
 48 H       11.6830    -1.5860    -1.1730 H     1 <1>   0.0800 
 49 H       13.0050    -0.4480    -1.2510 H     1 <1>   0.0800 
 50 H       11.7910    -0.4600    -2.5070 H     1 <1>   0.0800 
@<TRIPOS>BOND
  1   1   2  2   
  2   2   3  am  
  3   2   4  1   
  4   3   5  1   
  5   3  27  1   
  6   4   6  ar  
  7   4   7  ar  
  8   5   8  ar  
  9   5   9  ar  
 10   6  10  ar  
 11   6  28  1   
 12   7  11  ar  
 13   7  29  1   
 14   8  12  ar  
 15   8  30  1   
 16   9  13  ar  
 17   9  31  1   
 18  10  14  ar  
 19  10  32  1   
 20  11  14  ar  
 21  11  33  1   
 22  12  15  1   
 23  12  16  ar  
 24  13  16  ar  
 25  13  34  1   
 26  14  17  1   
 27  15  18  1   
 28  16  19  1   
 29  17  20  1   
 30  18  35  1   
 31  18  36  1   
 32  18  37  1   
 33  19  21  am  
 34  19  38  1   
 35  20  39  1   
 36  20  40  1   
 37  20  41  1   
 38  21  22  2   
 39  21  23  1   
 40  23  24  1   
 41  23  42  1   
 42  23  43  1   
 43  24  25  1   
 44  24  44  1   
 45  24  45  1   
 46  25  26  1   
 47  25  46  1   
 48  25  47  1   
 49  26  48  1   
 50  26  49  1   
 51  26  50  1   
@<TRIPOS>SUBSTRUCTURE
  1 ****   5 GROUP 4 **** **** 0

# MOE 2024.06 (io_trps.svl 2023.06)
