@<TRIPOS>MOLECULE
NONAME
33 32 1 0 0 
SMALL
USER_CHARGES


@<TRIPOS>ATOM
  1 P       -0.3300     0.0310    -1.1240 P.3   1 <1>   0.9710 
  2 O       -1.3640    -0.4000    -2.0530 O.2   1 <1>  -0.7000 
  3 O       -0.3410    -0.8560     0.2070 O.3   1 <1>  -0.5510 
  4 C       -0.5350     1.6990    -0.5630 C.3   1 <1>  -0.0190 
  5 C        1.3030    -0.1470    -1.7890 C.3   1 <1>  -0.2400 
  6 C       -0.3050    -2.2400     0.1660 C.3   1 <1>   0.1200 
  7 C        0.6450     2.0600     0.3000 C.2   1 <1>   0.6590 
  8 C       -1.8530     1.9440     0.2060 C.3   1 <1>  -0.0990 
  9 C        1.0400    -2.7000     0.7190 C.3   1 <1>  -0.2400 
 10 O        0.6720     1.8500     1.4840 O.2   1 <1>  -0.5700 
 11 O        1.6610     2.6380    -0.3300 O.3   1 <1>  -0.4300 
 12 C       -3.0620     1.9370    -0.7170 C.2   1 <1>   0.6590 
 13 C        2.8250     3.0510     0.3580 C.3   1 <1>   0.0400 
 14 O       -3.1520     2.7920    -1.5550 O.2   1 <1>  -0.5700 
 15 O       -4.0340     1.0430    -0.5660 O.3   1 <1>  -0.4300 
 16 C       -3.9510    -0.1770     0.1410 C.3   1 <1>   0.0400 
 17 H       -0.5210     2.3690    -1.4020 H     1 <1>   0.0800 
 18 H        1.4550    -1.1420    -2.1590 H     1 <1>   0.0800 
 19 H        2.0640     0.0400    -1.0560 H     1 <1>   0.0800 
 20 H        1.4630     0.5240    -2.6110 H     1 <1>   0.0800 
 21 H       -0.4570    -2.5810    -0.8460 H     1 <1>   0.0800 
 22 H       -1.1070    -2.6050     0.7830 H     1 <1>   0.0800 
 23 H       -1.8170     2.9200     0.6550 H     1 <1>   0.0800 
 24 H       -1.9530     1.2360     1.0060 H     1 <1>   0.0800 
 25 H        1.8470    -2.3530     0.1000 H     1 <1>   0.0800 
 26 H        1.0710    -3.7740     0.7440 H     1 <1>   0.0800 
 27 H        1.1720    -2.3320     1.7210 H     1 <1>   0.0800 
 28 H        3.5060     3.4860    -0.3510 H     1 <1>   0.0800 
 29 H        3.2760     2.1940     0.8280 H     1 <1>   0.0800 
 30 H        2.5500     3.7790     1.1020 H     1 <1>   0.0800 
 31 H       -4.8580    -0.7260    -0.0380 H     1 <1>   0.0800 
 32 H       -3.8530     0.0270     1.1920 H     1 <1>   0.0800 
 33 H       -3.1130    -0.7420    -0.2230 H     1 <1>   0.0800 
@<TRIPOS>BOND
  1   1   2  2   
  2   1   3  1   
  3   1   4  1   
  4   1   5  1   
  5   3   6  1   
  6   4   7  1   
  7   4   8  1   
  8   4  17  1   
  9   5  18  1   
 10   5  19  1   
 11   5  20  1   
 12   6   9  1   
 13   6  21  1   
 14   6  22  1   
 15   7  10  2   
 16   7  11  1   
 17   8  12  1   
 18   8  23  1   
 19   8  24  1   
 20   9  25  1   
 21   9  26  1   
 22   9  27  1   
 23  11  13  1   
 24  12  14  2   
 25  12  15  1   
 26  13  28  1   
 27  13  29  1   
 28  13  30  1   
 29  15  16  1   
 30  16  31  1   
 31  16  32  1   
 32  16  33  1   
@<TRIPOS>SUBSTRUCTURE
  1 ****   4 GROUP 4 **** **** 0

# MOE 2024.06 (io_trps.svl 2023.06)
