@<TRIPOS>MOLECULE
NONAME
51 53 1 0 0 
SMALL
USER_CHARGES


@<TRIPOS>ATOM
  1 O        0.0970    -0.1020     0.2850 O.2   1 <1>  -0.5700 
  2 C        0.0220     1.0190    -0.1770 C.2   1 <1>   0.6900 
  3 N        1.1350     1.7650    -0.4430 N.am  1 <1>  -0.5470 
  4 N       -1.1920     1.5860    -0.4500 N.am  1 <1>  -0.5470 
  5 C        2.4930     1.4100    -0.4160 C.ar  1 <1>   0.1170 
  6 C       -2.4730     1.1340    -0.1090 C.ar  1 <1>   0.1170 
  7 C        3.4410     2.4000    -0.1770 C.ar  1 <1>  -0.1500 
  8 C        2.9380     0.1110    -0.6390 C.ar  1 <1>  -0.1500 
  9 C       -3.5410     1.3920    -0.9590 C.ar  1 <1>  -0.1500 
 10 C       -2.7210     0.4420     1.0710 C.ar  1 <1>  -0.1500 
 11 C        4.7930     2.1070    -0.1580 C.ar  1 <1>  -0.1500 
 12 C        4.2880    -0.1890    -0.6210 C.ar  1 <1>  -0.1500 
 13 C       -4.8170     0.9550    -0.6510 C.ar  1 <1>  -0.1500 
 14 C       -3.9940     0.0040     1.3860 C.ar  1 <1>  -0.1500 
 15 C        5.2250     0.8020    -0.3810 C.ar  1 <1>   0.0830 
 16 C       -5.0510     0.2480     0.5210 C.ar  1 <1>  -0.1430 
 17 O        6.5310     0.4240    -0.3800 O.3   1 <1>  -0.3630 
 18 C       -6.4390    -0.2650     0.8540 C.3   1 <1>   0.4860 
 19 C        7.5560     1.3530    -0.1100 C.3   1 <1>   0.0400 
 20 N       -6.7240    -1.4610     0.0140 N.4   1 <1>  -0.9590 
 21 C       -8.1460    -1.8890     0.1410 C.3   1 <1>   0.3430 
 22 C       -5.7700    -2.5770     0.2970 C.3   1 <1>   0.3430 
 23 C       -8.4320    -3.0250    -0.8430 C.3   1 <1>  -0.1600 
 24 C       -6.0170    -3.7270    -0.6800 C.3   1 <1>  -0.1600 
 25 C       -7.4740    -4.2060    -0.6430 C.3   1 <1>  -0.1600 
 26 H        0.9610     2.7590    -0.5370 H     1 <1>   0.3700 
 27 H       -1.1580     2.3490    -1.1190 H     1 <1>   0.3700 
 28 H        3.1210     3.4100    -0.0010 H     1 <1>   0.1500 
 29 H        2.2290    -0.6740    -0.8300 H     1 <1>   0.1500 
 30 H       -3.3710     1.9350    -1.8710 H     1 <1>   0.1500 
 31 H       -1.9080     0.2450     1.7490 H     1 <1>   0.1500 
 32 H        5.4920     2.8990     0.0310 H     1 <1>   0.1500 
 33 H        4.6220    -1.1960    -0.7920 H     1 <1>   0.1500 
 34 H       -5.6200     1.1740    -1.3350 H     1 <1>   0.1500 
 35 H       -4.1410    -0.5280     2.3110 H     1 <1>   0.1500 
 36 H       -7.1600     0.5100     0.6530 H     1 <1>   0.0800 
 37 H       -6.4950    -0.5220     1.8990 H     1 <1>   0.0800 
 38 H        8.4960     0.8330    -0.1490 H     1 <1>   0.0800 
 39 H        7.4050     1.7630     0.8720 H     1 <1>   0.0800 
 40 H        7.5340     2.1240    -0.8600 H     1 <1>   0.0800 
 41 H       -6.5570    -1.1840    -0.9600 H     1 <1>   0.4500 
 42 H       -8.8050    -1.0610    -0.0680 H     1 <1>   0.0800 
 43 H       -8.3360    -2.2310     1.1460 H     1 <1>   0.0800 
 44 H       -5.9050    -2.9270     1.3080 H     1 <1>   0.0800 
 45 H       -4.7520    -2.2340     0.1900 H     1 <1>   0.0800 
 46 H       -8.3530    -2.6550    -1.8510 H     1 <1>   0.0800 
 47 H       -9.4450    -3.3630    -0.7050 H     1 <1>   0.0800 
 48 H       -5.3650    -4.5460    -0.4280 H     1 <1>   0.0800 
 49 H       -5.7590    -3.4090    -1.6760 H     1 <1>   0.0800 
 50 H       -7.6360    -4.9440    -1.4120 H     1 <1>   0.0800 
 51 H       -7.6730    -4.6750     0.3070 H     1 <1>   0.0800 
@<TRIPOS>BOND
  1   1   2  2   
  2   2   3  am  
  3   2   4  am  
  4   3   5  1   
  5   3  26  1   
  6   4   6  1   
  7   4  27  1   
  8   5   7  ar  
  9   5   8  ar  
 10   6   9  ar  
 11   6  10  ar  
 12   7  11  ar  
 13   7  28  1   
 14   8  12  ar  
 15   8  29  1   
 16   9  13  ar  
 17   9  30  1   
 18  10  14  ar  
 19  10  31  1   
 20  11  15  ar  
 21  11  32  1   
 22  12  15  ar  
 23  12  33  1   
 24  13  16  ar  
 25  13  34  1   
 26  14  16  ar  
 27  14  35  1   
 28  15  17  1   
 29  16  18  1   
 30  17  19  1   
 31  18  20  1   
 32  18  36  1   
 33  18  37  1   
 34  19  38  1   
 35  19  39  1   
 36  19  40  1   
 37  20  21  1   
 38  20  22  1   
 39  20  41  1   
 40  21  23  1   
 41  21  42  1   
 42  21  43  1   
 43  22  24  1   
 44  22  44  1   
 45  22  45  1   
 46  23  25  1   
 47  23  46  1   
 48  23  47  1   
 49  24  25  1   
 50  24  48  1   
 51  24  49  1   
 52  25  50  1   
 53  25  51  1   
@<TRIPOS>SUBSTRUCTURE
  1 ****   1 GROUP 4 **** **** 0

# MOE 2024.06 (io_trps.svl 2023.06)
