@<TRIPOS>MOLECULE
NONAME
34 34 1 0 0 
SMALL
USER_CHARGES


@<TRIPOS>ATOM
  1 S        0.5480    -0.1200     1.8460 S.2   1 <1>  -0.6770 
  2 P        1.2910     1.2400     0.6780 P.3   1 <1>   0.8160 
  3 C        2.8670     0.7340    -0.0060 C.ar  1 <1>  -0.1390 
  4 C        0.1380     1.5250    -0.6660 C.3   1 <1>  -0.0800 
  5 C        1.5490     2.7390     1.6310 C.3   1 <1>  -0.0800 
  6 C        3.3910    -0.5220     0.2830 C.ar  1 <1>  -0.1500 
  7 C        3.6450     1.5360    -0.8370 C.ar  1 <1>  -0.1500 
  8 C        0.6530     2.1990    -1.9530 C.3   1 <1>  -0.2400 
  9 C       -1.1510     2.2470    -0.2290 C.3   1 <1>  -0.2400 
 10 C        1.9330     4.0380     0.8970 C.3   1 <1>  -0.2400 
 11 C        2.5730     2.5440     2.7660 C.3   1 <1>  -0.2400 
 12 C        4.6080    -0.9530    -0.2160 C.ar  1 <1>  -0.1500 
 13 C        4.8640     1.1180    -1.3420 C.ar  1 <1>  -0.1500 
 14 C        5.3690    -0.1380    -1.0390 C.ar  1 <1>   0.0730 
 15 C        6.6320    -0.5770    -1.5600 C.1   1 <1>   0.4840 
 16 N        7.6360    -0.9220    -1.9760 N.1   1 <1>  -0.5570 
 17 H       -0.1870     0.5510    -0.9880 H     1 <1>   0.0800 
 18 H        0.6170     2.9570     2.1240 H     1 <1>   0.0800 
 19 H        2.8410    -1.1970     0.9200 H     1 <1>   0.1500 
 20 H        3.3040     2.5160    -1.1130 H     1 <1>   0.1500 
 21 H        1.0260     3.1880    -1.7700 H     1 <1>   0.0800 
 22 H       -0.1420     2.2730    -2.6760 H     1 <1>   0.0800 
 23 H        1.4310     1.6070    -2.4000 H     1 <1>   0.0800 
 24 H       -0.9550     3.2670     0.0460 H     1 <1>   0.0800 
 25 H       -1.5890     1.7430     0.6170 H     1 <1>   0.0800 
 26 H       -1.8760     2.2420    -1.0250 H     1 <1>   0.0800 
 27 H        2.9140     3.9710     0.4640 H     1 <1>   0.0800 
 28 H        1.9430     4.8600     1.5920 H     1 <1>   0.0800 
 29 H        1.2190     4.2800     0.1340 H     1 <1>   0.0800 
 30 H        3.5530     2.3470     2.3660 H     1 <1>   0.0800 
 31 H        2.2880     1.7110     3.3870 H     1 <1>   0.0800 
 32 H        2.6250     3.4180     3.3910 H     1 <1>   0.0800 
 33 H        4.9660    -1.9360     0.0410 H     1 <1>   0.1500 
 34 H        5.4290     1.7760    -1.9810 H     1 <1>   0.1500 
@<TRIPOS>BOND
  1   1   2  2   
  2   2   3  1   
  3   2   4  1   
  4   2   5  1   
  5   3   6  ar  
  6   3   7  ar  
  7   4   8  1   
  8   4   9  1   
  9   4  17  1   
 10   5  10  1   
 11   5  11  1   
 12   5  18  1   
 13   6  12  ar  
 14   6  19  1   
 15   7  13  ar  
 16   7  20  1   
 17   8  21  1   
 18   8  22  1   
 19   8  23  1   
 20   9  24  1   
 21   9  25  1   
 22   9  26  1   
 23  10  27  1   
 24  10  28  1   
 25  10  29  1   
 26  11  30  1   
 27  11  31  1   
 28  11  32  1   
 29  12  14  ar  
 30  12  33  1   
 31  13  14  ar  
 32  13  34  1   
 33  14  15  1   
 34  15  16  3   
@<TRIPOS>SUBSTRUCTURE
  1 ****   3 GROUP 4 **** **** 0

# MOE 2024.06 (io_trps.svl 2023.06)
