@<TRIPOS>MOLECULE
NONAME
41 41 1 0 0 
SMALL
USER_CHARGES


@<TRIPOS>ATOM
  1 O        2.1790     6.2380     0.9640 O.2   1 <1>  -0.5700 
  2 C        1.9330     5.3480     0.1890 C.2   1 <1>   0.6590 
  3 O        2.7940     4.9160    -0.7120 O.3   1 <1>  -0.4300 
  4 C        0.5940     4.6560     0.2170 C.3   1 <1>  -0.0990 
  5 C        4.0890     5.4640    -0.8350 C.3   1 <1>   0.1200 
  6 C       -0.5010     5.6270     0.6660 C.3   1 <1>   0.5660 
  7 C        4.8030     4.7370    -1.9690 C.3   1 <1>  -0.2400 
  8 N       -0.3080     6.0820     2.0500 N.4   1 <1>  -0.8530 
  9 C       -1.8930     5.0260     0.6050 C.ar  1 <1>  -0.1440 
 10 C       -2.9010     5.7590     0.0010 C.ar  1 <1>  -0.1500 
 11 C       -2.2030     3.7840     1.1430 C.ar  1 <1>  -0.1500 
 12 C       -4.2020     5.2910    -0.0730 C.ar  1 <1>   0.0820 
 13 C       -3.4970     3.2970     1.0770 C.ar  1 <1>  -0.1500 
 14 O       -5.0540     6.1550    -0.6960 O.3   1 <1>  -0.3620 
 15 C       -4.5150     4.0350     0.4760 C.ar  1 <1>   0.0820 
 16 C       -6.3940     5.8480    -1.0040 C.3   1 <1>   0.1200 
 17 O       -5.7920     3.5560     0.4240 O.3   1 <1>  -0.3630 
 18 C       -6.9760     7.0170    -1.7920 C.3   1 <1>  -0.2400 
 19 C       -6.1520     2.2760     0.8980 C.3   1 <1>   0.0400 
 20 H        0.6530     3.7990     0.8590 H     1 <1>   0.0800 
 21 H        0.3670     4.3150    -0.7770 H     1 <1>   0.0800 
 22 H        4.6110     5.3270     0.0980 H     1 <1>   0.0800 
 23 H        3.9990     6.5160    -1.0490 H     1 <1>   0.0800 
 24 H       -0.4710     6.4840     0.0110 H     1 <1>   0.0800 
 25 H        4.8810     3.6870    -1.7500 H     1 <1>   0.0800 
 26 H        5.7950     5.1340    -2.0860 H     1 <1>   0.0800 
 27 H        4.2720     4.8730    -2.8940 H     1 <1>   0.0800 
 28 H       -0.4440     5.3130     2.7090 H     1 <1>   0.4500 
 29 H       -0.9830     6.8190     2.2710 H     1 <1>   0.4500 
 30 H        0.6540     6.4550     2.1390 H     1 <1>   0.4500 
 31 H       -2.7040     6.7240    -0.4340 H     1 <1>   0.1500 
 32 H       -1.4590     3.1690     1.6190 H     1 <1>   0.1500 
 33 H       -3.6940     2.3320     1.5050 H     1 <1>   0.1500 
 34 H       -6.9320     5.7060    -0.0830 H     1 <1>   0.0800 
 35 H       -6.4120     4.9460    -1.5920 H     1 <1>   0.0800 
 36 H       -6.9390     7.9160    -1.2030 H     1 <1>   0.0800 
 37 H       -8.0010     6.8110    -2.0400 H     1 <1>   0.0800 
 38 H       -6.4250     7.1600    -2.7050 H     1 <1>   0.0800 
 39 H       -7.2020     2.1360     0.7110 H     1 <1>   0.0800 
 40 H       -5.9630     2.2270     1.9560 H     1 <1>   0.0800 
 41 H       -5.5870     1.5320     0.3660 H     1 <1>   0.0800 
@<TRIPOS>BOND
  1   1   2  2   
  2   2   3  1   
  3   2   4  1   
  4   3   5  1   
  5   4   6  1   
  6   4  20  1   
  7   4  21  1   
  8   5   7  1   
  9   5  22  1   
 10   5  23  1   
 11   6   8  1   
 12   6   9  1   
 13   6  24  1   
 14   7  25  1   
 15   7  26  1   
 16   7  27  1   
 17   8  28  1   
 18   8  29  1   
 19   8  30  1   
 20   9  10  ar  
 21   9  11  ar  
 22  10  12  ar  
 23  10  31  1   
 24  11  13  ar  
 25  11  32  1   
 26  12  14  1   
 27  12  15  ar  
 28  13  15  ar  
 29  13  33  1   
 30  14  16  1   
 31  15  17  1   
 32  16  18  1   
 33  16  34  1   
 34  16  35  1   
 35  17  19  1   
 36  18  36  1   
 37  18  37  1   
 38  18  38  1   
 39  19  39  1   
 40  19  40  1   
 41  19  41  1   
@<TRIPOS>SUBSTRUCTURE
  1 ****   9 GROUP 4 **** **** 0

# MOE 2024.06 (io_trps.svl 2023.06)
