@<TRIPOS>MOLECULE
NONAME
35 36 1 0 0 
SMALL
USER_CHARGES


@<TRIPOS>ATOM
  1 O        0.7710    -0.0420     0.7410 O.3   1 <1>  -0.3630 
  2 C        0.3910    -1.3180     0.4710 C.ar  1 <1>   0.0830 
  3 C        1.7290     0.6540    -0.0260 C.3   1 <1>   0.1200 
  4 C        0.7810    -2.0300    -0.6610 C.ar  1 <1>  -0.1500 
  5 C       -0.4380    -1.9250     1.3980 C.ar  1 <1>  -0.1500 
  6 C        3.1320     0.1710     0.3560 C.3   1 <1>  -0.1600 
  7 C        0.3440    -3.3300    -0.8470 C.ar  1 <1>  -0.1500 
  8 C       -0.8730    -3.2250     1.2090 C.ar  1 <1>  -0.1500 
  9 C        4.2050     0.9490    -0.4120 C.3   1 <1>   0.0960 
 10 C       -0.4830    -3.9360     0.0860 C.ar  1 <1>  -0.1430 
 11 N        5.5500     0.4650    -0.0510 N.pl3 1 <1>   0.0480 
 12 C       -0.9600    -5.3640    -0.1230 C.3   1 <1>  -0.0170 
 13 C        6.3830     0.9560     0.8940 C.2   1 <1>   0.0360 
 14 C        6.2220    -0.5660    -0.5950 C.2   1 <1>  -0.3020 
 15 C       -2.2710    -5.3830    -0.9120 C.3   1 <1>  -0.2400 
 16 N        7.5090     0.3250     0.9830 N.2   1 <1>  -0.5650 
 17 C        7.4090    -0.6360     0.0460 C.2   1 <1>   0.0770 
 18 H        1.6200     1.6970     0.2140 H     1 <1>   0.0800 
 19 H        1.5120     0.5210    -1.0700 H     1 <1>   0.0800 
 20 H        1.4170    -1.5950    -1.4060 H     1 <1>   0.1500 
 21 H       -0.7410    -1.3740     2.2700 H     1 <1>   0.1500 
 22 H        3.2280    -0.8770     0.1340 H     1 <1>   0.0800 
 23 H        3.2740     0.3180     1.4130 H     1 <1>   0.0800 
 24 H        0.6490    -3.8720    -1.7250 H     1 <1>   0.1500 
 25 H       -1.5180    -3.6800     1.9400 H     1 <1>   0.1500 
 26 H        4.1420     1.9980    -0.1810 H     1 <1>   0.0800 
 27 H        4.0700     0.8230    -1.4720 H     1 <1>   0.0800 
 28 H       -1.1050    -5.8410     0.8310 H     1 <1>   0.0800 
 29 H       -0.2100    -5.9230    -0.6550 H     1 <1>   0.0800 
 30 H        6.1170     1.7980     1.5080 H     1 <1>   0.1500 
 31 H        5.8330    -1.1800    -1.3850 H     1 <1>   0.1500 
 32 H       -3.0310    -4.8390    -0.3790 H     1 <1>   0.0800 
 33 H       -2.6040    -6.3950    -1.0540 H     1 <1>   0.0800 
 34 H       -2.1310    -4.9240    -1.8740 H     1 <1>   0.0800 
 35 H        8.2090    -1.3380    -0.1200 H     1 <1>   0.1500 
@<TRIPOS>BOND
  1   1   2  1   
  2   1   3  1   
  3   2   4  ar  
  4   2   5  ar  
  5   3   6  1   
  6   3  18  1   
  7   3  19  1   
  8   4   7  ar  
  9   4  20  1   
 10   5   8  ar  
 11   5  21  1   
 12   6   9  1   
 13   6  22  1   
 14   6  23  1   
 15   7  10  ar  
 16   7  24  1   
 17   8  10  ar  
 18   8  25  1   
 19   9  11  1   
 20   9  26  1   
 21   9  27  1   
 22  10  12  1   
 23  11  13  1   
 24  11  14  1   
 25  12  15  1   
 26  12  28  1   
 27  12  29  1   
 28  13  16  2   
 29  13  30  1   
 30  14  17  2   
 31  14  31  1   
 32  15  32  1   
 33  15  33  1   
 34  15  34  1   
 35  16  17  1   
 36  17  35  1   
@<TRIPOS>SUBSTRUCTURE
  1 ****   6 GROUP 4 **** **** 0

# MOE 2024.06 (io_trps.svl 2023.06)
