@<TRIPOS>MOLECULE
NONAME
40 41 1 0 0 
SMALL
USER_CHARGES


@<TRIPOS>ATOM
  1 O       -8.3610    -3.5930    -0.0200 O.3   1 <1>  -0.3630 
  2 C       -7.8180    -2.3440     0.0820 C.ar  1 <1>   0.0830 
  3 C       -9.7460    -3.8430     0.0490 C.3   1 <1>   0.0400 
  4 C       -8.5080    -1.1320     0.2650 C.ar  1 <1>   0.0830 
  5 C       -6.4360    -2.3150    -0.0090 C.ar  1 <1>  -0.1500 
  6 O       -9.8500    -1.0400     0.3670 O.3   1 <1>  -0.5330 
  7 C       -7.7970     0.0560     0.3490 C.ar  1 <1>  -0.1500 
  8 C       -5.7190    -1.1300     0.0740 C.ar  1 <1>   0.0730 
  9 C       -6.4170     0.0550     0.2540 C.ar  1 <1>  -0.1500 
 10 C       -4.2930    -1.1280    -0.0240 C.1   1 <1>  -0.0730 
 11 C       -3.1000    -1.1250    -0.1050 C.1   1 <1>   0.0000 
 12 C       -1.7410    -1.1180    -0.1980 C.1   1 <1>   0.0000 
 13 C       -0.5510    -1.1060    -0.2780 C.1   1 <1>  -0.2000 
 14 C        0.9300    -1.0800    -0.3780 C.3   1 <1>   0.5430 
 15 N        1.4020     0.2420     0.1030 N.4   1 <1>  -0.9590 
 16 C        1.0120     1.3440    -0.8290 C.3   1 <1>   0.3430 
 17 C        2.8680     0.2330     0.3760 C.3   1 <1>   0.3430 
 18 C        1.3920     2.6940    -0.2180 C.3   1 <1>  -0.1600 
 19 C        3.2810     1.5620     1.0110 C.3   1 <1>  -0.1600 
 20 C        2.8830     2.7590     0.1370 C.3   1 <1>  -0.1600 
 21 H       -9.9010    -4.9010    -0.0580 H     1 <1>   0.0800 
 22 H      -10.2350    -3.3180    -0.7520 H     1 <1>   0.0800 
 23 H      -10.1120    -3.5140     1.0050 H     1 <1>   0.0800 
 24 H       -5.9110    -3.2420    -0.1490 H     1 <1>   0.1500 
 25 H      -10.1600    -0.1260     0.4900 H     1 <1>   0.4500 
 26 H       -8.3110     0.9890     0.4880 H     1 <1>   0.1500 
 27 H       -5.8770     0.9830     0.3210 H     1 <1>   0.1500 
 28 H        1.2380    -1.2420    -1.3990 H     1 <1>   0.0800 
 29 H        1.3380    -1.8670     0.2360 H     1 <1>   0.0800 
 30 H        0.9150     0.4170     0.9910 H     1 <1>   0.4500 
 31 H       -0.0520     1.3220    -1.0100 H     1 <1>   0.0800 
 32 H        1.5190     1.2220    -1.7730 H     1 <1>   0.0800 
 33 H        3.4110     0.0920    -0.5450 H     1 <1>   0.0800 
 34 H        3.1170    -0.5750     1.0460 H     1 <1>   0.0800 
 35 H        0.7970     2.8670     0.6620 H     1 <1>   0.0800 
 36 H        1.1590     3.4760    -0.9200 H     1 <1>   0.0800 
 37 H        4.3480     1.5670     1.1540 H     1 <1>   0.0800 
 38 H        2.8280     1.6510     1.9830 H     1 <1>   0.0800 
 39 H        3.0950     3.6790     0.6570 H     1 <1>   0.0800 
 40 H        3.4680     2.7540    -0.7680 H     1 <1>   0.0800 
@<TRIPOS>BOND
  1   1   2  1   
  2   1   3  1   
  3   2   4  ar  
  4   2   5  ar  
  5   3  21  1   
  6   3  22  1   
  7   3  23  1   
  8   4   6  1   
  9   4   7  ar  
 10   5   8  ar  
 11   5  24  1   
 12   6  25  1   
 13   7   9  ar  
 14   7  26  1   
 15   8   9  ar  
 16   8  10  1   
 17   9  27  1   
 18  10  11  3   
 19  11  12  1   
 20  12  13  3   
 21  13  14  1   
 22  14  15  1   
 23  14  28  1   
 24  14  29  1   
 25  15  16  1   
 26  15  17  1   
 27  15  30  1   
 28  16  18  1   
 29  16  31  1   
 30  16  32  1   
 31  17  19  1   
 32  17  33  1   
 33  17  34  1   
 34  18  20  1   
 35  18  35  1   
 36  18  36  1   
 37  19  20  1   
 38  19  37  1   
 39  19  38  1   
 40  20  39  1   
 41  20  40  1   
@<TRIPOS>SUBSTRUCTURE
  1 ****  11 GROUP 4 **** **** 0

# MOE 2024.06 (io_trps.svl 2023.06)
