@<TRIPOS>MOLECULE
NONAME
47 49 1 0 0 
SMALL
USER_CHARGES


@<TRIPOS>ATOM
  1 BR      -0.2180    -0.3410    -0.6000 Br    1 <1>  -0.1110 
  2 C       -1.7170     0.8430    -0.3760 C.ar  1 <1>   0.1110 
  3 C       -1.6100     2.0110     0.3670 C.ar  1 <1>  -0.0090 
  4 C       -2.8910     0.4620    -1.0010 C.ar  1 <1>  -0.1500 
  5 S       -0.0710     2.5140     1.1770 S.o2  1 <1>   1.4470 
  6 C       -2.7540     2.7950     0.4570 C.ar  1 <1>  -0.1500 
  7 C       -4.0060     1.2670    -0.8880 C.ar  1 <1>  -0.1500 
  8 O        0.4580     1.4390     1.9830 O.2   1 <1>  -0.6500 
  9 O       -0.2430     3.8190     1.7700 O.2   1 <1>  -0.6500 
 10 N        0.9750     2.8250    -0.0930 N.am  1 <1>  -0.9140 
 11 C       -3.9650     2.4530    -0.1500 C.ar  1 <1>   0.0860 
 12 C        2.3690     2.7910     0.2880 C.3   1 <1>   0.2760 
 13 C       -5.1270     3.3100    -0.0170 C.2   1 <1>   0.5440 
 14 C        3.0970     3.8810    -0.5070 C.3   1 <1>  -0.1600 
 15 C        2.9570     1.4100    -0.0290 C.3   1 <1>  -0.1600 
 16 O       -4.9850     4.5140     0.0390 O.2   1 <1>  -0.5700 
 17 N       -6.3790     2.7480     0.0730 N.am  1 <1>  -0.5470 
 18 C        4.6100     3.8530    -0.2420 C.3   1 <1>  -0.1600 
 19 C        4.4700     1.3690     0.2300 C.3   1 <1>  -0.1600 
 20 C       -7.6540     3.3330     0.0710 C.ar  1 <1>   0.1170 
 21 C        5.1980     2.4700    -0.5510 C.3   1 <1>  -0.1600 
 22 C       -7.9170     4.5730    -0.5020 C.ar  1 <1>  -0.1500 
 23 C       -8.7100     2.6350     0.6480 C.ar  1 <1>  -0.1500 
 24 C       -9.1950     5.1020    -0.4960 C.ar  1 <1>  -0.1500 
 25 C       -9.9900     3.1600     0.6550 C.ar  1 <1>  -0.1500 
 26 C      -10.2350     4.3960     0.0830 C.ar  1 <1>  -0.1500 
 27 H       -2.9220    -0.4520    -1.5710 H     1 <1>   0.1500 
 28 H       -2.7150     3.7150     1.0210 H     1 <1>   0.1500 
 29 H       -4.9150     0.9790    -1.3880 H     1 <1>   0.1500 
 30 H        0.7780     3.8010    -0.2980 H     1 <1>   0.4200 
 31 H        2.4830     3.0020     1.3410 H     1 <1>   0.0800 
 32 H        2.7150     4.8480    -0.2300 H     1 <1>   0.0800 
 33 H        2.9270     3.7310    -1.5590 H     1 <1>   0.0800 
 34 H        2.7700     1.1720    -1.0620 H     1 <1>   0.0800 
 35 H        2.4830     0.6620     0.5800 H     1 <1>   0.0800 
 36 H       -6.3810     1.7450     0.2440 H     1 <1>   0.3700 
 37 H        4.7980     4.0970     0.7900 H     1 <1>   0.0800 
 38 H        5.0980     4.5950    -0.8500 H     1 <1>   0.0800 
 39 H        4.8580     0.4060    -0.0560 H     1 <1>   0.0800 
 40 H        4.6530     1.4960     1.2840 H     1 <1>   0.0800 
 41 H        6.2450     2.4580    -0.3000 H     1 <1>   0.0800 
 42 H        5.1120     2.2740    -1.6060 H     1 <1>   0.0800 
 43 H       -7.1220     5.1330    -0.9600 H     1 <1>   0.1500 
 44 H       -8.5350     1.6770     1.0990 H     1 <1>   0.1500 
 45 H       -9.3790     6.0640    -0.9420 H     1 <1>   0.1500 
 46 H      -10.7980     2.6100     1.1070 H     1 <1>   0.1500 
 47 H      -11.2300     4.8080     0.0880 H     1 <1>   0.1500 
@<TRIPOS>BOND
  1   1   2  1   
  2   2   3  ar  
  3   2   4  ar  
  4   3   5  1   
  5   3   6  ar  
  6   4   7  ar  
  7   4  27  1   
  8   5   8  2   
  9   5   9  2   
 10   5  10  am  
 11   6  11  ar  
 12   6  28  1   
 13   7  11  ar  
 14   7  29  1   
 15  10  12  1   
 16  10  30  1   
 17  11  13  1   
 18  12  14  1   
 19  12  15  1   
 20  12  31  1   
 21  13  16  2   
 22  13  17  am  
 23  14  18  1   
 24  14  32  1   
 25  14  33  1   
 26  15  19  1   
 27  15  34  1   
 28  15  35  1   
 29  17  20  1   
 30  17  36  1   
 31  18  21  1   
 32  18  37  1   
 33  18  38  1   
 34  19  21  1   
 35  19  39  1   
 36  19  40  1   
 37  20  22  ar  
 38  20  23  ar  
 39  21  41  1   
 40  21  42  1   
 41  22  24  ar  
 42  22  43  1   
 43  23  25  ar  
 44  23  44  1   
 45  24  26  ar  
 46  24  45  1   
 47  25  26  ar  
 48  25  46  1   
 49  26  47  1   
@<TRIPOS>SUBSTRUCTURE
  1 ****   6 GROUP 4 **** **** 0

# MOE 2024.06 (io_trps.svl 2023.06)
