@<TRIPOS>MOLECULE
NONAME
52 53 1 0 0 
SMALL
USER_CHARGES


@<TRIPOS>ATOM
  1 N        0.1950    -0.4520    -0.2590 N.4   1 <1>  -0.9590 
  2 C       -0.4980     0.0110    -1.4960 C.3   1 <1>   0.3430 
  3 C       -0.6770    -0.4130     0.9530 C.3   1 <1>   0.3430 
  4 C        1.4430     0.3500    -0.0580 C.3   1 <1>   0.3430 
  5 C       -1.7450    -0.8390    -1.7460 C.3   1 <1>  -0.1600 
  6 C       -1.9360    -1.2560     0.7300 C.3   1 <1>  -0.1600 
  7 C        2.3810    -0.3530     0.9250 C.3   1 <1>  -0.1600 
  8 C       -2.6830    -0.8020    -0.5330 C.3   1 <1>   0.4230 
  9 C        3.7100     0.4020     1.0390 C.3   1 <1>  -0.2400 
 10 N       -3.9380    -1.6040    -0.7970 N.4   1 <1>  -0.9590 
 11 C       -5.0800    -1.3410     0.1640 C.3   1 <1>   0.4230 
 12 C       -3.6490    -3.0840    -0.9400 C.3   1 <1>   0.2630 
 13 C       -6.3300    -2.1470    -0.2410 C.3   1 <1>  -0.1600 
 14 C       -5.4320     0.1570     0.2010 C.3   1 <1>  -0.1600 
 15 C       -7.5440    -1.8240     0.6330 C.3   1 <1>   0.3430 
 16 C       -6.6640     0.4480     1.0650 C.3   1 <1>   0.3430 
 17 N       -7.8200    -0.3630     0.5990 N.4   1 <1>  -0.9590 
 18 C       -9.0370    -0.0500     1.4210 C.3   1 <1>   0.2630 
 19 H        0.5160    -1.4210    -0.4070 H     1 <1>   0.4500 
 20 H        0.1690    -0.0700    -2.3420 H     1 <1>   0.0800 
 21 H       -0.7750     1.0490    -1.3910 H     1 <1>   0.0800 
 22 H       -0.9520     0.6090     1.1680 H     1 <1>   0.0800 
 23 H       -0.1390    -0.7960     1.8070 H     1 <1>   0.0800 
 24 H        1.2030     1.3370     0.3050 H     1 <1>   0.0800 
 25 H        1.9600     0.4590    -0.9990 H     1 <1>   0.0800 
 26 H       -1.4240    -1.8390    -1.9720 H     1 <1>   0.0800 
 27 H       -2.2510    -0.4440    -2.6090 H     1 <1>   0.0800 
 28 H       -2.5660    -1.1460     1.5930 H     1 <1>   0.0800 
 29 H       -1.6370    -2.2860     0.6600 H     1 <1>   0.0800 
 30 H        2.5890    -1.3530     0.5870 H     1 <1>   0.0800 
 31 H        1.9410    -0.4010     1.9050 H     1 <1>   0.0800 
 32 H       -2.9600     0.2300    -0.3950 H     1 <1>   0.0800 
 33 H        4.2100     0.4500     0.0870 H     1 <1>   0.0800 
 34 H        4.3620    -0.1040     1.7320 H     1 <1>   0.0800 
 35 H        3.5550     1.4050     1.4000 H     1 <1>   0.0800 
 36 H       -4.2750    -1.3000    -1.7230 H     1 <1>   0.4500 
 37 H       -4.7850    -1.6500     1.1550 H     1 <1>   0.0800 
 38 H       -3.3860    -3.5150     0.0130 H     1 <1>   0.0800 
 39 H       -2.8390    -3.2540    -1.6290 H     1 <1>   0.0800 
 40 H       -4.5110    -3.6060    -1.3240 H     1 <1>   0.0800 
 41 H       -6.1500    -3.2000    -0.1270 H     1 <1>   0.0800 
 42 H       -6.5860    -1.9580    -1.2690 H     1 <1>   0.0800 
 43 H       -5.6190     0.5250    -0.7930 H     1 <1>   0.0800 
 44 H       -4.6230     0.7220     0.6240 H     1 <1>   0.0800 
 45 H       -7.3570    -2.1350     1.6490 H     1 <1>   0.0800 
 46 H       -8.4030    -2.3680     0.2710 H     1 <1>   0.0800 
 47 H       -6.9070     1.4980     1.0070 H     1 <1>   0.0800 
 48 H       -6.4510     0.2140     2.0970 H     1 <1>   0.0800 
 49 H       -8.0490    -0.0910    -0.3720 H     1 <1>   0.4500 
 50 H       -8.8750    -0.3090     2.4550 H     1 <1>   0.0800 
 51 H       -9.8890    -0.6040     1.0590 H     1 <1>   0.0800 
 52 H       -9.2700     1.0020     1.3640 H     1 <1>   0.0800 
@<TRIPOS>BOND
  1   1   2  1   
  2   1   3  1   
  3   1   4  1   
  4   1  19  1   
  5   2   5  1   
  6   2  20  1   
  7   2  21  1   
  8   3   6  1   
  9   3  22  1   
 10   3  23  1   
 11   4   7  1   
 12   4  24  1   
 13   4  25  1   
 14   5   8  1   
 15   5  26  1   
 16   5  27  1   
 17   6   8  1   
 18   6  28  1   
 19   6  29  1   
 20   7   9  1   
 21   7  30  1   
 22   7  31  1   
 23   8  10  1   
 24   8  32  1   
 25   9  33  1   
 26   9  34  1   
 27   9  35  1   
 28  10  11  1   
 29  10  12  1   
 30  10  36  1   
 31  11  13  1   
 32  11  14  1   
 33  11  37  1   
 34  12  38  1   
 35  12  39  1   
 36  12  40  1   
 37  13  15  1   
 38  13  41  1   
 39  13  42  1   
 40  14  16  1   
 41  14  43  1   
 42  14  44  1   
 43  15  17  1   
 44  15  45  1   
 45  15  46  1   
 46  16  17  1   
 47  16  47  1   
 48  16  48  1   
 49  17  18  1   
 50  17  49  1   
 51  18  50  1   
 52  18  51  1   
 53  18  52  1   
@<TRIPOS>SUBSTRUCTURE
  1 ****   8 GROUP 4 **** **** 0

# MOE 2024.06 (io_trps.svl 2023.06)
