@<TRIPOS>MOLECULE
NONAME
47 48 1 0 0 
SMALL
USER_CHARGES


@<TRIPOS>ATOM
  1 O      -12.6300    -1.8750    -0.9630 O.2   1 <1>  -0.5700 
  2 C      -12.8010    -0.8500    -0.3560 C.2   1 <1>   0.6590 
  3 O      -13.9880    -0.4670     0.0850 O.3   1 <1>  -0.4300 
  4 C      -11.6430     0.0800    -0.0420 C.3   1 <1>  -0.0190 
  5 C      -15.1450    -1.2400    -0.1420 C.3   1 <1>   0.1200 
  6 C      -10.3360    -0.5800    -0.4930 C.3   1 <1>   0.3430 
  7 C      -11.8160     1.4670    -0.7000 C.3   1 <1>  -0.1600 
  8 C      -16.3300    -0.5120     0.4850 C.3   1 <1>  -0.2400 
  9 N       -9.1230     0.2550    -0.1730 N.4   1 <1>  -0.9590 
 10 C      -10.4770     2.2070    -0.8910 C.3   1 <1>  -0.1600 
 11 C       -9.3920     1.7090     0.0650 C.3   1 <1>   0.3430 
 12 C       -8.3290    -0.3430     0.9250 C.3   1 <1>   0.4810 
 13 C       -6.9200     0.2010     0.8090 C.2   1 <1>  -0.2760 
 14 C       -6.0660    -0.2500    -0.1300 C.2   1 <1>  -0.1780 
 15 C       -6.5680     1.2480     1.8650 C.3   1 <1>  -0.1020 
 16 C       -4.7090     0.1640    -0.3970 C.ar  1 <1>   0.0280 
 17 C       -3.6940    -0.7830    -0.4860 C.ar  1 <1>  -0.1500 
 18 C       -4.3740     1.5010    -0.5940 C.ar  1 <1>  -0.1500 
 19 C       -2.3890    -0.4100    -0.7540 C.ar  1 <1>  -0.1500 
 20 C       -3.0710     1.8810    -0.8610 C.ar  1 <1>  -0.1500 
 21 C       -2.0750     0.9240    -0.9410 C.ar  1 <1>  -0.1500 
 22 H      -11.6150     0.1900     1.0270 H     1 <1>   0.0800 
 23 H      -15.2810    -1.3520    -1.2050 H     1 <1>   0.0800 
 24 H      -15.0050    -2.2090     0.3080 H     1 <1>   0.0800 
 25 H      -10.3920    -0.7270    -1.5600 H     1 <1>   0.0800 
 26 H      -10.2500    -1.5560    -0.0420 H     1 <1>   0.0800 
 27 H      -12.2890     1.3630    -1.6640 H     1 <1>   0.0800 
 28 H      -12.4770     2.0580    -0.0870 H     1 <1>   0.0800 
 29 H      -16.4550     0.4550     0.0330 H     1 <1>   0.0800 
 30 H      -16.1800    -0.3990     1.5440 H     1 <1>   0.0800 
 31 H      -17.2280    -1.0810     0.3270 H     1 <1>   0.0800 
 32 H       -8.4970     0.2090    -0.9880 H     1 <1>   0.4500 
 33 H      -10.6300     3.2620    -0.7370 H     1 <1>   0.0800 
 34 H      -10.1310     2.0830    -1.9030 H     1 <1>   0.0800 
 35 H       -9.7270     1.8570     1.0800 H     1 <1>   0.0800 
 36 H       -8.4870     2.2770    -0.0780 H     1 <1>   0.0800 
 37 H       -8.7580    -0.1160     1.8880 H     1 <1>   0.0800 
 38 H       -8.2960    -1.4150     0.8070 H     1 <1>   0.0800 
 39 H       -6.3730    -1.0340    -0.8030 H     1 <1>   0.1500 
 40 H       -6.7880     0.8730     2.8500 H     1 <1>   0.0800 
 41 H       -7.1170     2.1600     1.7130 H     1 <1>   0.0800 
 42 H       -5.5190     1.4840     1.8470 H     1 <1>   0.0800 
 43 H       -3.9250    -1.8230    -0.3420 H     1 <1>   0.1500 
 44 H       -5.1390     2.2530    -0.5420 H     1 <1>   0.1500 
 45 H       -1.6160    -1.1560    -0.8170 H     1 <1>   0.1500 
 46 H       -2.8280     2.9190    -1.0080 H     1 <1>   0.1500 
 47 H       -1.0600     1.2170    -1.1480 H     1 <1>   0.1500 
@<TRIPOS>BOND
  1   1   2  2   
  2   2   3  1   
  3   2   4  1   
  4   3   5  1   
  5   4   6  1   
  6   4   7  1   
  7   4  22  1   
  8   5   8  1   
  9   5  23  1   
 10   5  24  1   
 11   6   9  1   
 12   6  25  1   
 13   6  26  1   
 14   7  10  1   
 15   7  27  1   
 16   7  28  1   
 17   8  29  1   
 18   8  30  1   
 19   8  31  1   
 20   9  11  1   
 21   9  12  1   
 22   9  32  1   
 23  10  11  1   
 24  10  33  1   
 25  10  34  1   
 26  11  35  1   
 27  11  36  1   
 28  12  13  1   
 29  12  37  1   
 30  12  38  1   
 31  13  14  2   
 32  13  15  1   
 33  14  16  1   
 34  14  39  1   
 35  15  40  1   
 36  15  41  1   
 37  15  42  1   
 38  16  17  ar  
 39  16  18  ar  
 40  17  19  ar  
 41  17  43  1   
 42  18  20  ar  
 43  18  44  1   
 44  19  21  ar  
 45  19  45  1   
 46  20  21  ar  
 47  20  46  1   
 48  21  47  1   
@<TRIPOS>SUBSTRUCTURE
  1 ****   9 GROUP 4 **** **** 0

# MOE 2024.06 (io_trps.svl 2023.06)
