@<TRIPOS>MOLECULE
NONAME
46 48 1 0 0 
SMALL
USER_CHARGES


@<TRIPOS>ATOM
  1 CL       1.4840    -0.2560    -3.5540 Cl    1 <1>  -0.1770 
  2 C        2.5630     0.0070    -2.2080 C.ar  1 <1>   0.1770 
  3 C        3.1520    -1.0800    -1.5900 C.ar  1 <1>  -0.1500 
  4 C        2.8140     1.2970    -1.7820 C.ar  1 <1>  -0.1500 
  5 C        4.0090    -0.8700    -0.5220 C.ar  1 <1>  -0.1500 
  6 C        3.6720     1.5000    -0.7140 C.ar  1 <1>  -0.1500 
  7 C        4.2740     0.4210    -0.0810 C.ar  1 <1>  -0.1430 
  8 C        5.2170     0.6570     1.0910 C.3   1 <1>   0.2540 
  9 N        6.4010     1.4290     0.6630 N.3   1 <1>  -0.8100 
 10 C        7.2640     1.7830     1.8140 C.3   1 <1>   0.1100 
 11 C        7.1880     0.7170    -0.3780 C.3   1 <1>   0.1100 
 12 C        8.4940     2.6230     1.3900 C.3   1 <1>   0.3430 
 13 C        8.4530     1.5010    -0.8050 C.3   1 <1>   0.3430 
 14 N        8.5310     2.8220    -0.1000 N.4   1 <1>  -0.9590 
 15 C        9.5940     3.7150    -0.6290 C.3   1 <1>   0.4230 
 16 C       11.0000     3.2330    -0.2380 C.3   1 <1>  -0.1600 
 17 C        9.3540     5.1550    -0.1590 C.3   1 <1>  -0.1600 
 18 C       12.0730     4.1710    -0.8090 C.3   1 <1>  -0.1600 
 19 C       10.4210     6.0990    -0.7310 C.3   1 <1>  -0.1600 
 20 C       11.8350     5.6220    -0.3690 C.3   1 <1>  -0.1600 
 21 H        2.9370    -2.0730    -1.9400 H     1 <1>   0.1500 
 22 H        2.3410     2.1250    -2.2780 H     1 <1>   0.1500 
 23 H        4.4630    -1.7180    -0.0390 H     1 <1>   0.1500 
 24 H        3.8740     2.5020    -0.3750 H     1 <1>   0.1500 
 25 H        5.5230    -0.2840     1.5170 H     1 <1>   0.0800 
 26 H        4.6850     1.2070     1.8500 H     1 <1>   0.0800 
 27 H        7.6030     0.8870     2.3070 H     1 <1>   0.0800 
 28 H        6.6910     2.3480     2.5310 H     1 <1>   0.0800 
 29 H        6.5760     0.5670    -1.2520 H     1 <1>   0.0800 
 30 H        7.4780    -0.2560    -0.0200 H     1 <1>   0.0800 
 31 H        9.3910     2.1270     1.7190 H     1 <1>   0.0800 
 32 H        8.4480     3.5780     1.8870 H     1 <1>   0.0800 
 33 H        8.4240     1.6530    -1.8710 H     1 <1>   0.0800 
 34 H        9.3260     0.9110    -0.5800 H     1 <1>   0.0800 
 35 H        7.6130     3.2450    -0.3040 H     1 <1>   0.4500 
 36 H        9.5340     3.7160    -1.7060 H     1 <1>   0.0800 
 37 H       11.1750     2.2430    -0.6190 H     1 <1>   0.0800 
 38 H       11.1070     3.2150     0.8320 H     1 <1>   0.0800 
 39 H        9.3960     5.2140     0.9140 H     1 <1>   0.0800 
 40 H        8.3850     5.4900    -0.4860 H     1 <1>   0.0800 
 41 H       12.0650     4.1220    -1.8850 H     1 <1>   0.0800 
 42 H       13.0480     3.8540    -0.4770 H     1 <1>   0.0800 
 43 H       10.2700     7.0940    -0.3470 H     1 <1>   0.0800 
 44 H       10.3270     6.1470    -1.8040 H     1 <1>   0.0800 
 45 H       12.5610     6.2640    -0.8400 H     1 <1>   0.0800 
 46 H       11.9770     5.7020     0.6960 H     1 <1>   0.0800 
@<TRIPOS>BOND
  1   1   2  1   
  2   2   3  ar  
  3   2   4  ar  
  4   3   5  ar  
  5   3  21  1   
  6   4   6  ar  
  7   4  22  1   
  8   5   7  ar  
  9   5  23  1   
 10   6   7  ar  
 11   6  24  1   
 12   7   8  1   
 13   8   9  1   
 14   8  25  1   
 15   8  26  1   
 16   9  10  1   
 17   9  11  1   
 18  10  12  1   
 19  10  27  1   
 20  10  28  1   
 21  11  13  1   
 22  11  29  1   
 23  11  30  1   
 24  12  14  1   
 25  12  31  1   
 26  12  32  1   
 27  13  14  1   
 28  13  33  1   
 29  13  34  1   
 30  14  15  1   
 31  14  35  1   
 32  15  16  1   
 33  15  17  1   
 34  15  36  1   
 35  16  18  1   
 36  16  37  1   
 37  16  38  1   
 38  17  19  1   
 39  17  39  1   
 40  17  40  1   
 41  18  20  1   
 42  18  41  1   
 43  18  42  1   
 44  19  20  1   
 45  19  43  1   
 46  19  44  1   
 47  20  45  1   
 48  20  46  1   
@<TRIPOS>SUBSTRUCTURE
  1 ****  11 GROUP 4 **** **** 0

# MOE 2024.06 (io_trps.svl 2023.06)
