@<TRIPOS>MOLECULE
NONAME
51 52 1 0 0 
SMALL
USER_CHARGES


@<TRIPOS>ATOM
  1 CL       4.1060    -1.3930     1.2250 Cl    1 <1>  -0.1770 
  2 C        3.0020    -2.7430     1.2600 C.ar  1 <1>   0.1770 
  3 C        2.0510    -2.8710     0.2680 C.ar  1 <1>  -0.1500 
  4 C        3.0920    -3.6680     2.2810 C.ar  1 <1>  -0.1500 
  5 C        1.1810    -3.9480     0.2990 C.ar  1 <1>  -0.1500 
  6 C        2.2160    -4.7410     2.3000 C.ar  1 <1>  -0.1500 
  7 C        1.2530    -4.9070     1.3080 C.ar  1 <1>  -0.0090 
  8 S        0.1290    -6.3360     1.3490 S.o2  1 <1>   1.4470 
  9 O        0.8570    -7.5190     1.7660 O.2   1 <1>  -0.6500 
 10 O       -1.0640    -5.9650     2.0760 O.2   1 <1>  -0.6500 
 11 N       -0.3220    -6.5960    -0.2710 N.am  1 <1>  -0.8490 
 12 C        0.6550    -7.4100    -1.0450 C.3   1 <1>   0.2570 
 13 C       -1.6690    -7.1630    -0.4010 C.3   1 <1>   0.1160 
 14 C        2.0900    -6.8590    -1.1100 C.2   1 <1>   0.5690 
 15 O        2.4040    -6.1500    -2.0360 O.2   1 <1>  -0.5700 
 16 N        2.9730    -7.1770    -0.1250 N.am  1 <1>  -0.7300 
 17 C        4.3160    -6.5700     0.0270 C.3   1 <1>   0.1400 
 18 C        5.3580    -7.3880    -0.7330 C.3   1 <1>  -0.0170 
 19 C        6.7350    -6.7730    -0.5460 C.ar  1 <1>  -0.1430 
 20 C        7.6360    -7.3140     0.3560 C.ar  1 <1>  -0.1500 
 21 C        7.1010    -5.6560    -1.2760 C.ar  1 <1>  -0.1500 
 22 C        8.8920    -6.7590     0.5390 C.ar  1 <1>   0.0830 
 23 C        8.3470    -5.0800    -1.0980 C.ar  1 <1>  -0.1500 
 24 O        9.6810    -7.4020     1.4460 O.3   1 <1>  -0.3620 
 25 C        9.2560    -5.6120    -0.1860 C.ar  1 <1>   0.0830 
 26 C       11.0740    -7.5020     1.2460 C.3   1 <1>   0.0400 
 27 O       10.4720    -5.0290     0.0250 O.3   1 <1>  -0.3630 
 28 C       10.7780    -3.7450    -0.4730 C.3   1 <1>   0.0400 
 29 H        1.9950    -2.1400    -0.5190 H     1 <1>   0.1500 
 30 H        3.8370    -3.5470     3.0480 H     1 <1>   0.1500 
 31 H        0.4410    -4.0470    -0.4780 H     1 <1>   0.1500 
 32 H        2.2830    -5.4640     3.0960 H     1 <1>   0.1500 
 33 H        0.3080    -7.4900    -2.0600 H     1 <1>   0.0800 
 34 H        0.6950    -8.4060    -0.6400 H     1 <1>   0.0800 
 35 H       -2.3940    -6.4970     0.0380 H     1 <1>   0.0800 
 36 H       -1.7270    -8.1150     0.1010 H     1 <1>   0.0800 
 37 H       -1.9230    -7.2920    -1.4390 H     1 <1>   0.0800 
 38 H        2.6340    -7.7170     0.6850 H     1 <1>   0.3700 
 39 H        4.5740    -6.5260     1.0710 H     1 <1>   0.0800 
 40 H        4.2990    -5.5630    -0.3570 H     1 <1>   0.0800 
 41 H        5.1110    -7.3980    -1.7800 H     1 <1>   0.0800 
 42 H        5.3570    -8.4010    -0.3730 H     1 <1>   0.0800 
 43 H        7.3740    -8.1830     0.9330 H     1 <1>   0.1500 
 44 H        6.4140    -5.2280    -1.9860 H     1 <1>   0.1500 
 45 H        8.5850    -4.2140    -1.6850 H     1 <1>   0.1500 
 46 H       11.4350    -8.3380     1.8150 H     1 <1>   0.0800 
 47 H       11.5390    -6.5970     1.5930 H     1 <1>   0.0800 
 48 H       11.2690    -7.6540     0.1990 H     1 <1>   0.0800 
 49 H       11.7400    -3.4580    -0.0890 H     1 <1>   0.0800 
 50 H       10.0280    -3.0510    -0.1340 H     1 <1>   0.0800 
 51 H       10.8120    -3.7850    -1.5470 H     1 <1>   0.0800 
@<TRIPOS>BOND
  1   1   2  1   
  2   2   3  ar  
  3   2   4  ar  
  4   3   5  ar  
  5   3  29  1   
  6   4   6  ar  
  7   4  30  1   
  8   5   7  ar  
  9   5  31  1   
 10   6   7  ar  
 11   6  32  1   
 12   7   8  1   
 13   8   9  2   
 14   8  10  2   
 15   8  11  am  
 16  11  12  1   
 17  11  13  1   
 18  12  14  1   
 19  12  33  1   
 20  12  34  1   
 21  13  35  1   
 22  13  36  1   
 23  13  37  1   
 24  14  15  2   
 25  14  16  am  
 26  16  17  1   
 27  16  38  1   
 28  17  18  1   
 29  17  39  1   
 30  17  40  1   
 31  18  19  1   
 32  18  41  1   
 33  18  42  1   
 34  19  20  ar  
 35  19  21  ar  
 36  20  22  ar  
 37  20  43  1   
 38  21  23  ar  
 39  21  44  1   
 40  22  24  1   
 41  22  25  ar  
 42  23  25  ar  
 43  23  45  1   
 44  24  26  1   
 45  25  27  1   
 46  26  46  1   
 47  26  47  1   
 48  26  48  1   
 49  27  28  1   
 50  28  49  1   
 51  28  50  1   
 52  28  51  1   
@<TRIPOS>SUBSTRUCTURE
  1 ****  17 GROUP 4 **** **** 0

# MOE 2024.06 (io_trps.svl 2023.06)
