@<TRIPOS>MOLECULE
NONAME
44 45 1 0 0 
SMALL
USER_CHARGES


@<TRIPOS>ATOM
  1 S        0.3600    -0.9830    -1.9840 S.o2  1 <1>   1.4470 
  2 O        0.8070    -1.8380    -3.0610 O.2   1 <1>  -0.6500 
  3 O        0.2630     0.4430    -2.1940 O.2   1 <1>  -0.6500 
  4 N        1.5170    -1.1620    -0.7510 N.am  1 <1>  -0.8490 
  5 C       -1.1680    -1.6450    -1.2610 C.ar  1 <1>  -0.0090 
  6 C        2.8820    -1.0180    -1.3110 C.3   1 <1>   0.1960 
  7 C        1.3240    -0.2030     0.3640 C.3   1 <1>   0.1960 
  8 C       -1.9740    -0.8590    -0.4530 C.ar  1 <1>  -0.1500 
  9 C       -1.5580    -2.9610    -1.4670 C.ar  1 <1>  -0.1500 
 10 C        3.9990    -1.0660    -0.2380 C.3   1 <1>   0.3430 
 11 C        2.3700    -0.3810     1.4950 C.3   1 <1>   0.3430 
 12 C       -3.1250    -1.3310     0.1830 C.ar  1 <1>   0.0860 
 13 C       -2.7060    -3.4630    -0.8850 C.ar  1 <1>  -0.1500 
 14 N        3.4500    -1.3650     1.1300 N.4   1 <1>  -0.9590 
 15 C       -3.4950    -2.6640    -0.0600 C.ar  1 <1>   0.0830 
 16 C       -3.8410    -0.4260     1.0670 C.2   1 <1>   0.5440 
 17 C        4.5120    -1.4790     2.1740 C.3   1 <1>   0.2630 
 18 O       -4.6180    -3.1500     0.5250 O.3   1 <1>  -0.3630 
 19 O       -3.2360     0.4760     1.6200 O.2   1 <1>  -0.5700 
 20 N       -5.1820    -0.5440     1.2960 N.am  1 <1>  -0.7300 
 21 C       -5.0270    -4.4980     0.4150 C.3   1 <1>   0.0400 
 22 C       -6.0080     0.3280     2.1670 C.3   1 <1>   0.0600 
 23 H        2.9590    -0.0900    -1.8540 H     1 <1>   0.0800 
 24 H        3.0610    -1.8110    -2.0190 H     1 <1>   0.0800 
 25 H        0.3450    -0.3280     0.7920 H     1 <1>   0.0800 
 26 H        1.3840     0.8090    -0.0040 H     1 <1>   0.0800 
 27 H       -1.7030     0.1730    -0.3030 H     1 <1>   0.1500 
 28 H       -0.9570    -3.5990    -2.0960 H     1 <1>   0.1500 
 29 H        4.5100    -0.1180    -0.2270 H     1 <1>   0.0800 
 30 H        4.7180    -1.8180    -0.5200 H     1 <1>   0.0800 
 31 H        1.8620    -0.7160     2.3850 H     1 <1>   0.0800 
 32 H        2.8050     0.5800     1.7170 H     1 <1>   0.0800 
 33 H       -2.9660    -4.4860    -1.0880 H     1 <1>   0.1500 
 34 H        2.9590    -2.2690     1.0250 H     1 <1>   0.4500 
 35 H        5.0300    -0.5400     2.2880 H     1 <1>   0.0800 
 36 H        5.2290    -2.2360     1.8970 H     1 <1>   0.0800 
 37 H        4.0770    -1.7520     3.1220 H     1 <1>   0.0800 
 38 H       -5.6270    -1.4030     0.9520 H     1 <1>   0.3700 
 39 H       -5.9190    -4.6260     1.0030 H     1 <1>   0.0800 
 40 H       -4.2470    -5.1330     0.7950 H     1 <1>   0.0800 
 41 H       -5.2370    -4.7180    -0.6170 H     1 <1>   0.0800 
 42 H       -6.8840     0.6510     1.6320 H     1 <1>   0.0800 
 43 H       -5.4470     1.1960     2.4700 H     1 <1>   0.0800 
 44 H       -6.3080    -0.2160     3.0460 H     1 <1>   0.0800 
@<TRIPOS>BOND
  1   1   2  2   
  2   1   3  2   
  3   1   4  am  
  4   1   5  1   
  5   4   6  1   
  6   4   7  1   
  7   5   8  ar  
  8   5   9  ar  
  9   6  10  1   
 10   6  23  1   
 11   6  24  1   
 12   7  11  1   
 13   7  25  1   
 14   7  26  1   
 15   8  12  ar  
 16   8  27  1   
 17   9  13  ar  
 18   9  28  1   
 19  10  14  1   
 20  10  29  1   
 21  10  30  1   
 22  11  14  1   
 23  11  31  1   
 24  11  32  1   
 25  12  15  ar  
 26  12  16  1   
 27  13  15  ar  
 28  13  33  1   
 29  14  17  1   
 30  14  34  1   
 31  15  18  1   
 32  16  19  2   
 33  16  20  am  
 34  17  35  1   
 35  17  36  1   
 36  17  37  1   
 37  18  21  1   
 38  20  22  1   
 39  20  38  1   
 40  21  39  1   
 41  21  40  1   
 42  21  41  1   
 43  22  42  1   
 44  22  43  1   
 45  22  44  1   
@<TRIPOS>SUBSTRUCTURE
  1 ****   8 GROUP 4 **** **** 0

# MOE 2024.06 (io_trps.svl 2023.06)
