@<TRIPOS>MOLECULE
NONAME
45 46 1 0 0 
SMALL
USER_CHARGES


@<TRIPOS>ATOM
  1 CL      -0.1990     0.4290     0.8870 Cl    1 <1>  -0.1770 
  2 C       -1.6370    -0.4930     0.5300 C.ar  1 <1>   0.1770 
  3 C       -1.5880    -1.8710     0.5940 C.ar  1 <1>  -0.1500 
  4 C       -2.7990     0.1680     0.1900 C.ar  1 <1>  -0.1500 
  5 C       -2.7150    -2.6350     0.3020 C.ar  1 <1>  -0.0090 
  6 C       -3.9330    -0.5730    -0.0860 C.ar  1 <1>  -0.1500 
  7 S       -2.6680    -4.4480     0.3810 S.o2  1 <1>   1.4470 
  8 C       -3.8950    -1.9670    -0.0240 C.ar  1 <1>   0.0830 
  9 O       -3.0350    -4.8730     1.7150 O.2   1 <1>  -0.6500 
 10 O       -3.2950    -5.0730    -0.7650 O.2   1 <1>  -0.6500 
 11 N       -1.0120    -4.7950     0.2170 N.am  1 <1>  -0.8490 
 12 O       -4.9900    -2.7270    -0.2660 O.3   1 <1>  -0.3630 
 13 C       -0.6830    -6.1150     0.7760 C.3   1 <1>   0.1960 
 14 C       -0.5440    -4.6830    -1.1650 C.3   1 <1>   0.1960 
 15 C       -6.2410    -2.1760    -0.6120 C.3   1 <1>   0.0400 
 16 C        0.7490    -6.5590     0.4280 C.3   1 <1>  -0.1600 
 17 C        0.9900    -4.6410    -1.1910 C.3   1 <1>  -0.1600 
 18 C        1.6380    -5.3770     0.0030 C.3   1 <1>  -0.0190 
 19 C        3.0660    -5.8140    -0.3100 C.2   1 <1>   0.5690 
 20 O        3.2590    -6.6590    -1.1500 O.2   1 <1>  -0.5700 
 21 N        4.0890    -5.2410     0.3690 N.am  1 <1>  -0.7300 
 22 C        5.5080    -5.5560     0.1620 C.3   1 <1>   0.2780 
 23 C        6.2890    -4.2850     0.4080 C.2   1 <1>  -0.2880 
 24 C        7.1620    -4.0910     1.4030 C.2   1 <1>  -0.3000 
 25 H       -0.6640    -2.3420     0.8770 H     1 <1>   0.1500 
 26 H       -2.8120     1.2420     0.1460 H     1 <1>   0.1500 
 27 H       -4.8350    -0.0480    -0.3430 H     1 <1>   0.1500 
 28 H       -1.3810    -6.8530     0.4140 H     1 <1>   0.0800 
 29 H       -0.7850    -6.0650     1.8480 H     1 <1>   0.0800 
 30 H       -0.9320    -3.7890    -1.6260 H     1 <1>   0.0800 
 31 H       -0.9000    -5.5280    -1.7330 H     1 <1>   0.0800 
 32 H       -6.9330    -2.9870    -0.7540 H     1 <1>   0.0800 
 33 H       -6.1380    -1.6210    -1.5280 H     1 <1>   0.0800 
 34 H       -6.5800    -1.5440     0.1900 H     1 <1>   0.0800 
 35 H        0.7040    -7.2720    -0.3760 H     1 <1>   0.0800 
 36 H        1.1810    -7.0630     1.2740 H     1 <1>   0.0800 
 37 H        1.3210    -3.6180    -1.1940 H     1 <1>   0.0800 
 38 H        1.3160    -5.0830    -2.1170 H     1 <1>   0.0800 
 39 H        1.6720    -4.6920     0.8310 H     1 <1>   0.0800 
 40 H        3.9170    -4.5330     1.0820 H     1 <1>   0.3700 
 41 H        5.6720    -5.9110    -0.8430 H     1 <1>   0.0800 
 42 H        5.8070    -6.3250     0.8540 H     1 <1>   0.0800 
 43 H        6.0670    -3.5260    -0.3230 H     1 <1>   0.1500 
 44 H        7.7060    -3.1740     1.5530 H     1 <1>   0.1500 
 45 H        7.4070    -4.8280     2.1490 H     1 <1>   0.1500 
@<TRIPOS>BOND
  1   1   2  1   
  2   2   3  ar  
  3   2   4  ar  
  4   3   5  ar  
  5   3  25  1   
  6   4   6  ar  
  7   4  26  1   
  8   5   7  1   
  9   5   8  ar  
 10   6   8  ar  
 11   6  27  1   
 12   7   9  2   
 13   7  10  2   
 14   7  11  am  
 15   8  12  1   
 16  11  13  1   
 17  11  14  1   
 18  12  15  1   
 19  13  16  1   
 20  13  28  1   
 21  13  29  1   
 22  14  17  1   
 23  14  30  1   
 24  14  31  1   
 25  15  32  1   
 26  15  33  1   
 27  15  34  1   
 28  16  18  1   
 29  16  35  1   
 30  16  36  1   
 31  17  18  1   
 32  17  37  1   
 33  17  38  1   
 34  18  19  1   
 35  18  39  1   
 36  19  20  2   
 37  19  21  am  
 38  21  22  1   
 39  21  40  1   
 40  22  23  1   
 41  22  41  1   
 42  22  42  1   
 43  23  24  2   
 44  23  43  1   
 45  24  44  1   
 46  24  45  1   
@<TRIPOS>SUBSTRUCTURE
  1 ****  11 GROUP 4 **** **** 0

# MOE 2024.06 (io_trps.svl 2023.06)
