@<TRIPOS>MOLECULE
NONAME
38 39 1 0 0 
SMALL
USER_CHARGES


@<TRIPOS>ATOM
  1 S        0.2150     0.4010     0.7880 S.3   1 <1>  -0.0800 
  2 C        0.8810     1.4190    -0.4330 C.2   1 <1>   0.4340 
  3 C       -1.2090     0.3230    -0.2050 C.2   1 <1>   0.4420 
  4 S        2.5370     2.0280    -0.1700 S.3   1 <1>  -0.2860 
  5 N        0.1140     1.6400    -1.4190 N.2   1 <1>  -0.3380 
  6 N       -1.0940     1.0080    -1.2880 N.2   1 <1>  -0.3380 
  7 N       -2.2540    -0.4400     0.2800 N.am  1 <1>  -0.4940 
  8 C        2.8370     3.0550    -1.6940 C.3   1 <1>   0.1310 
  9 C       -3.4750    -0.6770    -0.2780 C.2   1 <1>   0.5690 
 10 C        4.2190     3.6940    -1.6980 C.2   1 <1>   0.5690 
 11 O       -3.8320    -0.2270    -1.3330 O.2   1 <1>  -0.5700 
 12 C       -4.4260    -1.5620     0.4890 C.3   1 <1>  -0.1790 
 13 O        4.5210     4.3840    -2.6410 O.2   1 <1>  -0.5700 
 14 N        5.0730     3.4830    -0.6620 N.am  1 <1>  -0.7300 
 15 C        6.4300     4.0370    -0.5390 C.3   1 <1>   0.2200 
 16 C        7.4320     2.8810    -0.4670 C.3   1 <1>  -0.1600 
 17 C        6.4960     4.9110     0.7180 C.3   1 <1>  -0.1600 
 18 C        8.8590     3.3970    -0.2290 C.3   1 <1>  -0.1600 
 19 C        7.9210     5.4310     0.9580 C.3   1 <1>  -0.1600 
 20 C        8.9290     4.2750     1.0280 C.3   1 <1>  -0.1600 
 21 H       -2.0840    -0.8840     1.1770 H     1 <1>   0.3700 
 22 H        2.0790     3.8150    -1.7220 H     1 <1>   0.0800 
 23 H        2.7290     2.4050    -2.5430 H     1 <1>   0.0800 
 24 H       -3.9950    -2.5360     0.6230 H     1 <1>   0.0800 
 25 H       -5.3440    -1.6640    -0.0610 H     1 <1>   0.0800 
 26 H       -4.6440    -1.1250     1.4450 H     1 <1>   0.0800 
 27 H        4.7710     2.8910     0.1140 H     1 <1>   0.3700 
 28 H        6.6540     4.6440    -1.4020 H     1 <1>   0.0800 
 29 H        7.4030     2.3300    -1.3910 H     1 <1>   0.0800 
 30 H        7.1620     2.2180     0.3360 H     1 <1>   0.0800 
 31 H        6.1840     4.3370     1.5730 H     1 <1>   0.0800 
 32 H        5.8270     5.7460     0.6040 H     1 <1>   0.0800 
 33 H        9.1760     3.9720    -1.0830 H     1 <1>   0.0800 
 34 H        9.5320     2.5630    -0.1260 H     1 <1>   0.0800 
 35 H        7.9510     5.9920     1.8760 H     1 <1>   0.0800 
 36 H        8.1970     6.0950     0.1570 H     1 <1>   0.0800 
 37 H        9.9240     4.6720     1.1350 H     1 <1>   0.0800 
 38 H        8.7200     3.6720     1.8950 H     1 <1>   0.0800 
@<TRIPOS>BOND
  1   1   2  1   
  2   1   3  1   
  3   2   4  1   
  4   2   5  2   
  5   3   6  2   
  6   3   7  1   
  7   4   8  1   
  8   5   6  1   
  9   7   9  am  
 10   7  21  1   
 11   8  10  1   
 12   8  22  1   
 13   8  23  1   
 14   9  11  2   
 15   9  12  1   
 16  10  13  2   
 17  10  14  am  
 18  12  24  1   
 19  12  25  1   
 20  12  26  1   
 21  14  15  1   
 22  14  27  1   
 23  15  16  1   
 24  15  17  1   
 25  15  28  1   
 26  16  18  1   
 27  16  29  1   
 28  16  30  1   
 29  17  19  1   
 30  17  31  1   
 31  17  32  1   
 32  18  20  1   
 33  18  33  1   
 34  18  34  1   
 35  19  20  1   
 36  19  35  1   
 37  19  36  1   
 38  20  37  1   
 39  20  38  1   
@<TRIPOS>SUBSTRUCTURE
  1 ****   4 GROUP 4 **** **** 0

# MOE 2024.06 (io_trps.svl 2023.06)
