@<TRIPOS>MOLECULE
Structure2546
32 33 1 0 0 
SMALL
USER_CHARGES


@<TRIPOS>ATOM
  1 BR       0.0600    -0.4520    -0.3620 Br    1 <1>  -0.1110 
  2 C       -1.8300    -0.1610    -0.1330 C.ar  1 <1>   0.1110 
  3 C       -2.3710     1.0460    -0.5350 C.ar  1 <1>  -0.1500 
  4 C       -2.5960    -1.1650     0.4270 C.ar  1 <1>  -0.1500 
  5 C       -3.7310     1.2550    -0.3700 C.ar  1 <1>  -0.1500 
  6 C       -3.9540    -0.9470     0.5880 C.ar  1 <1>  -0.1500 
  7 C       -4.5270     0.2550     0.1930 C.ar  1 <1>   0.0820 
  8 O       -5.8640     0.3790     0.3880 O.3   1 <1>  -0.3630 
  9 C       -6.5520     1.5560     0.0310 C.3   1 <1>   0.1200 
 10 C       -8.0390     1.3760     0.3800 C.3   1 <1>  -0.0800 
 11 C       -8.6510     0.1530    -0.3300 C.3   1 <1>  -0.1600 
 12 C       -8.8410     2.6400     0.0260 C.3   1 <1>  -0.1600 
 13 C      -10.1450     0.0140    -0.0400 C.3   1 <1>   0.3430 
 14 C      -10.3340     2.4620     0.3110 C.3   1 <1>   0.3430 
 15 N      -10.8440     1.2710    -0.4230 N.4   1 <1>  -0.9060 
 16 H       -1.7390     1.8020    -0.9660 H     1 <1>   0.1500 
 17 H       -2.1400    -2.0910     0.7290 H     1 <1>   0.1500 
 18 H       -4.1440     2.1940    -0.6840 H     1 <1>   0.1500 
 19 H       -4.5760    -1.7090     1.0220 H     1 <1>   0.1500 
 20 H       -6.4200     1.7160    -1.0250 H     1 <1>   0.0800 
 21 H       -6.1260     2.3750     0.5860 H     1 <1>   0.0800 
 22 H       -8.1020     1.2260     1.4460 H     1 <1>   0.0800 
 23 H       -8.1570    -0.7430     0.0080 H     1 <1>   0.0800 
 24 H       -8.4930     0.2200    -1.3920 H     1 <1>   0.0800 
 25 H       -8.7040     2.8920    -1.0120 H     1 <1>   0.0800 
 26 H       -8.4760     3.4700     0.6080 H     1 <1>   0.0800 
 27 H      -10.2890    -0.1790     1.0110 H     1 <1>   0.0800 
 28 H      -10.5460    -0.8190    -0.5960 H     1 <1>   0.0800 
 29 H      -10.8710     3.3460     0.0040 H     1 <1>   0.0800 
 30 H      -10.4830     2.3270     1.3710 H     1 <1>   0.0800 
 31 H      -11.8540     1.1680    -0.2600 H     1 <1>   0.4500 
 32 H      -10.7170     1.4230    -1.4310 H     1 <1>   0.4500 
@<TRIPOS>BOND
  1   1   2  1   
  2   2   3  ar  
  3   2   4  ar  
  4   3   5  ar  
  5   3  16  1   
  6   4   6  ar  
  7   4  17  1   
  8   5   7  ar  
  9   5  18  1   
 10   6   7  ar  
 11   6  19  1   
 12   7   8  1   
 13   8   9  1   
 14   9  10  1   
 15   9  20  1   
 16   9  21  1   
 17  10  11  1   
 18  10  12  1   
 19  10  22  1   
 20  11  13  1   
 21  11  23  1   
 22  11  24  1   
 23  12  14  1   
 24  12  25  1   
 25  12  26  1   
 26  13  15  1   
 27  13  27  1   
 28  13  28  1   
 29  14  15  1   
 30  14  29  1   
 31  14  30  1   
 32  15  31  1   
 33  15  32  1   
@<TRIPOS>SUBSTRUCTURE
  1 ****   8 GROUP 4 **** **** 0

# MOE 2024.06 (io_trps.svl 2023.06)
