@<TRIPOS>MOLECULE
NONAME
39 40 1 0 0 
SMALL
USER_CHARGES


@<TRIPOS>ATOM
  1 BR       0.1170     0.6930    -0.7070 Br    1 <1>  -0.1110 
  2 C        2.0060     0.3310    -0.6250 C.ar  1 <1>   0.1110 
  3 C        2.4350    -0.9820    -0.6600 C.ar  1 <1>  -0.1500 
  4 C        2.8840     1.3950    -0.5340 C.ar  1 <1>  -0.1500 
  5 C        3.7950    -1.2390    -0.6010 C.ar  1 <1>  -0.1500 
  6 C        4.2410     1.1280    -0.4750 C.ar  1 <1>  -0.1500 
  7 C        4.7000    -0.1840    -0.5020 C.ar  1 <1>   0.0830 
  8 O        6.0470    -0.3680    -0.4470 O.3   1 <1>  -0.2320 
  9 C        6.7200    -1.3890     0.0820 C.2   1 <1>   0.6590 
 10 O        6.1960    -2.3010     0.6690 O.2   1 <1>  -0.5700 
 11 C        8.2360    -1.3130    -0.0860 C.3   1 <1>  -0.0190 
 12 C        8.9150    -2.6950    -0.1270 C.3   1 <1>  -0.1600 
 13 C        8.8850    -0.4550     1.0220 C.3   1 <1>  -0.1600 
 14 C       10.4340    -2.5870    -0.3510 C.3   1 <1>   0.1960 
 15 C       10.3760    -0.7590     1.2330 C.3   1 <1>   0.1960 
 16 N       10.9640    -1.2570    -0.0100 N.am  1 <1>  -0.8490 
 17 S       12.6590    -1.2590     0.0090 S.o2  1 <1>   1.3330 
 18 O       13.0720    -1.4980     1.3740 O.2   1 <1>  -0.6500 
 19 O       13.1090    -2.1400    -1.0450 O.2   1 <1>  -0.6500 
 20 C       13.0650     0.4300    -0.4590 C.3   1 <1>  -0.0550 
 21 C       14.5740     0.7260    -0.5300 C.3   1 <1>  -0.2400 
 22 H        1.7220    -1.7840    -0.7330 H     1 <1>   0.1500 
 23 H        2.5120     2.4040    -0.5120 H     1 <1>   0.1500 
 24 H        4.1350    -2.2580    -0.6370 H     1 <1>   0.1500 
 25 H        4.9460     1.9370    -0.4060 H     1 <1>   0.1500 
 26 H        8.4300    -0.8390    -1.0320 H     1 <1>   0.0800 
 27 H        8.4850    -3.3010    -0.9050 H     1 <1>   0.0800 
 28 H        8.7400    -3.2060     0.8040 H     1 <1>   0.0800 
 29 H        8.3790    -0.6190     1.9580 H     1 <1>   0.0800 
 30 H        8.7670     0.5850     0.7740 H     1 <1>   0.0800 
 31 H       10.6510    -2.7820    -1.3890 H     1 <1>   0.0800 
 32 H       10.9330    -3.3440     0.2340 H     1 <1>   0.0800 
 33 H       10.4960    -1.5030     2.0060 H     1 <1>   0.0800 
 34 H       10.8790     0.1370     1.5580 H     1 <1>   0.0800 
 35 H       12.6190     1.1050     0.2450 H     1 <1>   0.0800 
 36 H       12.6320     0.6320    -1.4200 H     1 <1>   0.0800 
 37 H       15.0300     0.5540     0.4300 H     1 <1>   0.0800 
 38 H       14.7410     1.7490    -0.8170 H     1 <1>   0.0800 
 39 H       15.0430     0.0810    -1.2530 H     1 <1>   0.0800 
@<TRIPOS>BOND
  1   1   2  1   
  2   2   3  ar  
  3   2   4  ar  
  4   3   5  ar  
  5   3  22  1   
  6   4   6  ar  
  7   4  23  1   
  8   5   7  ar  
  9   5  24  1   
 10   6   7  ar  
 11   6  25  1   
 12   7   8  1   
 13   8   9  1   
 14   9  10  2   
 15   9  11  1   
 16  11  12  1   
 17  11  13  1   
 18  11  26  1   
 19  12  14  1   
 20  12  27  1   
 21  12  28  1   
 22  13  15  1   
 23  13  29  1   
 24  13  30  1   
 25  14  16  1   
 26  14  31  1   
 27  14  32  1   
 28  15  16  1   
 29  15  33  1   
 30  15  34  1   
 31  16  17  am  
 32  17  18  2   
 33  17  19  2   
 34  17  20  1   
 35  20  21  1   
 36  20  35  1   
 37  20  36  1   
 38  21  37  1   
 39  21  38  1   
 40  21  39  1   
@<TRIPOS>SUBSTRUCTURE
  1 ****  11 GROUP 4 **** **** 0

# MOE 2024.06 (io_trps.svl 2023.06)
