@<TRIPOS>MOLECULE
NONAME
51 52 1 0 0 
SMALL
USER_CHARGES


@<TRIPOS>ATOM
  1 S        0.1460     0.1170     0.4790 S.o2  1 <1>   1.4470 
  2 O        0.3440     1.0340    -0.6240 O.2   1 <1>  -0.6500 
  3 O        0.2580     0.6150     1.8320 O.2   1 <1>  -0.6500 
  4 N        1.3300    -1.0830     0.2970 N.am  1 <1>  -0.8490 
  5 C       -1.4060    -0.8010     0.2920 C.ar  1 <1>  -0.0090 
  6 C        2.6320    -0.6080     0.8340 C.3   1 <1>   0.2570 
  7 C        1.4230    -1.5830    -1.0830 C.3   1 <1>   0.1160 
  8 C       -2.3680    -0.4160    -0.6340 C.ar  1 <1>  -0.1500 
  9 C       -1.6680    -1.9190     1.0740 C.ar  1 <1>  -0.1500 
 10 C        3.8090    -1.5870     0.7360 C.2   1 <1>   0.5690 
 11 C       -3.5520    -1.1200    -0.7900 C.ar  1 <1>  -0.1440 
 12 C       -2.8430    -2.6350     0.9340 C.ar  1 <1>  -0.1500 
 13 O        4.0520    -2.3110     1.6720 O.2   1 <1>  -0.5700 
 14 N        4.5660    -1.5860    -0.4050 N.am  1 <1>  -0.5470 
 15 C       -3.7950    -2.2400    -0.0010 C.ar  1 <1>   0.0830 
 16 C       -4.5760    -0.6610    -1.8180 C.3   1 <1>  -0.0970 
 17 C        5.5150    -2.5490    -0.7800 C.ar  1 <1>   0.1170 
 18 O       -4.9660    -2.9020    -0.1860 O.3   1 <1>  -0.3630 
 19 C        5.1530    -3.8690    -1.0690 C.ar  1 <1>   0.0830 
 20 C        6.8510    -2.1870    -0.8840 C.ar  1 <1>  -0.1500 
 21 C       -5.3160    -4.0270     0.5880 C.3   1 <1>   0.0400 
 22 O        3.8530    -4.2460    -0.9910 O.3   1 <1>  -0.3630 
 23 C        6.1100    -4.7930    -1.4570 C.ar  1 <1>  -0.1500 
 24 C        7.8080    -3.1120    -1.2660 C.ar  1 <1>  -0.1500 
 25 C        3.5340    -5.1330     0.0560 C.3   1 <1>   0.1200 
 26 C        7.4380    -4.4150    -1.5540 C.ar  1 <1>  -0.1500 
 27 C        2.0190    -5.1380     0.2360 C.3   1 <1>  -0.2400 
 28 H        2.5110    -0.3810     1.8800 H     1 <1>   0.0800 
 29 H        2.9070     0.3070     0.3400 H     1 <1>   0.0800 
 30 H        0.4540    -1.9050    -1.4260 H     1 <1>   0.0800 
 31 H        2.0830    -2.4300    -1.1350 H     1 <1>   0.0800 
 32 H        1.7820    -0.8120    -1.7450 H     1 <1>   0.0800 
 33 H       -2.1810     0.4520    -1.2440 H     1 <1>   0.1500 
 34 H       -0.9360    -2.2320     1.8000 H     1 <1>   0.1500 
 35 H       -2.9980    -3.4920     1.5610 H     1 <1>   0.1500 
 36 H        4.3260    -0.9110    -1.1280 H     1 <1>   0.3700 
 37 H       -4.2410     0.2160    -2.3410 H     1 <1>   0.0800 
 38 H       -5.5050    -0.4340    -1.3280 H     1 <1>   0.0800 
 39 H       -4.7470    -1.4440    -2.5350 H     1 <1>   0.0800 
 40 H        7.1450    -1.1790    -0.6580 H     1 <1>   0.1500 
 41 H       -6.2850    -4.3640     0.2670 H     1 <1>   0.0800 
 42 H       -5.3550    -3.7400     1.6240 H     1 <1>   0.0800 
 43 H       -4.5880    -4.8020     0.4280 H     1 <1>   0.0800 
 44 H        5.8180    -5.8010    -1.6880 H     1 <1>   0.1500 
 45 H        8.8410    -2.8190    -1.3390 H     1 <1>   0.1500 
 46 H        4.0210    -4.7940     0.9560 H     1 <1>   0.0800 
 47 H        3.8960    -6.1120    -0.2050 H     1 <1>   0.0800 
 48 H        8.1820    -5.1340    -1.8530 H     1 <1>   0.1500 
 49 H        1.6850    -4.1630     0.5420 H     1 <1>   0.0800 
 50 H        1.7500    -5.8430     1.0010 H     1 <1>   0.0800 
 51 H        1.5350    -5.4200    -0.6810 H     1 <1>   0.0800 
@<TRIPOS>BOND
  1   1   2  2   
  2   1   3  2   
  3   1   4  am  
  4   1   5  1   
  5   4   6  1   
  6   4   7  1   
  7   5   8  ar  
  8   5   9  ar  
  9   6  10  1   
 10   6  28  1   
 11   6  29  1   
 12   7  30  1   
 13   7  31  1   
 14   7  32  1   
 15   8  11  ar  
 16   8  33  1   
 17   9  12  ar  
 18   9  34  1   
 19  10  13  2   
 20  10  14  am  
 21  11  15  ar  
 22  11  16  1   
 23  12  15  ar  
 24  12  35  1   
 25  14  17  1   
 26  14  36  1   
 27  15  18  1   
 28  16  37  1   
 29  16  38  1   
 30  16  39  1   
 31  17  19  ar  
 32  17  20  ar  
 33  18  21  1   
 34  19  22  1   
 35  19  23  ar  
 36  20  24  ar  
 37  20  40  1   
 38  21  41  1   
 39  21  42  1   
 40  21  43  1   
 41  22  25  1   
 42  23  26  ar  
 43  23  44  1   
 44  24  26  ar  
 45  24  45  1   
 46  25  27  1   
 47  25  46  1   
 48  25  47  1   
 49  26  48  1   
 50  27  49  1   
 51  27  50  1   
 52  27  51  1   
@<TRIPOS>SUBSTRUCTURE
  1 ****   7 GROUP 4 **** **** 0

# MOE 2024.06 (io_trps.svl 2023.06)
