@<TRIPOS>MOLECULE
NONAME
47 48 1 0 0 
SMALL
USER_CHARGES


@<TRIPOS>ATOM
  1 O        0.3400    -1.1980     1.9830 O.2   1 <1>  -0.5700 
  2 C        0.3940    -1.9790     1.0520 C.2   1 <1>   0.7800 
  3 O       -0.7180    -2.3010     0.3880 O.3   1 <1>  -0.4300 
  4 N        1.5640    -2.5530     0.6390 N.am  1 <1>  -0.6600 
  5 C       -1.9610    -1.7480     0.7540 C.3   1 <1>   0.1200 
  6 C        1.6100    -3.5120    -0.5080 C.3   1 <1>   0.1400 
  7 C        2.8640    -2.2140     1.2910 C.3   1 <1>   0.1400 
  8 C       -3.0220    -2.3090    -0.1890 C.3   1 <1>  -0.2400 
  9 C        2.9060    -4.3370    -0.5340 C.3   1 <1>   0.1400 
 10 C        4.0140    -2.1890     0.2730 C.3   1 <1>   0.1400 
 11 N        4.1300    -3.4740    -0.4900 N.am  1 <1>  -0.6600 
 12 C        5.3310    -3.9480    -0.9760 C.2   1 <1>   0.5440 
 13 O        5.4090    -5.1190    -1.2960 O.2   1 <1>  -0.5700 
 14 C        6.5000    -3.0970    -1.0970 C.ar  1 <1>   0.0860 
 15 C        7.7200    -3.4920    -0.5530 C.ar  1 <1>  -0.1500 
 16 C        6.4480    -1.8690    -1.7580 C.ar  1 <1>  -0.1500 
 17 C        8.8480    -2.6840    -0.6430 C.ar  1 <1>   0.0820 
 18 C        7.5620    -1.0550    -1.8510 C.ar  1 <1>  -0.1500 
 19 O       10.0650    -3.0080    -0.1360 O.3   1 <1>  -0.3630 
 20 C        8.7580    -1.4630    -1.2910 C.ar  1 <1>  -0.1500 
 21 C       10.3440    -4.2530     0.4670 C.3   1 <1>   0.2000 
 22 C        9.9200    -4.1940     1.9370 C.3   1 <1>  -0.2400 
 23 C       11.8470    -4.4840     0.3380 C.3   1 <1>  -0.2400 
 24 H       -1.8960    -0.6760     0.6700 H     1 <1>   0.0800 
 25 H       -2.1680    -2.0200     1.7750 H     1 <1>   0.0800 
 26 H        1.5280    -2.9590    -1.4280 H     1 <1>   0.0800 
 27 H        0.7700    -4.1820    -0.4500 H     1 <1>   0.0800 
 28 H        3.0770    -2.9450     2.0520 H     1 <1>   0.0800 
 29 H        2.7960    -1.2510     1.7680 H     1 <1>   0.0800 
 30 H       -2.7950    -2.0390    -1.2040 H     1 <1>   0.0800 
 31 H       -3.9840    -1.9030     0.0670 H     1 <1>   0.0800 
 32 H       -3.0680    -3.3790    -0.1010 H     1 <1>   0.0800 
 33 H        2.9220    -4.9370    -1.4280 H     1 <1>   0.0800 
 34 H        2.9200    -5.0050     0.3090 H     1 <1>   0.0800 
 35 H        4.9350    -1.9920     0.7940 H     1 <1>   0.0800 
 36 H        3.8420    -1.3830    -0.4190 H     1 <1>   0.0800 
 37 H        7.7540    -4.4450    -0.0620 H     1 <1>   0.1500 
 38 H        5.5220    -1.5560    -2.2070 H     1 <1>   0.1500 
 39 H        7.5030    -0.1090    -2.3620 H     1 <1>   0.1500 
 40 H        9.6330    -0.8400    -1.3560 H     1 <1>   0.1500 
 41 H        9.8220    -5.0280    -0.0670 H     1 <1>   0.0800 
 42 H       10.4510    -3.4090     2.4450 H     1 <1>   0.0800 
 43 H       10.1450    -5.1280     2.4190 H     1 <1>   0.0800 
 44 H        8.8650    -4.0170     2.0220 H     1 <1>   0.0800 
 45 H       12.3910    -3.7020     0.8350 H     1 <1>   0.0800 
 46 H       12.1240    -4.5070    -0.7000 H     1 <1>   0.0800 
 47 H       12.1130    -5.4260     0.7820 H     1 <1>   0.0800 
@<TRIPOS>BOND
  1   1   2  2   
  2   2   3  1   
  3   2   4  am  
  4   3   5  1   
  5   4   6  1   
  6   4   7  1   
  7   5   8  1   
  8   5  24  1   
  9   5  25  1   
 10   6   9  1   
 11   6  26  1   
 12   6  27  1   
 13   7  10  1   
 14   7  28  1   
 15   7  29  1   
 16   8  30  1   
 17   8  31  1   
 18   8  32  1   
 19   9  11  1   
 20   9  33  1   
 21   9  34  1   
 22  10  11  1   
 23  10  35  1   
 24  10  36  1   
 25  11  12  am  
 26  12  13  2   
 27  12  14  1   
 28  14  15  ar  
 29  14  16  ar  
 30  15  17  ar  
 31  15  37  1   
 32  16  18  ar  
 33  16  38  1   
 34  17  19  1   
 35  17  20  ar  
 36  18  20  ar  
 37  18  39  1   
 38  19  21  1   
 39  20  40  1   
 40  21  22  1   
 41  21  23  1   
 42  21  41  1   
 43  22  42  1   
 44  22  43  1   
 45  22  44  1   
 46  23  45  1   
 47  23  46  1   
 48  23  47  1   
@<TRIPOS>SUBSTRUCTURE
  1 ****  11 GROUP 4 **** **** 0

# MOE 2024.06 (io_trps.svl 2023.06)
