@<TRIPOS>MOLECULE
NONAME
41 42 1 0 0 
SMALL
USER_CHARGES


@<TRIPOS>ATOM
  1 O       -0.4310    -0.4460    -0.5420 O.2   1 <1>  -0.5700 
  2 C       -0.1240    -1.5840    -0.2380 C.2   1 <1>   0.6900 
  3 N       -1.0750    -2.5200     0.0680 N.am  1 <1>  -0.6600 
  4 N        1.1740    -1.9970    -0.2050 N.am  1 <1>  -0.5470 
  5 C       -2.3290    -2.2150     0.8110 C.3   1 <1>   0.2200 
  6 C       -1.2070    -3.7050    -0.8180 C.3   1 <1>   0.1400 
  7 C        2.4090    -1.3980    -0.5060 C.ar  1 <1>   0.1170 
  8 C       -3.4440    -1.8980    -0.1930 C.3   1 <1>  -0.1600 
  9 C       -2.1500    -1.1100     1.8570 C.3   1 <1>  -0.2400 
 10 C       -2.3150    -3.4460    -1.8470 C.3   1 <1>  -0.1600 
 11 C        3.5770    -2.1030    -0.1920 C.ar  1 <1>   0.0820 
 12 C        2.5230    -0.1480    -1.1060 C.ar  1 <1>  -0.1500 
 13 C       -3.6450    -3.0600    -1.1790 C.3   1 <1>  -0.1600 
 14 O        3.4260    -3.3320     0.3890 O.3   1 <1>  -0.3630 
 15 C        4.8240    -1.5500    -0.4730 C.ar  1 <1>  -0.1500 
 16 C        3.7640     0.3970    -1.3830 C.ar  1 <1>  -0.1500 
 17 C        4.5390    -4.0820     0.8180 C.3   1 <1>   0.1200 
 18 C        4.9140    -0.3030    -1.0670 C.ar  1 <1>  -0.1500 
 19 C        4.0220    -5.3650     1.4610 C.3   1 <1>  -0.2400 
 20 H        1.2790    -2.9190     0.2110 H     1 <1>   0.3700 
 21 H       -2.6070    -3.1070     1.3470 H     1 <1>   0.0800 
 22 H       -1.4470    -4.5690    -0.2230 H     1 <1>   0.0800 
 23 H       -0.2790    -3.8940    -1.3310 H     1 <1>   0.0800 
 24 H       -3.1860    -1.0020    -0.7310 H     1 <1>   0.0800 
 25 H       -4.3630    -1.7120     0.3350 H     1 <1>   0.0800 
 26 H       -2.0060    -0.1530     1.3900 H     1 <1>   0.0800 
 27 H       -1.3090    -1.3300     2.4880 H     1 <1>   0.0800 
 28 H       -3.0300    -1.0480     2.4710 H     1 <1>   0.0800 
 29 H       -2.4550    -4.3240    -2.4520 H     1 <1>   0.0800 
 30 H       -1.9980    -2.6480    -2.4980 H     1 <1>   0.0800 
 31 H        1.6430     0.4100    -1.3620 H     1 <1>   0.1500 
 32 H       -4.3620    -2.7780    -1.9310 H     1 <1>   0.0800 
 33 H       -4.0360    -3.9120    -0.6490 H     1 <1>   0.0800 
 34 H        5.7340    -2.0680    -0.2430 H     1 <1>   0.1500 
 35 H        3.8300     1.3660    -1.8450 H     1 <1>   0.1500 
 36 H        5.0910    -3.4950     1.5320 H     1 <1>   0.0800 
 37 H        5.1510    -4.3050    -0.0390 H     1 <1>   0.0800 
 38 H        5.8790     0.1240    -1.2830 H     1 <1>   0.1500 
 39 H        3.3980    -5.1310     2.3050 H     1 <1>   0.0800 
 40 H        4.8500    -5.9600     1.8010 H     1 <1>   0.0800 
 41 H        3.4610    -5.9370     0.7440 H     1 <1>   0.0800 
@<TRIPOS>BOND
  1   1   2  2   
  2   2   3  am  
  3   2   4  am  
  4   3   5  1   
  5   3   6  1   
  6   4   7  1   
  7   4  20  1   
  8   5   8  1   
  9   5   9  1   
 10   5  21  1   
 11   6  10  1   
 12   6  22  1   
 13   6  23  1   
 14   7  11  ar  
 15   7  12  ar  
 16   8  13  1   
 17   8  24  1   
 18   8  25  1   
 19   9  26  1   
 20   9  27  1   
 21   9  28  1   
 22  10  13  1   
 23  10  29  1   
 24  10  30  1   
 25  11  14  1   
 26  11  15  ar  
 27  12  16  ar  
 28  12  31  1   
 29  13  32  1   
 30  13  33  1   
 31  14  17  1   
 32  15  18  ar  
 33  15  34  1   
 34  16  18  ar  
 35  16  35  1   
 36  17  19  1   
 37  17  36  1   
 38  17  37  1   
 39  18  38  1   
 40  19  39  1   
 41  19  40  1   
 42  19  41  1   
@<TRIPOS>SUBSTRUCTURE
  1 ****   4 GROUP 4 **** **** 0

# MOE 2024.06 (io_trps.svl 2023.06)
