@<TRIPOS>MOLECULE
NONAME
50 52 1 0 0 
SMALL
USER_CHARGES


@<TRIPOS>ATOM
  1 CL       2.9090     2.0630    -4.4320 Cl    1 <1>  -0.1770 
  2 C        3.5450     2.2010    -2.8140 C.ar  1 <1>   0.1770 
  3 C        4.8040     1.7080    -2.5340 C.ar  1 <1>  -0.1500 
  4 C        2.7810     2.8030    -1.8330 C.ar  1 <1>  -0.1500 
  5 C        5.3030     1.8240    -1.2470 C.ar  1 <1>  -0.1500 
  6 C        3.2930     2.9110    -0.5500 C.ar  1 <1>  -0.1500 
  7 C        4.5600     2.4260    -0.2350 C.ar  1 <1>  -0.0090 
  8 S        5.2370     2.5780     1.4440 S.o2  1 <1>   1.4470 
  9 O        5.6830     1.2760     1.8890 O.2   1 <1>  -0.6500 
 10 O        4.3410     3.3490     2.2780 O.2   1 <1>  -0.6500 
 11 N        6.6220     3.5300     1.2150 N.am  1 <1>  -0.8490 
 12 C        7.5050     3.4630     2.3840 C.3   1 <1>   0.1960 
 13 C        6.2830     4.9210     0.8960 C.3   1 <1>   0.1960 
 14 C        8.8220     4.1830     2.0880 C.3   1 <1>  -0.1600 
 15 C        7.5490     5.6940     0.5260 C.3   1 <1>  -0.1600 
 16 C        8.5810     5.6430     1.6670 C.3   1 <1>  -0.0190 
 17 C        9.8770     6.3550     1.2940 C.2   1 <1>   0.5690 
 18 O       10.2060     7.3290     1.9240 O.2   1 <1>  -0.5700 
 19 N       10.6180     5.8720     0.2640 N.am  1 <1>  -0.7300 
 20 C       11.8830     6.4450    -0.2160 C.3   1 <1>   0.2200 
 21 C       11.7130     6.8580    -1.6820 C.3   1 <1>  -0.1600 
 22 C       12.9910     5.3990    -0.0570 C.3   1 <1>  -0.1600 
 23 C       13.0370     7.3630    -2.2740 C.3   1 <1>  -0.1600 
 24 C       14.3180     5.9020    -0.6460 C.3   1 <1>  -0.1600 
 25 C       14.1510     6.3190    -2.1140 C.3   1 <1>  -0.1600 
 26 H        5.3800     1.2400    -3.3120 H     1 <1>   0.1500 
 27 H        1.8020     3.1770    -2.0730 H     1 <1>   0.1500 
 28 H        6.2840     1.4400    -1.0180 H     1 <1>   0.1500 
 29 H        2.6980     3.3780     0.2190 H     1 <1>   0.1500 
 30 H        7.7240     2.4340     2.6200 H     1 <1>   0.0800 
 31 H        7.0180     3.9060     3.2380 H     1 <1>   0.0800 
 32 H        5.8010     5.3880     1.7410 H     1 <1>   0.0800 
 33 H        5.6010     4.9510     0.0630 H     1 <1>   0.0800 
 34 H        9.3350     3.6460     1.3110 H     1 <1>   0.0800 
 35 H        9.4430     4.1620     2.9660 H     1 <1>   0.0800 
 36 H        7.2940     6.7190     0.3200 H     1 <1>   0.0800 
 37 H        7.9610     5.2700    -0.3730 H     1 <1>   0.0800 
 38 H        8.1640     6.1640     2.5110 H     1 <1>   0.0800 
 39 H       10.3020     5.0430    -0.2350 H     1 <1>   0.3700 
 40 H       12.1350     7.3170     0.3680 H     1 <1>   0.0800 
 41 H       10.9750     7.6390    -1.7460 H     1 <1>   0.0800 
 42 H       11.3720     6.0160    -2.2570 H     1 <1>   0.0800 
 43 H       12.7070     4.4920    -0.5600 H     1 <1>   0.0800 
 44 H       13.1270     5.1840     0.9880 H     1 <1>   0.0800 
 45 H       13.3260     8.2720    -1.7720 H     1 <1>   0.0800 
 46 H       12.9020     7.5920    -3.3170 H     1 <1>   0.0800 
 47 H       15.0620     5.1280    -0.5720 H     1 <1>   0.0800 
 48 H       14.6630     6.7460    -0.0730 H     1 <1>   0.0800 
 49 H       15.0780     6.7230    -2.4810 H     1 <1>   0.0800 
 50 H       13.9130     5.4520    -2.7060 H     1 <1>   0.0800 
@<TRIPOS>BOND
  1   1   2  1   
  2   2   3  ar  
  3   2   4  ar  
  4   3   5  ar  
  5   3  26  1   
  6   4   6  ar  
  7   4  27  1   
  8   5   7  ar  
  9   5  28  1   
 10   6   7  ar  
 11   6  29  1   
 12   7   8  1   
 13   8   9  2   
 14   8  10  2   
 15   8  11  am  
 16  11  12  1   
 17  11  13  1   
 18  12  14  1   
 19  12  30  1   
 20  12  31  1   
 21  13  15  1   
 22  13  32  1   
 23  13  33  1   
 24  14  16  1   
 25  14  34  1   
 26  14  35  1   
 27  15  16  1   
 28  15  36  1   
 29  15  37  1   
 30  16  17  1   
 31  16  38  1   
 32  17  18  2   
 33  17  19  am  
 34  19  20  1   
 35  19  39  1   
 36  20  21  1   
 37  20  22  1   
 38  20  40  1   
 39  21  23  1   
 40  21  41  1   
 41  21  42  1   
 42  22  24  1   
 43  22  43  1   
 44  22  44  1   
 45  23  25  1   
 46  23  45  1   
 47  23  46  1   
 48  24  25  1   
 49  24  47  1   
 50  24  48  1   
 51  25  49  1   
 52  25  50  1   
@<TRIPOS>SUBSTRUCTURE
  1 ****  15 GROUP 4 **** **** 0

# MOE 2024.06 (io_trps.svl 2023.06)
