@<TRIPOS>MOLECULE
NONAME
43 45 1 0 0 
SMALL
USER_CHARGES


@<TRIPOS>ATOM
  1 S        0.7430     0.9360     0.7690 S.o2  1 <1>   1.4240 
  2 O        1.0460     1.9830     1.7290 O.2   1 <1>  -0.6500 
  3 O        0.0950    -0.2560     1.2870 O.2   1 <1>  -0.6500 
  4 N        2.2380     0.4610    -0.1380 N.pl3 1 <1>   0.5840 
  5 N       -0.3660     1.6300    -0.3360 N.am  1 <1>  -0.8490 
  6 N        2.5970     0.9080    -1.3900 N.2   1 <1>  -0.7070 
  7 C        3.2420    -0.3450     0.3330 C.2   1 <1>  -0.3320 
  8 C       -1.7210     1.6910     0.2160 C.3   1 <1>   0.1160 
  9 C        0.0440     2.9610    -0.7990 C.3   1 <1>   0.1160 
 10 C        3.7500     0.3890    -1.6480 C.2   1 <1>   0.1080 
 11 C        4.2170    -0.4010    -0.6040 C.2   1 <1>  -0.1810 
 12 C        3.1940    -1.0130     1.7040 C.3   1 <1>  -0.0600 
 13 C        4.4490     0.6640    -2.9630 C.3   1 <1>  -0.0590 
 14 C        5.5500    -1.1360    -0.5520 C.3   1 <1>   0.3210 
 15 N        6.6060    -0.2120    -0.1060 N.am  1 <1>  -0.4200 
 16 C        6.8220     0.1760     1.1880 C.2   1 <1>   0.5440 
 17 C        7.3960     0.5440    -0.9270 C.2   1 <1>   0.5440 
 18 O        6.3090    -0.3500     2.1540 O.2   1 <1>  -0.5700 
 19 C        7.7630     1.2580     1.1930 C.ar  1 <1>   0.0860 
 20 O        7.4600     0.4000    -2.1300 O.2   1 <1>  -0.5700 
 21 C        8.1230     1.4870    -0.1260 C.ar  1 <1>   0.0860 
 22 C        8.3070     2.0290     2.2130 C.ar  1 <1>  -0.1500 
 23 C        9.0330     2.4880    -0.4410 C.ar  1 <1>  -0.1500 
 24 C        9.2120     3.0280     1.8980 C.ar  1 <1>  -0.1500 
 25 C        9.5750     3.2570     0.5760 C.ar  1 <1>  -0.1500 
 26 H       -2.0670     0.6990     0.4540 H     1 <1>   0.0800 
 27 H       -2.3970     2.1180    -0.5040 H     1 <1>   0.0800 
 28 H       -1.7330     2.2870     1.1140 H     1 <1>   0.0800 
 29 H        1.0180     2.9210    -1.2520 H     1 <1>   0.0800 
 30 H        0.0740     3.6560     0.0240 H     1 <1>   0.0800 
 31 H       -0.6510     3.3220    -1.5380 H     1 <1>   0.0800 
 32 H        3.1690    -0.2690     2.4810 H     1 <1>   0.0800 
 33 H        4.0570    -1.6320     1.8660 H     1 <1>   0.0800 
 34 H        2.3210    -1.6360     1.7910 H     1 <1>   0.0800 
 35 H        3.7200     0.8670    -3.7260 H     1 <1>   0.0800 
 36 H        5.0370    -0.1810    -3.2690 H     1 <1>   0.0800 
 37 H        5.0880     1.5210    -2.8610 H     1 <1>   0.0800 
 38 H        5.7980    -1.5300    -1.5220 H     1 <1>   0.0800 
 39 H        5.4920    -1.9600     0.1370 H     1 <1>   0.0800 
 40 H        8.0170     1.8420     3.2340 H     1 <1>   0.1500 
 41 H        9.3060     2.6550    -1.4700 H     1 <1>   0.1500 
 42 H        9.6390     3.6330     2.6810 H     1 <1>   0.1500 
 43 H       10.2800     4.0370     0.3420 H     1 <1>   0.1500 
@<TRIPOS>BOND
  1   1   2  2   
  2   1   3  2   
  3   1   4  1   
  4   1   5  am  
  5   4   6  1   
  6   4   7  1   
  7   5   8  1   
  8   5   9  1   
  9   6  10  2   
 10   7  11  2   
 11   7  12  1   
 12   8  26  1   
 13   8  27  1   
 14   8  28  1   
 15   9  29  1   
 16   9  30  1   
 17   9  31  1   
 18  10  11  1   
 19  10  13  1   
 20  11  14  1   
 21  12  32  1   
 22  12  33  1   
 23  12  34  1   
 24  13  35  1   
 25  13  36  1   
 26  13  37  1   
 27  14  15  1   
 28  14  38  1   
 29  14  39  1   
 30  15  16  am  
 31  15  17  am  
 32  16  18  2   
 33  16  19  1   
 34  17  20  2   
 35  17  21  1   
 36  19  21  ar  
 37  19  22  ar  
 38  21  23  ar  
 39  22  24  ar  
 40  22  40  1   
 41  23  25  ar  
 42  23  41  1   
 43  24  25  ar  
 44  24  42  1   
 45  25  43  1   
@<TRIPOS>SUBSTRUCTURE
  1 ****  11 GROUP 4 **** **** 0

# MOE 2024.06 (io_trps.svl 2023.06)
