@<TRIPOS>MOLECULE
NONAME
35 36 1 0 0 
SMALL
USER_CHARGES


@<TRIPOS>ATOM
  1 O        0.7140    -0.3900    -1.5440 O.3   1 <1>  -0.6800 
  2 C        1.5160    -0.7980    -0.5080 C.3   1 <1>   0.2000 
  3 C        2.8450    -0.0520    -0.6130 C.3   1 <1>  -0.1600 
  4 C        1.7040    -2.3070    -0.6580 C.3   1 <1>  -0.1600 
  5 C        3.8690    -0.6200     0.3660 C.3   1 <1>   0.3430 
  6 C        2.7440    -2.8310     0.3250 C.3   1 <1>   0.3430 
  7 N        4.0220    -2.0890     0.1420 N.4   1 <1>  -0.9590 
  8 C        5.1140    -2.6640     0.9770 C.3   1 <1>   0.4860 
  9 C        6.4210    -2.0090     0.5800 C.ar  1 <1>  -0.1440 
 10 C        7.0170    -1.0770     1.4170 C.ar  1 <1>  -0.1500 
 11 C        7.0280    -2.3270    -0.6260 C.ar  1 <1>  -0.1500 
 12 C        8.1990    -0.4610     1.0440 C.ar  1 <1>  -0.1500 
 13 C        8.2100    -1.7090    -0.9950 C.ar  1 <1>  -0.1500 
 14 C        8.8000    -0.7730    -0.1630 C.ar  1 <1>  -0.1440 
 15 C       10.0970    -0.0970    -0.5710 C.3   1 <1>  -0.0970 
 16 H        0.4620     0.5520    -1.4570 H     1 <1>   0.4000 
 17 H        1.0150    -0.5700     0.4190 H     1 <1>   0.0800 
 18 H        2.6940     0.9900    -0.3920 H     1 <1>   0.0800 
 19 H        3.2360    -0.1310    -1.6130 H     1 <1>   0.0800 
 20 H        2.0130    -2.5430    -1.6610 H     1 <1>   0.0800 
 21 H        0.7650    -2.8000    -0.4740 H     1 <1>   0.0800 
 22 H        3.5460    -0.4350     1.3780 H     1 <1>   0.0800 
 23 H        4.8150    -0.1210     0.2160 H     1 <1>   0.0800 
 24 H        2.8970    -3.8850     0.1520 H     1 <1>   0.0800 
 25 H        2.3850    -2.7010     1.3330 H     1 <1>   0.0800 
 26 H        4.3230    -2.2010    -0.8350 H     1 <1>   0.4500 
 27 H        5.1880    -3.7270     0.8130 H     1 <1>   0.0800 
 28 H        4.9180    -2.4910     2.0230 H     1 <1>   0.0800 
 29 H        6.5780    -0.8180     2.3660 H     1 <1>   0.1500 
 30 H        6.6000    -3.0570    -1.2920 H     1 <1>   0.1500 
 31 H        8.6540     0.2620     1.6990 H     1 <1>   0.1500 
 32 H        8.6740    -1.9600    -1.9340 H     1 <1>   0.1500 
 33 H        9.8840     0.7890    -1.1430 H     1 <1>   0.0800 
 34 H       10.6960    -0.7600    -1.1700 H     1 <1>   0.0800 
 35 H       10.6680     0.1810     0.2970 H     1 <1>   0.0800 
@<TRIPOS>BOND
  1   1   2  1   
  2   1  16  1   
  3   2   3  1   
  4   2   4  1   
  5   2  17  1   
  6   3   5  1   
  7   3  18  1   
  8   3  19  1   
  9   4   6  1   
 10   4  20  1   
 11   4  21  1   
 12   5   7  1   
 13   5  22  1   
 14   5  23  1   
 15   6   7  1   
 16   6  24  1   
 17   6  25  1   
 18   7   8  1   
 19   7  26  1   
 20   8   9  1   
 21   8  27  1   
 22   8  28  1   
 23   9  10  ar  
 24   9  11  ar  
 25  10  12  ar  
 26  10  29  1   
 27  11  13  ar  
 28  11  30  1   
 29  12  14  ar  
 30  12  31  1   
 31  13  14  ar  
 32  13  32  1   
 33  14  15  1   
 34  15  33  1   
 35  15  34  1   
 36  15  35  1   
@<TRIPOS>SUBSTRUCTURE
  1 ****   7 GROUP 4 **** **** 0

# MOE 2024.06 (io_trps.svl 2023.06)
