@<TRIPOS>MOLECULE
NONAME
27 28 1 0 0 
SMALL
USER_CHARGES


@<TRIPOS>ATOM
  1 N       -0.2110    -0.0570     0.3910 N.ar  1 <1>  -0.6200 
  2 C       -0.8360     0.3110    -0.7130 C.ar  1 <1>   0.1600 
  3 C       -0.7700    -1.0480     1.0640 C.ar  1 <1>   0.1600 
  4 C       -2.0110    -0.2580    -1.1750 C.ar  1 <1>  -0.1500 
  5 C       -1.9420    -1.6850     0.6900 C.ar  1 <1>  -0.1500 
  6 C       -2.5990    -1.2840    -0.4580 C.ar  1 <1>  -0.1430 
  7 C       -3.8960    -1.9300    -0.9070 C.3   1 <1>   0.4870 
  8 N       -4.9990    -1.4250    -0.0470 N.4   1 <1>  -0.9590 
  9 C       -6.3120    -2.0550    -0.3210 C.3   1 <1>   0.3430 
 10 C       -5.2120     0.0390    -0.1470 C.3   1 <1>   0.3430 
 11 C       -7.3230    -1.0980     0.2970 C.3   1 <1>  -0.1600 
 12 C       -6.6100     0.2540     0.4140 C.3   1 <1>  -0.1600 
 13 H       -0.3840     1.1090    -1.2800 H     1 <1>   0.1500 
 14 H       -0.2640    -1.3670     1.9600 H     1 <1>   0.1500 
 15 H       -2.4420     0.1110    -2.0890 H     1 <1>   0.1500 
 16 H       -2.3150    -2.4850     1.3040 H     1 <1>   0.1500 
 17 H       -3.8130    -3.0010    -0.8150 H     1 <1>   0.0800 
 18 H       -4.0880    -1.6900    -1.9400 H     1 <1>   0.0800 
 19 H       -4.7480    -1.6170     0.9300 H     1 <1>   0.4500 
 20 H       -6.3830    -3.0420     0.1090 H     1 <1>   0.0800 
 21 H       -6.4780    -2.1130    -1.3850 H     1 <1>   0.0800 
 22 H       -5.1880     0.3440    -1.1810 H     1 <1>   0.0800 
 23 H       -4.4660     0.5900     0.4060 H     1 <1>   0.0800 
 24 H       -7.6160    -1.4530     1.2700 H     1 <1>   0.0800 
 25 H       -8.2030    -1.0330    -0.3200 H     1 <1>   0.0800 
 26 H       -7.1210     1.0260    -0.1340 H     1 <1>   0.0800 
 27 H       -6.5450     0.5560     1.4460 H     1 <1>   0.0800 
@<TRIPOS>BOND
  1   1   2  ar  
  2   1   3  ar  
  3   2   4  ar  
  4   2  13  1   
  5   3   5  ar  
  6   3  14  1   
  7   4   6  ar  
  8   4  15  1   
  9   5   6  ar  
 10   5  16  1   
 11   6   7  1   
 12   7   8  1   
 13   7  17  1   
 14   7  18  1   
 15   8   9  1   
 16   8  10  1   
 17   8  19  1   
 18   9  11  1   
 19   9  20  1   
 20   9  21  1   
 21  10  12  1   
 22  10  22  1   
 23  10  23  1   
 24  11  12  1   
 25  11  24  1   
 26  11  25  1   
 27  12  26  1   
 28  12  27  1   
@<TRIPOS>SUBSTRUCTURE
  1 ****   6 GROUP 4 **** **** 0

# MOE 2024.06 (io_trps.svl 2023.06)
