@<TRIPOS>MOLECULE
NONAME
48 49 1 0 0 
SMALL
USER_CHARGES


@<TRIPOS>ATOM
  1 CL       0.3080     0.4240    -0.2540 Cl    1 <1>  -0.1770 
  2 C        1.8940    -0.3030    -0.3170 C.ar  1 <1>   0.1770 
  3 C        2.9910     0.4290     0.1000 C.ar  1 <1>  -0.1500 
  4 C        2.0260    -1.5980    -0.7870 C.ar  1 <1>  -0.1500 
  5 C        4.2480    -0.1500     0.0520 C.ar  1 <1>  -0.1500 
  6 C        3.2840    -2.1740    -0.8330 C.ar  1 <1>  -0.1500 
  7 C        4.3910    -1.4570    -0.3990 C.ar  1 <1>   0.0830 
  8 O        5.6180    -2.0220    -0.4690 O.3   1 <1>  -0.3630 
  9 C        6.2200    -2.7040     0.6400 C.3   1 <1>   0.3410 
 10 C        7.6500    -3.1860     0.2230 C.2   1 <1>   0.5690 
 11 C        6.3160    -1.7660     1.8600 C.3   1 <1>  -0.2400 
 12 C        5.3010    -3.8900     1.0090 C.3   1 <1>  -0.2400 
 13 O        7.9470    -4.3330     0.4900 O.2   1 <1>  -0.5700 
 14 N        8.5880    -2.3720    -0.3970 N.am  1 <1>  -0.6600 
 15 C        8.4030    -0.9440    -0.7850 C.3   1 <1>   0.1400 
 16 C        9.9310    -2.9040    -0.7700 C.3   1 <1>   0.1400 
 17 C        9.4710    -0.0860    -0.1030 C.3   1 <1>  -0.1600 
 18 C       11.0200    -2.0780    -0.0820 C.3   1 <1>  -0.1600 
 19 C       10.8970    -0.5810    -0.4220 C.3   1 <1>  -0.0190 
 20 C       11.9790     0.2350     0.2830 C.2   1 <1>   0.6590 
 21 O       11.7380     0.9950     1.1860 O.2   1 <1>  -0.5700 
 22 O       13.2130     0.0520    -0.1690 O.3   1 <1>  -0.4300 
 23 C       14.3100     0.7340     0.3940 C.3   1 <1>   0.1200 
 24 C       15.5700     0.2910    -0.3410 C.3   1 <1>  -0.2400 
 25 H        2.8590     1.4360     0.4520 H     1 <1>   0.1500 
 26 H        1.1570    -2.1410    -1.1130 H     1 <1>   0.1500 
 27 H        5.1130     0.4080     0.3580 H     1 <1>   0.1500 
 28 H        3.4130    -3.1750    -1.2060 H     1 <1>   0.1500 
 29 H        6.8290    -2.2750     2.6560 H     1 <1>   0.0800 
 30 H        5.3410    -1.4950     2.2200 H     1 <1>   0.0800 
 31 H        6.8720    -0.8790     1.6270 H     1 <1>   0.0800 
 32 H        4.3350    -3.5540     1.3370 H     1 <1>   0.0800 
 33 H        5.1910    -4.5450     0.1640 H     1 <1>   0.0800 
 34 H        5.7390    -4.4560     1.8120 H     1 <1>   0.0800 
 35 H        7.4370    -0.5710    -0.5100 H     1 <1>   0.0800 
 36 H        8.4920    -0.8600    -1.8550 H     1 <1>   0.0800 
 37 H       10.0440    -2.8480    -1.8400 H     1 <1>   0.0800 
 38 H       10.0350    -3.9370    -0.4850 H     1 <1>   0.0800 
 39 H        9.3070    -0.1100     0.9610 H     1 <1>   0.0800 
 40 H        9.3640     0.9350    -0.4240 H     1 <1>   0.0800 
 41 H       11.9830    -2.4430    -0.3920 H     1 <1>   0.0800 
 42 H       10.9420    -2.2200     0.9820 H     1 <1>   0.0800 
 43 H       11.0580    -0.4630    -1.4790 H     1 <1>   0.0800 
 44 H       14.3650     0.4860     1.4410 H     1 <1>   0.0800 
 45 H       14.1470     1.7930     0.2820 H     1 <1>   0.0800 
 46 H       15.7120    -0.7690    -0.2290 H     1 <1>   0.0800 
 47 H       16.4260     0.7950     0.0700 H     1 <1>   0.0800 
 48 H       15.4970     0.5370    -1.3850 H     1 <1>   0.0800 
@<TRIPOS>BOND
  1   1   2  1   
  2   2   3  ar  
  3   2   4  ar  
  4   3   5  ar  
  5   3  25  1   
  6   4   6  ar  
  7   4  26  1   
  8   5   7  ar  
  9   5  27  1   
 10   6   7  ar  
 11   6  28  1   
 12   7   8  1   
 13   8   9  1   
 14   9  10  1   
 15   9  11  1   
 16   9  12  1   
 17  10  13  2   
 18  10  14  am  
 19  11  29  1   
 20  11  30  1   
 21  11  31  1   
 22  12  32  1   
 23  12  33  1   
 24  12  34  1   
 25  14  15  1   
 26  14  16  1   
 27  15  17  1   
 28  15  35  1   
 29  15  36  1   
 30  16  18  1   
 31  16  37  1   
 32  16  38  1   
 33  17  19  1   
 34  17  39  1   
 35  17  40  1   
 36  18  19  1   
 37  18  41  1   
 38  18  42  1   
 39  19  20  1   
 40  19  43  1   
 41  20  21  2   
 42  20  22  1   
 43  22  23  1   
 44  23  24  1   
 45  23  44  1   
 46  23  45  1   
 47  24  46  1   
 48  24  47  1   
 49  24  48  1   
@<TRIPOS>SUBSTRUCTURE
  1 ****  15 GROUP 4 **** **** 0

# MOE 2024.06 (io_trps.svl 2023.06)
