@<TRIPOS>MOLECULE
NONAME
42 43 1 0 0 
SMALL
USER_CHARGES


@<TRIPOS>ATOM
  1 O       -0.6110    -0.1440     0.6350 O.2   1 <1>  -0.5700 
  2 C       -1.4870    -0.5410    -0.1020 C.2   1 <1>   0.5690 
  3 N       -1.3460    -1.6920    -0.8260 N.am  1 <1>  -0.7300 
  4 C       -2.8430     0.2090    -0.2050 C.3   1 <1>   0.2040 
  5 C       -0.2030    -2.6030    -0.9050 C.3   1 <1>   0.3000 
  6 C       -3.9400    -0.7350     0.3380 C.ar  1 <1>  -0.1440 
  7 C       -2.8810     1.5190     0.6270 C.3   1 <1>  -0.1600 
  8 C       -3.0840     0.6240    -1.6770 C.3   1 <1>  -0.1600 
  9 C        1.0250    -1.8540    -1.4230 C.3   1 <1>  -0.2400 
 10 C       -0.5920    -3.6960    -1.8990 C.3   1 <1>  -0.2400 
 11 C        0.0530    -3.2250     0.4670 C.3   1 <1>  -0.2400 
 12 C       -5.0860    -1.0850    -0.3720 C.ar  1 <1>  -0.1500 
 13 C       -3.7720    -1.2700     1.6110 C.ar  1 <1>  -0.1500 
 14 C       -2.3430     2.7490    -0.1270 C.3   1 <1>   0.1200 
 15 C       -2.0060     1.6010    -2.1750 C.3   1 <1>   0.1200 
 16 C       -6.0260    -1.9420     0.1730 C.ar  1 <1>  -0.1500 
 17 C       -4.7100    -2.1270     2.1580 C.ar  1 <1>  -0.1500 
 18 O       -1.4640     2.3510    -1.1300 O.3   1 <1>  -0.5600 
 19 C       -5.8400    -2.4650     1.4390 C.ar  1 <1>  -0.1500 
 20 H       -2.1850    -2.0660    -1.2640 H     1 <1>   0.3700 
 21 H       -2.3330     1.3970     1.5430 H     1 <1>   0.0800 
 22 H       -3.8950     1.7350     0.9090 H     1 <1>   0.0800 
 23 H       -4.0340     1.1190    -1.7590 H     1 <1>   0.0800 
 24 H       -3.1080    -0.2330    -2.3250 H     1 <1>   0.0800 
 25 H        0.8080    -1.3810    -2.3630 H     1 <1>   0.0800 
 26 H        1.8440    -2.5350    -1.5610 H     1 <1>   0.0800 
 27 H        1.3350    -1.1020    -0.7190 H     1 <1>   0.0800 
 28 H        0.2130    -4.4010    -2.0030 H     1 <1>   0.0800 
 29 H       -0.7940    -3.2730    -2.8660 H     1 <1>   0.0800 
 30 H       -1.4600    -4.2290    -1.5550 H     1 <1>   0.0800 
 31 H        0.8380    -3.9560     0.4030 H     1 <1>   0.0800 
 32 H       -0.8350    -3.7050     0.8360 H     1 <1>   0.0800 
 33 H        0.3600    -2.4720     1.1710 H     1 <1>   0.0800 
 34 H       -5.2790    -0.7050    -1.3580 H     1 <1>   0.1500 
 35 H       -2.8980    -1.0230     2.1910 H     1 <1>   0.1500 
 36 H       -1.8080     3.3980     0.5440 H     1 <1>   0.0800 
 37 H       -3.1430     3.3040    -0.5860 H     1 <1>   0.0800 
 38 H       -2.4110     2.2800    -2.9050 H     1 <1>   0.0800 
 39 H       -1.1890     1.0600    -2.6210 H     1 <1>   0.0800 
 40 H       -6.9070    -2.2030    -0.3880 H     1 <1>   0.1500 
 41 H       -4.5580    -2.5300     3.1440 H     1 <1>   0.1500 
 42 H       -6.5710    -3.1320     1.8630 H     1 <1>   0.1500 
@<TRIPOS>BOND
  1   1   2  2   
  2   2   3  am  
  3   2   4  1   
  4   3   5  1   
  5   3  20  1   
  6   4   6  1   
  7   4   7  1   
  8   4   8  1   
  9   5   9  1   
 10   5  10  1   
 11   5  11  1   
 12   6  12  ar  
 13   6  13  ar  
 14   7  14  1   
 15   7  21  1   
 16   7  22  1   
 17   8  15  1   
 18   8  23  1   
 19   8  24  1   
 20   9  25  1   
 21   9  26  1   
 22   9  27  1   
 23  10  28  1   
 24  10  29  1   
 25  10  30  1   
 26  11  31  1   
 27  11  32  1   
 28  11  33  1   
 29  12  16  ar  
 30  12  34  1   
 31  13  17  ar  
 32  13  35  1   
 33  14  18  1   
 34  14  36  1   
 35  14  37  1   
 36  15  18  1   
 37  15  38  1   
 38  15  39  1   
 39  16  19  ar  
 40  16  40  1   
 41  17  19  ar  
 42  17  41  1   
 43  19  42  1   
@<TRIPOS>SUBSTRUCTURE
  1 ****   2 GROUP 4 **** **** 0

# MOE 2024.06 (io_trps.svl 2023.06)
