@<TRIPOS>MOLECULE
NONAME
43 44 1 0 0 
SMALL
USER_CHARGES


@<TRIPOS>ATOM
  1 S       -0.9370     0.0840    -0.7430 S.3   1 <1>  -0.3710 
  2 C        0.7990    -0.1420    -0.5460 C.2   1 <1>   0.6510 
  3 C       -0.8820     1.8120    -0.1480 C.3   1 <1>   0.6740 
  4 N        1.3850     0.8230     0.0250 N.2   1 <1>  -0.5120 
  5 N        1.3850    -1.3220    -0.9490 N.am  1 <1>  -0.4900 
  6 N        0.5340     1.9030     0.3560 N.am  1 <1>  -0.2980 
  7 C       -1.9470     1.8710     0.9690 C.ar  1 <1>  -0.1440 
  8 C       -1.1080     2.6170    -1.4320 C.3   1 <1>  -0.0990 
  9 C        1.0500    -2.1550    -1.9660 C.2   1 <1>   0.5690 
 10 C        0.9220     2.9530     1.1580 C.2   1 <1>   0.5690 
 11 C       -1.7460     1.1370     2.1360 C.ar  1 <1>  -0.1500 
 12 C       -3.1180     2.6180     0.8650 C.ar  1 <1>  -0.1500 
 13 C       -0.9140     4.1010    -1.2960 C.2   1 <1>   0.6590 
 14 O        0.1870    -1.9180    -2.7690 O.2   1 <1>  -0.5700 
 15 C        1.8410    -3.4310    -2.1130 C.3   1 <1>  -0.1790 
 16 O        0.1730     3.8300     1.5150 O.2   1 <1>  -0.5700 
 17 C        2.3570     3.0310     1.6280 C.3   1 <1>  -0.1790 
 18 C       -2.6740     1.1490     3.1610 C.ar  1 <1>  -0.1500 
 19 C       -4.0480     2.6320     1.8900 C.ar  1 <1>  -0.1500 
 20 O       -1.8500     4.8410    -1.1500 O.2   1 <1>  -0.5700 
 21 O        0.3250     4.5410    -1.4840 O.3   1 <1>  -0.4300 
 22 C       -3.8290     1.8980     3.0400 C.ar  1 <1>  -0.1500 
 23 C        0.6430     5.9160    -1.5550 C.3   1 <1>   0.1200 
 24 C        0.9000     6.4510    -0.1480 C.3   1 <1>  -0.2400 
 25 H        2.2610    -1.5060    -0.4740 H     1 <1>   0.3700 
 26 H       -2.1030     2.4340    -1.7910 H     1 <1>   0.0800 
 27 H       -0.4300     2.2700    -2.1890 H     1 <1>   0.0800 
 28 H       -0.8560     0.5450     2.2560 H     1 <1>   0.1500 
 29 H       -3.3370     3.2060    -0.0070 H     1 <1>   0.1500 
 30 H        2.8530    -3.2050    -2.3930 H     1 <1>   0.0800 
 31 H        1.4000    -4.0430    -2.8780 H     1 <1>   0.0800 
 32 H        1.8350    -3.9790    -1.1890 H     1 <1>   0.0800 
 33 H        2.5870     2.1730     2.2310 H     1 <1>   0.0800 
 34 H        2.5040     3.9200     2.2130 H     1 <1>   0.0800 
 35 H        3.0130     3.0580     0.7790 H     1 <1>   0.0800 
 36 H       -2.4970     0.5770     4.0550 H     1 <1>   0.1500 
 37 H       -4.9440     3.2200     1.7910 H     1 <1>   0.1500 
 38 H       -4.5520     1.9120     3.8360 H     1 <1>   0.1500 
 39 H       -0.1670     6.4430    -2.0310 H     1 <1>   0.0800 
 40 H        1.5280     6.0140    -2.1590 H     1 <1>   0.0800 
 41 H        0.0130     6.3530     0.4540 H     1 <1>   0.0800 
 42 H        1.1630     7.4910    -0.1970 H     1 <1>   0.0800 
 43 H        1.7070     5.9130     0.3150 H     1 <1>   0.0800 
@<TRIPOS>BOND
  1   1   2  1   
  2   1   3  1   
  3   2   4  2   
  4   2   5  1   
  5   3   6  1   
  6   3   7  1   
  7   3   8  1   
  8   4   6  1   
  9   5   9  am  
 10   5  25  1   
 11   6  10  am  
 12   7  11  ar  
 13   7  12  ar  
 14   8  13  1   
 15   8  26  1   
 16   8  27  1   
 17   9  14  2   
 18   9  15  1   
 19  10  16  2   
 20  10  17  1   
 21  11  18  ar  
 22  11  28  1   
 23  12  19  ar  
 24  12  29  1   
 25  13  20  2   
 26  13  21  1   
 27  15  30  1   
 28  15  31  1   
 29  15  32  1   
 30  17  33  1   
 31  17  34  1   
 32  17  35  1   
 33  18  22  ar  
 34  18  36  1   
 35  19  22  ar  
 36  19  37  1   
 37  21  23  1   
 38  22  38  1   
 39  23  24  1   
 40  23  39  1   
 41  23  40  1   
 42  24  41  1   
 43  24  42  1   
 44  24  43  1   
@<TRIPOS>SUBSTRUCTURE
  1 ****   3 GROUP 4 **** **** 0

# MOE 2024.06 (io_trps.svl 2023.06)
