@<TRIPOS>MOLECULE
NONAME
43 46 1 0 0 
SMALL
USER_CHARGES


@<TRIPOS>ATOM
  1 O        0.7340     2.3680    -2.2890 O.2   1 <1>  -0.5700 
  2 C        0.4850     2.7150    -1.1500 C.2   1 <1>   0.5440 
  3 N        1.4910     2.6950    -0.2260 N.am  1 <1>  -0.7300 
  4 C       -0.8570     3.1230    -0.7720 C.ar  1 <1>   0.0860 
  5 C        2.8830     2.2750    -0.4760 C.3   1 <1>   0.2200 
  6 C       -1.0970     3.9990     0.2890 C.ar  1 <1>  -0.1500 
  7 C       -1.9730     2.6500    -1.4620 C.ar  1 <1>  -0.1500 
  8 C        3.2480     0.9650     0.2530 C.3   1 <1>  -0.0800 
  9 C        3.8770     3.2860     0.1170 C.3   1 <1>  -0.1600 
 10 C       -2.3800     4.3650     0.6480 C.ar  1 <1>  -0.1500 
 11 C       -3.2570     3.0170    -1.1050 C.ar  1 <1>  -0.1500 
 12 C        4.7610     1.1020     0.3430 C.3   1 <1>  -0.1600 
 13 C        2.8730     1.0310     1.7480 C.3   1 <1>  -0.1600 
 14 C        4.7190     2.4310     1.0800 C.3   1 <1>  -0.0800 
 15 C       -3.4880     3.8800    -0.0400 C.ar  1 <1>   0.0000 
 16 C        3.8550     2.0790     2.3030 C.3   1 <1>  -0.1600 
 17 C       -4.8290     4.2620     0.3380 C.ar  1 <1>   0.0000 
 18 C       -5.7730     3.3030     0.6960 C.ar  1 <1>  -0.1500 
 19 C       -5.2160     5.5990     0.3560 C.ar  1 <1>  -0.1500 
 20 C       -7.0580     3.6650     1.0600 C.ar  1 <1>  -0.1500 
 21 C       -6.4990     5.9680     0.7200 C.ar  1 <1>  -0.1500 
 22 C       -7.4230     5.0000     1.0730 C.ar  1 <1>  -0.1500 
 23 H        1.2720     2.8450     0.7570 H     1 <1>   0.3700 
 24 H        3.0590     2.1680    -1.5340 H     1 <1>   0.0800 
 25 H       -0.2670     4.4060     0.8380 H     1 <1>   0.1500 
 26 H       -1.8220     1.9820    -2.2940 H     1 <1>   0.1500 
 27 H        2.9080     0.0810    -0.2580 H     1 <1>   0.0800 
 28 H        3.3940     4.1060     0.6180 H     1 <1>   0.0800 
 29 H        4.5020     3.6720    -0.6690 H     1 <1>   0.0800 
 30 H       -2.5350     5.0370     1.4740 H     1 <1>   0.1500 
 31 H       -4.0960     2.6350    -1.6610 H     1 <1>   0.1500 
 32 H        5.2330     1.1740    -0.6230 H     1 <1>   0.0800 
 33 H        5.2200     0.3180     0.9220 H     1 <1>   0.0800 
 34 H        3.0590     0.0770     2.2100 H     1 <1>   0.0800 
 35 H        1.8450     1.2950     1.9180 H     1 <1>   0.0800 
 36 H        5.6780     2.8560     1.3240 H     1 <1>   0.0800 
 37 H        4.4630     1.6430     3.0770 H     1 <1>   0.0800 
 38 H        3.3470     2.9420     2.6970 H     1 <1>   0.0800 
 39 H       -5.4940     2.2650     0.6910 H     1 <1>   0.1500 
 40 H       -4.5040     6.3560     0.0780 H     1 <1>   0.1500 
 41 H       -7.7740     2.9100     1.3340 H     1 <1>   0.1500 
 42 H       -6.7800     7.0060     0.7280 H     1 <1>   0.1500 
 43 H       -8.4210     5.2840     1.3560 H     1 <1>   0.1500 
@<TRIPOS>BOND
  1   1   2  2   
  2   2   3  am  
  3   2   4  1   
  4   3   5  1   
  5   3  23  1   
  6   4   6  ar  
  7   4   7  ar  
  8   5   8  1   
  9   5   9  1   
 10   5  24  1   
 11   6  10  ar  
 12   6  25  1   
 13   7  11  ar  
 14   7  26  1   
 15   8  12  1   
 16   8  13  1   
 17   8  27  1   
 18   9  14  1   
 19   9  28  1   
 20   9  29  1   
 21  10  15  ar  
 22  10  30  1   
 23  11  15  ar  
 24  11  31  1   
 25  12  14  1   
 26  12  32  1   
 27  12  33  1   
 28  13  16  1   
 29  13  34  1   
 30  13  35  1   
 31  14  16  1   
 32  14  36  1   
 33  15  17  1   
 34  16  37  1   
 35  16  38  1   
 36  17  18  ar  
 37  17  19  ar  
 38  18  20  ar  
 39  18  39  1   
 40  19  21  ar  
 41  19  40  1   
 42  20  22  ar  
 43  20  41  1   
 44  21  22  ar  
 45  21  42  1   
 46  22  43  1   
@<TRIPOS>SUBSTRUCTURE
  1 ****   6 GROUP 4 **** **** 0

# MOE 2024.06 (io_trps.svl 2023.06)
