@<TRIPOS>MOLECULE
NONAME
40 41 1 0 0 
SMALL
USER_CHARGES


@<TRIPOS>ATOM
  1 O       -0.9570     1.6330     0.7710 O.3   1 <1>  -0.3630 
  2 C        0.3150     1.7250     0.3110 C.ar  1 <1>   0.0830 
  3 C       -1.8100     0.7420     0.0820 C.3   1 <1>   0.1200 
  4 C        1.2190     0.6570     0.3570 C.ar  1 <1>   0.0830 
  5 C        0.7130     2.9370    -0.2270 C.ar  1 <1>  -0.1500 
  6 C       -3.2200     0.9030     0.6370 C.3   1 <1>   0.1200 
  7 O        0.9140    -0.5420     0.9130 O.3   1 <1>  -0.3630 
  8 C        2.4870     0.8090    -0.1790 C.ar  1 <1>  -0.1500 
  9 C        1.9880     3.0860    -0.7470 C.ar  1 <1>  -0.1500 
 10 O       -4.0730     0.0110    -0.0460 O.3   1 <1>  -0.3630 
 11 C        0.7100    -0.5500     2.3080 C.3   1 <1>   0.0400 
 12 C        2.8730     2.0200    -0.7290 C.ar  1 <1>  -0.1500 
 13 C       -5.3980    -0.0890     0.2490 C.ar  1 <1>   0.0830 
 14 C       -6.1580    -1.0320    -0.4470 C.ar  1 <1>  -0.1430 
 15 C       -6.0010     0.7110     1.2170 C.ar  1 <1>  -0.1500 
 16 C       -7.5120    -1.1770    -0.1510 C.ar  1 <1>  -0.1430 
 17 C       -5.4970    -1.9030    -1.5170 C.3   1 <1>  -0.0970 
 18 C       -7.3460     0.5690     1.4960 C.ar  1 <1>  -0.1500 
 19 C       -8.0950    -0.3720     0.8150 C.ar  1 <1>  -0.1500 
 20 C       -8.3900    -2.2030    -0.8560 C.3   1 <1>  -0.0970 
 21 H       -1.4610    -0.2630     0.2360 H     1 <1>   0.0800 
 22 H       -1.7840     0.9900    -0.9640 H     1 <1>   0.0800 
 23 H        0.0210     3.7600    -0.2420 H     1 <1>   0.1500 
 24 H       -3.5740     1.9050     0.4700 H     1 <1>   0.0800 
 25 H       -3.2390     0.6550     1.6830 H     1 <1>   0.0800 
 26 H        3.1690    -0.0210    -0.1580 H     1 <1>   0.1500 
 27 H        2.2910     4.0290    -1.1680 H     1 <1>   0.1500 
 28 H        0.5710    -1.5690     2.6210 H     1 <1>   0.0800 
 29 H       -0.1640     0.0280     2.5450 H     1 <1>   0.0800 
 30 H        1.5770    -0.1300     2.7880 H     1 <1>   0.0800 
 31 H        3.8610     2.1330    -1.1410 H     1 <1>   0.1500 
 32 H       -5.4470     1.4480     1.7640 H     1 <1>   0.1500 
 33 H       -4.6400    -1.4160    -1.9450 H     1 <1>   0.0800 
 34 H       -6.1740    -2.1090    -2.3240 H     1 <1>   0.0800 
 35 H       -5.1790    -2.8310    -1.0790 H     1 <1>   0.0800 
 36 H       -7.8110     1.1880     2.2420 H     1 <1>   0.1500 
 37 H       -9.1400    -0.4720     1.0470 H     1 <1>   0.1500 
 38 H       -7.9220    -3.1700    -0.8320 H     1 <1>   0.0800 
 39 H       -8.5460    -1.9100    -1.8780 H     1 <1>   0.0800 
 40 H       -9.3480    -2.2850    -0.3770 H     1 <1>   0.0800 
@<TRIPOS>BOND
  1   1   2  1   
  2   1   3  1   
  3   2   4  ar  
  4   2   5  ar  
  5   3   6  1   
  6   3  21  1   
  7   3  22  1   
  8   4   7  1   
  9   4   8  ar  
 10   5   9  ar  
 11   5  23  1   
 12   6  10  1   
 13   6  24  1   
 14   6  25  1   
 15   7  11  1   
 16   8  12  ar  
 17   8  26  1   
 18   9  12  ar  
 19   9  27  1   
 20  10  13  1   
 21  11  28  1   
 22  11  29  1   
 23  11  30  1   
 24  12  31  1   
 25  13  14  ar  
 26  13  15  ar  
 27  14  16  ar  
 28  14  17  1   
 29  15  18  ar  
 30  15  32  1   
 31  16  19  ar  
 32  16  20  1   
 33  17  33  1   
 34  17  34  1   
 35  17  35  1   
 36  18  19  ar  
 37  18  36  1   
 38  19  37  1   
 39  20  38  1   
 40  20  39  1   
 41  20  40  1   
@<TRIPOS>SUBSTRUCTURE
  1 ****   6 GROUP 4 **** **** 0

# MOE 2024.06 (io_trps.svl 2023.06)
