@<TRIPOS>MOLECULE
NONAME
52 54 1 0 0 
SMALL
USER_CHARGES


@<TRIPOS>ATOM
  1 O       -1.4190     2.0240     1.0870 O.2   1 <1>  -0.5700 
  2 C       -1.4230     1.7750    -0.0920 C.2   1 <1>   0.6670 
  3 O       -1.4060     0.5230    -0.5360 O.3   1 <1>  -0.4300 
  4 C       -1.4500     2.8460    -1.1830 C.3   1 <1>   0.0530 
  5 C       -1.3810    -0.5720     0.3560 C.3   1 <1>   0.0400 
  6 C       -0.4040     3.9930    -1.0430 C.3   1 <1>   0.1080 
  7 C       -2.5440     3.9460    -1.0360 C.3   1 <1>   0.1080 
  8 C        0.8990     3.6290    -0.3330 C.ar  1 <1>  -0.1080 
  9 C       -1.4880     4.7720    -0.2420 C.3   1 <1>   0.0530 
 10 C       -3.8220     3.5220    -0.3140 C.ar  1 <1>  -0.1080 
 11 C        1.6740     2.5940    -0.8380 C.ar  1 <1>  -0.1500 
 12 C        1.3400     4.3100     0.7940 C.ar  1 <1>  -0.1500 
 13 C       -1.5030     6.2630    -0.5180 C.2   1 <1>   0.6670 
 14 C       -4.2820     4.1760     0.8210 C.ar  1 <1>  -0.1500 
 15 C       -4.5570     2.4570    -0.8180 C.ar  1 <1>  -0.1500 
 16 C        2.8630     2.2350    -0.2270 C.ar  1 <1>  -0.1500 
 17 C        2.5280     3.9530     1.4060 C.ar  1 <1>  -0.1500 
 18 O       -1.6330     6.7150    -1.6270 O.2   1 <1>  -0.5700 
 19 O       -1.3570     7.0450     0.5450 O.3   1 <1>  -0.4300 
 20 C       -5.4470     3.7630     1.4430 C.ar  1 <1>  -0.1500 
 21 C       -5.7220     2.0420    -0.1980 C.ar  1 <1>  -0.1500 
 22 C        3.2970     2.9160     0.9050 C.ar  1 <1>   0.0830 
 23 C       -1.3430     8.4530     0.4350 C.3   1 <1>   0.0400 
 24 C       -6.1740     2.6970     0.9440 C.ar  1 <1>   0.0830 
 25 O        4.4470     2.6310     1.5660 O.3   1 <1>  -0.3630 
 26 O       -7.3030     2.3570     1.6140 O.3   1 <1>  -0.3630 
 27 C        5.2950     1.5870     1.1440 C.3   1 <1>   0.0400 
 28 C       -8.1110     1.2810     1.1920 C.3   1 <1>   0.0400 
 29 H       -1.4440     2.4190    -2.1710 H     1 <1>   0.0000 
 30 H       -2.2600    -0.5340     0.9760 H     1 <1>   0.0800 
 31 H       -0.4960    -0.5050     0.9640 H     1 <1>   0.0800 
 32 H       -1.3700    -1.4810    -0.2190 H     1 <1>   0.0800 
 33 H       -0.2090     4.4470    -2.0010 H     1 <1>   0.0000 
 34 H       -2.7680     4.3850    -1.9940 H     1 <1>   0.0000 
 35 H       -1.4800     4.5400     0.8090 H     1 <1>   0.0000 
 36 H        1.3550     2.0600    -1.7160 H     1 <1>   0.1500 
 37 H        0.7730     5.1220     1.2110 H     1 <1>   0.1500 
 38 H       -3.7460     5.0110     1.2360 H     1 <1>   0.1500 
 39 H       -4.2230     1.9430    -1.7030 H     1 <1>   0.1500 
 40 H        3.4340     1.4280    -0.6450 H     1 <1>   0.1500 
 41 H        2.8670     4.4770     2.2810 H     1 <1>   0.1500 
 42 H       -5.8000     4.2670     2.3250 H     1 <1>   0.1500 
 43 H       -6.2610     1.2130    -0.6150 H     1 <1>   0.1500 
 44 H       -1.2130     8.8710     1.4170 H     1 <1>   0.0800 
 45 H       -2.2790     8.7780     0.0130 H     1 <1>   0.0800 
 46 H       -0.5270     8.7440    -0.2040 H     1 <1>   0.0800 
 47 H        6.1330     1.5460     1.8160 H     1 <1>   0.0800 
 48 H        5.6370     1.7970     0.1460 H     1 <1>   0.0800 
 49 H        4.7520     0.6600     1.1800 H     1 <1>   0.0800 
 50 H       -8.9390     1.1990     1.8720 H     1 <1>   0.0800 
 51 H       -7.5280     0.3770     1.2160 H     1 <1>   0.0800 
 52 H       -8.4710     1.4840     0.1990 H     1 <1>   0.0800 
@<TRIPOS>BOND
  1   1   2  2   
  2   2   3  1   
  3   2   4  1   
  4   3   5  1   
  5   4   6  1   
  6   4   7  1   
  7   4  29  1   
  8   5  30  1   
  9   5  31  1   
 10   5  32  1   
 11   6   8  1   
 12   6   9  1   
 13   6  33  1   
 14   7   9  1   
 15   7  10  1   
 16   7  34  1   
 17   8  11  ar  
 18   8  12  ar  
 19   9  13  1   
 20   9  35  1   
 21  10  14  ar  
 22  10  15  ar  
 23  11  16  ar  
 24  11  36  1   
 25  12  17  ar  
 26  12  37  1   
 27  13  18  2   
 28  13  19  1   
 29  14  20  ar  
 30  14  38  1   
 31  15  21  ar  
 32  15  39  1   
 33  16  22  ar  
 34  16  40  1   
 35  17  22  ar  
 36  17  41  1   
 37  19  23  1   
 38  20  24  ar  
 39  20  42  1   
 40  21  24  ar  
 41  21  43  1   
 42  22  25  1   
 43  23  44  1   
 44  23  45  1   
 45  23  46  1   
 46  24  26  1   
 47  25  27  1   
 48  26  28  1   
 49  27  47  1   
 50  27  48  1   
 51  27  49  1   
 52  28  50  1   
 53  28  51  1   
 54  28  52  1   
@<TRIPOS>SUBSTRUCTURE
  1 ****   4 GROUP 4 **** **** 0

# MOE 2024.06 (io_trps.svl 2023.06)
