@<TRIPOS>MOLECULE
NONAME
43 45 1 0 0 
SMALL
USER_CHARGES


@<TRIPOS>ATOM
  1 S       -0.2110    -0.6140    -2.1130 S.3   1 <1>  -0.0800 
  2 C       -0.9730    -1.5960    -0.8860 C.2   1 <1>  -0.1400 
  3 C        1.3470    -1.3140    -1.7360 C.2   1 <1>  -0.1100 
  4 C       -0.0830    -2.3910    -0.2730 C.2   1 <1>  -0.1810 
  5 C       -2.4600    -1.4860    -0.6340 C.3   1 <1>   0.0200 
  6 C        1.2770    -2.2400    -0.7440 C.2   1 <1>  -0.0860 
  7 C       -0.5220    -3.3520     0.8240 C.3   1 <1>   0.0210 
  8 C       -2.8010    -2.1790     0.7020 C.3   1 <1>  -0.0800 
  9 C        2.4130    -2.9800    -0.2250 C.2   1 <1>   0.7160 
 10 C       -2.0550    -3.5240     0.8420 C.3   1 <1>  -0.1600 
 11 C       -4.3150    -2.3790     0.8410 C.3   1 <1>  -0.2400 
 12 O        2.4370    -3.4220     0.9070 O.2   1 <1>  -0.5700 
 13 N        3.4950    -3.1780    -1.0290 N.am  1 <1>  -0.7300 
 14 C        4.7140    -3.9390    -0.6740 C.3   1 <1>   0.2200 
 15 C        5.8530    -2.9790    -0.2610 C.3   1 <1>   0.2000 
 16 C        5.0790    -4.7970    -1.8860 C.3   1 <1>  -0.2400 
 17 O        7.0290    -3.6880     0.0030 O.3   1 <1>  -0.5600 
 18 C        5.5780    -2.1760     1.0050 C.3   1 <1>  -0.1600 
 19 C        7.7590    -3.1170     1.0460 C.3   1 <1>   0.1200 
 20 C        6.9740    -1.9020     1.5230 C.3   1 <1>  -0.1600 
 21 H        2.1850    -0.9500    -2.3010 H     1 <1>   0.1500 
 22 H       -2.9810    -1.9570    -1.4480 H     1 <1>   0.0800 
 23 H       -2.7490    -0.4510    -0.5920 H     1 <1>   0.0800 
 24 H       -0.1870    -2.9670     1.7710 H     1 <1>   0.0800 
 25 H       -0.0640    -4.3140     0.6750 H     1 <1>   0.0800 
 26 H       -2.4710    -1.5350     1.5010 H     1 <1>   0.0800 
 27 H       -2.3390    -4.0100     1.7580 H     1 <1>   0.0800 
 28 H       -2.3390    -4.1660     0.0260 H     1 <1>   0.0800 
 29 H       -4.6840    -3.0320     0.0690 H     1 <1>   0.0800 
 30 H       -4.8250    -1.4350     0.7660 H     1 <1>   0.0800 
 31 H       -4.5470    -2.8140     1.7970 H     1 <1>   0.0800 
 32 H        3.4330    -2.8780    -1.9990 H     1 <1>   0.3700 
 33 H        4.4970    -4.5850     0.1610 H     1 <1>   0.0800 
 34 H        6.0770    -2.3100    -1.0740 H     1 <1>   0.0800 
 35 H        5.3350    -4.1800    -2.7280 H     1 <1>   0.0800 
 36 H        4.2600    -5.4440    -2.1440 H     1 <1>   0.0800 
 37 H        5.9280    -5.4130    -1.6490 H     1 <1>   0.0800 
 38 H        5.0310    -2.7810     1.7080 H     1 <1>   0.0800 
 39 H        5.0210    -1.2800     0.8030 H     1 <1>   0.0800 
 40 H        8.7380    -2.8530     0.6850 H     1 <1>   0.0800 
 41 H        7.8410    -3.8550     1.8260 H     1 <1>   0.0800 
 42 H        7.0050    -1.7950     2.5930 H     1 <1>   0.0800 
 43 H        7.3770    -1.0150     1.0650 H     1 <1>   0.0800 
@<TRIPOS>BOND
  1   1   2  1   
  2   1   3  1   
  3   2   4  2   
  4   2   5  1   
  5   3   6  2   
  6   3  21  1   
  7   4   6  1   
  8   4   7  1   
  9   5   8  1   
 10   5  22  1   
 11   5  23  1   
 12   6   9  1   
 13   7  10  1   
 14   7  24  1   
 15   7  25  1   
 16   8  10  1   
 17   8  11  1   
 18   8  26  1   
 19   9  12  2   
 20   9  13  am  
 21  10  27  1   
 22  10  28  1   
 23  11  29  1   
 24  11  30  1   
 25  11  31  1   
 26  13  14  1   
 27  13  32  1   
 28  14  15  1   
 29  14  16  1   
 30  14  33  1   
 31  15  17  1   
 32  15  18  1   
 33  15  34  1   
 34  16  35  1   
 35  16  36  1   
 36  16  37  1   
 37  17  19  1   
 38  18  20  1   
 39  18  38  1   
 40  18  39  1   
 41  19  20  1   
 42  19  40  1   
 43  19  41  1   
 44  20  42  1   
 45  20  43  1   
@<TRIPOS>SUBSTRUCTURE
  1 ****   9 GROUP 4 **** **** 0

# MOE 2024.06 (io_trps.svl 2023.06)
