@<TRIPOS>MOLECULE
NONAME
33 34 1 0 0 
SMALL
USER_CHARGES


@<TRIPOS>ATOM
  1 O       -0.3030     0.0610    -0.5450 O.3   1 <1>  -0.0190 
  2 N       -1.5380    -0.3200    -0.4410 N.2   1 <1>  -0.4100 
  3 C       -0.3660     1.3660    -0.4900 C.2   1 <1>   0.2980 
  4 C       -2.2690     0.7320    -0.3270 C.2   1 <1>   0.4620 
  5 N       -1.5350     1.8490    -0.3650 N.2   1 <1>  -0.5650 
  6 C        0.9330     2.1580    -0.6030 C.3   1 <1>   0.2900 
  7 C       -3.7160     0.7460    -0.1800 C.ar  1 <1>   0.0540 
  8 N        1.9100     1.7960     0.4420 N.3   1 <1>  -0.9000 
  9 C       -4.4260     1.9350    -0.0040 C.ar  1 <1>  -0.1500 
 10 C       -4.4540    -0.4380    -0.2080 C.ar  1 <1>  -0.1500 
 11 C        3.1960     2.4700     0.2620 C.3   1 <1>   0.0300 
 12 C       -5.8090     1.9530     0.1360 C.ar  1 <1>   0.0830 
 13 C       -5.8300    -0.4420    -0.0710 C.ar  1 <1>  -0.1500 
 14 O       -6.5140     3.1090     0.3090 O.3   1 <1>  -0.3630 
 15 C       -6.5220     0.7520     0.1020 C.ar  1 <1>   0.0830 
 16 C       -5.8770     4.3640     0.3890 C.3   1 <1>   0.0400 
 17 O       -7.8770     0.8000     0.2420 O.3   1 <1>  -0.3630 
 18 C       -8.6720    -0.3630     0.2160 C.3   1 <1>   0.0400 
 19 H        0.7050     3.2070    -0.5260 H     1 <1>   0.0800 
 20 H        1.3580     1.9740    -1.5740 H     1 <1>   0.0800 
 21 H        2.0480     0.7760     0.4240 H     1 <1>   0.3600 
 22 H       -3.8660     2.8500     0.0200 H     1 <1>   0.1500 
 23 H       -3.9400    -1.3750    -0.3400 H     1 <1>   0.1500 
 24 H        3.0630     3.5380     0.2960 H     1 <1>   0.0800 
 25 H        3.6400     2.1950    -0.6800 H     1 <1>   0.0800 
 26 H        3.8650     2.1850     1.0570 H     1 <1>   0.0800 
 27 H       -6.3420    -1.3840    -0.1010 H     1 <1>   0.1500 
 28 H       -6.6340     5.1120     0.5400 H     1 <1>   0.0800 
 29 H       -5.3560     4.5520    -0.5330 H     1 <1>   0.0800 
 30 H       -5.1980     4.3580     1.2240 H     1 <1>   0.0800 
 31 H       -9.6970    -0.0670     0.3430 H     1 <1>   0.0800 
 32 H       -8.3750    -1.0070     1.0250 H     1 <1>   0.0800 
 33 H       -8.5480    -0.8500    -0.7350 H     1 <1>   0.0800 
@<TRIPOS>BOND
  1   1   2  1   
  2   1   3  1   
  3   2   4  2   
  4   3   5  2   
  5   3   6  1   
  6   4   5  1   
  7   4   7  1   
  8   6   8  1   
  9   6  19  1   
 10   6  20  1   
 11   7   9  ar  
 12   7  10  ar  
 13   8  11  1   
 14   8  21  1   
 15   9  12  ar  
 16   9  22  1   
 17  10  13  ar  
 18  10  23  1   
 19  11  24  1   
 20  11  25  1   
 21  11  26  1   
 22  12  14  1   
 23  12  15  ar  
 24  13  15  ar  
 25  13  27  1   
 26  14  16  1   
 27  15  17  1   
 28  16  28  1   
 29  16  29  1   
 30  16  30  1   
 31  17  18  1   
 32  18  31  1   
 33  18  32  1   
 34  18  33  1   
@<TRIPOS>SUBSTRUCTURE
  1 ****   7 GROUP 4 **** **** 0

# MOE 2024.06 (io_trps.svl 2023.06)
