@<TRIPOS>MOLECULE
NONAME
47 49 1 0 0 
SMALL
USER_CHARGES


@<TRIPOS>ATOM
  1 O        0.6560     0.3000    -0.8800 O.2   1 <1>  -0.5700 
  2 C        1.2000     1.3450    -0.5820 C.2   1 <1>   0.5440 
  3 N        0.4460     2.4810    -0.5870 N.am  1 <1>  -0.7300 
  4 C        2.6140     1.3810    -0.2440 C.ar  1 <1>   0.0860 
  5 C       -0.9940     2.5200    -0.8840 C.3   1 <1>   0.2840 
  6 C        3.1670     2.3960     0.5410 C.ar  1 <1>  -0.1500 
  7 C        3.4830     0.3880    -0.6960 C.ar  1 <1>  -0.1500 
  8 C       -1.5300     3.8570    -0.4110 C.ar  1 <1>  -0.1440 
  9 C        4.5170     2.4190     0.8450 C.ar  1 <1>  -0.1500 
 10 C        4.8320     0.4100    -0.3910 C.ar  1 <1>  -0.1500 
 11 C       -1.6830     4.9300    -1.2670 C.ar  1 <1>  -0.1500 
 12 C       -1.8820     4.0710     0.9070 C.ar  1 <1>  -0.1500 
 13 C        5.3690     1.4270     0.3820 C.ar  1 <1>   0.0730 
 14 C       -2.1690     6.1310    -0.7760 C.ar  1 <1>   0.1600 
 15 C       -2.3580     5.3120     1.2950 C.ar  1 <1>   0.1600 
 16 C        6.7650     1.4520     0.6950 C.1   1 <1>  -0.0730 
 17 N       -2.5080     6.3470     0.4840 N.ar  1 <1>  -0.6200 
 18 C        7.9290     1.4720     0.9460 C.1   1 <1>  -0.2000 
 19 C        9.3910     1.4920     1.2390 C.3   1 <1>   0.4800 
 20 O        9.5030     1.6860     2.5910 O.3   1 <1>  -0.6800 
 21 C       10.0510     0.1470     0.9000 C.3   1 <1>  -0.1600 
 22 C       10.1040     2.6540     0.5350 C.3   1 <1>  -0.1600 
 23 C       10.1600    -0.0790    -0.6190 C.3   1 <1>  -0.1600 
 24 C       10.2140     2.4330    -0.9850 C.3   1 <1>  -0.1600 
 25 C       10.8850     1.0890    -1.3020 C.3   1 <1>  -0.1600 
 26 H        0.8710     3.3940    -0.4260 H     1 <1>   0.3700 
 27 H       -1.4930     1.7110    -0.3760 H     1 <1>   0.0800 
 28 H       -1.1450     2.4020    -1.9440 H     1 <1>   0.0800 
 29 H        2.5360     3.1750     0.9280 H     1 <1>   0.1500 
 30 H        3.0880    -0.4150    -1.2960 H     1 <1>   0.1500 
 31 H        4.9190     3.2130     1.4510 H     1 <1>   0.1500 
 32 H        5.4760    -0.3700    -0.7570 H     1 <1>   0.1500 
 33 H       -1.4300     4.8440    -2.3080 H     1 <1>   0.1500 
 34 H       -1.7880     3.2830     1.6330 H     1 <1>   0.1500 
 35 H       -2.2840     6.9580    -1.4570 H     1 <1>   0.1500 
 36 H       -2.6300     5.4610     2.3260 H     1 <1>   0.1500 
 37 H        8.8210     1.1440     3.0230 H     1 <1>   0.4000 
 38 H        9.4880    -0.6570     1.3400 H     1 <1>   0.0800 
 39 H       11.0420     0.1350     1.3180 H     1 <1>   0.0800 
 40 H       11.0960     2.7470     0.9400 H     1 <1>   0.0800 
 41 H        9.5740     3.5700     0.7270 H     1 <1>   0.0800 
 42 H        9.1750    -0.1820    -1.0400 H     1 <1>   0.0800 
 43 H       10.6940    -0.9940    -0.8090 H     1 <1>   0.0800 
 44 H       10.7840     3.2340    -1.4240 H     1 <1>   0.0800 
 45 H        9.2300     2.4530    -1.4240 H     1 <1>   0.0800 
 46 H       10.8930     0.9340    -2.3670 H     1 <1>   0.0800 
 47 H       11.9090     1.1170    -0.9680 H     1 <1>   0.0800 
@<TRIPOS>BOND
  1   1   2  2   
  2   2   3  am  
  3   2   4  1   
  4   3   5  1   
  5   3  26  1   
  6   4   6  ar  
  7   4   7  ar  
  8   5   8  1   
  9   5  27  1   
 10   5  28  1   
 11   6   9  ar  
 12   6  29  1   
 13   7  10  ar  
 14   7  30  1   
 15   8  11  ar  
 16   8  12  ar  
 17   9  13  ar  
 18   9  31  1   
 19  10  13  ar  
 20  10  32  1   
 21  11  14  ar  
 22  11  33  1   
 23  12  15  ar  
 24  12  34  1   
 25  13  16  1   
 26  14  17  ar  
 27  14  35  1   
 28  15  17  ar  
 29  15  36  1   
 30  16  18  3   
 31  18  19  1   
 32  19  20  1   
 33  19  21  1   
 34  19  22  1   
 35  20  37  1   
 36  21  23  1   
 37  21  38  1   
 38  21  39  1   
 39  22  24  1   
 40  22  40  1   
 41  22  41  1   
 42  23  25  1   
 43  23  42  1   
 44  23  43  1   
 45  24  25  1   
 46  24  44  1   
 47  24  45  1   
 48  25  46  1   
 49  25  47  1   
@<TRIPOS>SUBSTRUCTURE
  1 ****   6 GROUP 4 **** **** 0

# MOE 2024.06 (io_trps.svl 2023.06)
