@<TRIPOS>MOLECULE
NONAME
39 40 1 0 0 
SMALL
USER_CHARGES


@<TRIPOS>ATOM
  1 O       -0.2980    -2.2100     1.3600 O.2   1 <1>  -0.5700 
  2 C        0.0550    -1.4410     0.4880 C.2   1 <1>   0.6900 
  3 N       -0.8260    -0.6950    -0.2330 N.am  1 <1>  -0.5470 
  4 N        1.3700    -1.2910     0.2010 N.am  1 <1>  -0.7300 
  5 C       -2.2300    -0.5900    -0.2470 C.ar  1 <1>   0.1170 
  6 C        2.4730    -2.0050     0.8630 C.3   1 <1>   0.2200 
  7 C       -2.8030     0.4400    -1.0030 C.ar  1 <1>   0.0830 
  8 C       -3.0690    -1.4590     0.4420 C.ar  1 <1>  -0.1500 
  9 C        3.5050    -0.9860     1.3310 C.3   1 <1>  -0.1600 
 10 C        3.2300    -2.8160    -0.1810 C.3   1 <1>  -0.1600 
 11 O       -1.9490     1.2720    -1.6760 O.3   1 <1>  -0.3630 
 12 C       -4.1850     0.5850    -1.0490 C.ar  1 <1>  -0.1500 
 13 C       -4.4440    -1.3120     0.3940 C.ar  1 <1>  -0.1500 
 14 C        4.3530    -0.6530     0.0980 C.3   1 <1>  -0.1600 
 15 C        4.1770    -1.8280    -0.8730 C.3   1 <1>  -0.1600 
 16 C       -2.4390     2.3560    -2.4350 C.3   1 <1>   0.0400 
 17 C       -5.0080    -0.2850    -0.3540 C.ar  1 <1>   0.0830 
 18 O       -6.3470    -0.0680    -0.4550 O.3   1 <1>  -0.3620 
 19 C       -7.2660    -0.8920     0.2280 C.3   1 <1>   0.0400 
 20 H       -0.3940    -0.0070    -0.8430 H     1 <1>   0.3700 
 21 H        1.6570    -0.7010    -0.5730 H     1 <1>   0.3700 
 22 H        2.1070    -2.6180     1.6720 H     1 <1>   0.0800 
 23 H       -2.6550    -2.2620     1.0220 H     1 <1>   0.1500 
 24 H        4.1310    -1.4540     2.0700 H     1 <1>   0.0800 
 25 H        3.0470    -0.1180     1.7710 H     1 <1>   0.0800 
 26 H        2.5670    -3.3120    -0.8690 H     1 <1>   0.0800 
 27 H        3.8150    -3.5610     0.3280 H     1 <1>   0.0800 
 28 H       -4.6570     1.3620    -1.6160 H     1 <1>   0.1500 
 29 H       -5.0500    -2.0060     0.9440 H     1 <1>   0.1500 
 30 H        5.3870    -0.5190     0.3700 H     1 <1>   0.0800 
 31 H        3.9950     0.2530    -0.3590 H     1 <1>   0.0800 
 32 H        3.7350    -1.4780    -1.7900 H     1 <1>   0.0800 
 33 H        5.1190    -2.2960    -1.1000 H     1 <1>   0.0800 
 34 H       -1.5980     2.8760    -2.8590 H     1 <1>   0.0800 
 35 H       -2.9860     3.0180    -1.7860 H     1 <1>   0.0800 
 36 H       -3.0680     1.9770    -3.2200 H     1 <1>   0.0800 
 37 H       -8.2570    -0.5380     0.0120 H     1 <1>   0.0800 
 38 H       -7.0760    -0.8250     1.2850 H     1 <1>   0.0800 
 39 H       -7.1540    -1.9030    -0.1220 H     1 <1>   0.0800 
@<TRIPOS>BOND
  1   1   2  2   
  2   2   3  am  
  3   2   4  am  
  4   3   5  1   
  5   3  20  1   
  6   4   6  1   
  7   4  21  1   
  8   5   7  ar  
  9   5   8  ar  
 10   6   9  1   
 11   6  10  1   
 12   6  22  1   
 13   7  11  1   
 14   7  12  ar  
 15   8  13  ar  
 16   8  23  1   
 17   9  14  1   
 18   9  24  1   
 19   9  25  1   
 20  10  15  1   
 21  10  26  1   
 22  10  27  1   
 23  11  16  1   
 24  12  17  ar  
 25  12  28  1   
 26  13  17  ar  
 27  13  29  1   
 28  14  15  1   
 29  14  30  1   
 30  14  31  1   
 31  15  32  1   
 32  15  33  1   
 33  16  34  1   
 34  16  35  1   
 35  16  36  1   
 36  17  18  1   
 37  18  19  1   
 38  19  37  1   
 39  19  38  1   
 40  19  39  1   
@<TRIPOS>SUBSTRUCTURE
  1 ****   3 GROUP 4 **** **** 0

# MOE 2024.06 (io_trps.svl 2023.06)
