@<TRIPOS>MOLECULE
NONAME
30 30 1 0 0 
SMALL
USER_CHARGES


@<TRIPOS>ATOM
  1 CL      -0.2000     0.2630     1.7050 Cl    1 <1>  -0.1770 
  2 C       -1.5650     1.0060     0.9040 C.ar  1 <1>   0.1770 
  3 C       -1.4890     2.2930     0.3680 C.ar  1 <1>   0.0860 
  4 C       -2.7250     0.2590     0.8400 C.ar  1 <1>  -0.1500 
  5 C       -0.3050     3.1290     0.4160 C.2   1 <1>   0.5440 
  6 C       -2.6480     2.7860    -0.2360 C.ar  1 <1>  -0.1500 
  7 C       -3.8510     0.7880     0.2360 C.ar  1 <1>  -0.1500 
  8 O       -0.4270     4.3270     0.5830 O.2   1 <1>  -0.5700 
  9 N        0.9510     2.6180     0.2430 N.am  1 <1>  -0.7300 
 10 C       -3.8320     2.0630    -0.3150 C.ar  1 <1>  -0.0090 
 11 C        2.2150     3.3980     0.2560 C.3   1 <1>   0.0600 
 12 S       -5.3220     2.7720    -1.0780 S.o2  1 <1>   1.4470 
 13 O       -6.1220     1.6950    -1.6200 O.2   1 <1>  -0.6500 
 14 O       -4.9650     3.8880    -1.9260 O.2   1 <1>  -0.6500 
 15 N       -6.1700     3.4110     0.2500 N.am  1 <1>  -0.8490 
 16 C       -5.5620     4.6320     0.7920 C.3   1 <1>   0.1160 
 17 C       -7.5790     3.6560    -0.0690 C.3   1 <1>   0.1160 
 18 H       -2.7490    -0.7290     1.2660 H     1 <1>   0.1500 
 19 H       -2.6180     3.7780    -0.6590 H     1 <1>   0.1500 
 20 H       -4.7600     0.2070     0.1920 H     1 <1>   0.1500 
 21 H        1.0630     1.6010     0.2140 H     1 <1>   0.3700 
 22 H        2.0070     4.4550     0.2830 H     1 <1>   0.0800 
 23 H        2.7860     3.1810    -0.6300 H     1 <1>   0.0800 
 24 H        2.7940     3.1380     1.1250 H     1 <1>   0.0800 
 25 H       -4.5430     4.4440     1.0850 H     1 <1>   0.0800 
 26 H       -6.1050     4.9590     1.6630 H     1 <1>   0.0800 
 27 H       -5.5730     5.4210     0.0570 H     1 <1>   0.0800 
 28 H       -8.0540     2.7370    -0.3680 H     1 <1>   0.0800 
 29 H       -7.6630     4.3670    -0.8740 H     1 <1>   0.0800 
 30 H       -8.0960     4.0350     0.7950 H     1 <1>   0.0800 
@<TRIPOS>BOND
  1   1   2  1   
  2   2   3  ar  
  3   2   4  ar  
  4   3   5  1   
  5   3   6  ar  
  6   4   7  ar  
  7   4  18  1   
  8   5   8  2   
  9   5   9  am  
 10   6  10  ar  
 11   6  19  1   
 12   7  10  ar  
 13   7  20  1   
 14   9  11  1   
 15   9  21  1   
 16  10  12  1   
 17  11  22  1   
 18  11  23  1   
 19  11  24  1   
 20  12  13  2   
 21  12  14  2   
 22  12  15  am  
 23  15  16  1   
 24  15  17  1   
 25  16  25  1   
 26  16  26  1   
 27  16  27  1   
 28  17  28  1   
 29  17  29  1   
 30  17  30  1   
@<TRIPOS>SUBSTRUCTURE
  1 ****   6 GROUP 4 **** **** 0

# MOE 2024.06 (io_trps.svl 2023.06)
