@<TRIPOS>MOLECULE
NONAME
34 35 1 0 0 
SMALL
USER_CHARGES


@<TRIPOS>ATOM
  1 S        0.8420    -1.5020    -0.4180 S.o2  1 <1>   1.4470 
  2 O        1.6620    -0.3300    -0.6440 O.2   1 <1>  -0.6500 
  3 O        1.1380    -2.7290    -1.1140 O.2   1 <1>  -0.6500 
  4 N        1.0100    -1.9060     1.1990 N.am  1 <1>  -0.9140 
  5 C       -0.9180    -1.0840    -0.5680 C.ar  1 <1>  -0.0090 
  6 C        2.3160    -1.5580     1.7690 C.3   1 <1>   0.3370 
  7 C       -1.7820    -1.8700    -1.3280 C.ar  1 <1>  -0.1500 
  8 C       -1.4400     0.0310     0.0860 C.ar  1 <1>  -0.1500 
  9 C        3.5230    -2.2610     1.0900 C.2   1 <1>   0.5690 
 10 C        2.2250    -1.8620     3.2670 C.3   1 <1>  -0.2400 
 11 C       -3.1270    -1.5590    -1.4390 C.ar  1 <1>  -0.1500 
 12 C       -2.7820     0.3590    -0.0120 C.ar  1 <1>  -0.1500 
 13 O        3.9030    -3.3300     1.5120 O.2   1 <1>  -0.5700 
 14 N        4.1090    -1.6580     0.0180 N.am  1 <1>  -0.5790 
 15 C       -3.6030    -0.4450    -0.7760 C.ar  1 <1>   0.1900 
 16 C        5.2010    -2.2160    -0.7870 C.3   1 <1>   0.0490 
 17 F       -4.8690    -0.1450    -0.8740 F     1 <1>  -0.1900 
 18 C        6.0200    -1.2750    -1.6060 C.3   1 <1>  -0.2000 
 19 C        5.0420    -2.1970    -2.2710 C.3   1 <1>  -0.2000 
 20 H        0.9770    -2.9260     1.1920 H     1 <1>   0.4200 
 21 H        2.4640    -0.4960     1.6740 H     1 <1>   0.0800 
 22 H       -1.3980    -2.7380    -1.8420 H     1 <1>   0.1500 
 23 H       -0.7860     0.6480     0.6800 H     1 <1>   0.1500 
 24 H        2.0620    -2.9120     3.4310 H     1 <1>   0.0800 
 25 H        1.4240    -1.3010     3.7140 H     1 <1>   0.0800 
 26 H        3.1450    -1.5850     3.7490 H     1 <1>   0.0800 
 27 H       -3.7960    -2.1630    -2.0260 H     1 <1>   0.1500 
 28 H       -3.1870     1.2190     0.4920 H     1 <1>   0.1500 
 29 H        3.6350    -0.8510    -0.4080 H     1 <1>   0.3700 
 30 H        5.6790    -3.0700    -0.3310 H     1 <1>   0.1000 
 31 H        7.0700    -1.4750    -1.7270 H     1 <1>   0.1000 
 32 H        5.8000    -0.2230    -1.5670 H     1 <1>   0.1000 
 33 H        4.1310    -1.8000    -2.6830 H     1 <1>   0.1000 
 34 H        5.4250    -3.0280    -2.8370 H     1 <1>   0.1000 
@<TRIPOS>BOND
  1   1   2  2   
  2   1   3  2   
  3   1   4  am  
  4   1   5  1   
  5   4   6  1   
  6   4  20  1   
  7   5   7  ar  
  8   5   8  ar  
  9   6   9  1   
 10   6  10  1   
 11   6  21  1   
 12   7  11  ar  
 13   7  22  1   
 14   8  12  ar  
 15   8  23  1   
 16   9  13  2   
 17   9  14  am  
 18  10  24  1   
 19  10  25  1   
 20  10  26  1   
 21  11  15  ar  
 22  11  27  1   
 23  12  15  ar  
 24  12  28  1   
 25  14  16  1   
 26  14  29  1   
 27  15  17  1   
 28  16  18  1   
 29  16  19  1   
 30  16  30  1   
 31  18  19  1   
 32  18  31  1   
 33  18  32  1   
 34  19  33  1   
 35  19  34  1   
@<TRIPOS>SUBSTRUCTURE
  1 ****   1 GROUP 4 **** **** 0

# MOE 2024.06 (io_trps.svl 2023.06)
