@<TRIPOS>MOLECULE
NONAME
43 45 1 0 0 
SMALL
USER_CHARGES


@<TRIPOS>ATOM
  1 S        0.0760     0.8820    -1.3010 S.2   1 <1>  -0.3800 
  2 C        1.0260     2.0260    -0.6820 C.2   1 <1>   0.5810 
  3 S        0.1910     3.3660     0.1370 S.3   1 <1>  -0.3710 
  4 N        2.3780     2.0410    -0.7550 N.am  1 <1>  -0.6600 
  5 C       -1.6230     3.0220    -0.0030 C.3   1 <1>   0.0700 
  6 C        3.1190     1.0050    -1.5320 C.3   1 <1>   0.1400 
  7 C        3.2100     3.1120    -0.1200 C.3   1 <1>   0.1400 
  8 C       -2.3740     4.1670     0.6740 C.3   1 <1>   0.1400 
  9 C        3.5030    -0.1680    -0.6240 C.3   1 <1>  -0.1600 
 10 C        4.5920     2.6530     0.3690 C.3   1 <1>  -0.1600 
 11 N       -3.8350     3.9490     0.5710 N.am  1 <1>  -0.4200 
 12 C        4.7140     0.1000     0.2830 C.3   1 <1>  -0.1600 
 13 C        4.5780     1.3430     1.1740 C.3   1 <1>  -0.1600 
 14 C       -4.6210     3.3280     1.5060 C.2   1 <1>   0.5440 
 15 C       -4.6280     4.3390    -0.4760 C.2   1 <1>   0.5440 
 16 O       -4.2000     2.8640     2.5440 O.2   1 <1>  -0.5700 
 17 C       -5.9790     3.3280     1.0400 C.ar  1 <1>   0.0860 
 18 O       -4.2130     4.9070    -1.4640 O.2   1 <1>  -0.5700 
 19 C       -5.9830     3.9580    -0.1960 C.ar  1 <1>   0.0860 
 20 C       -7.1610     2.8420     1.5840 C.ar  1 <1>  -0.1500 
 21 C       -7.1700     4.1100    -0.9010 C.ar  1 <1>  -0.1500 
 22 C       -8.3440     2.9950     0.8800 C.ar  1 <1>  -0.1500 
 23 C       -8.3490     3.6260    -0.3580 C.ar  1 <1>  -0.1500 
 24 H       -1.8130     2.0840     0.4890 H     1 <1>   0.0800 
 25 H       -1.8600     2.9660    -1.0510 H     1 <1>   0.0800 
 26 H        3.9930     1.4340    -1.9910 H     1 <1>   0.0800 
 27 H        2.4980     0.6390    -2.3320 H     1 <1>   0.0800 
 28 H        2.6940     3.5050     0.7380 H     1 <1>   0.0800 
 29 H        3.3310     3.9180    -0.8230 H     1 <1>   0.0800 
 30 H       -2.1210     5.0980     0.1960 H     1 <1>   0.0800 
 31 H       -2.0940     4.2220     1.7120 H     1 <1>   0.0800 
 32 H        3.7400    -1.0100    -1.2500 H     1 <1>   0.0800 
 33 H        2.6520    -0.4480    -0.0270 H     1 <1>   0.0800 
 34 H        4.9740     3.4330     1.0040 H     1 <1>   0.0800 
 35 H        5.2720     2.5790    -0.4600 H     1 <1>   0.0800 
 36 H        5.5980     0.1950    -0.3250 H     1 <1>   0.0800 
 37 H        4.8560    -0.7590     0.9150 H     1 <1>   0.0800 
 38 H        3.6830     1.2780     1.7710 H     1 <1>   0.0800 
 39 H        5.4150     1.3530     1.8500 H     1 <1>   0.0800 
 40 H       -7.1440     2.3540     2.5440 H     1 <1>   0.1500 
 41 H       -7.1600     4.6020    -1.8600 H     1 <1>   0.1500 
 42 H       -9.2680     2.6220     1.2930 H     1 <1>   0.1500 
 43 H       -9.2760     3.7390    -0.8970 H     1 <1>   0.1500 
@<TRIPOS>BOND
  1   1   2  2   
  2   2   3  1   
  3   2   4  am  
  4   3   5  1   
  5   4   6  1   
  6   4   7  1   
  7   5   8  1   
  8   5  24  1   
  9   5  25  1   
 10   6   9  1   
 11   6  26  1   
 12   6  27  1   
 13   7  10  1   
 14   7  28  1   
 15   7  29  1   
 16   8  11  1   
 17   8  30  1   
 18   8  31  1   
 19   9  12  1   
 20   9  32  1   
 21   9  33  1   
 22  10  13  1   
 23  10  34  1   
 24  10  35  1   
 25  11  14  am  
 26  11  15  am  
 27  12  13  1   
 28  12  36  1   
 29  12  37  1   
 30  13  38  1   
 31  13  39  1   
 32  14  16  2   
 33  14  17  1   
 34  15  18  2   
 35  15  19  1   
 36  17  19  ar  
 37  17  20  ar  
 38  19  21  ar  
 39  20  22  ar  
 40  20  40  1   
 41  21  23  ar  
 42  21  41  1   
 43  22  23  ar  
 44  22  42  1   
 45  23  43  1   
@<TRIPOS>SUBSTRUCTURE
  1 ****   5 GROUP 4 **** **** 0

# MOE 2024.06 (io_trps.svl 2023.06)
