@<TRIPOS>MOLECULE
NONAME
46 48 1 0 0 
SMALL
USER_CHARGES


@<TRIPOS>ATOM
  1 O       -1.0420    -1.9930     2.7470 O.2   1 <1>  -0.5700 
  2 C       -1.7080    -1.7610     1.7740 C.2   1 <1>   0.7200 
  3 O       -2.4760    -0.6940     1.6470 O.3   1 <1>  -0.4300 
  4 C       -1.8460    -2.6600     0.5930 C.3   1 <1>   0.0000 
  5 C       -3.1140    -0.6210     0.3950 C.3   1 <1>   0.3750 
  6 C       -0.4930    -2.8910    -0.0320 C.2   1 <1>   0.7200 
  7 C       -3.1150    -3.4080     0.2890 C.3   1 <1>  -0.0950 
  8 C       -2.8980    -2.0050    -0.2430 C.3   1 <1>  -0.1950 
  9 C       -4.5810    -0.2520     0.6040 C.3   1 <1>  -0.2400 
 10 C       -2.3990     0.4690    -0.4050 C.3   1 <1>  -0.2400 
 11 O        0.0030    -2.0910    -0.7820 O.2   1 <1>  -0.5700 
 12 O        0.1040    -4.0290     0.2940 O.3   1 <1>  -0.4300 
 13 C       -3.0050    -4.5850    -0.6920 C.2   1 <1>   0.4840 
 14 C       -4.1940    -3.6430     1.3710 C.3   1 <1>  -0.0650 
 15 C        1.3760    -4.3950    -0.1900 C.3   1 <1>   0.1200 
 16 O       -3.3490    -4.3730    -1.8270 O.2   1 <1>  -0.5700 
 17 C       -2.5330    -5.8890    -0.2560 C.ar  1 <1>   0.0860 
 18 C       -5.5890    -3.8060     0.7560 C.3   1 <1>  -0.2400 
 19 C        2.4390    -3.7960     0.7290 C.3   1 <1>  -0.2400 
 20 C       -2.6560    -6.9930    -1.1050 C.ar  1 <1>  -0.1500 
 21 C       -1.9450    -6.1250     0.9930 C.ar  1 <1>  -0.1500 
 22 C       -2.2290    -8.2550    -0.7340 C.ar  1 <1>  -0.1500 
 23 C       -1.5160    -7.3840     1.3710 C.ar  1 <1>  -0.1500 
 24 C       -1.6580    -8.4540     0.5080 C.ar  1 <1>  -0.1500 
 25 H       -2.7940    -1.9430    -1.3130 H     1 <1>   0.1000 
 26 H       -5.0660    -0.9320     1.2750 H     1 <1>   0.0800 
 27 H       -5.0990    -0.2740    -0.3370 H     1 <1>   0.0800 
 28 H       -4.6580     0.7410     1.0100 H     1 <1>   0.0800 
 29 H       -1.3590     0.2280    -0.5340 H     1 <1>   0.0800 
 30 H       -2.4780     1.4150     0.0990 H     1 <1>   0.0800 
 31 H       -2.8450     0.5640    -1.3780 H     1 <1>   0.0800 
 32 H       -4.2130    -2.8310     2.0750 H     1 <1>   0.0800 
 33 H       -3.9670    -4.5290     1.9370 H     1 <1>   0.0800 
 34 H        1.4870    -4.0470    -1.2040 H     1 <1>   0.0800 
 35 H        1.4310    -5.4700    -0.1790 H     1 <1>   0.0800 
 36 H       -6.3280    -3.8850     1.5340 H     1 <1>   0.0800 
 37 H       -5.6390    -4.6940     0.1510 H     1 <1>   0.0800 
 38 H       -5.8320    -2.9610     0.1360 H     1 <1>   0.0800 
 39 H        2.3900    -2.7210     0.7050 H     1 <1>   0.0800 
 40 H        3.4150    -4.0980     0.3980 H     1 <1>   0.0800 
 41 H        2.2960    -4.1400     1.7380 H     1 <1>   0.0800 
 42 H       -3.0980    -6.8570    -2.0780 H     1 <1>   0.1500 
 43 H       -1.8030    -5.3190     1.6890 H     1 <1>   0.1500 
 44 H       -2.3420    -9.0830    -1.4130 H     1 <1>   0.1500 
 45 H       -1.0660    -7.5320     2.3380 H     1 <1>   0.1500 
 46 H       -1.3250    -9.4350     0.8000 H     1 <1>   0.1500 
@<TRIPOS>BOND
  1   1   2  2   
  2   2   3  1   
  3   2   4  1   
  4   3   5  1   
  5   4   6  1   
  6   4   7  1   
  7   4   8  1   
  8   5   8  1   
  9   5   9  1   
 10   5  10  1   
 11   6  11  2   
 12   6  12  1   
 13   7   8  1   
 14   7  13  1   
 15   7  14  1   
 16   8  25  1   
 17   9  26  1   
 18   9  27  1   
 19   9  28  1   
 20  10  29  1   
 21  10  30  1   
 22  10  31  1   
 23  12  15  1   
 24  13  16  2   
 25  13  17  1   
 26  14  18  1   
 27  14  32  1   
 28  14  33  1   
 29  15  19  1   
 30  15  34  1   
 31  15  35  1   
 32  17  20  ar  
 33  17  21  ar  
 34  18  36  1   
 35  18  37  1   
 36  18  38  1   
 37  19  39  1   
 38  19  40  1   
 39  19  41  1   
 40  20  22  ar  
 41  20  42  1   
 42  21  23  ar  
 43  21  43  1   
 44  22  24  ar  
 45  22  44  1   
 46  23  24  ar  
 47  23  45  1   
 48  24  46  1   
@<TRIPOS>SUBSTRUCTURE
  1 ****   4 GROUP 4 **** **** 0

# MOE 2024.06 (io_trps.svl 2023.06)
