@<TRIPOS>MOLECULE
NONAME
52 54 1 0 0 
SMALL
USER_CHARGES


@<TRIPOS>ATOM
  1 O       -0.3280    -0.3890    -0.3760 O.3   1 <1>  -0.3630 
  2 C       -1.4410    -1.1880    -0.4200 C.ar  1 <1>   0.0830 
  3 C       -0.3600     0.9360    -0.8610 C.3   1 <1>   0.0400 
  4 C       -1.3240    -2.5240     0.0110 C.ar  1 <1>   0.1000 
  5 C       -2.6710    -0.7190    -0.8730 C.ar  1 <1>  -0.1500 
  6 N       -0.1330    -3.0920     0.4860 N.pl3 1 <1>  -0.8380 
  7 C       -2.4450    -3.3400    -0.0320 C.ar  1 <1>  -0.1500 
  8 C       -3.7750    -1.5540    -0.9050 C.ar  1 <1>  -0.1500 
  9 C        0.3410    -2.5260     1.7840 C.3   1 <1>   0.2090 
 10 C        0.9390    -3.2260    -0.5470 C.3   1 <1>   0.2090 
 11 C       -3.6620    -2.8650    -0.4840 C.ar  1 <1>  -0.1500 
 12 C        1.5670    -3.2960     2.3150 C.3   1 <1>   0.3430 
 13 C        2.1650    -3.9770     0.0090 C.3   1 <1>   0.3430 
 14 N        2.6720    -3.3760     1.2970 N.4   1 <1>  -0.9590 
 15 C        3.8510    -4.1250     1.8020 C.3   1 <1>   0.4860 
 16 C        5.0090    -3.8820     0.8590 C.ar  1 <1>  -0.1430 
 17 C        5.3380    -4.8330    -0.0990 C.ar  1 <1>   0.0830 
 18 C        5.7440    -2.7110     0.9490 C.ar  1 <1>  -0.1500 
 19 O        4.5750    -5.9590    -0.1440 O.3   1 <1>  -0.3620 
 20 C        6.4040    -4.5980    -0.9650 C.ar  1 <1>  -0.1500 
 21 C        6.8000    -2.4730     0.0870 C.ar  1 <1>   0.0830 
 22 C        4.9690    -7.0710    -0.9240 C.3   1 <1>   0.0400 
 23 C        7.1300    -3.4240    -0.8730 C.ar  1 <1>  -0.1500 
 24 O        7.4530    -1.2950     0.2460 O.3   1 <1>  -0.3620 
 25 C        8.5970    -0.9850    -0.5210 C.3   1 <1>   0.0400 
 26 H        0.6230     1.3570    -0.7560 H     1 <1>   0.0800 
 27 H       -1.0640     1.5050    -0.2800 H     1 <1>   0.0800 
 28 H       -0.6400     0.9220    -1.9000 H     1 <1>   0.0800 
 29 H       -2.8010     0.2920    -1.2070 H     1 <1>   0.1500 
 30 H       -2.3570    -4.3590     0.2950 H     1 <1>   0.1500 
 31 H       -4.7220    -1.1830    -1.2570 H     1 <1>   0.1500 
 32 H       -0.4580    -2.5870     2.5040 H     1 <1>   0.0800 
 33 H        0.5930    -1.4880     1.6630 H     1 <1>   0.0800 
 34 H        1.2420    -2.2540    -0.8920 H     1 <1>   0.0800 
 35 H        0.5460    -3.7650    -1.3920 H     1 <1>   0.0800 
 36 H       -4.5190    -3.5160    -0.5090 H     1 <1>   0.1500 
 37 H        1.2470    -4.2900     2.5790 H     1 <1>   0.0800 
 38 H        1.9230    -2.8110     3.2080 H     1 <1>   0.0800 
 39 H        2.9460    -3.9660    -0.7340 H     1 <1>   0.0800 
 40 H        1.8860    -5.0040     0.1740 H     1 <1>   0.0800 
 41 H        2.9880    -2.4240     1.0750 H     1 <1>   0.4500 
 42 H        3.6310    -5.1790     1.8590 H     1 <1>   0.0800 
 43 H        4.1190    -3.7770     2.7860 H     1 <1>   0.0800 
 44 H        5.5190    -1.9610     1.6870 H     1 <1>   0.1500 
 45 H        6.6830    -5.3120    -1.7180 H     1 <1>   0.1500 
 46 H        4.9400    -6.8000    -1.9650 H     1 <1>   0.0800 
 47 H        4.2790    -7.8750    -0.7390 H     1 <1>   0.0800 
 48 H        5.9610    -7.3710    -0.6340 H     1 <1>   0.0800 
 49 H        7.9450    -3.2660    -1.5550 H     1 <1>   0.1500 
 50 H        8.9640    -0.0250    -0.2030 H     1 <1>   0.0800 
 51 H        8.3230    -0.9440    -1.5600 H     1 <1>   0.0800 
 52 H        9.3480    -1.7360    -0.3500 H     1 <1>   0.0800 
@<TRIPOS>BOND
  1   1   2  1   
  2   1   3  1   
  3   2   4  ar  
  4   2   5  ar  
  5   3  26  1   
  6   3  27  1   
  7   3  28  1   
  8   4   6  1   
  9   4   7  ar  
 10   5   8  ar  
 11   5  29  1   
 12   6   9  1   
 13   6  10  1   
 14   7  11  ar  
 15   7  30  1   
 16   8  11  ar  
 17   8  31  1   
 18   9  12  1   
 19   9  32  1   
 20   9  33  1   
 21  10  13  1   
 22  10  34  1   
 23  10  35  1   
 24  11  36  1   
 25  12  14  1   
 26  12  37  1   
 27  12  38  1   
 28  13  14  1   
 29  13  39  1   
 30  13  40  1   
 31  14  15  1   
 32  14  41  1   
 33  15  16  1   
 34  15  42  1   
 35  15  43  1   
 36  16  17  ar  
 37  16  18  ar  
 38  17  19  1   
 39  17  20  ar  
 40  18  21  ar  
 41  18  44  1   
 42  19  22  1   
 43  20  23  ar  
 44  20  45  1   
 45  21  23  ar  
 46  21  24  1   
 47  22  46  1   
 48  22  47  1   
 49  22  48  1   
 50  23  49  1   
 51  24  25  1   
 52  25  50  1   
 53  25  51  1   
 54  25  52  1   
@<TRIPOS>SUBSTRUCTURE
  1 ****  13 GROUP 4 **** **** 0

# MOE 2024.06 (io_trps.svl 2023.06)
