@<TRIPOS>MOLECULE
NONAME
58 60 1 0 0 
SMALL
USER_CHARGES


@<TRIPOS>ATOM
  1 O       -0.4220     0.0880    -1.8330 O.2   1 <1>  -0.5700 
  2 C       -1.4140     0.5430    -1.2970 C.2   1 <1>   0.5440 
  3 N       -2.2740    -0.2810    -0.6170 N.am  1 <1>  -0.5470 
  4 C       -1.7090     1.9560    -1.3990 C.ar  1 <1>   0.0860 
  5 C       -2.2520    -1.6330    -0.2250 C.ar  1 <1>   0.1170 
  6 C       -2.1420     2.7310    -0.3100 C.ar  1 <1>   0.0830 
  7 C       -1.5620     2.5990    -2.6280 C.ar  1 <1>  -0.1500 
  8 C       -3.4290    -2.1870     0.3110 C.ar  1 <1>   0.1000 
  9 C       -1.1170    -2.4280    -0.3240 C.ar  1 <1>  -0.1500 
 10 O       -2.2870     2.1740     0.9130 O.3   1 <1>  -0.3630 
 11 C       -2.4350     4.0860    -0.4590 C.ar  1 <1>  -0.1440 
 12 C       -1.8490     3.9400    -2.7820 C.ar  1 <1>  -0.1500 
 13 N       -4.6290    -1.4660     0.4350 N.pl3 1 <1>  -0.8380 
 14 C       -3.4250    -3.5080     0.7310 C.ar  1 <1>  -0.1500 
 15 C       -1.1310    -3.7470     0.0980 C.ar  1 <1>  -0.1500 
 16 C       -1.1070     1.9390     1.6540 C.3   1 <1>   0.0400 
 17 C       -2.2870     4.6810    -1.6990 C.ar  1 <1>  -0.1500 
 18 C       -2.8950     4.9520     0.7070 C.3   1 <1>  -0.0970 
 19 C       -5.3700    -1.1460    -0.8260 C.3   1 <1>   0.2090 
 20 C       -4.7330    -0.4270     1.5050 C.3   1 <1>   0.2090 
 21 C       -2.2870    -4.2890     0.6280 C.ar  1 <1>  -0.1500 
 22 C       -6.8280    -0.7670    -0.5250 C.3   1 <1>   0.1400 
 23 C       -6.1990    -0.0310     1.7630 C.3   1 <1>   0.1400 
 24 N       -6.8910     0.3380     0.4840 N.am  1 <1>  -0.6600 
 25 C       -7.3900     1.5740     0.1480 C.2   1 <1>   0.5690 
 26 O       -7.7750     1.8010    -0.9760 O.2   1 <1>  -0.5700 
 27 C       -7.4570     2.7150     1.1790 C.3   1 <1>  -0.0190 
 28 C       -8.5890     3.7190     0.8910 C.3   1 <1>  -0.2400 
 29 C       -6.1190     3.4680     1.2530 C.3   1 <1>  -0.2400 
 30 H       -3.1250     0.1780    -0.2930 H     1 <1>   0.3700 
 31 H       -1.2160     2.0280    -3.4730 H     1 <1>   0.1500 
 32 H       -0.2080    -2.0250    -0.7280 H     1 <1>   0.1500 
 33 H       -1.7320     4.4120    -3.7430 H     1 <1>   0.1500 
 34 H       -4.3280    -3.9220     1.1390 H     1 <1>   0.1500 
 35 H       -0.2420    -4.3470     0.0120 H     1 <1>   0.1500 
 36 H       -0.5020     1.2110     1.1430 H     1 <1>   0.0800 
 37 H       -1.3850     1.5670     2.6230 H     1 <1>   0.0800 
 38 H       -0.5690     2.8660     1.7540 H     1 <1>   0.0800 
 39 H       -2.5070     5.7270    -1.8300 H     1 <1>   0.1500 
 40 H       -3.3510     4.3630     1.4800 H     1 <1>   0.0800 
 41 H       -3.6150     5.6770     0.3720 H     1 <1>   0.0800 
 42 H       -2.0510     5.4700     1.1260 H     1 <1>   0.0800 
 43 H       -5.3490    -2.0010    -1.4780 H     1 <1>   0.0800 
 44 H       -4.8950    -0.3260    -1.3350 H     1 <1>   0.0800 
 45 H       -4.1850     0.4510     1.2170 H     1 <1>   0.0800 
 46 H       -4.2980    -0.8080     2.4130 H     1 <1>   0.0800 
 47 H       -2.3030    -5.3130     0.9570 H     1 <1>   0.1500 
 48 H       -7.3430    -1.6280    -0.1390 H     1 <1>   0.0800 
 49 H       -7.3140    -0.4800    -1.4410 H     1 <1>   0.0800 
 50 H       -6.2180     0.7750     2.4700 H     1 <1>   0.0800 
 51 H       -6.7100    -0.8680     2.2060 H     1 <1>   0.0800 
 52 H       -7.6720     2.2880     2.1410 H     1 <1>   0.0800 
 53 H       -8.4220     4.2150    -0.0500 H     1 <1>   0.0800 
 54 H       -8.6470     4.4600     1.6670 H     1 <1>   0.0800 
 55 H       -9.5320     3.2030     0.8360 H     1 <1>   0.0800 
 56 H       -5.9010     3.9220     0.3020 H     1 <1>   0.0800 
 57 H       -5.3180     2.7930     1.4940 H     1 <1>   0.0800 
 58 H       -6.1580     4.2370     2.0040 H     1 <1>   0.0800 
@<TRIPOS>BOND
  1   1   2  2   
  2   2   3  am  
  3   2   4  1   
  4   3   5  1   
  5   3  30  1   
  6   4   6  ar  
  7   4   7  ar  
  8   5   8  ar  
  9   5   9  ar  
 10   6  10  1   
 11   6  11  ar  
 12   7  12  ar  
 13   7  31  1   
 14   8  13  1   
 15   8  14  ar  
 16   9  15  ar  
 17   9  32  1   
 18  10  16  1   
 19  11  17  ar  
 20  11  18  1   
 21  12  17  ar  
 22  12  33  1   
 23  13  19  1   
 24  13  20  1   
 25  14  21  ar  
 26  14  34  1   
 27  15  21  ar  
 28  15  35  1   
 29  16  36  1   
 30  16  37  1   
 31  16  38  1   
 32  17  39  1   
 33  18  40  1   
 34  18  41  1   
 35  18  42  1   
 36  19  22  1   
 37  19  43  1   
 38  19  44  1   
 39  20  23  1   
 40  20  45  1   
 41  20  46  1   
 42  21  47  1   
 43  22  24  1   
 44  22  48  1   
 45  22  49  1   
 46  23  24  1   
 47  23  50  1   
 48  23  51  1   
 49  24  25  am  
 50  25  26  2   
 51  25  27  1   
 52  27  28  1   
 53  27  29  1   
 54  27  52  1   
 55  28  53  1   
 56  28  54  1   
 57  28  55  1   
 58  29  56  1   
 59  29  57  1   
 60  29  58  1   
@<TRIPOS>SUBSTRUCTURE
  1 ****   3 GROUP 4 **** **** 0

# MOE 2024.06 (io_trps.svl 2023.06)
