@<TRIPOS>MOLECULE
NONAME
52 55 1 0 0 
SMALL
USER_CHARGES


@<TRIPOS>ATOM
  1 CL      -1.4230     0.5800    -2.0400 Cl    1 <1>  -0.1770 
  2 C       -2.5770    -0.6430    -1.5680 C.ar  1 <1>   0.1770 
  3 C       -2.1890    -1.9680    -1.5370 C.ar  1 <1>  -0.1500 
  4 C       -3.8640    -0.2680    -1.2320 C.ar  1 <1>  -0.1500 
  5 C       -3.1070    -2.9340    -1.1620 C.ar  1 <1>  -0.1500 
  6 C       -4.7760    -1.2410    -0.8580 C.ar  1 <1>  -0.1500 
  7 C       -4.4120    -2.5860    -0.8180 C.ar  1 <1>   0.1170 
  8 N       -5.3480    -3.5760    -0.4340 N.am  1 <1>  -0.2370 
  9 C       -6.1680    -3.5060     0.6600 C.2   1 <1>   0.5690 
 10 C       -5.5440    -4.7690    -1.0740 C.2   1 <1>   0.5690 
 11 O       -6.1830    -2.6170     1.4770 O.2   1 <1>  -0.5700 
 12 C       -7.0730    -4.7470     0.7680 C.3   1 <1>   0.2510 
 13 O       -4.9850    -5.1490    -2.0690 O.2   1 <1>  -0.5700 
 14 C       -6.5750    -5.6260    -0.3870 C.3   1 <1>  -0.0990 
 15 N       -8.5530    -4.5190     0.6300 N.3   1 <1>  -0.8100 
 16 C       -9.3340    -5.7360     0.9830 C.3   1 <1>   0.1100 
 17 C       -9.0290    -3.3680     1.4530 C.3   1 <1>   0.1100 
 18 C      -10.8550    -5.5530     0.7470 C.3   1 <1>   0.3430 
 19 C      -10.5700    -3.2280     1.4880 C.3   1 <1>   0.3430 
 20 N      -11.2060    -4.1200     0.4620 N.4   1 <1>  -0.9590 
 21 C      -12.6750    -3.9230     0.2790 C.3   1 <1>   0.3430 
 22 C      -13.0000    -2.5570    -0.3320 C.3   1 <1>  -0.0170 
 23 C      -14.4930    -2.4740    -0.5890 C.ar  1 <1>  -0.1430 
 24 C      -15.0480    -2.8660    -1.7910 C.ar  1 <1>  -0.1500 
 25 C      -15.3730    -2.0080     0.3680 C.ar  1 <1>  -0.1500 
 26 C      -16.4190    -2.7850    -1.9700 C.ar  1 <1>   0.1600 
 27 C      -16.7290    -1.9670     0.0870 C.ar  1 <1>   0.1600 
 28 N      -17.2700    -2.3500    -1.0570 N.ar  1 <1>  -0.6200 
 29 H       -1.1830    -2.2370    -1.8060 H     1 <1>   0.1500 
 30 H       -4.1430     0.7700    -1.2620 H     1 <1>   0.1500 
 31 H       -2.8050    -3.9670    -1.1440 H     1 <1>   0.1500 
 32 H       -5.7760    -0.9480    -0.5930 H     1 <1>   0.1500 
 33 H       -6.8650    -5.2200     1.7130 H     1 <1>   0.0800 
 34 H       -6.1040    -6.5190    -0.0210 H     1 <1>   0.0800 
 35 H       -7.3480    -5.8730    -1.0900 H     1 <1>   0.0800 
 36 H       -9.1700    -5.9820     2.0200 H     1 <1>   0.0800 
 37 H       -9.0000    -6.5780     0.4010 H     1 <1>   0.0800 
 38 H       -8.6300    -2.4540     1.0450 H     1 <1>   0.0800 
 39 H       -8.6610    -3.4520     2.4630 H     1 <1>   0.0800 
 40 H      -11.3900    -5.9020     1.6140 H     1 <1>   0.0800 
 41 H      -11.1510    -6.1680    -0.0870 H     1 <1>   0.0800 
 42 H      -10.8280    -2.1980     1.3080 H     1 <1>   0.0800 
 43 H      -10.9270    -3.4890     2.4710 H     1 <1>   0.0800 
 44 H      -10.7020    -3.9080    -0.4130 H     1 <1>   0.4500 
 45 H      -13.1820    -4.0210     1.2250 H     1 <1>   0.0800 
 46 H      -13.0590    -4.6850    -0.3800 H     1 <1>   0.0800 
 47 H      -12.4730    -2.4320    -1.2610 H     1 <1>   0.0800 
 48 H      -12.7160    -1.7630     0.3350 H     1 <1>   0.0800 
 49 H      -14.4390    -3.2320    -2.5980 H     1 <1>   0.1500 
 50 H      -15.0310    -1.6710     1.3290 H     1 <1>   0.1500 
 51 H      -16.8390    -3.0930    -2.9130 H     1 <1>   0.1500 
 52 H      -17.4060    -1.6000     0.8410 H     1 <1>   0.1500 
@<TRIPOS>BOND
  1   1   2  1   
  2   2   3  ar  
  3   2   4  ar  
  4   3   5  ar  
  5   3  29  1   
  6   4   6  ar  
  7   4  30  1   
  8   5   7  ar  
  9   5  31  1   
 10   6   7  ar  
 11   6  32  1   
 12   7   8  1   
 13   8   9  am  
 14   8  10  am  
 15   9  11  2   
 16   9  12  1   
 17  10  13  2   
 18  10  14  1   
 19  12  14  1   
 20  12  15  1   
 21  12  33  1   
 22  14  34  1   
 23  14  35  1   
 24  15  16  1   
 25  15  17  1   
 26  16  18  1   
 27  16  36  1   
 28  16  37  1   
 29  17  19  1   
 30  17  38  1   
 31  17  39  1   
 32  18  20  1   
 33  18  40  1   
 34  18  41  1   
 35  19  20  1   
 36  19  42  1   
 37  19  43  1   
 38  20  21  1   
 39  20  44  1   
 40  21  22  1   
 41  21  45  1   
 42  21  46  1   
 43  22  23  1   
 44  22  47  1   
 45  22  48  1   
 46  23  24  ar  
 47  23  25  ar  
 48  24  26  ar  
 49  24  49  1   
 50  25  27  ar  
 51  25  50  1   
 52  26  28  ar  
 53  26  51  1   
 54  27  28  ar  
 55  27  52  1   
@<TRIPOS>SUBSTRUCTURE
  1 ****  15 GROUP 4 **** **** 0

# MOE 2024.06 (io_trps.svl 2023.06)
