@<TRIPOS>MOLECULE
NONAME
39 41 1 0 0 
SMALL
USER_CHARGES


@<TRIPOS>ATOM
  1 S       -0.7170    -0.1690     1.5270 S.3   1 <1>  -0.1970 
  2 C        0.6060     0.9490     1.3130 C.2   1 <1>   0.2420 
  3 C        0.1930    -1.3880     0.5820 C.2   1 <1>   0.5050 
  4 N        0.8610     2.1610     1.6530 N.2   1 <1>  -0.3380 
  5 N        1.5520     0.3490     0.6160 N.pl3 1 <1>   0.5050 
  6 N        1.3460    -0.9660     0.1990 N.2   1 <1>  -0.6520 
  7 C       -0.3990    -2.6890     0.3810 C.ar  1 <1>   0.0860 
  8 N        2.0850     2.4000     1.1420 N.2   1 <1>  -0.3380 
  9 C        2.4760     1.3210     0.5340 C.2   1 <1>   0.0060 
 10 C       -1.7330    -2.8880    -0.0270 C.ar  1 <1>   0.1170 
 11 C        0.4050    -3.8140     0.5840 C.ar  1 <1>  -0.1500 
 12 C        3.8010     1.1520    -0.1850 C.3   1 <1>  -0.0600 
 13 N       -2.5940    -1.8040    -0.2810 N.am  1 <1>  -0.5470 
 14 C       -2.2060    -4.1890    -0.1790 C.ar  1 <1>  -0.1500 
 15 C       -0.0800    -5.0960     0.4200 C.ar  1 <1>  -0.1500 
 16 C       -3.5990    -1.6660    -1.1980 C.2   1 <1>   0.5690 
 17 C       -1.3950    -5.2840     0.0400 C.ar  1 <1>  -0.1500 
 18 O       -3.8930    -2.5170    -1.9980 O.2   1 <1>  -0.5700 
 19 C       -4.3620    -0.3550    -1.2090 C.3   1 <1>  -0.0990 
 20 C       -5.1910    -0.1450     0.0690 C.3   1 <1>  -0.1600 
 21 C       -5.9630     1.1790     0.0190 C.3   1 <1>  -0.1600 
 22 C       -6.7850     1.3840     1.2940 C.3   1 <1>  -0.2400 
 23 H        1.4330    -3.6790     0.8760 H     1 <1>   0.1500 
 24 H        4.3660     0.3580     0.2680 H     1 <1>   0.0800 
 25 H        4.3700     2.0620    -0.1250 H     1 <1>   0.0800 
 26 H        3.6300     0.9160    -1.2200 H     1 <1>   0.0800 
 27 H       -2.4470    -0.9750     0.2960 H     1 <1>   0.3700 
 28 H       -3.2260    -4.3540    -0.4790 H     1 <1>   0.1500 
 29 H        0.5590    -5.9470     0.5850 H     1 <1>   0.1500 
 30 H       -1.7840    -6.2800    -0.0900 H     1 <1>   0.1500 
 31 H       -5.0170    -0.3530    -2.0630 H     1 <1>   0.0800 
 32 H       -3.6620     0.4510    -1.3330 H     1 <1>   0.0800 
 33 H       -4.5450    -0.1460     0.9300 H     1 <1>   0.0800 
 34 H       -5.8870    -0.9610     0.1750 H     1 <1>   0.0800 
 35 H       -6.6250     1.1810    -0.8310 H     1 <1>   0.0800 
 36 H       -5.2750     2.0000    -0.0920 H     1 <1>   0.0800 
 37 H       -7.4970     0.5860     1.4160 H     1 <1>   0.0800 
 38 H       -7.3230     2.3140     1.2390 H     1 <1>   0.0800 
 39 H       -6.1430     1.4120     2.1570 H     1 <1>   0.0800 
@<TRIPOS>BOND
  1   1   2  1   
  2   1   3  1   
  3   2   4  2   
  4   2   5  1   
  5   3   6  2   
  6   3   7  1   
  7   4   8  1   
  8   5   6  1   
  9   5   9  1   
 10   7  10  ar  
 11   7  11  ar  
 12   8   9  2   
 13   9  12  1   
 14  10  13  1   
 15  10  14  ar  
 16  11  15  ar  
 17  11  23  1   
 18  12  24  1   
 19  12  25  1   
 20  12  26  1   
 21  13  16  am  
 22  13  27  1   
 23  14  17  ar  
 24  14  28  1   
 25  15  17  ar  
 26  15  29  1   
 27  16  18  2   
 28  16  19  1   
 29  17  30  1   
 30  19  20  1   
 31  19  31  1   
 32  19  32  1   
 33  20  21  1   
 34  20  33  1   
 35  20  34  1   
 36  21  22  1   
 37  21  35  1   
 38  21  36  1   
 39  22  37  1   
 40  22  38  1   
 41  22  39  1   
@<TRIPOS>SUBSTRUCTURE
  1 ****   3 GROUP 4 **** **** 0

# MOE 2024.06 (io_trps.svl 2023.06)
