@<TRIPOS>MOLECULE
NONAME
51 53 1 0 0 
SMALL
USER_CHARGES


@<TRIPOS>ATOM
  1 O        1.4360    -0.8860    -1.8980 O.2   1 <1>  -0.5700 
  2 C        1.9480    -1.2540    -0.8670 C.2   1 <1>   0.5690 
  3 N        2.8190    -0.4570    -0.1780 N.am  1 <1>  -0.6600 
  4 C        1.5820    -2.6580    -0.3750 C.3   1 <1>  -0.0190 
  5 C        3.1430     0.9120    -0.6430 C.3   1 <1>   0.1400 
  6 C        3.5630    -0.7760     1.0630 C.3   1 <1>   0.1400 
  7 C        2.1190    -3.7200    -1.3530 C.3   1 <1>  -0.1600 
  8 C        0.0550    -2.7970    -0.2160 C.3   1 <1>  -0.1600 
  9 C        3.9140     1.5470     0.5080 C.3   1 <1>  -0.1600 
 10 C        4.5560     0.3690     1.2330 C.3   1 <1>  -0.1600 
 11 C        1.6510    -5.1280    -0.9960 C.3   1 <1>   0.3430 
 12 C       -0.3640    -4.2260     0.1200 C.3   1 <1>   0.3430 
 13 N        0.1610    -5.1510    -0.9230 N.4   1 <1>  -0.9590 
 14 C       -0.3710    -6.5540    -0.8100 C.3   1 <1>   0.3430 
 15 C       -0.0740    -7.2700     0.5260 C.3   1 <1>   0.0630 
 16 C        0.1510    -8.7470     0.2280 C.ar  1 <1>  -0.1440 
 17 C       -1.1970    -7.1060     1.5630 C.3   1 <1>  -0.2400 
 18 C       -0.8520    -9.5260    -0.3340 C.ar  1 <1>  -0.1500 
 19 C        1.3790    -9.3300     0.5080 C.ar  1 <1>  -0.1500 
 20 C       -0.6270   -10.8620    -0.6180 C.ar  1 <1>  -0.1500 
 21 C        1.6040   -10.6650     0.2240 C.ar  1 <1>  -0.1500 
 22 C        0.6020   -11.4320    -0.3410 C.ar  1 <1>  -0.1500 
 23 H        2.0280    -2.8300     0.5860 H     1 <1>   0.0800 
 24 H        2.2460     1.4630    -0.8740 H     1 <1>   0.0800 
 25 H        3.7600     0.8470    -1.5230 H     1 <1>   0.0800 
 26 H        4.0740    -1.7190     0.9820 H     1 <1>   0.0800 
 27 H        2.8760    -0.7950     1.8930 H     1 <1>   0.0800 
 28 H        3.1950    -3.6940    -1.3490 H     1 <1>   0.0800 
 29 H        1.8020    -3.4890    -2.3560 H     1 <1>   0.0800 
 30 H       -0.4420    -2.4930    -1.1220 H     1 <1>   0.0800 
 31 H       -0.2810    -2.1370     0.5650 H     1 <1>   0.0800 
 32 H        3.2200     2.0470     1.1600 H     1 <1>   0.0800 
 33 H        4.6400     2.2590     0.1560 H     1 <1>   0.0800 
 34 H        5.4810     0.1050     0.7510 H     1 <1>   0.0800 
 35 H        4.7500     0.5830     2.2690 H     1 <1>   0.0800 
 36 H        2.0710    -5.4180    -0.0460 H     1 <1>   0.0800 
 37 H        1.9960    -5.8220    -1.7460 H     1 <1>   0.0800 
 38 H       -1.4400    -4.2840     0.1610 H     1 <1>   0.0800 
 39 H        0.0300    -4.5000     1.0850 H     1 <1>   0.0800 
 40 H       -0.1680    -4.7760    -1.8260 H     1 <1>   0.4500 
 41 H        0.0630    -7.1450    -1.6010 H     1 <1>   0.0800 
 42 H       -1.4370    -6.5540    -0.9680 H     1 <1>   0.0800 
 43 H        0.8330    -6.8800     0.9510 H     1 <1>   0.0800 
 44 H       -2.1420    -7.4350     1.1660 H     1 <1>   0.0800 
 45 H       -1.2960    -6.0880     1.8870 H     1 <1>   0.0800 
 46 H       -0.9760    -7.7080     2.4290 H     1 <1>   0.0800 
 47 H       -1.8210    -9.1140    -0.5540 H     1 <1>   0.1500 
 48 H        2.1760    -8.7590     0.9530 H     1 <1>   0.1500 
 49 H       -1.4080   -11.4620    -1.0530 H     1 <1>   0.1500 
 50 H        2.5590   -11.1120     0.4440 H     1 <1>   0.1500 
 51 H        0.7770   -12.4710    -0.5620 H     1 <1>   0.1500 
@<TRIPOS>BOND
  1   1   2  2   
  2   2   3  am  
  3   2   4  1   
  4   3   5  1   
  5   3   6  1   
  6   4   7  1   
  7   4   8  1   
  8   4  23  1   
  9   5   9  1   
 10   5  24  1   
 11   5  25  1   
 12   6  10  1   
 13   6  26  1   
 14   6  27  1   
 15   7  11  1   
 16   7  28  1   
 17   7  29  1   
 18   8  12  1   
 19   8  30  1   
 20   8  31  1   
 21   9  10  1   
 22   9  32  1   
 23   9  33  1   
 24  10  34  1   
 25  10  35  1   
 26  11  13  1   
 27  11  36  1   
 28  11  37  1   
 29  12  13  1   
 30  12  38  1   
 31  12  39  1   
 32  13  14  1   
 33  13  40  1   
 34  14  15  1   
 35  14  41  1   
 36  14  42  1   
 37  15  16  1   
 38  15  17  1   
 39  15  43  1   
 40  16  18  ar  
 41  16  19  ar  
 42  17  44  1   
 43  17  45  1   
 44  17  46  1   
 45  18  20  ar  
 46  18  47  1   
 47  19  21  ar  
 48  19  48  1   
 49  20  22  ar  
 50  20  49  1   
 51  21  22  ar  
 52  21  50  1   
 53  22  51  1   
@<TRIPOS>SUBSTRUCTURE
  1 ****  11 GROUP 4 **** **** 0

# MOE 2024.06 (io_trps.svl 2023.06)
