@<TRIPOS>MOLECULE
NONAME
46 49 1 0 0 
SMALL
USER_CHARGES


@<TRIPOS>ATOM
  1 S       -0.0160    -0.0230     0.2010 S.3   1 <1>  -0.0800 
  2 C       -1.6250     0.6750     0.3470 C.ar  1 <1>   0.2970 
  3 C        0.7790     1.5740     0.2770 C.2   1 <1>  -0.0450 
  4 N       -2.7000    -0.0920     0.3500 N.ar  1 <1>  -0.5670 
  5 C       -1.5400     2.0560     0.4490 C.ar  1 <1>   0.0000 
  6 C       -0.1790     2.5390     0.4050 C.2   1 <1>   0.0830 
  7 C        2.1990     1.6420     0.2020 C.2   1 <1>   0.8050 
  8 C       -3.8260     0.5920     0.4650 C.ar  1 <1>   0.2780 
  9 C       -2.7450     2.7540     0.5760 C.ar  1 <1>   0.0000 
 10 N        0.1170     3.8830     0.4860 N.pl3 1 <1>  -0.8830 
 11 O        2.8280     2.6880     0.2570 O.2   1 <1>  -0.5700 
 12 O        2.8860     0.4990     0.0670 O.3   1 <1>  -0.4300 
 13 C       -3.8910     1.9740     0.5810 C.ar  1 <1>  -0.1500 
 14 C       -5.1080    -0.2250     0.4720 C.3   1 <1>  -0.0680 
 15 C       -2.8250     4.1860     0.6950 C.ar  1 <1>   0.0000 
 16 C        4.2930     0.4890    -0.0130 C.3   1 <1>   0.1200 
 17 C       -5.5520    -0.9240    -0.7770 C.3   1 <1>  -0.2000 
 18 C       -6.3490     0.2250    -0.2430 C.3   1 <1>  -0.2000 
 19 C       -2.7570     4.8040     1.9390 C.ar  1 <1>  -0.1500 
 20 C       -2.9500     4.9910    -0.4340 C.ar  1 <1>  -0.1500 
 21 C        4.7460    -0.9600    -0.1620 C.3   1 <1>  -0.2400 
 22 C       -2.8060     6.1810     2.0510 C.ar  1 <1>  -0.1500 
 23 C       -3.0000     6.3690    -0.3290 C.ar  1 <1>  -0.1500 
 24 C       -2.9260     6.9750     0.9230 C.ar  1 <1>   0.0830 
 25 O       -2.9630     8.3140     1.1160 O.3   1 <1>  -0.3630 
 26 C       -3.0980     9.2150     0.0400 C.3   1 <1>   0.0400 
 27 H       -0.6110     4.5980     0.6270 H     1 <1>   0.4000 
 28 H        1.0910     4.2180     0.4870 H     1 <1>   0.4000 
 29 H       -4.8460     2.4540     0.6810 H     1 <1>   0.1500 
 30 H       -5.2260    -0.7680     1.3940 H     1 <1>   0.1000 
 31 H        4.6910     0.9270     0.8870 H     1 <1>   0.0800 
 32 H        4.5920     1.0760    -0.8650 H     1 <1>   0.0800 
 33 H       -5.9420    -1.9230    -0.6890 H     1 <1>   0.1000 
 34 H       -4.9620    -0.7880    -1.6670 H     1 <1>   0.1000 
 35 H       -6.3450     1.1410    -0.8070 H     1 <1>   0.1000 
 36 H       -7.3050     0.0240     0.2100 H     1 <1>   0.1000 
 37 H       -2.6590     4.1980     2.8230 H     1 <1>   0.1500 
 38 H       -3.0020     4.5260    -1.4030 H     1 <1>   0.1500 
 39 H        4.4310    -1.5360     0.6900 H     1 <1>   0.0800 
 40 H        5.8180    -1.0010    -0.2250 H     1 <1>   0.0800 
 41 H        4.3330    -1.3870    -1.0580 H     1 <1>   0.0800 
 42 H       -2.7510     6.6520     3.0170 H     1 <1>   0.1500 
 43 H       -3.0950     6.9530    -1.2240 H     1 <1>   0.1500 
 44 H       -3.1100    10.2130     0.4400 H     1 <1>   0.0800 
 45 H       -4.0240     9.0140    -0.4690 H     1 <1>   0.0800 
 46 H       -2.2590     9.0970    -0.6220 H     1 <1>   0.0800 
@<TRIPOS>BOND
  1   1   2  1   
  2   1   3  1   
  3   2   4  ar  
  4   2   5  ar  
  5   3   6  2   
  6   3   7  1   
  7   4   8  ar  
  8   5   6  1   
  9   5   9  ar  
 10   6  10  1   
 11   7  11  2   
 12   7  12  1   
 13   8  13  ar  
 14   8  14  1   
 15   9  13  ar  
 16   9  15  1   
 17  10  27  1   
 18  10  28  1   
 19  12  16  1   
 20  13  29  1   
 21  14  17  1   
 22  14  18  1   
 23  14  30  1   
 24  15  19  ar  
 25  15  20  ar  
 26  16  21  1   
 27  16  31  1   
 28  16  32  1   
 29  17  18  1   
 30  17  33  1   
 31  17  34  1   
 32  18  35  1   
 33  18  36  1   
 34  19  22  ar  
 35  19  37  1   
 36  20  23  ar  
 37  20  38  1   
 38  21  39  1   
 39  21  40  1   
 40  21  41  1   
 41  22  24  ar  
 42  22  42  1   
 43  23  24  ar  
 44  23  43  1   
 45  24  25  1   
 46  25  26  1   
 47  26  44  1   
 48  26  45  1   
 49  26  46  1   
@<TRIPOS>SUBSTRUCTURE
  1 ****   5 GROUP 4 **** **** 0

# MOE 2024.06 (io_trps.svl 2023.06)
