@<TRIPOS>MOLECULE
NONAME
43 43 1 0 0 
SMALL
USER_CHARGES


@<TRIPOS>ATOM
  1 O        1.1160    -0.4110     0.1080 O.3   1 <1>  -0.3630 
  2 C       -0.1180    -0.8940    -0.1940 C.ar  1 <1>   0.0830 
  3 C        1.5050     0.9010    -0.2240 C.3   1 <1>   0.1200 
  4 C       -0.4070    -2.2090     0.1660 C.ar  1 <1>  -0.1440 
  5 C       -1.0860    -0.1270    -0.8410 C.ar  1 <1>  -0.1500 
  6 C        2.9470     1.0860     0.2490 C.3   1 <1>  -0.1600 
  7 C       -1.6570    -2.7350    -0.1230 C.ar  1 <1>  -0.1500 
  8 C        0.6140    -3.0910     0.8760 C.3   1 <1>  -0.0160 
  9 C       -2.3270    -0.6660    -1.1250 C.ar  1 <1>  -0.1500 
 10 C        3.8140    -0.0740    -0.2350 C.3   1 <1>   0.3430 
 11 C       -2.6130    -1.9700    -0.7670 C.ar  1 <1>  -0.1500 
 12 C        0.6080    -2.8230     2.3830 C.3   1 <1>  -0.2400 
 13 N        5.1830     0.0680     0.3230 N.4   1 <1>  -0.9060 
 14 C        6.1340    -0.9970    -0.0030 C.3   1 <1>   0.5030 
 15 C        6.3410    -1.0600    -1.5160 C.3   1 <1>  -0.2400 
 16 C        7.4440    -0.6250     0.6840 C.3   1 <1>  -0.2400 
 17 C        5.6240    -2.3320     0.5390 C.3   1 <1>  -0.2400 
 18 H        0.8430     1.5920     0.2710 H     1 <1>   0.0800 
 19 H        1.4280     1.0150    -1.2920 H     1 <1>   0.0800 
 20 H       -0.9010     0.8890    -1.1310 H     1 <1>   0.1500 
 21 H        2.9420     1.1240     1.3240 H     1 <1>   0.0800 
 22 H        3.3180     2.0210    -0.1310 H     1 <1>   0.0800 
 23 H       -1.8960    -3.7470     0.1530 H     1 <1>   0.1500 
 24 H        1.5950    -2.9100     0.4760 H     1 <1>   0.0800 
 25 H        0.3840    -4.1270     0.7000 H     1 <1>   0.0800 
 26 H       -3.0730    -0.0720    -1.6250 H     1 <1>   0.1500 
 27 H        3.8440    -0.0790    -1.3130 H     1 <1>   0.0800 
 28 H        3.3770    -1.0030     0.0950 H     1 <1>   0.0800 
 29 H       -3.5790    -2.3890    -0.9860 H     1 <1>   0.1500 
 30 H        0.8550    -1.7950     2.5790 H     1 <1>   0.0800 
 31 H        1.3230    -3.4550     2.8770 H     1 <1>   0.0800 
 32 H       -0.3680    -3.0230     2.7880 H     1 <1>   0.0800 
 33 H        5.1170     0.1120     1.3440 H     1 <1>   0.4500 
 34 H        5.5890     0.9540     0.0110 H     1 <1>   0.4500 
 35 H        6.6530    -0.1080    -1.9060 H     1 <1>   0.0800 
 36 H        5.4500    -1.3800    -2.0250 H     1 <1>   0.0800 
 37 H        7.1110    -1.7760    -1.7460 H     1 <1>   0.0800 
 38 H        8.1890    -1.3740     0.4800 H     1 <1>   0.0800 
 39 H        7.8210     0.3150     0.3210 H     1 <1>   0.0800 
 40 H        7.3220    -0.5700     1.7510 H     1 <1>   0.0800 
 41 H        5.4250    -2.2720     1.5950 H     1 <1>   0.0800 
 42 H        6.3710    -3.0920     0.3900 H     1 <1>   0.0800 
 43 H        4.7360    -2.6560     0.0280 H     1 <1>   0.0800 
@<TRIPOS>BOND
  1   1   2  1   
  2   1   3  1   
  3   2   4  ar  
  4   2   5  ar  
  5   3   6  1   
  6   3  18  1   
  7   3  19  1   
  8   4   7  ar  
  9   4   8  1   
 10   5   9  ar  
 11   5  20  1   
 12   6  10  1   
 13   6  21  1   
 14   6  22  1   
 15   7  11  ar  
 16   7  23  1   
 17   8  12  1   
 18   8  24  1   
 19   8  25  1   
 20   9  11  ar  
 21   9  26  1   
 22  10  13  1   
 23  10  27  1   
 24  10  28  1   
 25  11  29  1   
 26  12  30  1   
 27  12  31  1   
 28  12  32  1   
 29  13  14  1   
 30  13  33  1   
 31  13  34  1   
 32  14  15  1   
 33  14  16  1   
 34  14  17  1   
 35  15  35  1   
 36  15  36  1   
 37  15  37  1   
 38  16  38  1   
 39  16  39  1   
 40  16  40  1   
 41  17  41  1   
 42  17  42  1   
 43  17  43  1   
@<TRIPOS>SUBSTRUCTURE
  1 ****   1 GROUP 4 **** **** 0

# MOE 2024.06 (io_trps.svl 2023.06)
