@<TRIPOS>MOLECULE
NONAME
45 47 1 0 0 
SMALL
USER_CHARGES


@<TRIPOS>ATOM
  1 O       -0.3890    -0.3990    -0.5420 O.3   1 <1>  -0.3630 
  2 C       -1.7220    -0.3470    -0.2550 C.ar  1 <1>   0.0830 
  3 C        0.4800     0.6550    -0.1940 C.3   1 <1>   0.0400 
  4 C       -2.5770    -1.2360    -0.9100 C.ar  1 <1>   0.0830 
  5 C       -2.2580     0.5530     0.6610 C.ar  1 <1>  -0.1500 
  6 O       -2.1130    -2.1350    -1.8130 O.3   1 <1>  -0.3630 
  7 C       -3.9360    -1.2080    -0.6600 C.ar  1 <1>  -0.1500 
  8 C       -3.6280     0.5740     0.9170 C.ar  1 <1>   0.0830 
  9 C       -1.5000    -3.2770    -1.2640 C.3   1 <1>   0.0400 
 10 C       -4.4720    -0.3100     0.2520 C.ar  1 <1>  -0.1440 
 11 O       -4.1980     1.4350     1.8080 O.3   1 <1>  -0.3630 
 12 C       -5.9700    -0.2990     0.5280 C.3   1 <1>   0.8020 
 13 C       -3.4220     2.3430     2.5600 C.3   1 <1>   0.0400 
 14 N       -6.3890    -1.5610     1.2110 N.pl3 1 <1>  -0.8380 
 15 N       -6.7600    -0.2580    -0.7420 N.pl3 1 <1>  -0.8380 
 16 C       -7.4360    -2.0770     0.4580 C.ar  1 <1>   0.1000 
 17 C       -6.6200    -1.4050     2.6640 C.3   1 <1>   0.1290 
 18 C       -7.6520    -1.3210    -0.6760 C.ar  1 <1>   0.1000 
 19 C       -7.3230     1.0730    -1.0600 C.3   1 <1>   0.1290 
 20 C       -8.2200    -3.1870     0.7220 C.ar  1 <1>  -0.1500 
 21 C       -8.6540    -1.6610    -1.5680 C.ar  1 <1>  -0.1500 
 22 C       -9.2320    -3.5300    -0.1650 C.ar  1 <1>  -0.1500 
 23 C       -9.4480    -2.7690    -1.3060 C.ar  1 <1>  -0.1500 
 24 H        0.5790     0.6880     0.8760 H     1 <1>   0.0800 
 25 H        1.4370     0.4580    -0.6420 H     1 <1>   0.0800 
 26 H        0.0810     1.5770    -0.5770 H     1 <1>   0.0800 
 27 H       -1.6080     1.2290     1.1730 H     1 <1>   0.1500 
 28 H       -4.5870    -1.8930    -1.1760 H     1 <1>   0.1500 
 29 H       -0.6280    -2.9760    -0.7120 H     1 <1>   0.0800 
 30 H       -2.2040    -3.7700    -0.6170 H     1 <1>   0.0800 
 31 H       -1.2200    -3.9280    -2.0710 H     1 <1>   0.0800 
 32 H       -6.2430     0.5440     1.1380 H     1 <1>   0.0800 
 33 H       -4.0840     2.8990     3.1990 H     1 <1>   0.0800 
 34 H       -2.9170     3.0130     1.8870 H     1 <1>   0.0800 
 35 H       -2.7180     1.7900     3.1580 H     1 <1>   0.0800 
 36 H       -5.7970    -0.8730     3.1110 H     1 <1>   0.0800 
 37 H       -6.6910    -2.3750     3.1230 H     1 <1>   0.0800 
 38 H       -7.5340    -0.8640     2.8370 H     1 <1>   0.0800 
 39 H       -6.5610     1.8270    -0.9590 H     1 <1>   0.0800 
 40 H       -8.1400     1.2960    -0.3960 H     1 <1>   0.0800 
 41 H       -7.6800     1.0790    -2.0750 H     1 <1>   0.0800 
 42 H       -8.0350    -3.7730     1.6020 H     1 <1>   0.1500 
 43 H       -8.8030    -1.0720    -2.4520 H     1 <1>   0.1500 
 44 H       -9.8460    -4.3900     0.0320 H     1 <1>   0.1500 
 45 H      -10.2290    -3.0410    -1.9930 H     1 <1>   0.1500 
@<TRIPOS>BOND
  1   1   2  1   
  2   1   3  1   
  3   2   4  ar  
  4   2   5  ar  
  5   3  24  1   
  6   3  25  1   
  7   3  26  1   
  8   4   6  1   
  9   4   7  ar  
 10   5   8  ar  
 11   5  27  1   
 12   6   9  1   
 13   7  10  ar  
 14   7  28  1   
 15   8  10  ar  
 16   8  11  1   
 17   9  29  1   
 18   9  30  1   
 19   9  31  1   
 20  10  12  1   
 21  11  13  1   
 22  12  14  1   
 23  12  15  1   
 24  12  32  1   
 25  13  33  1   
 26  13  34  1   
 27  13  35  1   
 28  14  16  1   
 29  14  17  1   
 30  15  18  1   
 31  15  19  1   
 32  16  18  ar  
 33  16  20  ar  
 34  17  36  1   
 35  17  37  1   
 36  17  38  1   
 37  18  21  ar  
 38  19  39  1   
 39  19  40  1   
 40  19  41  1   
 41  20  22  ar  
 42  20  42  1   
 43  21  23  ar  
 44  21  43  1   
 45  22  23  ar  
 46  22  44  1   
 47  23  45  1   
@<TRIPOS>SUBSTRUCTURE
  1 ****  10 GROUP 4 **** **** 0

# MOE 2024.06 (io_trps.svl 2023.06)
