@<TRIPOS>MOLECULE
NONAME
45 46 1 0 0 
SMALL
USER_CHARGES


@<TRIPOS>ATOM
  1 O       -2.0000     0.8550     0.1550 O.3   1 <1>  -0.3630 
  2 C       -1.1490     1.8940     0.3880 C.ar  1 <1>   0.0820 
  3 C       -1.9700     0.1650    -1.0830 C.3   1 <1>   0.0400 
  4 C       -1.7170     3.0350     0.9510 C.ar  1 <1>  -0.1440 
  5 C        0.2190     1.8660     0.0910 C.ar  1 <1>  -0.1440 
  6 C       -0.9530     4.1740     1.1360 C.ar  1 <1>  -0.1500 
  7 C       -3.1680     3.0340     1.3740 C.3   1 <1>   0.4870 
  8 C        0.9700     3.0300     0.2550 C.ar  1 <1>   0.0820 
  9 C        0.9340     0.5880    -0.3600 C.3   1 <1>  -0.0970 
 10 C        0.3780     4.1770     0.7750 C.ar  1 <1>  -0.1500 
 11 N       -3.9720     2.9210     0.1440 N.4   1 <1>  -0.9060 
 12 O        2.2820     3.0020    -0.1050 O.3   1 <1>  -0.3620 
 13 C       -5.4300     2.8100     0.3960 C.3   1 <1>   0.3430 
 14 C        3.1460     4.1010     0.0870 C.3   1 <1>   0.0400 
 15 C       -6.1900     2.6160    -0.9140 C.3   1 <1>  -0.0170 
 16 C       -7.6700     2.5180    -0.6020 C.ar  1 <1>  -0.1430 
 17 C       -8.4610     3.6580    -0.5990 C.ar  1 <1>  -0.1500 
 18 C       -8.2430     1.2900    -0.3060 C.ar  1 <1>  -0.1500 
 19 C       -9.8080     3.5700    -0.2950 C.ar  1 <1>  -0.1500 
 20 C       -9.5900     1.2040    -0.0030 C.ar  1 <1>  -0.1500 
 21 C      -10.3730     2.3440     0.0040 C.ar  1 <1>  -0.1500 
 22 H       -1.3590    -0.7140    -0.9810 H     1 <1>   0.0800 
 23 H       -1.5770     0.8100    -1.8500 H     1 <1>   0.0800 
 24 H       -2.9720    -0.1360    -1.3320 H     1 <1>   0.0800 
 25 H       -1.3770     5.0680     1.5620 H     1 <1>   0.1500 
 26 H       -3.4060     3.9420     1.9030 H     1 <1>   0.0800 
 27 H       -3.3500     2.1900     2.0200 H     1 <1>   0.0800 
 28 H        0.4970    -0.2740     0.1090 H     1 <1>   0.0800 
 29 H        1.9700     0.5960    -0.0720 H     1 <1>   0.0800 
 30 H        0.8840     0.4890    -1.4290 H     1 <1>   0.0800 
 31 H        0.9430     5.0800     0.9150 H     1 <1>   0.1500 
 32 H       -3.6050     2.0730    -0.3130 H     1 <1>   0.4500 
 33 H       -3.7400     3.7100    -0.4690 H     1 <1>   0.4500 
 34 H       -5.7920     3.7030     0.8820 H     1 <1>   0.0800 
 35 H       -5.6310     1.9720     1.0440 H     1 <1>   0.0800 
 36 H        4.1270     3.8160    -0.2490 H     1 <1>   0.0800 
 37 H        3.1770     4.3430     1.1350 H     1 <1>   0.0800 
 38 H        2.7900     4.9330    -0.4940 H     1 <1>   0.0800 
 39 H       -5.8690     1.7130    -1.4040 H     1 <1>   0.0800 
 40 H       -6.0190     3.4470    -1.5750 H     1 <1>   0.0800 
 41 H       -8.0440     4.6220    -0.8330 H     1 <1>   0.1500 
 42 H       -7.6540     0.3890    -0.3100 H     1 <1>   0.1500 
 43 H      -10.4210     4.4560    -0.2940 H     1 <1>   0.1500 
 44 H      -10.0330     0.2490     0.2250 H     1 <1>   0.1500 
 45 H      -11.4220     2.2760     0.2380 H     1 <1>   0.1500 
@<TRIPOS>BOND
  1   1   2  1   
  2   1   3  1   
  3   2   4  ar  
  4   2   5  ar  
  5   3  22  1   
  6   3  23  1   
  7   3  24  1   
  8   4   6  ar  
  9   4   7  1   
 10   5   8  ar  
 11   5   9  1   
 12   6  10  ar  
 13   6  25  1   
 14   7  11  1   
 15   7  26  1   
 16   7  27  1   
 17   8  10  ar  
 18   8  12  1   
 19   9  28  1   
 20   9  29  1   
 21   9  30  1   
 22  10  31  1   
 23  11  13  1   
 24  11  32  1   
 25  11  33  1   
 26  12  14  1   
 27  13  15  1   
 28  13  34  1   
 29  13  35  1   
 30  14  36  1   
 31  14  37  1   
 32  14  38  1   
 33  15  16  1   
 34  15  39  1   
 35  15  40  1   
 36  16  17  ar  
 37  16  18  ar  
 38  17  19  ar  
 39  17  41  1   
 40  18  20  ar  
 41  18  42  1   
 42  19  21  ar  
 43  19  43  1   
 44  20  21  ar  
 45  20  44  1   
 46  21  45  1   
@<TRIPOS>SUBSTRUCTURE
  1 ****  11 GROUP 4 **** **** 0

# MOE 2024.06 (io_trps.svl 2023.06)
