@<TRIPOS>MOLECULE
NONAME
24 24 1 0 0 
SMALL
USER_CHARGES


@<TRIPOS>ATOM
  1 O       -0.5810     1.3820    -1.1990 O.2   1 <1>  -0.5700 
  2 C        0.5990     1.6930    -1.1610 C.2   1 <1>   0.7670 
  3 N        1.4360     1.0580    -2.0370 N.2   1 <1>  -0.6610 
  4 C        1.0960     2.6720    -0.2520 C.2   1 <1>   0.0790 
  5 C        2.6730     1.3780    -2.0230 C.2   1 <1>   0.4400 
  6 C        0.1460     3.2650     0.6340 C.1   1 <1>   0.4920 
  7 C        2.4270     2.9810    -0.2770 C.2   1 <1>  -0.0380 
  8 N        3.2250     2.3250    -1.1940 N.pl3 1 <1>  -0.5190 
  9 N       -0.5490     3.7850     1.3730 N.1   1 <1>  -0.5570 
 10 C        3.0710     4.0070     0.6590 C.3   1 <1>  -0.1020 
 11 C        4.7090     2.5400    -1.3330 C.3   1 <1>   0.2700 
 12 C        5.5320     1.4700    -0.6250 C.2   1 <1>   0.6590 
 13 O        6.0270     0.5560    -1.2340 O.2   1 <1>  -0.5700 
 14 O        5.6770     1.6050     0.6890 O.3   1 <1>  -0.4300 
 15 C        6.4030     0.6660     1.4560 C.3   1 <1>   0.0400 
 16 H        3.3420     0.8790    -2.7040 H     1 <1>   0.0600 
 17 H        3.4730     4.8270     0.0910 H     1 <1>   0.0800 
 18 H        3.8610     3.5500     1.2260 H     1 <1>   0.0800 
 19 H        2.3700     4.4180     1.3630 H     1 <1>   0.0800 
 20 H        4.9960     3.5020    -0.9560 H     1 <1>   0.0800 
 21 H        4.9670     2.5200    -2.3760 H     1 <1>   0.0800 
 22 H        7.4180     0.6310     1.0970 H     1 <1>   0.0800 
 23 H        5.9410    -0.3010     1.3530 H     1 <1>   0.0800 
 24 H        6.3850     0.9770     2.4860 H     1 <1>   0.0800 
@<TRIPOS>BOND
  1   1   2  2   
  2   2   3  1   
  3   2   4  1   
  4   3   5  2   
  5   4   6  1   
  6   4   7  2   
  7   5   8  1   
  8   5  16  1   
  9   6   9  3   
 10   7   8  1   
 11   7  10  1   
 12   8  11  1   
 13  10  17  1   
 14  10  18  1   
 15  10  19  1   
 16  11  12  1   
 17  11  20  1   
 18  11  21  1   
 19  12  13  2   
 20  12  14  1   
 21  14  15  1   
 22  15  22  1   
 23  15  23  1   
 24  15  24  1   
@<TRIPOS>SUBSTRUCTURE
  1 ****   8 GROUP 4 **** **** 0

# MOE 2024.06 (io_trps.svl 2023.06)
