@<TRIPOS>MOLECULE
NONAME
44 46 1 0 0 
SMALL
USER_CHARGES


@<TRIPOS>ATOM
  1 BR      -1.4700     3.0500    -1.4440 Br    1 <1>  -0.0580 
  2 C       -2.4050     1.5560    -0.6820 C.2   1 <1>   0.0980 
  3 S       -3.8800     1.0840    -1.4920 S.3   1 <1>  -0.0800 
  4 C       -2.1240     0.7920     0.3860 C.2   1 <1>  -0.1500 
  5 C       -4.1150    -0.2090    -0.3130 C.2   1 <1>  -0.1400 
  6 C       -3.1130    -0.2240     0.5940 C.2   1 <1>  -0.1500 
  7 C       -5.3510    -1.0670    -0.4840 C.3   1 <1>   0.5230 
  8 N       -6.5440    -0.1880    -0.4010 N.4   1 <1>  -0.9590 
  9 C       -6.6850     0.4480     0.9610 C.3   1 <1>   0.3430 
 10 C       -7.8130    -0.8970    -0.7940 C.3   1 <1>   0.3430 
 11 C       -7.9020     1.3890     1.0410 C.3   1 <1>   0.2090 
 12 C       -9.0410     0.0320    -0.7330 C.3   1 <1>   0.2090 
 13 N       -9.1510     0.6980     0.6000 N.pl3 1 <1>  -0.8380 
 14 C      -10.3150     1.4640     0.7600 C.ar  1 <1>   0.1000 
 15 C      -10.5850     2.6410     0.0370 C.ar  1 <1>   0.0830 
 16 C      -11.2460     1.0230     1.6890 C.ar  1 <1>  -0.1500 
 17 O       -9.6580     3.0680    -0.8770 O.3   1 <1>  -0.3630 
 18 C      -11.7720     3.3310     0.2660 C.ar  1 <1>  -0.1500 
 19 C      -12.4210     1.7150     1.9120 C.ar  1 <1>  -0.1500 
 20 C       -9.8220     4.2800    -1.5770 C.3   1 <1>   0.1200 
 21 C      -12.6850     2.8700     1.2000 C.ar  1 <1>  -0.1500 
 22 C       -8.5960     4.4810    -2.4630 C.3   1 <1>  -0.2400 
 23 H       -1.2670     0.9020     1.0280 H     1 <1>   0.1500 
 24 H       -3.0080    -0.9120     1.4170 H     1 <1>   0.1500 
 25 H       -5.3870    -1.8220     0.2840 H     1 <1>   0.0800 
 26 H       -5.3140    -1.5530    -1.4460 H     1 <1>   0.0800 
 27 H       -6.3910     0.5810    -1.0670 H     1 <1>   0.4500 
 28 H       -5.7960     1.0100     1.2000 H     1 <1>   0.0800 
 29 H       -6.8050    -0.3170     1.7090 H     1 <1>   0.0800 
 30 H       -7.9880    -1.7240    -0.1250 H     1 <1>   0.0800 
 31 H       -7.7230    -1.2900    -1.7930 H     1 <1>   0.0800 
 32 H       -7.7230     2.2570     0.4310 H     1 <1>   0.0800 
 33 H       -8.0280     1.7250     2.0570 H     1 <1>   0.0800 
 34 H       -9.9340    -0.5440    -0.9090 H     1 <1>   0.0800 
 35 H       -8.9710     0.7710    -1.5110 H     1 <1>   0.0800 
 36 H      -11.0410     0.1250     2.2430 H     1 <1>   0.1500 
 37 H      -12.0150     4.2300    -0.2670 H     1 <1>   0.1500 
 38 H      -13.1300     1.3550     2.6380 H     1 <1>   0.1500 
 39 H       -9.9090     5.0800    -0.8610 H     1 <1>   0.0800 
 40 H      -10.7150     4.2120    -2.1740 H     1 <1>   0.0800 
 41 H      -13.6000     3.4090     1.3710 H     1 <1>   0.1500 
 42 H       -7.7070     4.5350    -1.8610 H     1 <1>   0.0800 
 43 H       -8.6930     5.4020    -3.0090 H     1 <1>   0.0800 
 44 H       -8.5110     3.6740    -3.1680 H     1 <1>   0.0800 
@<TRIPOS>BOND
  1   1   2  1   
  2   2   3  1   
  3   2   4  2   
  4   3   5  1   
  5   4   6  1   
  6   4  23  1   
  7   5   6  2   
  8   5   7  1   
  9   6  24  1   
 10   7   8  1   
 11   7  25  1   
 12   7  26  1   
 13   8   9  1   
 14   8  10  1   
 15   8  27  1   
 16   9  11  1   
 17   9  28  1   
 18   9  29  1   
 19  10  12  1   
 20  10  30  1   
 21  10  31  1   
 22  11  13  1   
 23  11  32  1   
 24  11  33  1   
 25  12  13  1   
 26  12  34  1   
 27  12  35  1   
 28  13  14  1   
 29  14  15  ar  
 30  14  16  ar  
 31  15  17  1   
 32  15  18  ar  
 33  16  19  ar  
 34  16  36  1   
 35  17  20  1   
 36  18  21  ar  
 37  18  37  1   
 38  19  21  ar  
 39  19  38  1   
 40  20  22  1   
 41  20  39  1   
 42  20  40  1   
 43  21  41  1   
 44  22  42  1   
 45  22  43  1   
 46  22  44  1   
@<TRIPOS>SUBSTRUCTURE
  1 ****  11 GROUP 4 **** **** 0

# MOE 2024.06 (io_trps.svl 2023.06)
