@<TRIPOS>MOLECULE
NONAME
41 42 1 0 0 
SMALL
USER_CHARGES


@<TRIPOS>ATOM
  1 CL       3.3770    -0.4620    -3.0730 Cl    1 <1>  -0.1770 
  2 C        3.1440    -1.0440    -1.4390 C.ar  1 <1>   0.1770 
  3 C        1.9730    -1.7050    -1.0860 C.ar  1 <1>   0.0830 
  4 C        4.1540    -0.8290    -0.5230 C.ar  1 <1>  -0.1500 
  5 O        1.0200    -1.8860    -2.0370 O.3   1 <1>  -0.3630 
  6 C        1.8380    -2.1480     0.2260 C.ar  1 <1>  -0.1500 
  7 C        4.0300    -1.2740     0.7870 C.ar  1 <1>  -0.0090 
  8 C       -0.2080    -2.5180    -1.7500 C.3   1 <1>   0.0400 
  9 C        2.8560    -1.9320     1.1410 C.ar  1 <1>  -0.1500 
 10 S        5.3620    -0.9980     1.9860 S.o2  1 <1>   1.4470 
 11 O        5.1690    -1.8260     3.1560 O.2   1 <1>  -0.6500 
 12 O        5.5670     0.4250     2.1420 O.2   1 <1>  -0.6500 
 13 N        6.7310    -1.5960     1.1870 N.am  1 <1>  -0.8490 
 14 C        7.9660    -1.1900     1.9090 C.3   1 <1>   0.2570 
 15 C        6.7120    -3.0560     1.0200 C.3   1 <1>   0.1160 
 16 C        9.2760    -1.4790     1.1610 C.2   1 <1>   0.5690 
 17 O       10.0020    -2.3450     1.5960 O.2   1 <1>  -0.5700 
 18 N        9.6020    -0.7730     0.0330 N.am  1 <1>  -0.6600 
 19 C        8.7290     0.2120    -0.6440 C.3   1 <1>   0.1400 
 20 C       10.8300    -1.0270    -0.7490 C.3   1 <1>   0.1400 
 21 C        9.5710     0.7480    -1.7960 C.3   1 <1>  -0.1600 
 22 C       10.5710    -0.3650    -2.0980 C.3   1 <1>  -0.1600 
 23 H        5.0450    -0.3120    -0.8330 H     1 <1>   0.1500 
 24 H        0.9520    -2.6620     0.5520 H     1 <1>   0.1500 
 25 H       -0.7940    -2.5300    -2.6520 H     1 <1>   0.0800 
 26 H       -0.7220    -1.9570    -0.9900 H     1 <1>   0.0800 
 27 H       -0.0160    -3.5250    -1.4270 H     1 <1>   0.0800 
 28 H        2.7360    -2.2810     2.1550 H     1 <1>   0.1500 
 29 H        8.0030    -1.6850     2.8640 H     1 <1>   0.0800 
 30 H        7.9450    -0.1320     2.1000 H     1 <1>   0.0800 
 31 H        5.8220    -3.3610     0.4970 H     1 <1>   0.0800 
 32 H        6.7380    -3.5500     1.9780 H     1 <1>   0.0800 
 33 H        7.5630    -3.3780     0.4420 H     1 <1>   0.0800 
 34 H        8.4330     0.9990     0.0290 H     1 <1>   0.0800 
 35 H        7.8560    -0.2930    -1.0210 H     1 <1>   0.0800 
 36 H       11.0120    -2.0840    -0.8490 H     1 <1>   0.0800 
 37 H       11.6640    -0.5630    -0.2510 H     1 <1>   0.0800 
 38 H       10.0940     1.6290    -1.4650 H     1 <1>   0.0800 
 39 H        8.9660     1.0000    -2.6490 H     1 <1>   0.0800 
 40 H       10.1250    -1.0880    -2.7600 H     1 <1>   0.0800 
 41 H       11.4780     0.0040    -2.5420 H     1 <1>   0.0800 
@<TRIPOS>BOND
  1   1   2  1   
  2   2   3  ar  
  3   2   4  ar  
  4   3   5  1   
  5   3   6  ar  
  6   4   7  ar  
  7   4  23  1   
  8   5   8  1   
  9   6   9  ar  
 10   6  24  1   
 11   7   9  ar  
 12   7  10  1   
 13   8  25  1   
 14   8  26  1   
 15   8  27  1   
 16   9  28  1   
 17  10  11  2   
 18  10  12  2   
 19  10  13  am  
 20  13  14  1   
 21  13  15  1   
 22  14  16  1   
 23  14  29  1   
 24  14  30  1   
 25  15  31  1   
 26  15  32  1   
 27  15  33  1   
 28  16  17  2   
 29  16  18  am  
 30  18  19  1   
 31  18  20  1   
 32  19  21  1   
 33  19  34  1   
 34  19  35  1   
 35  20  22  1   
 36  20  36  1   
 37  20  37  1   
 38  21  22  1   
 39  21  38  1   
 40  21  39  1   
 41  22  40  1   
 42  22  41  1   
@<TRIPOS>SUBSTRUCTURE
  1 ****  13 GROUP 4 **** **** 0

# MOE 2024.06 (io_trps.svl 2023.06)
