@<TRIPOS>MOLECULE
NONAME
39 40 1 0 0 
SMALL
USER_CHARGES


@<TRIPOS>ATOM
  1 O        0.2030    -0.5050    -1.3840 O.2   1 <1>  -0.5700 
  2 C        0.1540    -1.3340    -0.4940 C.2   1 <1>   0.7060 
  3 O        1.2620    -1.5630     0.2210 O.3   1 <1>  -0.4300 
  4 C       -1.0430    -2.0260    -0.1480 C.2   1 <1>   0.0290 
  5 C        2.4760    -0.9030    -0.0620 C.3   1 <1>   0.1200 
  6 C       -0.8950    -3.3610     0.3390 C.2   1 <1>   0.7060 
  7 C       -2.2640    -1.4150    -0.2920 C.2   1 <1>  -0.0500 
  8 C        3.5290    -1.4180     0.9140 C.3   1 <1>  -0.2400 
  9 O       -1.6920    -3.8850     1.1000 O.2   1 <1>  -0.5700 
 10 O        0.1380    -4.0930    -0.1000 O.3   1 <1>  -0.4300 
 11 N       -3.4760    -1.9510     0.0430 N.pl3 1 <1>  -0.6000 
 12 C        0.3520    -5.4380     0.2770 C.3   1 <1>   0.1200 
 13 C       -4.7560    -1.4010    -0.1110 C.ar  1 <1>   0.1000 
 14 C       -0.4580    -6.3450    -0.6480 C.3   1 <1>  -0.2400 
 15 C       -5.7850    -1.8580     0.7080 C.ar  1 <1>  -0.1500 
 16 C       -5.0240    -0.4160    -1.0680 C.ar  1 <1>  -0.1500 
 17 C       -7.0420    -1.3130     0.5510 C.ar  1 <1>   0.0830 
 18 C       -6.2950     0.1230    -1.2120 C.ar  1 <1>  -0.1500 
 19 O       -8.1610    -1.6000     1.2260 O.3   1 <1>  -0.3620 
 20 C       -7.2910    -0.3490    -0.3810 C.ar  1 <1>   0.0830 
 21 C       -9.1860    -0.7660     0.6900 C.3   1 <1>   0.4000 
 22 O       -8.5790     0.0160    -0.3360 O.3   1 <1>  -0.3630 
 23 H        2.7540    -1.1210    -1.0800 H     1 <1>   0.0800 
 24 H        2.3250     0.1570     0.0540 H     1 <1>   0.0800 
 25 H       -2.2890    -0.4160    -0.6970 H     1 <1>   0.1500 
 26 H        3.6580    -2.4790     0.7940 H     1 <1>   0.0800 
 27 H        3.2340    -1.2030     1.9260 H     1 <1>   0.0800 
 28 H        4.4690    -0.9340     0.7210 H     1 <1>   0.0800 
 29 H       -3.4530    -2.8580     0.5400 H     1 <1>   0.4000 
 30 H        1.4030    -5.6400     0.1720 H     1 <1>   0.0800 
 31 H        0.0730    -5.5700     1.3090 H     1 <1>   0.0800 
 32 H       -0.1720    -6.1850    -1.6720 H     1 <1>   0.0800 
 33 H       -1.5100    -6.1560    -0.5320 H     1 <1>   0.0800 
 34 H       -0.2700    -7.3740    -0.3980 H     1 <1>   0.0800 
 35 H       -5.6140    -2.6140     1.4510 H     1 <1>   0.1500 
 36 H       -4.2360    -0.0720    -1.7120 H     1 <1>   0.1500 
 37 H       -6.5100     0.8800    -1.9430 H     1 <1>   0.1500 
 38 H       -9.9630    -1.3770     0.2670 H     1 <1>   0.0800 
 39 H       -9.5630    -0.1180     1.4620 H     1 <1>   0.0800 
@<TRIPOS>BOND
  1   1   2  2   
  2   2   3  1   
  3   2   4  1   
  4   3   5  1   
  5   4   6  1   
  6   4   7  2   
  7   5   8  1   
  8   5  23  1   
  9   5  24  1   
 10   6   9  2   
 11   6  10  1   
 12   7  11  1   
 13   7  25  1   
 14   8  26  1   
 15   8  27  1   
 16   8  28  1   
 17  10  12  1   
 18  11  13  1   
 19  11  29  1   
 20  12  14  1   
 21  12  30  1   
 22  12  31  1   
 23  13  15  ar  
 24  13  16  ar  
 25  14  32  1   
 26  14  33  1   
 27  14  34  1   
 28  15  17  ar  
 29  15  35  1   
 30  16  18  ar  
 31  16  36  1   
 32  17  19  1   
 33  17  20  ar  
 34  18  20  ar  
 35  18  37  1   
 36  19  21  1   
 37  20  22  1   
 38  21  22  1   
 39  21  38  1   
 40  21  39  1   
@<TRIPOS>SUBSTRUCTURE
  1 ****  11 GROUP 4 **** **** 0

# MOE 2024.06 (io_trps.svl 2023.06)
