@<TRIPOS>MOLECULE
NONAME
53 55 1 0 0 
SMALL
USER_CHARGES


@<TRIPOS>ATOM
  1 O       -0.5510    -0.4520    -1.2070 O.2   1 <1>  -0.5700 
  2 C       -1.0290    -1.4030    -0.6160 C.2   1 <1>   0.5440 
  3 N       -0.1750    -2.3020    -0.0100 N.am  1 <1>  -0.6600 
  4 C       -2.4690    -1.5470    -0.5630 C.ar  1 <1>   0.0860 
  5 C        1.2990    -2.2660    -0.2420 C.3   1 <1>   0.1400 
  6 C       -0.5750    -3.2820     1.0430 C.3   1 <1>   0.1400 
  7 C       -3.2770    -0.5080    -0.1030 C.ar  1 <1>  -0.1500 
  8 C       -3.1080    -2.7150    -0.9790 C.ar  1 <1>  -0.1500 
  9 C        1.8520    -3.6890    -0.4240 C.3   1 <1>   0.1200 
 10 C        0.0790    -4.6500     0.7800 C.3   1 <1>   0.1200 
 11 C       -4.6510    -0.6380    -0.0390 C.ar  1 <1>  -0.1500 
 12 C       -4.4820    -2.8470    -0.9150 C.ar  1 <1>  -0.1500 
 13 O        1.4660    -4.5170     0.6390 O.3   1 <1>  -0.5600 
 14 C       -5.2800    -1.8120    -0.4350 C.ar  1 <1>   0.1170 
 15 N       -6.6740    -1.8890    -0.3550 N.am  1 <1>  -0.5470 
 16 C       -7.5280    -2.9650    -0.2430 C.2   1 <1>   0.5440 
 17 O       -7.0890    -4.0970    -0.2180 O.2   1 <1>  -0.5700 
 18 C       -8.9570    -2.7300    -0.1610 C.ar  1 <1>   0.0860 
 19 C       -9.4900    -1.6220     0.4960 C.ar  1 <1>  -0.1500 
 20 C       -9.8630    -3.6100    -0.7450 C.ar  1 <1>  -0.1500 
 21 C      -10.8540    -1.3960     0.5480 C.ar  1 <1>  -0.1500 
 22 C      -11.2260    -3.3870    -0.6940 C.ar  1 <1>  -0.1500 
 23 C      -11.7540    -2.2740    -0.0500 C.ar  1 <1>  -0.1430 
 24 C      -13.2840    -2.0650    -0.0210 C.3   1 <1>   0.1430 
 25 C      -13.9510    -3.2550     0.6850 C.3   1 <1>  -0.2400 
 26 C      -13.7080    -0.7870     0.7230 C.3   1 <1>  -0.2400 
 27 C      -13.8160    -1.9620    -1.4580 C.3   1 <1>  -0.2400 
 28 H        1.7790    -1.8000     0.6010 H     1 <1>   0.0800 
 29 H        1.5280    -1.6840    -1.1180 H     1 <1>   0.0800 
 30 H       -1.6420    -3.3960     1.0870 H     1 <1>   0.0800 
 31 H       -0.2450    -2.9190     2.0010 H     1 <1>   0.0800 
 32 H       -2.8050     0.4100     0.2030 H     1 <1>   0.1500 
 33 H       -2.5140    -3.5260    -1.3610 H     1 <1>   0.1500 
 34 H        2.9270    -3.6680    -0.4500 H     1 <1>   0.0800 
 35 H        1.4920    -4.1170    -1.3430 H     1 <1>   0.0800 
 36 H       -0.3190    -5.0950    -0.1150 H     1 <1>   0.0800 
 37 H       -0.1040    -5.3130     1.6070 H     1 <1>   0.0800 
 38 H       -5.2390     0.1840     0.3260 H     1 <1>   0.1500 
 39 H       -4.9370    -3.7620    -1.2480 H     1 <1>   0.1500 
 40 H       -7.1490    -0.9890    -0.3790 H     1 <1>   0.3700 
 41 H       -8.8340    -0.9260     0.9880 H     1 <1>   0.1500 
 42 H       -9.4860    -4.4850    -1.2480 H     1 <1>   0.1500 
 43 H      -11.1940    -0.5220     1.0710 H     1 <1>   0.1500 
 44 H      -11.8770    -4.1000    -1.1660 H     1 <1>   0.1500 
 45 H      -13.5600    -3.3570     1.6820 H     1 <1>   0.0800 
 46 H      -13.7680    -4.1730     0.1570 H     1 <1>   0.0800 
 47 H      -15.0150    -3.1130     0.7470 H     1 <1>   0.0800 
 48 H      -13.2860     0.0820     0.2510 H     1 <1>   0.0800 
 49 H      -13.3870    -0.8230     1.7480 H     1 <1>   0.0800 
 50 H      -14.7780    -0.6820     0.7140 H     1 <1>   0.0800 
 51 H      -13.6330    -2.8680    -2.0070 H     1 <1>   0.0800 
 52 H      -13.3300    -1.1520    -1.9730 H     1 <1>   0.0800 
 53 H      -14.8760    -1.7810    -1.4590 H     1 <1>   0.0800 
@<TRIPOS>BOND
  1   1   2  2   
  2   2   3  am  
  3   2   4  1   
  4   3   5  1   
  5   3   6  1   
  6   4   7  ar  
  7   4   8  ar  
  8   5   9  1   
  9   5  28  1   
 10   5  29  1   
 11   6  10  1   
 12   6  30  1   
 13   6  31  1   
 14   7  11  ar  
 15   7  32  1   
 16   8  12  ar  
 17   8  33  1   
 18   9  13  1   
 19   9  34  1   
 20   9  35  1   
 21  10  13  1   
 22  10  36  1   
 23  10  37  1   
 24  11  14  ar  
 25  11  38  1   
 26  12  14  ar  
 27  12  39  1   
 28  14  15  1   
 29  15  16  am  
 30  15  40  1   
 31  16  17  2   
 32  16  18  1   
 33  18  19  ar  
 34  18  20  ar  
 35  19  21  ar  
 36  19  41  1   
 37  20  22  ar  
 38  20  42  1   
 39  21  23  ar  
 40  21  43  1   
 41  22  23  ar  
 42  22  44  1   
 43  23  24  1   
 44  24  25  1   
 45  24  26  1   
 46  24  27  1   
 47  25  45  1   
 48  25  46  1   
 49  25  47  1   
 50  26  48  1   
 51  26  49  1   
 52  26  50  1   
 53  27  51  1   
 54  27  52  1   
 55  27  53  1   
@<TRIPOS>SUBSTRUCTURE
  1 ****  14 GROUP 4 **** **** 0

# MOE 2024.06 (io_trps.svl 2023.06)
