@<TRIPOS>MOLECULE
NONAME
38 40 1 0 0 
SMALL
USER_CHARGES


@<TRIPOS>ATOM
  1 O       -1.0370    -0.9560     1.6620 O.2   1 <1>  -0.5700 
  2 C       -1.2360    -1.5850     0.6490 C.2   1 <1>   0.6900 
  3 N       -2.1740    -2.5450     0.6320 N.am  1 <1>  -0.7300 
  4 N       -0.5060    -1.3290    -0.4390 N.am  1 <1>  -0.8000 
  5 C       -2.9930    -2.9520    -0.5260 C.3   1 <1>   0.2200 
  6 C       -4.5020    -2.6360    -0.2790 C.3   1 <1>   0.0000 
  7 C       -2.6580    -4.4220    -0.7980 C.3   1 <1>  -0.2400 
  8 C       -4.6840    -1.1100    -0.0560 C.3   1 <1>  -0.1600 
  9 C       -5.3520    -3.0320    -1.5160 C.3   1 <1>  -0.1600 
 10 C       -5.0820    -3.3770     0.9560 C.3   1 <1>  -0.1600 
 11 C       -6.1640    -0.7450     0.1560 C.3   1 <1>  -0.0800 
 12 C       -6.8370    -2.6750    -1.3140 C.3   1 <1>  -0.0800 
 13 C       -6.5660    -3.0190     1.1690 C.3   1 <1>  -0.0800 
 14 C       -6.9700    -1.1590    -1.0870 C.3   1 <1>  -0.1600 
 15 C       -6.6970    -1.5010     1.3860 C.3   1 <1>  -0.1600 
 16 C       -7.3710    -3.4230    -0.0790 C.3   1 <1>  -0.1600 
 17 H       -2.6450    -2.6560     1.5280 H     1 <1>   0.3700 
 18 H        0.2760    -0.6870    -0.3320 H     1 <1>   0.3700 
 19 H       -0.4340    -2.0240    -1.1750 H     1 <1>   0.3700 
 20 H       -2.6820    -2.3810    -1.3850 H     1 <1>   0.0800 
 21 H       -2.9500    -5.0450     0.0270 H     1 <1>   0.0800 
 22 H       -1.5990    -4.5300    -0.9490 H     1 <1>   0.0800 
 23 H       -3.1500    -4.7700    -1.6860 H     1 <1>   0.0800 
 24 H       -4.3010    -0.5690    -0.9030 H     1 <1>   0.0800 
 25 H       -4.1270    -0.7880     0.8070 H     1 <1>   0.0800 
 26 H       -4.9820    -2.5270    -2.3910 H     1 <1>   0.0800 
 27 H       -5.2850    -4.0890    -1.6950 H     1 <1>   0.0800 
 28 H       -4.5330    -3.1150     1.8420 H     1 <1>   0.0800 
 29 H       -5.0010    -4.4410     0.8250 H     1 <1>   0.0800 
 30 H       -6.2570     0.3160     0.3130 H     1 <1>   0.0800 
 31 H       -7.4020    -2.9620    -2.1840 H     1 <1>   0.0800 
 32 H       -6.9460    -3.5420     2.0300 H     1 <1>   0.0800 
 33 H       -6.6090    -0.6270    -1.9500 H     1 <1>   0.0800 
 34 H       -8.0050    -0.9000    -0.9530 H     1 <1>   0.0800 
 35 H       -7.7290    -1.2440     1.5520 H     1 <1>   0.0800 
 36 H       -6.1440    -1.2080     2.2620 H     1 <1>   0.0800 
 37 H       -7.2960    -4.4850    -0.2340 H     1 <1>   0.0800 
 38 H       -8.4110    -3.1870     0.0670 H     1 <1>   0.0800 
@<TRIPOS>BOND
  1   1   2  2   
  2   2   3  am  
  3   2   4  am  
  4   3   5  1   
  5   3  17  1   
  6   4  18  1   
  7   4  19  1   
  8   5   6  1   
  9   5   7  1   
 10   5  20  1   
 11   6   8  1   
 12   6   9  1   
 13   6  10  1   
 14   7  21  1   
 15   7  22  1   
 16   7  23  1   
 17   8  11  1   
 18   8  24  1   
 19   8  25  1   
 20   9  12  1   
 21   9  26  1   
 22   9  27  1   
 23  10  13  1   
 24  10  28  1   
 25  10  29  1   
 26  11  14  1   
 27  11  15  1   
 28  11  30  1   
 29  12  14  1   
 30  12  16  1   
 31  12  31  1   
 32  13  15  1   
 33  13  16  1   
 34  13  32  1   
 35  14  33  1   
 36  14  34  1   
 37  15  35  1   
 38  15  36  1   
 39  16  37  1   
 40  16  38  1   
@<TRIPOS>SUBSTRUCTURE
  1 ****   6 GROUP 4 **** **** 0

# MOE 2024.06 (io_trps.svl 2023.06)
