@<TRIPOS>MOLECULE
NONAME
36 38 1 0 0 
SMALL
USER_CHARGES


@<TRIPOS>ATOM
  1 O        0.6680    -0.2570    -0.4020 O.3   1 <1>  -0.5600 
  2 C        1.8670    -0.9120    -0.1010 C.3   1 <1>   0.1200 
  3 C        0.5150     0.9530     0.2840 C.3   1 <1>   0.1200 
  4 C        3.0790    -0.0530    -0.5020 C.3   1 <1>   0.2090 
  5 C        1.6370     1.9440    -0.0770 C.3   1 <1>   0.2090 
  6 N        2.9960     1.3280     0.0770 N.pl3 1 <1>  -0.8220 
  7 C        4.1580     2.1150     0.1180 C.2   1 <1>   0.2240 
  8 O        5.3150     1.5070     0.0620 O.3   1 <1>  -0.2800 
  9 C        4.4170     3.4480     0.2150 C.2   1 <1>   0.2460 
 10 C        6.2350     2.4470     0.1260 C.2   1 <1>   0.2980 
 11 N        5.7640     3.6360     0.2170 N.2   1 <1>  -0.5650 
 12 C        3.4900     4.5340     0.3000 C.1   1 <1>   0.5380 
 13 C        7.6930     1.9990     0.0840 C.3   1 <1>   0.3000 
 14 N        2.7030     5.3620     0.3600 N.1   1 <1>  -0.5570 
 15 O        8.5760     3.1050     0.0960 O.3   1 <1>  -0.3630 
 16 C        9.9200     2.9350     0.0650 C.ar  1 <1>   0.0820 
 17 C       10.6900     4.0870     0.0770 C.ar  1 <1>  -0.1500 
 18 C       10.5480     1.6910     0.0230 C.ar  1 <1>  -0.1500 
 19 C       12.0710     4.0090     0.0470 C.ar  1 <1>  -0.1500 
 20 C       11.9300     1.6160    -0.0070 C.ar  1 <1>  -0.1500 
 21 C       12.6910     2.7730     0.0050 C.ar  1 <1>  -0.1500 
 22 H        1.8770    -1.8410    -0.6420 H     1 <1>   0.0800 
 23 H        1.8900    -1.1250     0.9530 H     1 <1>   0.0800 
 24 H        0.5200     0.7520     1.3410 H     1 <1>   0.0800 
 25 H       -0.4410     1.3640     0.0170 H     1 <1>   0.0800 
 26 H        3.1230     0.0150    -1.5750 H     1 <1>   0.0800 
 27 H        3.9730    -0.5420    -0.1600 H     1 <1>   0.0800 
 28 H        1.5420     2.7960     0.5700 H     1 <1>   0.0800 
 29 H        1.5040     2.2720    -1.0930 H     1 <1>   0.0800 
 30 H        7.8690     1.4400    -0.8160 H     1 <1>   0.0800 
 31 H        7.9040     1.3920     0.9450 H     1 <1>   0.0800 
 32 H       10.1990     5.0430     0.1100 H     1 <1>   0.1500 
 33 H        9.9890     0.7760     0.0130 H     1 <1>   0.1500 
 34 H       12.6610     4.9090     0.0570 H     1 <1>   0.1500 
 35 H       12.4170     0.6570    -0.0400 H     1 <1>   0.1500 
 36 H       13.7650     2.7110    -0.0180 H     1 <1>   0.1500 
@<TRIPOS>BOND
  1   1   2  1   
  2   1   3  1   
  3   2   4  1   
  4   2  22  1   
  5   2  23  1   
  6   3   5  1   
  7   3  24  1   
  8   3  25  1   
  9   4   6  1   
 10   4  26  1   
 11   4  27  1   
 12   5   6  1   
 13   5  28  1   
 14   5  29  1   
 15   6   7  1   
 16   7   8  1   
 17   7   9  2   
 18   8  10  1   
 19   9  11  1   
 20   9  12  1   
 21  10  11  2   
 22  10  13  1   
 23  12  14  3   
 24  13  15  1   
 25  13  30  1   
 26  13  31  1   
 27  15  16  1   
 28  16  17  ar  
 29  16  18  ar  
 30  17  19  ar  
 31  17  32  1   
 32  18  20  ar  
 33  18  33  1   
 34  19  21  ar  
 35  19  34  1   
 36  20  21  ar  
 37  20  35  1   
 38  21  36  1   
@<TRIPOS>SUBSTRUCTURE
  1 ****  10 GROUP 4 **** **** 0

# MOE 2024.06 (io_trps.svl 2023.06)
