@<TRIPOS>MOLECULE
NONAME
34 34 1 0 0 
SMALL
USER_CHARGES


@<TRIPOS>ATOM
  1 CL       3.0880     1.5200    -1.7400 Cl    1 <1>  -0.1770 
  2 C        1.8590     2.5530    -1.0390 C.ar  1 <1>   0.1770 
  3 C        2.2130     3.5430    -0.1290 C.ar  1 <1>   0.0820 
  4 C        0.5430     2.3530    -1.4070 C.ar  1 <1>  -0.1500 
  5 O        3.5120     3.7050     0.2240 O.3   1 <1>  -0.3630 
  6 C        1.2240     4.3690     0.4010 C.ar  1 <1>  -0.1440 
  7 C       -0.4450     3.1570    -0.8640 C.ar  1 <1>  -0.1430 
  8 C        3.9070     3.1880     1.4820 C.3   1 <1>   0.1200 
  9 C       -0.0960     4.1590     0.0310 C.ar  1 <1>  -0.1500 
 10 C        1.5480     5.5070     1.3600 C.3   1 <1>  -0.0960 
 11 C       -1.9000     2.9570    -1.2500 C.3   1 <1>  -0.0970 
 12 C        4.6720     1.8750     1.2690 C.3   1 <1>   0.3430 
 13 N        5.5900     1.9970     0.1000 N.4   1 <1>  -0.9060 
 14 C        6.1730     0.7140    -0.3370 C.3   1 <1>   0.3430 
 15 C        7.0140     0.9780    -1.5760 C.3   1 <1>  -0.2400 
 16 H        0.2980     1.5780    -2.1110 H     1 <1>   0.1500 
 17 H        3.0400     3.0310     2.1020 H     1 <1>   0.0800 
 18 H        4.5390     3.9200     1.9520 H     1 <1>   0.0800 
 19 H       -0.8700     4.7870     0.4380 H     1 <1>   0.1500 
 20 H        1.6280     5.1350     2.3650 H     1 <1>   0.0800 
 21 H        0.7760     6.2550     1.3340 H     1 <1>   0.0800 
 22 H        2.4740     5.9810     1.0840 H     1 <1>   0.0800 
 23 H       -2.0570     1.9730    -1.6540 H     1 <1>   0.0800 
 24 H       -2.1840     3.6840    -1.9900 H     1 <1>   0.0800 
 25 H       -2.5340     3.0740    -0.3890 H     1 <1>   0.0800 
 26 H        3.9540     1.0920     1.0810 H     1 <1>   0.0800 
 27 H        5.2210     1.6190     2.1600 H     1 <1>   0.0800 
 28 H        6.3250     2.6900     0.2790 H     1 <1>   0.4500 
 29 H        5.0180     2.3870    -0.6690 H     1 <1>   0.4500 
 30 H        5.3880     0.0120    -0.5740 H     1 <1>   0.0800 
 31 H        6.7890     0.2960     0.4440 H     1 <1>   0.0800 
 32 H        6.4070     1.3710    -2.3730 H     1 <1>   0.0800 
 33 H        7.4460     0.0530    -1.9150 H     1 <1>   0.0800 
 34 H        7.8170     1.6600    -1.3600 H     1 <1>   0.0800 
@<TRIPOS>BOND
  1   1   2  1   
  2   2   3  ar  
  3   2   4  ar  
  4   3   5  1   
  5   3   6  ar  
  6   4   7  ar  
  7   4  16  1   
  8   5   8  1   
  9   6   9  ar  
 10   6  10  1   
 11   7   9  ar  
 12   7  11  1   
 13   8  12  1   
 14   8  17  1   
 15   8  18  1   
 16   9  19  1   
 17  10  20  1   
 18  10  21  1   
 19  10  22  1   
 20  11  23  1   
 21  11  24  1   
 22  11  25  1   
 23  12  13  1   
 24  12  26  1   
 25  12  27  1   
 26  13  14  1   
 27  13  28  1   
 28  13  29  1   
 29  14  15  1   
 30  14  30  1   
 31  14  31  1   
 32  15  32  1   
 33  15  33  1   
 34  15  34  1   
@<TRIPOS>SUBSTRUCTURE
  1 ****   3 GROUP 4 **** **** 0

# MOE 2024.06 (io_trps.svl 2023.06)
