@<TRIPOS>MOLECULE
NONAME
32 32 1 0 0 
SMALL
USER_CHARGES


@<TRIPOS>ATOM
  1 O       -6.2000     2.9470    -1.0720 O.3   1 <1>  -0.3630 
  2 C       -5.4520     2.1400    -0.2670 C.ar  1 <1>   0.0830 
  3 C       -7.6080     2.9720    -0.9900 C.3   1 <1>   0.0400 
  4 C       -5.8530     0.9050     0.2710 C.ar  1 <1>   0.0830 
  5 C       -4.1840     2.6240     0.0090 C.ar  1 <1>  -0.1500 
  6 O       -7.0860     0.3960    -0.0260 O.3   1 <1>  -0.3630 
  7 C       -4.9640     0.2120     1.0910 C.ar  1 <1>  -0.1500 
  8 C       -3.3020     1.9230     0.8140 C.ar  1 <1>  -0.1430 
  9 C       -7.4860    -0.8940     0.3800 C.3   1 <1>   0.0400 
 10 C       -3.7030     0.7160     1.3580 C.ar  1 <1>  -0.1500 
 11 C       -1.9140     2.4760     1.0800 C.3   1 <1>  -0.0170 
 12 C       -0.9940     2.1240    -0.0960 C.3   1 <1>  -0.1600 
 13 C        0.4100     2.6840     0.1050 C.3   1 <1>   0.3430 
 14 N        1.2370     2.3340    -1.0730 N.4   1 <1>  -0.8530 
 15 H       -7.9550     3.8810    -1.4470 H     1 <1>   0.0800 
 16 H       -7.9010     2.9430     0.0450 H     1 <1>   0.0800 
 17 H       -8.0010     2.1250    -1.5230 H     1 <1>   0.0800 
 18 H       -3.9020     3.5680    -0.4190 H     1 <1>   0.1500 
 19 H       -5.2310    -0.7280     1.5340 H     1 <1>   0.1500 
 20 H       -8.4670    -1.0790    -0.0200 H     1 <1>   0.0800 
 21 H       -7.5190    -0.9290     1.4540 H     1 <1>   0.0800 
 22 H       -6.7910    -1.6150    -0.0120 H     1 <1>   0.0800 
 23 H       -3.0400     0.1550     1.9940 H     1 <1>   0.1500 
 24 H       -1.5310     2.0620     1.9980 H     1 <1>   0.0800 
 25 H       -1.9800     3.5440     1.2030 H     1 <1>   0.0800 
 26 H       -1.4250     2.5300    -0.9960 H     1 <1>   0.0800 
 27 H       -0.9560     1.0520    -0.1870 H     1 <1>   0.0800 
 28 H        0.8440     2.2670     1.0010 H     1 <1>   0.0800 
 29 H        0.3610     3.7560     0.2170 H     1 <1>   0.0800 
 30 H        1.2870     1.3150    -1.1900 H     1 <1>   0.4500 
 31 H        2.1940     2.6940    -0.9790 H     1 <1>   0.4500 
 32 H        0.8290     2.7270    -1.9290 H     1 <1>   0.4500 
@<TRIPOS>BOND
  1   1   2  1   
  2   1   3  1   
  3   2   4  ar  
  4   2   5  ar  
  5   3  15  1   
  6   3  16  1   
  7   3  17  1   
  8   4   6  1   
  9   4   7  ar  
 10   5   8  ar  
 11   5  18  1   
 12   6   9  1   
 13   7  10  ar  
 14   7  19  1   
 15   8  10  ar  
 16   8  11  1   
 17   9  20  1   
 18   9  21  1   
 19   9  22  1   
 20  10  23  1   
 21  11  12  1   
 22  11  24  1   
 23  11  25  1   
 24  12  13  1   
 25  12  26  1   
 26  12  27  1   
 27  13  14  1   
 28  13  28  1   
 29  13  29  1   
 30  14  30  1   
 31  14  31  1   
 32  14  32  1   
@<TRIPOS>SUBSTRUCTURE
  1 ****   5 GROUP 4 **** **** 0

# MOE 2024.06 (io_trps.svl 2023.06)
