@<TRIPOS>MOLECULE
NONAME
37 38 1 0 0 
SMALL
USER_CHARGES


@<TRIPOS>ATOM
  1 CL      -1.7970     0.1510     1.0420 Cl    1 <1>  -0.1770 
  2 C       -1.3910     1.7470     0.4470 C.ar  1 <1>   0.1770 
  3 C       -2.3040     2.7930     0.5480 C.ar  1 <1>   0.0820 
  4 C       -0.1470     1.9340    -0.1230 C.ar  1 <1>  -0.1500 
  5 O       -3.5250     2.5600     1.0910 O.3   1 <1>  -0.3630 
  6 C       -1.9440     4.0660     0.1050 C.ar  1 <1>  -0.1440 
  7 C        0.1990     3.1880    -0.5940 C.ar  1 <1>  -0.1500 
  8 C       -4.6260     2.4680     0.2070 C.3   1 <1>   0.1200 
  9 C       -0.6940     4.2420    -0.4770 C.ar  1 <1>  -0.1500 
 10 C       -2.8800     5.2680     0.2460 C.3   1 <1>   0.1220 
 11 C       -4.7740     1.0280    -0.2930 C.3   1 <1>   0.1200 
 12 C       -2.1380     6.5050     0.7270 C.2   1 <1>  -0.2880 
 13 O       -5.8270     0.9460    -1.2380 O.3   1 <1>  -0.3160 
 14 C       -2.0640     7.6670     0.0700 C.2   1 <1>  -0.3000 
 15 N       -7.0810     0.8890    -0.6030 N.am  1 <1>  -0.0850 
 16 C       -7.6780    -0.2750    -0.2170 C.2   1 <1>   0.5690 
 17 C       -7.8960     1.9700    -0.4390 C.2   1 <1>   0.5690 
 18 O       -7.2010    -1.3830    -0.2230 O.2   1 <1>  -0.5700 
 19 C       -9.0840     0.0020     0.2710 C.3   1 <1>  -0.0990 
 20 O       -7.6330     3.1270    -0.6640 O.2   1 <1>  -0.5700 
 21 C       -9.2330     1.5310     0.1180 C.3   1 <1>  -0.0990 
 22 H        0.5380     1.1090    -0.1970 H     1 <1>   0.1500 
 23 H        1.1620     3.3480    -1.0460 H     1 <1>   0.1500 
 24 H       -4.4760     3.1400    -0.6190 H     1 <1>   0.0800 
 25 H       -5.4950     2.7680     0.7620 H     1 <1>   0.0800 
 26 H       -0.4030     5.2130    -0.8410 H     1 <1>   0.1500 
 27 H       -3.6610     5.0590     0.9540 H     1 <1>   0.0800 
 28 H       -3.3430     5.4650    -0.7050 H     1 <1>   0.0800 
 29 H       -4.9650     0.3440     0.5150 H     1 <1>   0.0800 
 30 H       -3.8790     0.7290    -0.8060 H     1 <1>   0.0800 
 31 H       -1.6630     6.3470     1.6820 H     1 <1>   0.1500 
 32 H       -1.5320     8.5290     0.4360 H     1 <1>   0.1500 
 33 H       -2.5270     7.8580    -0.8830 H     1 <1>   0.1500 
 34 H       -9.1820    -0.3050     1.2970 H     1 <1>   0.0800 
 35 H       -9.7930    -0.5280    -0.3390 H     1 <1>   0.0800 
 36 H      -10.0170     1.7840    -0.5730 H     1 <1>   0.0800 
 37 H       -9.4110     2.0090     1.0650 H     1 <1>   0.0800 
@<TRIPOS>BOND
  1   1   2  1   
  2   2   3  ar  
  3   2   4  ar  
  4   3   5  1   
  5   3   6  ar  
  6   4   7  ar  
  7   4  22  1   
  8   5   8  1   
  9   6   9  ar  
 10   6  10  1   
 11   7   9  ar  
 12   7  23  1   
 13   8  11  1   
 14   8  24  1   
 15   8  25  1   
 16   9  26  1   
 17  10  12  1   
 18  10  27  1   
 19  10  28  1   
 20  11  13  1   
 21  11  29  1   
 22  11  30  1   
 23  12  14  2   
 24  12  31  1   
 25  13  15  1   
 26  14  32  1   
 27  14  33  1   
 28  15  16  am  
 29  15  17  am  
 30  16  18  2   
 31  16  19  1   
 32  17  20  2   
 33  17  21  1   
 34  19  21  1   
 35  19  34  1   
 36  19  35  1   
 37  21  36  1   
 38  21  37  1   
@<TRIPOS>SUBSTRUCTURE
  1 ****   8 GROUP 4 **** **** 0

# MOE 2024.06 (io_trps.svl 2023.06)
