@<TRIPOS>MOLECULE
NONAME
50 53 1 0 0 
SMALL
USER_CHARGES


@<TRIPOS>ATOM
  1 O       -1.1060     0.4610     1.4280 O.2   1 <1>  -0.5750 
  2 C       -1.5430     1.5210     1.0290 C.2   1 <1>   0.6860 
  3 N       -0.6800     2.5930     0.8200 N.am  1 <1>  -0.4260 
  4 N       -2.9030     1.6590     0.7810 N.am  1 <1>  -0.4420 
  5 C       -1.1530     3.8210     0.3750 C.2   1 <1>   0.6990 
  6 C        0.7780     2.4130     1.1090 C.3   1 <1>   0.0520 
  7 C       -3.3580     2.8760     0.3100 C.2   1 <1>   0.4200 
  8 C       -3.8420     0.5180     0.9990 C.3   1 <1>   0.0520 
  9 O       -0.4010     4.7680     0.2170 O.2   1 <1>  -0.5750 
 10 C       -2.5530     3.9410     0.1040 C.2   1 <1>   0.2700 
 11 N       -4.6340     3.2210    -0.0250 N.pl3 1 <1>  -0.7040 
 12 N       -3.3830     4.9690    -0.3660 N.pl3 1 <1>  -0.7670 
 13 C       -4.6180     4.4880    -0.4320 C.cat 1 <1>   1.0690 
 14 C       -2.9870     6.3430    -0.7380 C.3   1 <1>   0.3480 
 15 N       -5.6730     5.2110    -0.8640 N.pl3 1 <1>  -0.5800 
 16 C       -4.2330     7.2350    -0.7020 C.3   1 <1>  -0.1670 
 17 C       -6.9760     4.7160    -0.9030 C.ar  1 <1>   0.3050 
 18 C       -5.4410     6.5840    -1.3940 C.3   1 <1>   0.1600 
 19 C       -7.5500     4.3150    -2.1020 C.ar  1 <1>  -0.1570 
 20 C       -7.7280     4.6010     0.2600 C.ar  1 <1>  -0.1570 
 21 C       -8.8330     3.8020    -2.1320 C.ar  1 <1>  -0.1570 
 22 C       -9.0110     4.0870     0.2240 C.ar  1 <1>  -0.1570 
 23 C       -9.6030     3.6670    -0.9730 C.ar  1 <1>   0.0780 
 24 C      -10.9460     3.1180    -1.0240 C.2   1 <1>   0.6300 
 25 O      -11.4640     2.7320    -2.0510 O.2   1 <1>  -0.5750 
 26 O      -11.6320     3.0320     0.1190 O.3   1 <1>  -0.4360 
 27 C      -12.9420     2.5120     0.1590 C.3   1 <1>   0.1120 
 28 C      -13.4260     2.5580     1.6050 C.3   1 <1>  -0.2470 
 29 H        1.1060     1.4460     0.7650 H     1 <1>   0.0720 
 30 H        0.9450     2.4780     2.1700 H     1 <1>   0.0720 
 31 H        1.3690     3.1630     0.6140 H     1 <1>   0.0720 
 32 H       -3.4170    -0.1980     1.6830 H     1 <1>   0.0720 
 33 H       -4.0350     0.0230     0.0630 H     1 <1>   0.0720 
 34 H       -4.7680     0.8680     1.4190 H     1 <1>   0.0720 
 35 H       -5.4630     2.6350     0.0030 H     1 <1>   0.4450 
 36 H       -2.5630     6.3330    -1.7290 H     1 <1>   0.0720 
 37 H       -2.2440     6.7160    -0.0520 H     1 <1>   0.0720 
 38 H       -4.0090     8.1740    -1.1780 H     1 <1>   0.0720 
 39 H       -4.4840     7.4540     0.3210 H     1 <1>   0.0720 
 40 H       -6.3180     7.1900    -1.2300 H     1 <1>   0.0720 
 41 H       -5.2670     6.5260    -2.4560 H     1 <1>   0.0720 
 42 H       -6.9930     4.4030    -3.0180 H     1 <1>   0.1430 
 43 H       -7.3130     4.9220     1.1990 H     1 <1>   0.1430 
 44 H       -9.2610     3.4960    -3.0740 H     1 <1>   0.1430 
 45 H       -9.5740     4.0120     1.1400 H     1 <1>   0.1430 
 46 H      -12.9190     1.5010    -0.2090 H     1 <1>   0.0720 
 47 H      -13.5680     3.1150    -0.4770 H     1 <1>   0.0720 
 48 H      -12.7860     1.9600     2.2290 H     1 <1>   0.0720 
 49 H      -14.4250     2.1660     1.6640 H     1 <1>   0.0720 
 50 H      -13.4340     3.5720     1.9620 H     1 <1>   0.0720 
@<TRIPOS>BOND
  1   1   2  2   
  2   2   3  am  
  3   2   4  am  
  4   3   5  am  
  5   3   6  1   
  6   4   7  1   
  7   4   8  1   
  8   5   9  2   
  9   5  10  1   
 10   6  29  1   
 11   6  30  1   
 12   6  31  1   
 13   7  10  2   
 14   7  11  1   
 15   8  32  1   
 16   8  33  1   
 17   8  34  1   
 18  10  12  1   
 19  11  13  ar  
 20  11  35  1   
 21  12  13  ar  
 22  12  14  1   
 23  13  15  ar  
 24  14  16  1   
 25  14  36  1   
 26  14  37  1   
 27  15  17  1   
 28  15  18  1   
 29  16  18  1   
 30  16  38  1   
 31  16  39  1   
 32  17  19  ar  
 33  17  20  ar  
 34  18  40  1   
 35  18  41  1   
 36  19  21  ar  
 37  19  42  1   
 38  20  22  ar  
 39  20  43  1   
 40  21  23  ar  
 41  21  44  1   
 42  22  23  ar  
 43  22  45  1   
 44  23  24  1   
 45  24  25  2   
 46  24  26  1   
 47  26  27  1   
 48  27  28  1   
 49  27  46  1   
 50  27  47  1   
 51  28  48  1   
 52  28  49  1   
 53  28  50  1   
@<TRIPOS>SUBSTRUCTURE
  1 ****  11 GROUP 4 **** **** 0

# MOE 2024.06 (io_trps.svl 2023.06)
