@<TRIPOS>MOLECULE
NONAME
36 37 1 0 0 
SMALL
USER_CHARGES


@<TRIPOS>ATOM
  1 BR       0.2790    -0.5280     0.1520 Br    1 <1>  -0.1110 
  2 C       -1.5610    -1.0980     0.1350 C.ar  1 <1>   0.1110 
  3 C       -2.4740    -0.4330     0.9300 C.ar  1 <1>  -0.1500 
  4 C       -1.9240    -2.1570    -0.6730 C.ar  1 <1>  -0.1500 
  5 C       -3.7940    -0.8480     0.9120 C.ar  1 <1>  -0.1500 
  6 C       -3.2480    -2.5610    -0.6790 C.ar  1 <1>  -0.1500 
  7 C       -4.1980    -1.9170     0.1110 C.ar  1 <1>   0.1170 
  8 N       -5.5260    -2.3690     0.0520 N.am  1 <1>  -0.5470 
  9 C       -6.5830    -2.2020     0.9060 C.2   1 <1>   0.5690 
 10 O       -6.5160    -1.5950     1.9450 O.2   1 <1>  -0.5700 
 11 C       -7.9200    -2.8330     0.5240 C.3   1 <1>  -0.0190 
 12 C       -7.8390    -4.3700     0.4770 C.3   1 <1>  -0.1600 
 13 C       -8.4520    -2.3050    -0.8190 C.3   1 <1>  -0.1600 
 14 C       -9.1410    -5.0200    -0.0260 C.3   1 <1>   0.2800 
 15 C       -9.7460    -3.0210    -1.2080 C.3   1 <1>   0.1200 
 16 O       -9.5360    -4.4030    -1.2140 O.3   1 <1>  -0.5600 
 17 C      -10.2840    -4.9550     0.9980 C.3   1 <1>  -0.2400 
 18 C       -8.8880    -6.4820    -0.3920 C.3   1 <1>  -0.2400 
 19 H       -2.1600     0.3890     1.5480 H     1 <1>   0.1500 
 20 H       -1.1860    -2.6520    -1.2790 H     1 <1>   0.1500 
 21 H       -4.5100    -0.3310     1.5240 H     1 <1>   0.1500 
 22 H       -3.5420    -3.3860    -1.3010 H     1 <1>   0.1500 
 23 H       -5.7360    -2.9540    -0.7540 H     1 <1>   0.3700 
 24 H       -8.6250    -2.5570     1.2880 H     1 <1>   0.0800 
 25 H       -7.6040    -4.7480     1.4570 H     1 <1>   0.0800 
 26 H       -7.0410    -4.6660    -0.1790 H     1 <1>   0.0800 
 27 H       -7.7330    -2.4590    -1.6030 H     1 <1>   0.0800 
 28 H       -8.6380    -1.2480    -0.7450 H     1 <1>   0.0800 
 29 H      -10.0460    -2.7360    -2.2010 H     1 <1>   0.0800 
 30 H      -10.5480    -2.7870    -0.5310 H     1 <1>   0.0800 
 31 H      -10.4670    -3.9530     1.3360 H     1 <1>   0.0800 
 32 H      -10.0340    -5.5460     1.8600 H     1 <1>   0.0800 
 33 H      -11.1860    -5.3510     0.5680 H     1 <1>   0.0800 
 34 H       -8.1340    -6.5520    -1.1560 H     1 <1>   0.0800 
 35 H       -9.7920    -6.9350    -0.7570 H     1 <1>   0.0800 
 36 H       -8.5550    -7.0320     0.4690 H     1 <1>   0.0800 
@<TRIPOS>BOND
  1   1   2  1   
  2   2   3  ar  
  3   2   4  ar  
  4   3   5  ar  
  5   3  19  1   
  6   4   6  ar  
  7   4  20  1   
  8   5   7  ar  
  9   5  21  1   
 10   6   7  ar  
 11   6  22  1   
 12   7   8  1   
 13   8   9  am  
 14   8  23  1   
 15   9  10  2   
 16   9  11  1   
 17  11  12  1   
 18  11  13  1   
 19  11  24  1   
 20  12  14  1   
 21  12  25  1   
 22  12  26  1   
 23  13  15  1   
 24  13  27  1   
 25  13  28  1   
 26  14  16  1   
 27  14  17  1   
 28  14  18  1   
 29  15  16  1   
 30  15  29  1   
 31  15  30  1   
 32  17  31  1   
 33  17  32  1   
 34  17  33  1   
 35  18  34  1   
 36  18  35  1   
 37  18  36  1   
@<TRIPOS>SUBSTRUCTURE
  1 ****   8 GROUP 4 **** **** 0

# MOE 2024.06 (io_trps.svl 2023.06)
