@<TRIPOS>MOLECULE
NONAME
52 54 1 0 0 
SMALL
USER_CHARGES


@<TRIPOS>ATOM
  1 S        0.0210    -0.2330    -0.1020 S.3   1 <1>  -0.3320 
  2 C       -1.7650     0.0120    -0.1200 C.ar  1 <1>   0.1020 
  3 C        0.7820     1.4490    -0.0970 C.3   1 <1>   0.2140 
  4 C       -2.3410     1.2720    -0.1240 C.ar  1 <1>  -0.1500 
  5 C       -2.5520    -1.1240    -0.1310 C.ar  1 <1>  -0.1500 
  6 C        2.2930     1.2850    -0.0720 C.ar  1 <1>  -0.1440 
  7 C       -3.7220     1.3860    -0.1370 C.ar  1 <1>  -0.1500 
  8 C       -3.9310    -1.0020    -0.1440 C.ar  1 <1>  -0.1500 
  9 C        2.9380     0.9370     1.1030 C.ar  1 <1>  -0.1500 
 10 C        3.0440     1.4840    -1.2190 C.ar  1 <1>  -0.1500 
 11 C       -4.5210     0.2530    -0.1460 C.ar  1 <1>  -0.1430 
 12 C        4.3130     0.7870     1.1280 C.ar  1 <1>  -0.1500 
 13 C        4.4180     1.3330    -1.1890 C.ar  1 <1>  -0.1500 
 14 C       -6.0330     0.3840    -0.1620 C.3   1 <1>  -0.0970 
 15 C        5.0860     0.9690    -0.0200 C.ar  1 <1>   0.0860 
 16 C        6.5270     0.7780    -0.0080 C.2   1 <1>   0.5440 
 17 O        7.2460     1.3860    -0.7770 O.2   1 <1>  -0.5700 
 18 N        7.1290    -0.1470     0.8160 N.am  1 <1>  -0.6600 
 19 C        6.6700    -1.5640     0.7840 C.3   1 <1>   0.1400 
 20 C        8.5820    -0.0050     1.1240 C.3   1 <1>   0.1400 
 21 C        7.5110    -2.3630    -0.2360 C.3   1 <1>   0.3430 
 22 C        9.4090    -0.7780     0.0820 C.3   1 <1>   0.3430 
 23 N        8.9970    -2.2320     0.0010 N.4   1 <1>  -0.9590 
 24 C        9.7530    -2.9580    -1.0530 C.3   1 <1>   0.3430 
 25 C       11.1950    -3.1630    -0.6050 C.3   1 <1>  -0.2400 
 26 H        0.4300     1.9600     0.7810 H     1 <1>   0.0800 
 27 H        0.4510     1.9550    -0.9860 H     1 <1>   0.0800 
 28 H       -1.7480     2.1640    -0.1170 H     1 <1>   0.1500 
 29 H       -2.0890    -2.0950    -0.1290 H     1 <1>   0.1500 
 30 H       -4.1730     2.3630    -0.1420 H     1 <1>   0.1500 
 31 H       -4.5420    -1.8880    -0.1530 H     1 <1>   0.1500 
 32 H        2.3660     0.7810     2.0030 H     1 <1>   0.1500 
 33 H        2.5600     1.7570    -2.1420 H     1 <1>   0.1500 
 34 H        4.7940     0.5280     2.0540 H     1 <1>   0.1500 
 35 H        4.9880     1.4980    -2.0870 H     1 <1>   0.1500 
 36 H       -6.3390     1.2870     0.3350 H     1 <1>   0.0800 
 37 H       -6.4890    -0.4500     0.3420 H     1 <1>   0.0800 
 38 H       -6.3850     0.4100    -1.1780 H     1 <1>   0.0800 
 39 H        5.6320    -1.6140     0.5000 H     1 <1>   0.0800 
 40 H        6.7640    -1.9970     1.7650 H     1 <1>   0.0800 
 41 H        8.7830    -0.3750     2.1140 H     1 <1>   0.0800 
 42 H        8.8590     1.0360     1.1000 H     1 <1>   0.0800 
 43 H        7.2740    -1.9970    -1.2220 H     1 <1>   0.0800 
 44 H        7.2230    -3.4010    -0.1930 H     1 <1>   0.0800 
 45 H       10.4530    -0.7010     0.3360 H     1 <1>   0.0800 
 46 H        9.2650    -0.3040    -0.8760 H     1 <1>   0.0800 
 47 H        9.2130    -2.6700     0.9050 H     1 <1>   0.4500 
 48 H        9.7250    -2.4050    -1.9790 H     1 <1>   0.0800 
 49 H        9.3020    -3.9230    -1.2240 H     1 <1>   0.0800 
 50 H       11.7180    -2.2280    -0.5140 H     1 <1>   0.0800 
 51 H       11.7100    -3.7520    -1.3430 H     1 <1>   0.0800 
 52 H       11.2360    -3.6970     0.3280 H     1 <1>   0.0800 
@<TRIPOS>BOND
  1   1   2  1   
  2   1   3  1   
  3   2   4  ar  
  4   2   5  ar  
  5   3   6  1   
  6   3  26  1   
  7   3  27  1   
  8   4   7  ar  
  9   4  28  1   
 10   5   8  ar  
 11   5  29  1   
 12   6   9  ar  
 13   6  10  ar  
 14   7  11  ar  
 15   7  30  1   
 16   8  11  ar  
 17   8  31  1   
 18   9  12  ar  
 19   9  32  1   
 20  10  13  ar  
 21  10  33  1   
 22  11  14  1   
 23  12  15  ar  
 24  12  34  1   
 25  13  15  ar  
 26  13  35  1   
 27  14  36  1   
 28  14  37  1   
 29  14  38  1   
 30  15  16  1   
 31  16  17  2   
 32  16  18  am  
 33  18  19  1   
 34  18  20  1   
 35  19  21  1   
 36  19  39  1   
 37  19  40  1   
 38  20  22  1   
 39  20  41  1   
 40  20  42  1   
 41  21  23  1   
 42  21  43  1   
 43  21  44  1   
 44  22  23  1   
 45  22  45  1   
 46  22  46  1   
 47  23  24  1   
 48  23  47  1   
 49  24  25  1   
 50  24  48  1   
 51  24  49  1   
 52  25  50  1   
 53  25  51  1   
 54  25  52  1   
@<TRIPOS>SUBSTRUCTURE
  1 ****   9 GROUP 4 **** **** 0

# MOE 2024.06 (io_trps.svl 2023.06)
