@<TRIPOS>MOLECULE
NONAME
50 52 1 0 0 
SMALL
USER_CHARGES


@<TRIPOS>ATOM
  1 S        0.0520     0.2680     1.1940 S.3   1 <1>  -0.0800 
  2 C       -0.6580    -1.2130     0.5800 C.2   1 <1>   0.1040 
  3 C        1.6710    -0.3480     0.9670 C.2   1 <1>  -0.1400 
  4 N       -2.0370    -1.3500     0.5030 N.am  1 <1>  -0.4940 
  5 C        0.3110    -2.1140     0.2270 C.2   1 <1>  -0.0860 
  6 C        1.6520    -1.5990     0.4570 C.2   1 <1>  -0.0540 
  7 C        2.8050     0.5780     1.3610 C.3   1 <1>  -0.0600 
  8 C       -3.0890    -0.5350     0.8270 C.2   1 <1>   0.5690 
  9 C       -0.0010    -3.4210    -0.3090 C.2   1 <1>   0.7160 
 10 C        2.8530    -2.3480     0.1710 C.ar  1 <1>   0.0540 
 11 O       -2.9670     0.5770     1.2780 O.2   1 <1>  -0.5700 
 12 C       -4.4930    -1.0910     0.5860 C.3   1 <1>  -0.0190 
 13 O       -1.1530    -3.7790    -0.4780 O.2   1 <1>  -0.5700 
 14 N        0.9340    -4.3310    -0.6580 N.am  1 <1>  -0.8000 
 15 C        3.4540    -2.2780    -1.0810 C.ar  1 <1>  -0.1500 
 16 C        3.4230    -3.1730     1.1330 C.ar  1 <1>  -0.1500 
 17 C       -5.0780    -0.5570    -0.7350 C.3   1 <1>  -0.1600 
 18 C       -5.4530    -0.7790     1.7510 C.3   1 <1>  -0.1600 
 19 C        4.5850    -3.0200    -1.3690 C.ar  1 <1>  -0.1500 
 20 C        4.5540    -3.9180     0.8510 C.ar  1 <1>  -0.1500 
 21 C       -6.4920    -1.0900    -0.9830 C.3   1 <1>   0.1400 
 22 C       -6.8600    -1.3160     1.4800 C.3   1 <1>   0.1400 
 23 C        5.1350    -3.8430    -0.4020 C.ar  1 <1>  -0.1500 
 24 N       -7.3600    -0.7740     0.1860 N.am  1 <1>  -0.6600 
 25 C       -8.5010    -0.0280     0.0320 C.2   1 <1>   0.5690 
 26 O       -8.8870     0.3490    -1.0480 O.2   1 <1>  -0.5700 
 27 C       -9.3380     0.3580     1.2300 C.3   1 <1>  -0.1790 
 28 H       -2.3070    -2.2620     0.1190 H     1 <1>   0.3700 
 29 H        2.7530     1.4840     0.7850 H     1 <1>   0.0800 
 30 H        3.7560     0.1090     1.1840 H     1 <1>   0.0800 
 31 H        2.7290     0.8250     2.4050 H     1 <1>   0.0800 
 32 H       -4.4180    -2.1610     0.5070 H     1 <1>   0.0800 
 33 H        0.6480    -5.2350    -1.0290 H     1 <1>   0.3700 
 34 H        1.9370    -4.1530    -0.5650 H     1 <1>   0.3700 
 35 H        3.0270    -1.6360    -1.8320 H     1 <1>   0.1500 
 36 H        2.9720    -3.2290     2.1090 H     1 <1>   0.1500 
 37 H       -4.4440    -0.8410    -1.5560 H     1 <1>   0.0800 
 38 H       -5.1140     0.5190    -0.7070 H     1 <1>   0.0800 
 39 H       -5.5120     0.2860     1.9000 H     1 <1>   0.0800 
 40 H       -5.0720    -1.2130     2.6580 H     1 <1>   0.0800 
 41 H        5.0390    -2.9570    -2.3430 H     1 <1>   0.1500 
 42 H        4.9840    -4.5530     1.6060 H     1 <1>   0.1500 
 43 H       -6.4680    -2.1570    -1.1240 H     1 <1>   0.0800 
 44 H       -6.8870    -0.6470    -1.8830 H     1 <1>   0.0800 
 45 H       -7.5070    -1.0490     2.2950 H     1 <1>   0.0800 
 46 H       -6.8340    -2.3910     1.4190 H     1 <1>   0.0800 
 47 H        6.0160    -4.4210    -0.6240 H     1 <1>   0.1500 
 48 H       -9.7260    -0.5230     1.7030 H     1 <1>   0.0800 
 49 H      -10.1620     0.9700     0.9130 H     1 <1>   0.0800 
 50 H       -8.7420     0.9190     1.9250 H     1 <1>   0.0800 
@<TRIPOS>BOND
  1   1   2  1   
  2   1   3  1   
  3   2   4  1   
  4   2   5  2   
  5   3   6  2   
  6   3   7  1   
  7   4   8  am  
  8   4  28  1   
  9   5   6  1   
 10   5   9  1   
 11   6  10  1   
 12   7  29  1   
 13   7  30  1   
 14   7  31  1   
 15   8  11  2   
 16   8  12  1   
 17   9  13  2   
 18   9  14  am  
 19  10  15  ar  
 20  10  16  ar  
 21  12  17  1   
 22  12  18  1   
 23  12  32  1   
 24  14  33  1   
 25  14  34  1   
 26  15  19  ar  
 27  15  35  1   
 28  16  20  ar  
 29  16  36  1   
 30  17  21  1   
 31  17  37  1   
 32  17  38  1   
 33  18  22  1   
 34  18  39  1   
 35  18  40  1   
 36  19  23  ar  
 37  19  41  1   
 38  20  23  ar  
 39  20  42  1   
 40  21  24  1   
 41  21  43  1   
 42  21  44  1   
 43  22  24  1   
 44  22  45  1   
 45  22  46  1   
 46  23  47  1   
 47  24  25  am  
 48  25  26  2   
 49  25  27  1   
 50  27  48  1   
 51  27  49  1   
 52  27  50  1   
@<TRIPOS>SUBSTRUCTURE
  1 ****   4 GROUP 4 **** **** 0

# MOE 2024.06 (io_trps.svl 2023.06)
