@<TRIPOS>MOLECULE
NONAME
29 31 1 0 0 
SMALL
USER_CHARGES


@<TRIPOS>ATOM
  1 F       -0.0520    -0.3950    -0.2150 F     1 <1>  -0.3400 
  2 C       -0.6820    -1.3970     0.3880 C.3   1 <1>   1.1640 
  3 F       -0.0930    -2.5100    -0.0330 F     1 <1>  -0.3400 
  4 F       -0.3990    -1.2920     1.6800 F     1 <1>  -0.3400 
  5 C       -2.1980    -1.3990     0.1330 C.ar  1 <1>  -0.1440 
  6 C       -2.9320    -2.5750     0.2520 C.ar  1 <1>  -0.1500 
  7 C       -2.8730    -0.2350    -0.2160 C.ar  1 <1>  -0.1500 
  8 C       -4.3000    -2.5990     0.0300 C.ar  1 <1>   0.1170 
  9 C       -4.2390    -0.2500    -0.4370 C.ar  1 <1>  -0.1500 
 10 N       -4.9980    -3.8100     0.1450 N.am  1 <1>  -0.5470 
 11 C       -4.9820    -1.4160    -0.3110 C.ar  1 <1>   0.1000 
 12 C       -6.3270    -3.9380    -0.0910 C.2   1 <1>   0.5690 
 13 N       -6.3750    -1.3820    -0.5370 N.pl3 1 <1>  -0.8380 
 14 O       -6.8580    -5.0210    -0.0050 O.2   1 <1>  -0.5700 
 15 C       -7.1450    -2.6840    -0.4690 C.3   1 <1>   0.3500 
 16 C       -7.1560    -0.3150     0.1410 C.3   1 <1>   0.2090 
 17 C       -8.2760    -2.4080     0.5220 C.3   1 <1>  -0.1600 
 18 C       -8.5310    -0.9120     0.4060 C.3   1 <1>  -0.1600 
 19 H       -2.4360    -3.4910     0.5200 H     1 <1>   0.1500 
 20 H       -2.3420     0.6970    -0.3220 H     1 <1>   0.1500 
 21 H       -4.7370     0.6580    -0.7210 H     1 <1>   0.1500 
 22 H       -4.5040    -4.6680     0.3810 H     1 <1>   0.3700 
 23 H       -7.5720    -2.8570    -1.4400 H     1 <1>   0.0800 
 24 H       -7.2250     0.5590    -0.4850 H     1 <1>   0.0800 
 25 H       -6.6780    -0.0560     1.0710 H     1 <1>   0.0800 
 26 H       -7.9400    -2.6460     1.5170 H     1 <1>   0.0800 
 27 H       -9.1480    -2.9970     0.2990 H     1 <1>   0.0800 
 28 H       -9.1680    -0.7120    -0.4380 H     1 <1>   0.0800 
 29 H       -8.9810    -0.5010     1.2920 H     1 <1>   0.0800 
@<TRIPOS>BOND
  1   1   2  1   
  2   2   3  1   
  3   2   4  1   
  4   2   5  1   
  5   5   6  ar  
  6   5   7  ar  
  7   6   8  ar  
  8   6  19  1   
  9   7   9  ar  
 10   7  20  1   
 11   8  10  1   
 12   8  11  ar  
 13   9  11  ar  
 14   9  21  1   
 15  10  12  am  
 16  10  22  1   
 17  11  13  1   
 18  12  14  2   
 19  12  15  1   
 20  13  15  1   
 21  13  16  1   
 22  15  17  1   
 23  15  23  1   
 24  16  18  1   
 25  16  24  1   
 26  16  25  1   
 27  17  18  1   
 28  17  26  1   
 29  17  27  1   
 30  18  28  1   
 31  18  29  1   
@<TRIPOS>SUBSTRUCTURE
  1 ****   8 GROUP 4 **** **** 0

# MOE 2024.06 (io_trps.svl 2023.06)
