@<TRIPOS>MOLECULE
NONAME
29 30 1 0 0 
SMALL
USER_CHARGES


@<TRIPOS>ATOM
  1 CL      -0.0800    -0.2170     0.7820 Cl    1 <1>  -0.1770 
  2 C       -0.1020    -1.9220     0.4540 C.ar  1 <1>   0.7970 
  3 N        1.0510    -2.5200     0.5060 N.ar  1 <1>  -0.6200 
  4 N       -1.2660    -2.4300     0.1910 N.ar  1 <1>  -0.6200 
  5 C        0.9520    -3.7950     0.2490 C.ar  1 <1>   0.7020 
  6 C       -1.2320    -3.7180    -0.0480 C.ar  1 <1>   0.7200 
  7 O        2.1110    -4.4660     0.2850 O.3   1 <1>  -0.3630 
  8 N       -0.1450    -4.4500    -0.0310 N.ar  1 <1>  -0.6200 
  9 N       -2.4210    -4.3420    -0.3390 N.pl3 1 <1>  -0.8380 
 10 C        2.1900    -5.8500     0.0240 C.3   1 <1>   0.1200 
 11 C       -3.7280    -3.6200    -0.4740 C.3   1 <1>   0.2090 
 12 C       -2.5400    -5.8060    -0.6370 C.3   1 <1>   0.2090 
 13 C        3.6510    -6.2740     0.1500 C.3   1 <1>  -0.2400 
 14 C       -4.8510    -4.3710     0.2640 C.3   1 <1>   0.1200 
 15 C       -3.7350    -6.4250     0.1110 C.3   1 <1>   0.1200 
 16 O       -4.9130    -5.7100    -0.1410 O.3   1 <1>  -0.5600 
 17 H        1.8220    -6.0310    -0.9720 H     1 <1>   0.0800 
 18 H        1.5770    -6.3690     0.7420 H     1 <1>   0.0800 
 19 H       -3.9830    -3.5460    -1.5170 H     1 <1>   0.0800 
 20 H       -3.6700    -2.6210    -0.0790 H     1 <1>   0.0800 
 21 H       -1.6500    -6.3380    -0.3540 H     1 <1>   0.0800 
 22 H       -2.6810    -5.9400    -1.6950 H     1 <1>   0.0800 
 23 H        4.2540    -5.7400    -0.5620 H     1 <1>   0.0800 
 24 H        3.7420    -7.3280    -0.0450 H     1 <1>   0.0800 
 25 H        4.0090    -6.0770     1.1440 H     1 <1>   0.0800 
 26 H       -5.8020    -3.9180     0.0480 H     1 <1>   0.0800 
 27 H       -4.6860    -4.3380     1.3270 H     1 <1>   0.0800 
 28 H       -3.5530    -6.4250     1.1720 H     1 <1>   0.0800 
 29 H       -3.8910    -7.4380    -0.2130 H     1 <1>   0.0800 
@<TRIPOS>BOND
  1   1   2  1   
  2   2   3  ar  
  3   2   4  ar  
  4   3   5  ar  
  5   4   6  ar  
  6   5   7  1   
  7   5   8  ar  
  8   6   8  ar  
  9   6   9  1   
 10   7  10  1   
 11   9  11  1   
 12   9  12  1   
 13  10  13  1   
 14  10  17  1   
 15  10  18  1   
 16  11  14  1   
 17  11  19  1   
 18  11  20  1   
 19  12  15  1   
 20  12  21  1   
 21  12  22  1   
 22  13  23  1   
 23  13  24  1   
 24  13  25  1   
 25  14  16  1   
 26  14  26  1   
 27  14  27  1   
 28  15  16  1   
 29  15  28  1   
 30  15  29  1   
@<TRIPOS>SUBSTRUCTURE
  1 ****   6 GROUP 4 **** **** 0

# MOE 2024.06 (io_trps.svl 2023.06)
