@<TRIPOS>MOLECULE
NONAME
43 44 1 0 0 
SMALL
USER_CHARGES


@<TRIPOS>ATOM
  1 S       -0.4340     1.1950    -1.2140 S.o2  1 <1>   1.4470 
  2 O       -0.1330     0.3630    -2.3560 O.2   1 <1>  -0.6500 
  3 O       -0.3060     2.6320    -1.3010 O.2   1 <1>  -0.6500 
  4 N        0.5560     0.7770     0.0780 N.am  1 <1>  -0.9140 
  5 C       -2.0840     0.7680    -0.5940 C.ar  1 <1>  -0.0090 
  6 C        1.9430     0.4620    -0.1440 C.3   1 <1>   0.3560 
  7 C       -2.3870    -0.5340    -0.2180 C.ar  1 <1>  -0.1500 
  8 C       -3.0840     1.7230    -0.4660 C.ar  1 <1>  -0.1500 
  9 C        2.6350     1.4740    -1.0610 C.3   1 <1>  -0.2400 
 10 C        2.0850    -0.9690    -0.6670 C.3   1 <1>  -0.2400 
 11 C        2.5880     0.5350     1.2380 C.3   1 <1>  -0.2400 
 12 C       -3.6410    -0.8880     0.2540 C.ar  1 <1>  -0.1430 
 13 C       -4.3410     1.3850     0.0000 C.ar  1 <1>  -0.1500 
 14 C       -4.6520     0.0720     0.3390 C.ar  1 <1>   0.1170 
 15 C       -3.8650    -2.3290     0.7080 C.3   1 <1>  -0.0170 
 16 N       -5.9420    -0.2900     0.7820 N.am  1 <1>  -0.4770 
 17 C       -5.3180    -2.6180     1.1140 C.3   1 <1>  -0.1600 
 18 C       -7.1450     0.1230     0.2430 C.2   1 <1>   0.5690 
 19 C       -5.9620    -1.3970     1.7720 C.3   1 <1>   0.1400 
 20 O       -8.2040    -0.0890     0.7830 O.2   1 <1>  -0.5700 
 21 C       -7.1990     0.8340    -1.0920 C.3   1 <1>  -0.1790 
 22 H        0.5650     1.6300     0.6290 H     1 <1>   0.4200 
 23 H       -1.6150    -1.2810    -0.2930 H     1 <1>   0.1500 
 24 H       -2.8760     2.7470    -0.7330 H     1 <1>   0.1500 
 25 H        2.2800     1.3920    -2.0730 H     1 <1>   0.0800 
 26 H        3.6930     1.2860    -1.0800 H     1 <1>   0.0800 
 27 H        2.4780     2.4790    -0.7120 H     1 <1>   0.0800 
 28 H        1.5350    -1.6520    -0.0450 H     1 <1>   0.0800 
 29 H        3.1190    -1.2620    -0.6580 H     1 <1>   0.0800 
 30 H        1.7390    -1.0570    -1.6780 H     1 <1>   0.0800 
 31 H        2.5140     1.5280     1.6440 H     1 <1>   0.0800 
 32 H        3.6300     0.2790     1.1780 H     1 <1>   0.0800 
 33 H        2.1140    -0.1560     1.9120 H     1 <1>   0.0800 
 34 H       -5.0840     2.1520     0.1090 H     1 <1>   0.1500 
 35 H       -3.2300    -2.5070     1.5570 H     1 <1>   0.0800 
 36 H       -3.5700    -3.0090    -0.0720 H     1 <1>   0.0800 
 37 H       -5.3470    -3.4550     1.7890 H     1 <1>   0.0800 
 38 H       -5.8930    -2.8780     0.2420 H     1 <1>   0.0800 
 39 H       -6.9670    -1.6330     2.0760 H     1 <1>   0.0800 
 40 H       -5.4060    -1.1010     2.6450 H     1 <1>   0.0800 
 41 H       -7.1400     1.8950    -0.9420 H     1 <1>   0.0800 
 42 H       -8.1320     0.6100    -1.5760 H     1 <1>   0.0800 
 43 H       -6.4000     0.5070    -1.7310 H     1 <1>   0.0800 
@<TRIPOS>BOND
  1   1   2  2   
  2   1   3  2   
  3   1   4  am  
  4   1   5  1   
  5   4   6  1   
  6   4  22  1   
  7   5   7  ar  
  8   5   8  ar  
  9   6   9  1   
 10   6  10  1   
 11   6  11  1   
 12   7  12  ar  
 13   7  23  1   
 14   8  13  ar  
 15   8  24  1   
 16   9  25  1   
 17   9  26  1   
 18   9  27  1   
 19  10  28  1   
 20  10  29  1   
 21  10  30  1   
 22  11  31  1   
 23  11  32  1   
 24  11  33  1   
 25  12  14  ar  
 26  12  15  1   
 27  13  14  ar  
 28  13  34  1   
 29  14  16  1   
 30  15  17  1   
 31  15  35  1   
 32  15  36  1   
 33  16  18  am  
 34  16  19  1   
 35  17  19  1   
 36  17  37  1   
 37  17  38  1   
 38  18  20  2   
 39  18  21  1   
 40  19  39  1   
 41  19  40  1   
 42  21  41  1   
 43  21  42  1   
 44  21  43  1   
@<TRIPOS>SUBSTRUCTURE
  1 ****   7 GROUP 4 **** **** 0

# MOE 2024.06 (io_trps.svl 2023.06)
