@<TRIPOS>MOLECULE
NONAME
50 51 1 0 0 
SMALL
USER_CHARGES


@<TRIPOS>ATOM
  1 S        0.3360    -0.2300    -0.9560 S.o2  1 <1>   1.3330 
  2 O        0.4590    -0.3940     0.4690 O.2   1 <1>  -0.6500 
  3 O        1.4100    -0.6700    -1.8180 O.2   1 <1>  -0.6500 
  4 N        0.1040     1.4510    -1.2860 N.am  1 <1>  -0.6930 
  5 C       -1.1900    -0.9450    -1.5250 C.3   1 <1>  -0.1350 
  6 C       -0.7350     2.1940    -0.4580 C.ar  1 <1>   0.1990 
  7 C        1.2310     2.1430    -1.9940 C.3   1 <1>   0.3370 
  8 C       -0.3160     2.6260     0.7950 C.ar  1 <1>  -0.1500 
  9 C       -2.0180     2.5170    -0.8810 C.ar  1 <1>  -0.1500 
 10 C        2.4900     2.3280    -1.1110 C.2   1 <1>   0.5690 
 11 C        0.7320     3.4550    -2.6250 C.3   1 <1>  -0.2400 
 12 C       -1.1560     3.3630     1.6100 C.ar  1 <1>  -0.1500 
 13 C       -2.8630     3.2530    -0.0710 C.ar  1 <1>  -0.1500 
 14 O        2.7170     3.4060    -0.6110 O.2   1 <1>  -0.5700 
 15 N        3.3100     1.2430    -0.9300 N.am  1 <1>  -0.5470 
 16 C       -2.4410     3.6810     1.1770 C.ar  1 <1>   0.0830 
 17 C        4.4990     1.0910    -0.2030 C.ar  1 <1>   0.1170 
 18 O       -3.3330     4.3990     1.9110 O.3   1 <1>  -0.3630 
 19 C        5.3590     2.1470     0.0800 C.ar  1 <1>  -0.1500 
 20 C        4.8450    -0.1770     0.2440 C.ar  1 <1>  -0.1500 
 21 C       -2.9870     4.8900     3.1870 C.3   1 <1>   0.0400 
 22 C        6.5270     1.9390     0.7910 C.ar  1 <1>  -0.1500 
 23 C        6.0130    -0.3880     0.9540 C.ar  1 <1>  -0.1500 
 24 C        6.8630     0.6700     1.2340 C.ar  1 <1>  -0.1430 
 25 C        8.1460     0.4430     2.0170 C.3   1 <1>  -0.0170 
 26 C        9.3100     0.1440     1.0700 C.3   1 <1>  -0.2400 
 27 H       -1.1660    -2.0090    -1.4000 H     1 <1>   0.0800 
 28 H       -1.3420    -0.7210    -2.5620 H     1 <1>   0.0800 
 29 H       -2.0140    -0.5530    -0.9600 H     1 <1>   0.0800 
 30 H        1.5290     1.5240    -2.8210 H     1 <1>   0.0800 
 31 H        0.6750     2.3780     1.1330 H     1 <1>   0.1500 
 32 H       -2.3510     2.1950    -1.8500 H     1 <1>   0.1500 
 33 H        0.4620     4.1660    -1.8640 H     1 <1>   0.0800 
 34 H       -0.1140     3.2680    -3.2600 H     1 <1>   0.0800 
 35 H        1.5160     3.8890    -3.2170 H     1 <1>   0.0800 
 36 H       -0.7920     3.6760     2.5690 H     1 <1>   0.1500 
 37 H       -3.8560     3.5040    -0.3990 H     1 <1>   0.1500 
 38 H        2.9350     0.3600    -1.3010 H     1 <1>   0.3700 
 39 H        5.1200     3.1380    -0.2570 H     1 <1>   0.1500 
 40 H        4.1930    -1.0070     0.0390 H     1 <1>   0.1500 
 41 H       -3.8320     5.4280     3.5780 H     1 <1>   0.0800 
 42 H       -2.1450     5.5520     3.0900 H     1 <1>   0.0800 
 43 H       -2.7540     4.0590     3.8290 H     1 <1>   0.0800 
 44 H        7.1750     2.7720     0.9970 H     1 <1>   0.1500 
 45 H        6.2590    -1.3800     1.2890 H     1 <1>   0.1500 
 46 H        8.0150    -0.3780     2.7000 H     1 <1>   0.0800 
 47 H        8.3720     1.3190     2.6010 H     1 <1>   0.0800 
 48 H        9.1010    -0.7410     0.4950 H     1 <1>   0.0800 
 49 H       10.2150    -0.0110     1.6300 H     1 <1>   0.0800 
 50 H        9.4570     0.9660     0.3920 H     1 <1>   0.0800 
@<TRIPOS>BOND
  1   1   2  2   
  2   1   3  2   
  3   1   4  am  
  4   1   5  1   
  5   4   6  1   
  6   4   7  1   
  7   5  27  1   
  8   5  28  1   
  9   5  29  1   
 10   6   8  ar  
 11   6   9  ar  
 12   7  10  1   
 13   7  11  1   
 14   7  30  1   
 15   8  12  ar  
 16   8  31  1   
 17   9  13  ar  
 18   9  32  1   
 19  10  14  2   
 20  10  15  am  
 21  11  33  1   
 22  11  34  1   
 23  11  35  1   
 24  12  16  ar  
 25  12  36  1   
 26  13  16  ar  
 27  13  37  1   
 28  15  17  1   
 29  15  38  1   
 30  16  18  1   
 31  17  19  ar  
 32  17  20  ar  
 33  18  21  1   
 34  19  22  ar  
 35  19  39  1   
 36  20  23  ar  
 37  20  40  1   
 38  21  41  1   
 39  21  42  1   
 40  21  43  1   
 41  22  24  ar  
 42  22  44  1   
 43  23  24  ar  
 44  23  45  1   
 45  24  25  1   
 46  25  26  1   
 47  25  46  1   
 48  25  47  1   
 49  26  48  1   
 50  26  49  1   
 51  26  50  1   
@<TRIPOS>SUBSTRUCTURE
  1 ****  10 GROUP 4 **** **** 0

# MOE 2024.06 (io_trps.svl 2023.06)
