@<TRIPOS>MOLECULE
NONAME
38 38 1 0 0 
SMALL
USER_CHARGES


@<TRIPOS>ATOM
  1 I        0.2710     0.4790     1.3320 I     1 <1>  -0.0810 
  2 C        1.9230     1.4900     0.4210 C.ar  1 <1>   0.0810 
  3 C        1.9920     2.8800     0.3820 C.ar  1 <1>   0.0820 
  4 C        2.9180     0.6780    -0.0980 C.ar  1 <1>  -0.1500 
  5 O        0.9720     3.6500     0.8490 O.3   1 <1>  -0.3630 
  6 C        3.1530     3.4560    -0.1470 C.ar  1 <1>   0.0820 
  7 C        4.0400     1.2640    -0.6640 C.ar  1 <1>  -0.1440 
  8 C       -0.1360     3.8610    -0.0050 C.3   1 <1>   0.2000 
  9 O        3.4010     4.7910    -0.1810 O.3   1 <1>  -0.3630 
 10 C        4.1450     2.6490    -0.6830 C.ar  1 <1>  -0.1500 
 11 C        5.1500     0.4120    -1.2380 C.3   1 <1>   0.4870 
 12 C        0.1940     4.9450    -1.0330 C.3   1 <1>  -0.2400 
 13 C       -1.3120     4.2770     0.8750 C.3   1 <1>  -0.2400 
 14 C        3.1810     5.5570     0.9860 C.3   1 <1>   0.0400 
 15 N        6.1550     0.2500    -0.1670 N.4   1 <1>  -0.9060 
 16 C        7.3320    -0.5450    -0.5710 C.3   1 <1>   0.3430 
 17 C        8.2760    -0.6270     0.6180 C.3   1 <1>  -0.2400 
 18 H        2.8000    -0.3920    -0.0540 H     1 <1>   0.1500 
 19 H       -0.3670     2.9370    -0.5070 H     1 <1>   0.0800 
 20 H        5.0030     3.1380    -1.1130 H     1 <1>   0.1500 
 21 H        5.5840     0.9030    -2.0940 H     1 <1>   0.0800 
 22 H        4.7610    -0.5460    -1.5430 H     1 <1>   0.0800 
 23 H        0.4460     5.8670    -0.5430 H     1 <1>   0.0800 
 24 H       -0.6570     5.1180    -1.6650 H     1 <1>   0.0800 
 25 H        1.0130     4.6360    -1.6570 H     1 <1>   0.0800 
 26 H       -1.0850     5.1910     1.3960 H     1 <1>   0.0800 
 27 H       -1.5260     3.5050     1.5910 H     1 <1>   0.0800 
 28 H       -2.1870     4.4330     0.2720 H     1 <1>   0.0800 
 29 H        3.7520     6.4640     0.9050 H     1 <1>   0.0800 
 30 H        3.5000     4.9950     1.8460 H     1 <1>   0.0800 
 31 H        2.1370     5.7980     1.0630 H     1 <1>   0.0800 
 32 H        5.6950    -0.1790     0.6440 H     1 <1>   0.4500 
 33 H        6.4450     1.1850     0.1410 H     1 <1>   0.4500 
 34 H        7.8330    -0.0760    -1.4040 H     1 <1>   0.0800 
 35 H        7.0300    -1.5390    -0.8660 H     1 <1>   0.0800 
 36 H        8.6110     0.3520     0.9130 H     1 <1>   0.0800 
 37 H        9.1430    -1.2030     0.3430 H     1 <1>   0.0800 
 38 H        7.8060    -1.1160     1.4520 H     1 <1>   0.0800 
@<TRIPOS>BOND
  1   1   2  1   
  2   2   3  ar  
  3   2   4  ar  
  4   3   5  1   
  5   3   6  ar  
  6   4   7  ar  
  7   4  18  1   
  8   5   8  1   
  9   6   9  1   
 10   6  10  ar  
 11   7  10  ar  
 12   7  11  1   
 13   8  12  1   
 14   8  13  1   
 15   8  19  1   
 16   9  14  1   
 17  10  20  1   
 18  11  15  1   
 19  11  21  1   
 20  11  22  1   
 21  12  23  1   
 22  12  24  1   
 23  12  25  1   
 24  13  26  1   
 25  13  27  1   
 26  13  28  1   
 27  14  29  1   
 28  14  30  1   
 29  14  31  1   
 30  15  16  1   
 31  15  32  1   
 32  15  33  1   
 33  16  17  1   
 34  16  34  1   
 35  16  35  1   
 36  17  36  1   
 37  17  37  1   
 38  17  38  1   
@<TRIPOS>SUBSTRUCTURE
  1 ****   6 GROUP 4 **** **** 0

# MOE 2024.06 (io_trps.svl 2023.06)
