@<TRIPOS>MOLECULE
NONAME
34 35 1 0 0 
SMALL
USER_CHARGES


@<TRIPOS>ATOM
  1 CL      -1.4980     3.5650    -0.2480 Cl    1 <1>  -0.1770 
  2 C       -2.3850     2.0700    -0.0850 C.ar  1 <1>   0.1770 
  3 C       -3.1760     1.8700     1.0320 C.ar  1 <1>  -0.1500 
  4 C       -2.2800     1.1090    -1.0730 C.ar  1 <1>  -0.1500 
  5 C       -3.8790     0.6840     1.1620 C.ar  1 <1>  -0.1500 
  6 C       -2.9860    -0.0750    -0.9410 C.ar  1 <1>  -0.1500 
  7 C       -3.7900    -0.2900     0.1700 C.ar  1 <1>   0.0830 
  8 O       -4.4460    -1.4780     0.2380 O.3   1 <1>  -0.2320 
  9 C       -5.6230    -1.7410     0.8080 C.2   1 <1>   0.6590 
 10 O       -6.3250    -0.9000     1.3070 O.2   1 <1>  -0.5700 
 11 C       -6.0530    -3.2070     0.7920 C.3   1 <1>  -0.0190 
 12 C       -5.0710    -4.0980     1.5790 C.3   1 <1>  -0.1600 
 13 C       -6.2300    -3.7330    -0.6470 C.3   1 <1>  -0.1600 
 14 C       -5.5100    -5.5680     1.5630 C.3   1 <1>  -0.1600 
 15 C       -6.6660    -5.2050    -0.6570 C.3   1 <1>  -0.1600 
 16 C       -5.6810    -6.0870     0.1260 C.3   1 <1>  -0.0800 
 17 C       -6.1590    -7.5430     0.1370 C.3   1 <1>  -0.2400 
 18 H       -3.2380     2.6330     1.7870 H     1 <1>   0.1500 
 19 H       -1.6570     1.2900    -1.9300 H     1 <1>   0.1500 
 20 H       -4.4870     0.5280     2.0350 H     1 <1>   0.1500 
 21 H       -2.9160    -0.8340    -1.7000 H     1 <1>   0.1500 
 22 H       -7.0100    -3.2580     1.2810 H     1 <1>   0.0800 
 23 H       -5.0120    -3.7550     2.5980 H     1 <1>   0.0800 
 24 H       -4.0870    -4.0210     1.1490 H     1 <1>   0.0800 
 25 H       -5.3010    -3.6390    -1.1840 H     1 <1>   0.0800 
 26 H       -6.9680    -3.1390    -1.1580 H     1 <1>   0.0800 
 27 H       -6.4420    -5.6660     2.0940 H     1 <1>   0.0800 
 28 H       -4.7760    -6.1640     2.0770 H     1 <1>   0.0800 
 29 H       -6.7300    -5.5490    -1.6750 H     1 <1>   0.0800 
 30 H       -7.6470    -5.2860    -0.2200 H     1 <1>   0.0800 
 31 H       -4.7230    -6.0510    -0.3670 H     1 <1>   0.0800 
 32 H       -7.1160    -7.6260     0.6210 H     1 <1>   0.0800 
 33 H       -5.4540    -8.1630     0.6610 H     1 <1>   0.0800 
 34 H       -6.2510    -7.9120    -0.8690 H     1 <1>   0.0800 
@<TRIPOS>BOND
  1   1   2  1   
  2   2   3  ar  
  3   2   4  ar  
  4   3   5  ar  
  5   3  18  1   
  6   4   6  ar  
  7   4  19  1   
  8   5   7  ar  
  9   5  20  1   
 10   6   7  ar  
 11   6  21  1   
 12   7   8  1   
 13   8   9  1   
 14   9  10  2   
 15   9  11  1   
 16  11  12  1   
 17  11  13  1   
 18  11  22  1   
 19  12  14  1   
 20  12  23  1   
 21  12  24  1   
 22  13  15  1   
 23  13  25  1   
 24  13  26  1   
 25  14  16  1   
 26  14  27  1   
 27  14  28  1   
 28  15  16  1   
 29  15  29  1   
 30  15  30  1   
 31  16  17  1   
 32  16  31  1   
 33  17  32  1   
 34  17  33  1   
 35  17  34  1   
@<TRIPOS>SUBSTRUCTURE
  1 ****   8 GROUP 4 **** **** 0

# MOE 2024.06 (io_trps.svl 2023.06)
