@<TRIPOS>MOLECULE
NONAME
42 44 1 0 0 
SMALL
USER_CHARGES


@<TRIPOS>ATOM
  1 S       -1.5070    -0.3900    -1.3480 S.3   1 <1>  -0.0800 
  2 C       -2.2300     0.4910     0.0060 C.2   1 <1>  -0.0450 
  3 C       -1.3290     1.0640    -2.3020 C.2   1 <1>  -0.1100 
  4 C       -2.6560    -0.1850     1.2020 C.2   1 <1>   0.5940 
  5 C       -2.2970     1.8060    -0.3320 C.2   1 <1>  -0.1500 
  6 C       -1.7920     2.1290    -1.6240 C.2   1 <1>  -0.1500 
  7 O       -3.2640     0.3920     2.0710 O.2   1 <1>  -0.5700 
  8 C       -2.3980    -1.6580     1.4360 C.3   1 <1>  -0.0990 
  9 C       -3.6970    -2.4670     1.4190 C.3   1 <1>   0.4850 
 10 O       -4.4980    -2.0900     2.4970 O.3   1 <1>  -0.6800 
 11 C       -3.3930    -3.9820     1.3900 C.2   1 <1>   0.5690 
 12 C       -4.5160    -2.3310     0.1360 C.ar  1 <1>  -0.1440 
 13 O       -2.7180    -4.5740     2.2050 O.2   1 <1>  -0.5700 
 14 N       -3.9250    -4.5380     0.2590 N.am  1 <1>  -0.4770 
 15 C       -4.5870    -3.5660    -0.4870 C.ar  1 <1>   0.1170 
 16 C       -5.1520    -1.2300    -0.4160 C.ar  1 <1>  -0.1500 
 17 C       -3.8620    -5.9790    -0.0690 C.3   1 <1>   0.1400 
 18 C       -5.2650    -3.7090    -1.6890 C.ar  1 <1>  -0.1500 
 19 C       -5.8290    -1.3730    -1.6170 C.ar  1 <1>  -0.1500 
 20 C       -5.1610    -6.6660     0.3610 C.3   1 <1>  -0.1600 
 21 C       -5.8820    -2.6050    -2.2520 C.ar  1 <1>  -0.1500 
 22 C       -5.1400    -8.1610     0.0210 C.3   1 <1>  -0.1600 
 23 C       -6.4420    -8.8400     0.4530 C.3   1 <1>  -0.2400 
 24 H       -0.8920     0.9710    -3.2820 H     1 <1>   0.1500 
 25 H       -2.7010     2.5710     0.3090 H     1 <1>   0.1500 
 26 H       -1.7980     3.1420    -1.9860 H     1 <1>   0.1500 
 27 H       -1.9230    -1.7860     2.3910 H     1 <1>   0.0800 
 28 H       -1.7300    -2.0580     0.7010 H     1 <1>   0.0800 
 29 H       -4.4870    -1.1110     2.5710 H     1 <1>   0.4000 
 30 H       -5.1350    -0.2710     0.0730 H     1 <1>   0.1500 
 31 H       -3.0280    -6.4240     0.4470 H     1 <1>   0.0800 
 32 H       -3.7060    -6.0970    -1.1270 H     1 <1>   0.0800 
 33 H       -5.3130    -4.6660    -2.1740 H     1 <1>   0.1500 
 34 H       -6.3210    -0.5220    -2.0570 H     1 <1>   0.1500 
 35 H       -5.9940    -6.1990    -0.1340 H     1 <1>   0.0800 
 36 H       -5.2830    -6.5440     1.4240 H     1 <1>   0.0800 
 37 H       -6.4100    -2.7030    -3.1850 H     1 <1>   0.1500 
 38 H       -4.3120    -8.6340     0.5220 H     1 <1>   0.0800 
 39 H       -5.0080    -8.2920    -1.0400 H     1 <1>   0.0800 
 40 H       -6.5830    -8.7400     1.5160 H     1 <1>   0.0800 
 41 H       -6.4100    -9.8870     0.2100 H     1 <1>   0.0800 
 42 H       -7.2840    -8.3970    -0.0510 H     1 <1>   0.0800 
@<TRIPOS>BOND
  1   1   2  1   
  2   1   3  1   
  3   2   4  1   
  4   2   5  2   
  5   3   6  2   
  6   3  24  1   
  7   4   7  2   
  8   4   8  1   
  9   5   6  1   
 10   5  25  1   
 11   6  26  1   
 12   8   9  1   
 13   8  27  1   
 14   8  28  1   
 15   9  10  1   
 16   9  11  1   
 17   9  12  1   
 18  10  29  1   
 19  11  13  2   
 20  11  14  am  
 21  12  15  ar  
 22  12  16  ar  
 23  14  15  1   
 24  14  17  1   
 25  15  18  ar  
 26  16  19  ar  
 27  16  30  1   
 28  17  20  1   
 29  17  31  1   
 30  17  32  1   
 31  18  21  ar  
 32  18  33  1   
 33  19  21  ar  
 34  19  34  1   
 35  20  22  1   
 36  20  35  1   
 37  20  36  1   
 38  21  37  1   
 39  22  23  1   
 40  22  38  1   
 41  22  39  1   
 42  23  40  1   
 43  23  41  1   
 44  23  42  1   
@<TRIPOS>SUBSTRUCTURE
  1 ****  12 GROUP 4 **** **** 0

# MOE 2024.06 (io_trps.svl 2023.06)
