@<TRIPOS>MOLECULE
NONAME
40 41 1 0 0 
SMALL
USER_CHARGES


@<TRIPOS>ATOM
  1 O        0.6000    -2.6300    -3.2760 O.co2 1 <1>  -0.9000 
  2 C        0.0900    -3.6750    -2.8270 C.2   1 <1>   1.0320 
  3 O        0.3630    -4.7600    -3.3690 O.co2 1 <1>  -0.9000 
  4 C       -0.8280    -3.5670    -1.7040 C.2   1 <1>  -0.0920 
  5 O       -1.5030    -4.5920    -1.1900 O.3   1 <1>  -0.2800 
  6 C       -1.1720    -2.4530    -1.0140 C.2   1 <1>  -0.1500 
  7 C       -2.2810    -4.1740    -0.2110 C.2   1 <1>  -0.0400 
  8 C       -2.1250    -2.8340    -0.0660 C.2   1 <1>  -0.1810 
  9 C       -3.1410    -5.2490     0.4740 C.3   1 <1>   0.1800 
 10 C       -2.7990    -1.8220     0.8250 C.3   1 <1>   0.5240 
 11 C       -4.0130    -4.6870     1.6050 C.3   1 <1>  -0.2400 
 12 C       -4.0610    -5.8970    -0.5700 C.3   1 <1>  -0.2400 
 13 C       -2.2170    -6.3220     1.0670 C.3   1 <1>  -0.2400 
 14 N       -3.5540    -0.8880    -0.0530 N.4   1 <1>  -0.9590 
 15 C       -4.2650     0.2050     0.6870 C.3   1 <1>   0.3430 
 16 C       -4.4590    -1.5840    -1.0330 C.3   1 <1>   0.3430 
 17 C       -5.2520     0.9730    -0.2220 C.3   1 <1>   0.1200 
 18 C       -5.1060    -0.5700    -2.0050 C.3   1 <1>   0.1200 
 19 O       -4.9490     0.7580    -1.5710 O.3   1 <1>  -0.5600 
 20 H       -0.7670    -1.4720    -1.2000 H     1 <1>   0.1500 
 21 H       -2.0500    -1.2870     1.3850 H     1 <1>   0.0800 
 22 H       -3.4650    -2.3060     1.5140 H     1 <1>   0.0800 
 23 H       -3.3980    -4.2430     2.3660 H     1 <1>   0.0800 
 24 H       -4.5790    -5.4810     2.0620 H     1 <1>   0.0800 
 25 H       -4.7090    -3.9640     1.2250 H     1 <1>   0.0800 
 26 H       -4.7030    -5.1610    -1.0160 H     1 <1>   0.0800 
 27 H       -4.6670    -6.6650    -0.1230 H     1 <1>   0.0800 
 28 H       -3.4730    -6.3460    -1.3530 H     1 <1>   0.0800 
 29 H       -1.5460    -5.8840     1.7830 H     1 <1>   0.0800 
 30 H       -1.6240    -6.7730     0.2890 H     1 <1>   0.0800 
 31 H       -2.7850    -7.0970     1.5500 H     1 <1>   0.0800 
 32 H       -2.8570    -0.4310    -0.6600 H     1 <1>   0.4500 
 33 H       -3.5430     0.9020     1.0800 H     1 <1>   0.0800 
 34 H       -4.8120    -0.2020     1.5210 H     1 <1>   0.0800 
 35 H       -5.2340    -2.1110    -0.5030 H     1 <1>   0.0800 
 36 H       -3.9080    -2.3120    -1.6080 H     1 <1>   0.0800 
 37 H       -5.1920     2.0300    -0.0300 H     1 <1>   0.0800 
 38 H       -6.2660     0.6550    -0.0450 H     1 <1>   0.0800 
 39 H       -6.1570    -0.7740    -2.1180 H     1 <1>   0.0800 
 40 H       -4.6430    -0.6490    -2.9740 H     1 <1>   0.0800 
@<TRIPOS>BOND
  1   1   2  ar  
  2   2   3  ar  
  3   2   4  1   
  4   4   5  1   
  5   4   6  2   
  6   5   7  1   
  7   6   8  1   
  8   6  20  1   
  9   7   8  2   
 10   7   9  1   
 11   8  10  1   
 12   9  11  1   
 13   9  12  1   
 14   9  13  1   
 15  10  14  1   
 16  10  21  1   
 17  10  22  1   
 18  11  23  1   
 19  11  24  1   
 20  11  25  1   
 21  12  26  1   
 22  12  27  1   
 23  12  28  1   
 24  13  29  1   
 25  13  30  1   
 26  13  31  1   
 27  14  15  1   
 28  14  16  1   
 29  14  32  1   
 30  15  17  1   
 31  15  33  1   
 32  15  34  1   
 33  16  18  1   
 34  16  35  1   
 35  16  36  1   
 36  17  19  1   
 37  17  37  1   
 38  17  38  1   
 39  18  19  1   
 40  18  39  1   
 41  18  40  1   
@<TRIPOS>SUBSTRUCTURE
  1 ****   8 GROUP 4 **** **** 0

# MOE 2024.06 (io_trps.svl 2023.06)
