@<TRIPOS>MOLECULE
NONAME
37 38 1 0 0 
SMALL
USER_CHARGES


@<TRIPOS>ATOM
  1 S        0.1260    -0.1370     0.3080 S.o2  1 <1>   1.3330 
  2 O       -0.0500     0.1590     1.7100 O.2   1 <1>  -0.6500 
  3 O        1.2320    -0.9620    -0.1220 O.2   1 <1>  -0.6500 
  4 N       -1.3070    -0.8390    -0.2600 N.am  1 <1>  -0.8490 
  5 C        0.2130     1.3880    -0.6070 C.3   1 <1>  -0.1350 
  6 C       -2.5060    -0.2380     0.3540 C.3   1 <1>   0.1960 
  7 C       -1.3000    -2.2910    -0.0470 C.3   1 <1>   0.1960 
  8 C       -3.7820    -0.7810    -0.3070 C.3   1 <1>  -0.0190 
  9 C       -2.5340    -2.9340    -0.6910 C.3   1 <1>  -0.1600 
 10 C       -5.0280    -0.1260     0.2760 C.2   1 <1>   0.5690 
 11 C       -3.8370    -2.3130    -0.1710 C.3   1 <1>  -0.1600 
 12 O       -4.9720     0.4420     1.3390 O.2   1 <1>  -0.5700 
 13 N       -6.1830    -0.2000    -0.4270 N.am  1 <1>  -0.7300 
 14 C       -7.4850     0.3350     0.0340 C.3   1 <1>   0.3200 
 15 C       -8.5810    -0.6960    -0.1700 C.2   1 <1>  -0.0400 
 16 O       -9.8360    -0.2960    -0.0820 O.3   1 <1>  -0.2800 
 17 C       -8.5310    -2.0210    -0.4380 C.2   1 <1>  -0.1500 
 18 C      -10.6080    -1.3440    -0.2910 C.2   1 <1>  -0.0100 
 19 C       -9.8630    -2.4460    -0.5190 C.2   1 <1>  -0.1500 
 20 H        1.1170     1.9090    -0.3600 H     1 <1>   0.0800 
 21 H       -0.6200     2.0180    -0.3700 H     1 <1>   0.0800 
 22 H        0.2100     1.1850    -1.6590 H     1 <1>   0.0800 
 23 H       -2.4810     0.8320     0.2360 H     1 <1>   0.0800 
 24 H       -2.5240    -0.4510     1.4120 H     1 <1>   0.0800 
 25 H       -1.2770    -2.5040     1.0100 H     1 <1>   0.0800 
 26 H       -0.4190    -2.7220    -0.4940 H     1 <1>   0.0800 
 27 H       -3.7390    -0.5220    -1.3490 H     1 <1>   0.0800 
 28 H       -2.5290    -3.9900    -0.4860 H     1 <1>   0.0800 
 29 H       -2.4680    -2.8080    -1.7580 H     1 <1>   0.0800 
 30 H       -4.6740    -2.7080    -0.7200 H     1 <1>   0.0800 
 31 H       -3.9660    -2.5720     0.8670 H     1 <1>   0.0800 
 32 H       -6.2190    -0.6800    -1.3260 H     1 <1>   0.3700 
 33 H       -7.7200     1.2180    -0.5340 H     1 <1>   0.0800 
 34 H       -7.4370     0.6050     1.0750 H     1 <1>   0.0800 
 35 H       -7.6710    -2.6540    -0.5630 H     1 <1>   0.1500 
 36 H      -11.6760    -1.2160    -0.2590 H     1 <1>   0.1500 
 37 H      -10.1910    -3.4500    -0.7200 H     1 <1>   0.1500 
@<TRIPOS>BOND
  1   1   2  2   
  2   1   3  2   
  3   1   4  am  
  4   1   5  1   
  5   4   6  1   
  6   4   7  1   
  7   5  20  1   
  8   5  21  1   
  9   5  22  1   
 10   6   8  1   
 11   6  23  1   
 12   6  24  1   
 13   7   9  1   
 14   7  25  1   
 15   7  26  1   
 16   8  10  1   
 17   8  11  1   
 18   8  27  1   
 19   9  11  1   
 20   9  28  1   
 21   9  29  1   
 22  10  12  2   
 23  10  13  am  
 24  11  30  1   
 25  11  31  1   
 26  13  14  1   
 27  13  32  1   
 28  14  15  1   
 29  14  33  1   
 30  14  34  1   
 31  15  16  1   
 32  15  17  2   
 33  16  18  1   
 34  17  19  1   
 35  17  35  1   
 36  18  19  2   
 37  18  36  1   
 38  19  37  1   
@<TRIPOS>SUBSTRUCTURE
  1 ****   8 GROUP 4 **** **** 0

# MOE 2024.06 (io_trps.svl 2023.06)
