@<TRIPOS>MOLECULE
NONAME
33 34 1 0 0 
SMALL
USER_CHARGES


@<TRIPOS>ATOM
  1 O       -7.4890     2.7190     0.7870 O.3   1 <1>  -0.3630 
  2 C       -6.4780     3.4550     0.2480 C.ar  1 <1>   0.0830 
  3 C       -7.2110     1.5840     1.5860 C.3   1 <1>   0.0400 
  4 C       -6.8160     4.4140    -0.7030 C.ar  1 <1>  -0.1440 
  5 C       -5.1470     3.2910     0.6150 C.ar  1 <1>  -0.1500 
  6 C       -5.8250     5.1970    -1.2770 C.ar  1 <1>  -0.1500 
  7 C       -8.2610     4.5960    -1.1110 C.3   1 <1>   0.4870 
  8 C       -4.1590     4.0730     0.0430 C.ar  1 <1>   0.0830 
  9 C       -4.5020     5.0300    -0.9070 C.ar  1 <1>  -0.1500 
 10 N       -9.0060     4.9880     0.0970 N.4   1 <1>  -0.7990 
 11 O       -2.8900     3.8460     0.4600 O.3   1 <1>  -0.3620 
 12 C      -10.4550     5.0380    -0.0920 C.3   1 <1>   0.2960 
 13 C       -1.7950     4.5560    -0.0780 C.3   1 <1>   0.0400 
 14 C      -11.3140     4.7970     1.1000 C.3   1 <1>  -0.2000 
 15 C      -11.2150     3.7610     0.0180 C.3   1 <1>  -0.2000 
 16 H       -8.1410     1.1000     1.8260 H     1 <1>   0.0800 
 17 H       -6.7220     1.9000     2.4910 H     1 <1>   0.0800 
 18 H       -6.5840     0.9080     1.0300 H     1 <1>   0.0800 
 19 H       -4.8400     2.5670     1.3450 H     1 <1>   0.1500 
 20 H       -6.0630     5.9420    -2.0180 H     1 <1>   0.1500 
 21 H       -8.6440     3.6640    -1.4950 H     1 <1>   0.0800 
 22 H       -8.3480     5.3540    -1.8720 H     1 <1>   0.0800 
 23 H       -3.7520     5.6480    -1.3670 H     1 <1>   0.1500 
 24 H       -8.6340     5.8710     0.4590 H     1 <1>   0.4500 
 25 H       -8.7670     4.2650     0.7940 H     1 <1>   0.4500 
 26 H      -10.7800     5.7740    -0.8130 H     1 <1>   0.1000 
 27 H       -0.8990     4.1950     0.3940 H     1 <1>   0.0800 
 28 H       -1.9200     5.6040     0.1300 H     1 <1>   0.0800 
 29 H       -1.7470     4.3750    -1.1370 H     1 <1>   0.0800 
 30 H      -12.2440     5.3330     1.1940 H     1 <1>   0.1000 
 31 H      -10.8680     4.5830     2.0560 H     1 <1>   0.1000 
 32 H      -10.7010     2.8410     0.2380 H     1 <1>   0.1000 
 33 H      -12.0810     3.6080    -0.6040 H     1 <1>   0.1000 
@<TRIPOS>BOND
  1   1   2  1   
  2   1   3  1   
  3   2   4  ar  
  4   2   5  ar  
  5   3  16  1   
  6   3  17  1   
  7   3  18  1   
  8   4   6  ar  
  9   4   7  1   
 10   5   8  ar  
 11   5  19  1   
 12   6   9  ar  
 13   6  20  1   
 14   7  10  1   
 15   7  21  1   
 16   7  22  1   
 17   8   9  ar  
 18   8  11  1   
 19   9  23  1   
 20  10  12  1   
 21  10  24  1   
 22  10  25  1   
 23  11  13  1   
 24  12  14  1   
 25  12  15  1   
 26  12  26  1   
 27  13  27  1   
 28  13  28  1   
 29  13  29  1   
 30  14  15  1   
 31  14  30  1   
 32  14  31  1   
 33  15  32  1   
 34  15  33  1   
@<TRIPOS>SUBSTRUCTURE
  1 ****   2 GROUP 4 **** **** 0

# MOE 2024.06 (io_trps.svl 2023.06)
