@<TRIPOS>MOLECULE
NONAME
38 39 1 0 0 
SMALL
USER_CHARGES


@<TRIPOS>ATOM
  1 CL       0.1800     0.7200     1.8670 Cl    1 <1>  -0.1770 
  2 C       -0.8070     1.7380     0.8420 C.ar  1 <1>   0.1770 
  3 C       -0.2100     2.6680     0.0030 C.ar  1 <1>  -0.1440 
  4 C       -2.1780     1.5870     0.9000 C.ar  1 <1>  -0.1500 
  5 C       -1.0290     3.4570    -0.7880 C.ar  1 <1>  -0.1500 
  6 C        1.3020     2.8250    -0.0530 C.3   1 <1>  -0.0960 
  7 C       -3.0020     2.3740     0.1030 C.ar  1 <1>   0.1170 
  8 C       -2.4050     3.3100    -0.7360 C.ar  1 <1>  -0.1500 
  9 N       -4.4030     2.2820     0.1170 N.am  1 <1>  -0.5470 
 10 C       -5.2140     1.2210     0.4470 C.2   1 <1>   0.5690 
 11 O       -4.7800     0.1420     0.7800 O.2   1 <1>  -0.5700 
 12 C       -6.7620     1.3540     0.4010 C.3   1 <1>   0.4840 
 13 N       -7.4290     0.0000     0.3440 N.4   1 <1>  -0.9590 
 14 C       -7.2640     2.2460    -0.7470 C.3   1 <1>  -0.2400 
 15 C       -7.2990    -0.7410    -0.9340 C.3   1 <1>   0.3430 
 16 C       -8.8540    -0.0610     0.7440 C.3   1 <1>   0.3430 
 17 C       -8.2830    -1.8900    -0.7820 C.3   1 <1>  -0.1600 
 18 C       -9.3460    -1.4010     0.2080 C.3   1 <1>  -0.1600 
 19 H       -2.5850     0.8570     1.5730 H     1 <1>   0.1500 
 20 H       -0.5980     4.1890    -1.4500 H     1 <1>   0.1500 
 21 H        1.7570     1.8970    -0.3520 H     1 <1>   0.0800 
 22 H        1.6800     3.0980     0.9170 H     1 <1>   0.0800 
 23 H        1.5870     3.5860    -0.7560 H     1 <1>   0.0800 
 24 H       -3.0150     3.9350    -1.3630 H     1 <1>   0.1500 
 25 H       -4.8610     3.1290    -0.2190 H     1 <1>   0.3700 
 26 H       -7.0490     1.8200     1.3290 H     1 <1>   0.0800 
 27 H       -6.8860    -0.5710     1.0150 H     1 <1>   0.4500 
 28 H       -6.8730     1.9170    -1.6930 H     1 <1>   0.0800 
 29 H       -6.9380     3.2580    -0.5900 H     1 <1>   0.0800 
 30 H       -8.3380     2.2590    -0.7890 H     1 <1>   0.0800 
 31 H       -6.2910    -1.0930    -1.0920 H     1 <1>   0.0800 
 32 H       -7.6010    -0.1190    -1.7600 H     1 <1>   0.0800 
 33 H       -9.4070     0.7360     0.2750 H     1 <1>   0.0800 
 34 H       -8.9700     0.0040     1.8150 H     1 <1>   0.0800 
 35 H       -7.7680    -2.7480    -0.3820 H     1 <1>   0.0800 
 36 H       -8.7080    -2.1610    -1.7330 H     1 <1>   0.0800 
 37 H      -10.3010    -1.2730    -0.2740 H     1 <1>   0.0800 
 38 H       -9.4660    -2.1040     1.0150 H     1 <1>   0.0800 
@<TRIPOS>BOND
  1   1   2  1   
  2   2   3  ar  
  3   2   4  ar  
  4   3   5  ar  
  5   3   6  1   
  6   4   7  ar  
  7   4  19  1   
  8   5   8  ar  
  9   5  20  1   
 10   6  21  1   
 11   6  22  1   
 12   6  23  1   
 13   7   8  ar  
 14   7   9  1   
 15   8  24  1   
 16   9  10  am  
 17   9  25  1   
 18  10  11  2   
 19  10  12  1   
 20  12  13  1   
 21  12  14  1   
 22  12  26  1   
 23  13  15  1   
 24  13  16  1   
 25  13  27  1   
 26  14  28  1   
 27  14  29  1   
 28  14  30  1   
 29  15  17  1   
 30  15  31  1   
 31  15  32  1   
 32  16  18  1   
 33  16  33  1   
 34  16  34  1   
 35  17  18  1   
 36  17  35  1   
 37  17  36  1   
 38  18  37  1   
 39  18  38  1   
@<TRIPOS>SUBSTRUCTURE
  1 ****  10 GROUP 4 **** **** 0

# MOE 2024.06 (io_trps.svl 2023.06)
