@<TRIPOS>MOLECULE
NONAME
49 50 1 0 0 
SMALL
USER_CHARGES


@<TRIPOS>ATOM
  1 S       -0.0550    -0.3370     0.7640 S.o2  1 <1>   1.3330 
  2 O        1.2840    -0.8780     0.7190 O.2   1 <1>  -0.6500 
  3 O       -1.0090    -0.8330     1.7220 O.2   1 <1>  -0.6500 
  4 N        0.1490     1.3500     1.0660 N.am  1 <1>  -0.6930 
  5 C       -0.7380    -0.3650    -0.8800 C.3   1 <1>  -0.1350 
  6 C       -0.8680     2.2620     0.8010 C.ar  1 <1>   0.1990 
  7 C        1.1340     1.7070     2.1320 C.3   1 <1>   0.2570 
  8 C       -0.6910     3.2910    -0.1270 C.ar  1 <1>  -0.1440 
  9 C       -2.0870     2.1530     1.4610 C.ar  1 <1>  -0.1500 
 10 C        2.5120     2.0980     1.5930 C.2   1 <1>   0.5690 
 11 C       -1.7290     4.1740    -0.3760 C.ar  1 <1>  -0.1500 
 12 C        0.6230     3.4790    -0.8780 C.3   1 <1>  -0.0970 
 13 C       -3.1170     3.0370     1.2030 C.ar  1 <1>  -0.1500 
 14 O        2.9760     3.1580     1.9400 O.2   1 <1>  -0.5700 
 15 N        3.1590     1.2300     0.7520 N.am  1 <1>  -0.5470 
 16 C       -2.9420     4.0550     0.2810 C.ar  1 <1>  -0.1430 
 17 C        4.3720     1.3260     0.0460 C.ar  1 <1>   0.1170 
 18 C       -4.0670     5.0320    -0.0090 C.3   1 <1>  -0.0970 
 19 C        5.0390     0.1640    -0.3620 C.ar  1 <1>  -0.1430 
 20 C        4.9090     2.5650    -0.2860 C.ar  1 <1>  -0.1500 
 21 C        6.2160     0.2640    -1.1040 C.ar  1 <1>  -0.1430 
 22 C        4.4600    -1.2030     0.0150 C.3   1 <1>  -0.0970 
 23 C        6.0810     2.6610    -1.0070 C.ar  1 <1>  -0.1500 
 24 C        6.7290     1.5130    -1.4160 C.ar  1 <1>  -0.1500 
 25 C        6.9800    -0.9570    -1.5990 C.3   1 <1>  -0.0970 
 26 H       -0.8760    -1.3780    -1.2040 H     1 <1>   0.0800 
 27 H       -0.0770     0.1300    -1.5650 H     1 <1>   0.0800 
 28 H       -1.6870     0.1330    -0.8960 H     1 <1>   0.0800 
 29 H        1.2510     0.8800     2.8100 H     1 <1>   0.0800 
 30 H        0.7520     2.5370     2.7000 H     1 <1>   0.0800 
 31 H       -2.2320     1.3710     2.1840 H     1 <1>   0.1500 
 32 H       -1.5950     4.9690    -1.0890 H     1 <1>   0.1500 
 33 H        1.3320     3.9860    -0.2480 H     1 <1>   0.0800 
 34 H        0.4770     4.0670    -1.7650 H     1 <1>   0.0800 
 35 H        1.0380     2.5320    -1.1720 H     1 <1>   0.0800 
 36 H       -4.0530     2.9300     1.7230 H     1 <1>   0.1500 
 37 H        2.6830     0.3260     0.6340 H     1 <1>   0.3700 
 38 H       -4.7530     5.0780     0.8180 H     1 <1>   0.0800 
 39 H       -4.6030     4.7200    -0.8870 H     1 <1>   0.0800 
 40 H       -3.6710     6.0180    -0.1750 H     1 <1>   0.0800 
 41 H        4.4120     3.4680     0.0160 H     1 <1>   0.1500 
 42 H        4.1040    -1.1970     1.0290 H     1 <1>   0.0800 
 43 H        3.6410    -1.4430    -0.6390 H     1 <1>   0.0800 
 44 H        5.1870    -1.9890    -0.0490 H     1 <1>   0.0800 
 45 H        6.4860     3.6270    -1.2520 H     1 <1>   0.1500 
 46 H        7.6400     1.6030    -1.9820 H     1 <1>   0.1500 
 47 H        6.3210    -1.6140    -2.1380 H     1 <1>   0.0800 
 48 H        7.4050    -1.4870    -0.7660 H     1 <1>   0.0800 
 49 H        7.7790    -0.6740    -2.2600 H     1 <1>   0.0800 
@<TRIPOS>BOND
  1   1   2  2   
  2   1   3  2   
  3   1   4  am  
  4   1   5  1   
  5   4   6  1   
  6   4   7  1   
  7   5  26  1   
  8   5  27  1   
  9   5  28  1   
 10   6   8  ar  
 11   6   9  ar  
 12   7  10  1   
 13   7  29  1   
 14   7  30  1   
 15   8  11  ar  
 16   8  12  1   
 17   9  13  ar  
 18   9  31  1   
 19  10  14  2   
 20  10  15  am  
 21  11  16  ar  
 22  11  32  1   
 23  12  33  1   
 24  12  34  1   
 25  12  35  1   
 26  13  16  ar  
 27  13  36  1   
 28  15  17  1   
 29  15  37  1   
 30  16  18  1   
 31  17  19  ar  
 32  17  20  ar  
 33  18  38  1   
 34  18  39  1   
 35  18  40  1   
 36  19  21  ar  
 37  19  22  1   
 38  20  23  ar  
 39  20  41  1   
 40  21  24  ar  
 41  21  25  1   
 42  22  42  1   
 43  22  43  1   
 44  22  44  1   
 45  23  24  ar  
 46  23  45  1   
 47  24  46  1   
 48  25  47  1   
 49  25  48  1   
 50  25  49  1   
@<TRIPOS>SUBSTRUCTURE
  1 ****   4 GROUP 4 **** **** 0

# MOE 2024.06 (io_trps.svl 2023.06)
