@<TRIPOS>MOLECULE
NONAME
51 52 1 0 0 
SMALL
USER_CHARGES


@<TRIPOS>ATOM
  1 S        1.1250     2.7380     1.8410 S.o2  1 <1>   1.3330 
  2 O        2.3700     3.4050     2.1410 O.2   1 <1>  -0.6500 
  3 O        1.0720     1.2990     1.7940 O.2   1 <1>  -0.6500 
  4 N        0.6220     3.3560     0.3080 N.am  1 <1>  -0.6930 
  5 C       -0.1370     3.3620     2.9270 C.3   1 <1>  -0.1350 
  6 C       -0.5140     2.8740    -0.3270 C.ar  1 <1>   0.1990 
  7 C        1.6670     4.0070    -0.5430 C.3   1 <1>   0.2570 
  8 C       -1.6330     3.6850    -0.4560 C.ar  1 <1>  -0.1500 
  9 C       -0.5580     1.5890    -0.8460 C.ar  1 <1>  -0.1500 
 10 C        2.7190     3.0480    -1.1120 C.2   1 <1>   0.5690 
 11 C       -2.7830     3.2300    -1.0800 C.ar  1 <1>  -0.1440 
 12 C       -1.7000     1.1250    -1.4710 C.ar  1 <1>  -0.1500 
 13 O        2.6550     2.7710    -2.2870 O.2   1 <1>  -0.5700 
 14 N        3.6940     2.5650    -0.2810 N.am  1 <1>  -0.5470 
 15 C       -2.8180     1.9370    -1.5920 C.ar  1 <1>  -0.1430 
 16 C       -3.9830     4.1610    -1.1930 C.3   1 <1>  -0.0970 
 17 C        4.7700     1.6820    -0.5070 C.ar  1 <1>   0.1170 
 18 C       -4.0560     1.3880    -2.2870 C.3   1 <1>  -0.0970 
 19 C        5.3480     1.0370     0.5890 C.ar  1 <1>   0.0830 
 20 C        5.2940     1.4240    -1.7690 C.ar  1 <1>  -0.1500 
 21 O        4.8630     1.2730     1.8330 O.3   1 <1>  -0.3630 
 22 C        6.4130     0.1680     0.4280 C.ar  1 <1>  -0.1500 
 23 C        6.3550     0.5490    -1.9360 C.ar  1 <1>  -0.1500 
 24 C        4.0820     0.2380     2.3860 C.3   1 <1>   0.0400 
 25 C        6.9210    -0.0860    -0.8340 C.ar  1 <1>   0.0830 
 26 O        7.9620    -0.9570    -0.9110 O.3   1 <1>  -0.3620 
 27 C        8.5450    -1.2790    -2.1540 C.3   1 <1>   0.0400 
 28 H        0.0710     3.0710     3.9380 H     1 <1>   0.0800 
 29 H       -1.0940     2.9670     2.6460 H     1 <1>   0.0800 
 30 H       -0.1750     4.4320     2.8760 H     1 <1>   0.0800 
 31 H        2.1660     4.7700     0.0250 H     1 <1>   0.0800 
 32 H        1.1820     4.4900    -1.3730 H     1 <1>   0.0800 
 33 H       -1.5900     4.6820    -0.0600 H     1 <1>   0.1500 
 34 H        0.3060     0.9540    -0.7600 H     1 <1>   0.1500 
 35 H       -1.7090     0.1240    -1.8640 H     1 <1>   0.1500 
 36 H        3.5810     2.7880     0.7190 H     1 <1>   0.3700 
 37 H       -3.7760     5.1160    -0.7480 H     1 <1>   0.0800 
 38 H       -4.8310     3.7310    -0.6920 H     1 <1>   0.0800 
 39 H       -4.2300     4.3180    -2.2280 H     1 <1>   0.0800 
 40 H       -4.2880     1.9840    -3.1510 H     1 <1>   0.0800 
 41 H       -4.8940     1.4010    -1.6140 H     1 <1>   0.0800 
 42 H       -3.8990     0.3740    -2.6090 H     1 <1>   0.0800 
 43 H        4.8780     1.9070    -2.6330 H     1 <1>   0.1500 
 44 H        6.8530    -0.3110     1.2820 H     1 <1>   0.1500 
 45 H        6.7230     0.3780    -2.9300 H     1 <1>   0.1500 
 46 H        3.6340     0.6030     3.2930 H     1 <1>   0.0800 
 47 H        4.7140    -0.6050     2.5970 H     1 <1>   0.0800 
 48 H        3.3130    -0.0340     1.6840 H     1 <1>   0.0800 
 49 H        9.3410    -1.9800    -1.9770 H     1 <1>   0.0800 
 50 H        8.9390    -0.3820    -2.5970 H     1 <1>   0.0800 
 51 H        7.7970    -1.7260    -2.7840 H     1 <1>   0.0800 
@<TRIPOS>BOND
  1   1   2  2   
  2   1   3  2   
  3   1   4  am  
  4   1   5  1   
  5   4   6  1   
  6   4   7  1   
  7   5  28  1   
  8   5  29  1   
  9   5  30  1   
 10   6   8  ar  
 11   6   9  ar  
 12   7  10  1   
 13   7  31  1   
 14   7  32  1   
 15   8  11  ar  
 16   8  33  1   
 17   9  12  ar  
 18   9  34  1   
 19  10  13  2   
 20  10  14  am  
 21  11  15  ar  
 22  11  16  1   
 23  12  15  ar  
 24  12  35  1   
 25  14  17  1   
 26  14  36  1   
 27  15  18  1   
 28  16  37  1   
 29  16  38  1   
 30  16  39  1   
 31  17  19  ar  
 32  17  20  ar  
 33  18  40  1   
 34  18  41  1   
 35  18  42  1   
 36  19  21  1   
 37  19  22  ar  
 38  20  23  ar  
 39  20  43  1   
 40  21  24  1   
 41  22  25  ar  
 42  22  44  1   
 43  23  25  ar  
 44  23  45  1   
 45  24  46  1   
 46  24  47  1   
 47  24  48  1   
 48  25  26  1   
 49  26  27  1   
 50  27  49  1   
 51  27  50  1   
 52  27  51  1   
@<TRIPOS>SUBSTRUCTURE
  1 ****  10 GROUP 4 **** **** 0

# MOE 2024.06 (io_trps.svl 2023.06)
