@<TRIPOS>MOLECULE
NONAME
37 38 1 0 0 
SMALL
USER_CHARGES


@<TRIPOS>ATOM
  1 BR       0.3680     0.7720    -0.6580 Br    1 <1>  -0.1110 
  2 C       -1.4600     1.2710    -0.3180 C.ar  1 <1>   0.1110 
  3 C       -1.8510     1.5220     0.9820 C.ar  1 <1>  -0.1500 
  4 C       -2.3370     1.3660    -1.3840 C.ar  1 <1>  -0.1500 
  5 C       -3.1700     1.8770     1.1820 C.ar  1 <1>   0.1900 
  6 C       -3.6550     1.7250    -1.1470 C.ar  1 <1>  -0.1500 
  7 F       -3.5610     2.1170     2.4100 F     1 <1>  -0.1900 
  8 C       -4.1050     1.9920     0.1480 C.ar  1 <1>   0.1170 
  9 N       -5.4310     2.3620     0.4580 N.am  1 <1>  -0.5470 
 10 C       -6.5170     2.6590    -0.3200 C.2   1 <1>   0.5690 
 11 O       -6.4970     2.6390    -1.5250 O.2   1 <1>  -0.5700 
 12 C       -7.8050     3.0380     0.4000 C.3   1 <1>  -0.0190 
 13 C       -9.0300     2.8540    -0.5100 C.3   1 <1>   0.1960 
 14 C       -7.7510     4.4840     0.9250 C.3   1 <1>  -0.1600 
 15 N      -10.2680     3.1620     0.2270 N.am  1 <1>  -0.8490 
 16 C       -9.0900     4.8570     1.5750 C.3   1 <1>  -0.1600 
 17 S      -11.6590     2.7890    -0.6660 S.o2  1 <1>   1.3330 
 18 C      -10.2750     4.5680     0.6460 C.3   1 <1>   0.1960 
 19 O      -11.3930     3.1050    -2.0500 O.2   1 <1>  -0.6500 
 20 O      -12.7950     3.3780     0.0030 O.2   1 <1>  -0.6500 
 21 C      -11.7890     1.0230    -0.4830 C.3   1 <1>  -0.1350 
 22 H       -1.1600     1.4430     1.8010 H     1 <1>   0.1500 
 23 H       -1.9950     1.1620    -2.3830 H     1 <1>   0.1500 
 24 H       -4.3270     1.7930    -1.9830 H     1 <1>   0.1500 
 25 H       -5.5870     2.4590     1.4630 H     1 <1>   0.3700 
 26 H       -7.9220     2.3670     1.2310 H     1 <1>   0.0800 
 27 H       -9.0550     1.8360    -0.8590 H     1 <1>   0.0800 
 28 H       -8.9460     3.4960    -1.3730 H     1 <1>   0.0800 
 29 H       -7.5570     5.1530     0.1030 H     1 <1>   0.0800 
 30 H       -6.9550     4.5970     1.6410 H     1 <1>   0.0800 
 31 H       -9.0890     5.9010     1.8320 H     1 <1>   0.0800 
 32 H       -9.2240     4.2970     2.4850 H     1 <1>   0.0800 
 33 H      -11.1860     4.7880     1.1790 H     1 <1>   0.0800 
 34 H      -10.2330     5.2070    -0.2220 H     1 <1>   0.0800 
 35 H      -10.9370     0.5350    -0.9120 H     1 <1>   0.0800 
 36 H      -12.6720     0.6700    -0.9780 H     1 <1>   0.0800 
 37 H      -11.8520     0.7660     0.5560 H     1 <1>   0.0800 
@<TRIPOS>BOND
  1   1   2  1   
  2   2   3  ar  
  3   2   4  ar  
  4   3   5  ar  
  5   3  22  1   
  6   4   6  ar  
  7   4  23  1   
  8   5   7  1   
  9   5   8  ar  
 10   6   8  ar  
 11   6  24  1   
 12   8   9  1   
 13   9  10  am  
 14   9  25  1   
 15  10  11  2   
 16  10  12  1   
 17  12  13  1   
 18  12  14  1   
 19  12  26  1   
 20  13  15  1   
 21  13  27  1   
 22  13  28  1   
 23  14  16  1   
 24  14  29  1   
 25  14  30  1   
 26  15  17  am  
 27  15  18  1   
 28  16  18  1   
 29  16  31  1   
 30  16  32  1   
 31  17  19  2   
 32  17  20  2   
 33  17  21  1   
 34  18  33  1   
 35  18  34  1   
 36  21  35  1   
 37  21  36  1   
 38  21  37  1   
@<TRIPOS>SUBSTRUCTURE
  1 ****  10 GROUP 4 **** **** 0

# MOE 2024.06 (io_trps.svl 2023.06)
