@<TRIPOS>MOLECULE
NONAME
32 33 1 0 0 
SMALL
USER_CHARGES


@<TRIPOS>ATOM
  1 S        0.1700    -0.5730    -0.0300 S.3   1 <1>   0.4410 
  2 N       -1.1130    -1.6640    -0.1000 N.2   1 <1>  -0.5100 
  3 N       -0.7300     0.7920     0.3750 N.2   1 <1>  -0.5100 
  4 C       -2.1720    -0.9890     0.1780 C.2   1 <1>   0.2030 
  5 C       -1.9280     0.3910     0.4410 C.2   1 <1>   0.1390 
  6 C       -3.5240    -1.5070     0.2410 C.2   1 <1>   0.8060 
  7 O       -4.4760    -0.8020     0.5120 O.2   1 <1>  -0.5700 
  8 O       -3.6970    -2.8100    -0.0240 O.3   1 <1>  -0.2330 
  9 C       -4.8420    -3.5370     0.0500 C.ar  1 <1>   0.0830 
 10 C       -5.8270    -3.3180     1.0020 C.ar  1 <1>  -0.1500 
 11 C       -5.0050    -4.5620    -0.8650 C.ar  1 <1>  -0.1500 
 12 C       -6.9640    -4.1070     1.0220 C.ar  1 <1>  -0.1500 
 13 C       -6.1430    -5.3480    -0.8390 C.ar  1 <1>  -0.1500 
 14 C       -7.1470    -5.1370     0.1020 C.ar  1 <1>  -0.1440 
 15 C       -8.4000    -6.0410     0.0880 C.3   1 <1>   0.1430 
 16 C       -9.4180    -5.6840     1.1850 C.3   1 <1>  -0.2400 
 17 C       -7.9810    -7.5030     0.3040 C.3   1 <1>  -0.2400 
 18 C       -9.1130    -5.9100    -1.2660 C.3   1 <1>  -0.2400 
 19 H       -2.7440     1.0500     0.6850 H     1 <1>   0.1500 
 20 H       -5.7210    -2.5400     1.7350 H     1 <1>   0.1500 
 21 H       -4.2400    -4.7450    -1.5990 H     1 <1>   0.1500 
 22 H       -7.6980    -3.8930     1.7760 H     1 <1>   0.1500 
 23 H       -6.2370    -6.1330    -1.5670 H     1 <1>   0.1500 
 24 H       -8.9750    -5.7880     2.1590 H     1 <1>   0.0800 
 25 H      -10.2710    -6.3370     1.1360 H     1 <1>   0.0800 
 26 H       -9.7650    -4.6740     1.0630 H     1 <1>   0.0800 
 27 H       -7.3390    -7.8450    -0.4860 H     1 <1>   0.0800 
 28 H       -8.8420    -8.1460     0.3350 H     1 <1>   0.0800 
 29 H       -7.4490    -7.5990     1.2340 H     1 <1>   0.0800 
 30 H       -8.4820    -6.2360    -2.0710 H     1 <1>   0.0800 
 31 H       -9.3800    -4.8830    -1.4410 H     1 <1>   0.0800 
 32 H      -10.0100    -6.5040    -1.2830 H     1 <1>   0.0800 
@<TRIPOS>BOND
  1   1   2  1   
  2   1   3  1   
  3   2   4  2   
  4   3   5  2   
  5   4   5  1   
  6   4   6  1   
  7   5  19  1   
  8   6   7  2   
  9   6   8  1   
 10   8   9  1   
 11   9  10  ar  
 12   9  11  ar  
 13  10  12  ar  
 14  10  20  1   
 15  11  13  ar  
 16  11  21  1   
 17  12  14  ar  
 18  12  22  1   
 19  13  14  ar  
 20  13  23  1   
 21  14  15  1   
 22  15  16  1   
 23  15  17  1   
 24  15  18  1   
 25  16  24  1   
 26  16  25  1   
 27  16  26  1   
 28  17  27  1   
 29  17  28  1   
 30  17  29  1   
 31  18  30  1   
 32  18  31  1   
 33  18  32  1   
@<TRIPOS>SUBSTRUCTURE
  1 ****   9 GROUP 4 **** **** 0

# MOE 2024.06 (io_trps.svl 2023.06)
