@<TRIPOS>MOLECULE
NONAME
46 47 1 0 0 
SMALL
USER_CHARGES


@<TRIPOS>ATOM
  1 O       -1.4600    -0.5680     0.3470 O.2   1 <1>  -0.5700 
  2 C       -1.3150    -1.7450     0.1280 C.2   1 <1>   0.6590 
  3 O       -2.2850    -2.6270     0.3570 O.3   1 <1>  -0.4300 
  4 C       -0.0260    -2.2970    -0.4940 C.3   1 <1>   0.1710 
  5 C       -3.5490    -2.2560     0.8690 C.3   1 <1>   0.1200 
  6 N        0.8110    -3.1640     0.3830 N.3   1 <1>  -0.8100 
  7 C       -4.4670    -1.6950    -0.2430 C.3   1 <1>  -0.0800 
  8 C        2.0680    -3.5460    -0.2450 C.3   1 <1>   0.1100 
  9 C        0.1590    -4.4130     0.7660 C.3   1 <1>   0.1100 
 10 C       -5.7000    -1.0410     0.4290 C.3   1 <1>   0.0580 
 11 C       -4.9270    -2.7540    -1.2840 C.3   1 <1>  -0.0800 
 12 C        2.5590    -4.7270     0.5800 C.3   1 <1>  -0.1600 
 13 C        1.2970    -5.3350     1.1900 C.3   1 <1>  -0.1600 
 14 C       -6.7150    -2.0940     0.8470 C.2   1 <1>  -0.2880 
 15 C       -6.3940    -0.0120    -0.4720 C.3   1 <1>  -0.2400 
 16 C       -5.7410    -3.8860    -0.6290 C.3   1 <1>  -0.0220 
 17 C       -3.7900    -3.3280    -2.1450 C.3   1 <1>  -0.2400 
 18 C       -6.7370    -3.3520     0.3950 C.2   1 <1>  -0.2760 
 19 C       -7.7550    -4.3790     0.8580 C.3   1 <1>  -0.1020 
 20 H        0.5650    -1.4500    -0.7930 H     1 <1>   0.0800 
 21 H       -0.2930    -2.8390    -1.3830 H     1 <1>   0.0800 
 22 H       -3.3870    -1.5210     1.6390 H     1 <1>   0.0800 
 23 H       -3.9880    -3.1250     1.3260 H     1 <1>   0.0800 
 24 H       -3.9260    -0.9150    -0.7480 H     1 <1>   0.0800 
 25 H        2.7700    -2.7290    -0.2320 H     1 <1>   0.0800 
 26 H        1.8930    -3.8600    -1.2610 H     1 <1>   0.0800 
 27 H       -0.3550    -4.8360    -0.0810 H     1 <1>   0.0800 
 28 H       -0.5400    -4.2510     1.5690 H     1 <1>   0.0800 
 29 H       -5.3720    -0.5170     1.3110 H     1 <1>   0.0800 
 30 H       -5.5890    -2.2540    -1.9670 H     1 <1>   0.0800 
 31 H        3.2090    -4.3690     1.3590 H     1 <1>   0.0800 
 32 H        3.0960    -5.4300    -0.0310 H     1 <1>   0.0800 
 33 H        1.1220    -6.3360     0.8380 H     1 <1>   0.0800 
 34 H        1.3720    -5.3490     2.2630 H     1 <1>   0.0800 
 35 H       -7.4330    -1.7180     1.5560 H     1 <1>   0.1500 
 36 H       -6.8280    -0.4850    -1.3340 H     1 <1>   0.0800 
 37 H       -5.6920     0.7340    -0.7990 H     1 <1>   0.0800 
 38 H       -7.1810     0.4770     0.0720 H     1 <1>   0.0800 
 39 H       -5.0820    -4.5830    -0.1410 H     1 <1>   0.0800 
 40 H       -6.2690    -4.4190    -1.4000 H     1 <1>   0.0800 
 41 H       -3.1580    -3.9810    -1.5710 H     1 <1>   0.0800 
 42 H       -3.1940    -2.5320    -2.5530 H     1 <1>   0.0800 
 43 H       -4.2000    -3.8960    -2.9610 H     1 <1>   0.0800 
 44 H       -7.2560    -5.2200     1.3060 H     1 <1>   0.0800 
 45 H       -8.3400    -4.7240     0.0240 H     1 <1>   0.0800 
 46 H       -8.4220    -3.9510     1.5850 H     1 <1>   0.0800 
@<TRIPOS>BOND
  1   1   2  2   
  2   2   3  1   
  3   2   4  1   
  4   3   5  1   
  5   4   6  1   
  6   4  20  1   
  7   4  21  1   
  8   5   7  1   
  9   5  22  1   
 10   5  23  1   
 11   6   8  1   
 12   6   9  1   
 13   7  10  1   
 14   7  11  1   
 15   7  24  1   
 16   8  12  1   
 17   8  25  1   
 18   8  26  1   
 19   9  13  1   
 20   9  27  1   
 21   9  28  1   
 22  10  14  1   
 23  10  15  1   
 24  10  29  1   
 25  11  16  1   
 26  11  17  1   
 27  11  30  1   
 28  12  13  1   
 29  12  31  1   
 30  12  32  1   
 31  13  33  1   
 32  13  34  1   
 33  14  18  2   
 34  14  35  1   
 35  15  36  1   
 36  15  37  1   
 37  15  38  1   
 38  16  18  1   
 39  16  39  1   
 40  16  40  1   
 41  17  41  1   
 42  17  42  1   
 43  17  43  1   
 44  18  19  1   
 45  19  44  1   
 46  19  45  1   
 47  19  46  1   
@<TRIPOS>SUBSTRUCTURE
  1 ****   3 GROUP 4 **** **** 0

# MOE 2024.06 (io_trps.svl 2023.06)
