@<TRIPOS>MOLECULE
NONAME
43 44 1 0 0 
SMALL
USER_CHARGES


@<TRIPOS>ATOM
  1 BR       1.2780    -0.3970     0.0090 Br    1 <1>  -0.0580 
  2 C        1.4770     1.5140     0.0290 C.2   1 <1>   0.1980 
  3 O        2.6900     2.0050    -0.0290 O.3   1 <1>  -0.2800 
  4 C        0.5240     2.4630     0.0960 C.2   1 <1>  -0.1500 
  5 C        2.5720     3.3360    -0.0010 C.2   1 <1>   0.0550 
  6 C        1.2440     3.6590     0.0760 C.2   1 <1>  -0.1500 
  7 C        3.7410     4.1780    -0.0530 C.2   1 <1>   0.7150 
  8 O        3.6330     5.3900    -0.0520 O.2   1 <1>  -0.5700 
  9 N        4.9760     3.5800    -0.1170 N.am  1 <1>  -0.5470 
 10 C        6.2760     4.1080    -0.1650 C.ar  1 <1>   0.1170 
 11 C        7.2860     3.3420    -0.7340 C.ar  1 <1>  -0.1500 
 12 C        6.6040     5.3580     0.3480 C.ar  1 <1>  -0.1500 
 13 C        8.5940     3.8100    -0.7940 C.ar  1 <1>   0.0830 
 14 C        7.9020     5.8300     0.2930 C.ar  1 <1>  -0.1500 
 15 O        9.6150     3.0880    -1.3510 O.3   1 <1>  -0.3630 
 16 C        8.9160     5.0670    -0.2730 C.ar  1 <1>   0.1170 
 17 C        9.3900     1.8190    -1.9280 C.3   1 <1>   0.0400 
 18 N       10.2560     5.4970    -0.3560 N.am  1 <1>  -0.5470 
 19 C       10.9280     6.5700     0.1500 C.2   1 <1>   0.5690 
 20 O       10.4220     7.4310     0.8270 O.2   1 <1>  -0.5700 
 21 C       12.4080     6.6740    -0.1640 C.3   1 <1>  -0.0990 
 22 C       13.2420     5.6370     0.6070 C.3   1 <1>  -0.1600 
 23 C       14.7350     5.7710     0.2840 C.3   1 <1>  -0.1600 
 24 C       15.5580     4.7360     1.0550 C.3   1 <1>  -0.2400 
 25 H       -0.5440     2.3480     0.1530 H     1 <1>   0.1500 
 26 H        0.8220     4.6490     0.1140 H     1 <1>   0.1500 
 27 H        4.9090     2.5650    -0.1740 H     1 <1>   0.3700 
 28 H        7.0260     2.3810    -1.1280 H     1 <1>   0.1500 
 29 H        5.8470     5.9730     0.7990 H     1 <1>   0.1500 
 30 H        8.1160     6.8030     0.6970 H     1 <1>   0.1500 
 31 H       10.3270     1.4530    -2.3070 H     1 <1>   0.0800 
 32 H        8.6860     1.9210    -2.7350 H     1 <1>   0.0800 
 33 H        9.0180     1.1510    -1.1710 H     1 <1>   0.0800 
 34 H       10.8290     4.8230    -0.8650 H     1 <1>   0.3700 
 35 H       12.7400     7.6640     0.0950 H     1 <1>   0.0800 
 36 H       12.5460     6.5480    -1.2220 H     1 <1>   0.0800 
 37 H       12.9090     4.6450     0.3570 H     1 <1>   0.0800 
 38 H       13.0880     5.7810     1.6640 H     1 <1>   0.0800 
 39 H       15.0750     6.7590     0.5470 H     1 <1>   0.0800 
 40 H       14.8930     5.6330    -0.7720 H     1 <1>   0.0800 
 41 H       15.4320     4.8690     2.1160 H     1 <1>   0.0800 
 42 H       16.6020     4.8460     0.8200 H     1 <1>   0.0800 
 43 H       15.2520     3.7380     0.7930 H     1 <1>   0.0800 
@<TRIPOS>BOND
  1   1   2  1   
  2   2   3  1   
  3   2   4  2   
  4   3   5  1   
  5   4   6  1   
  6   4  25  1   
  7   5   6  2   
  8   5   7  1   
  9   6  26  1   
 10   7   8  2   
 11   7   9  am  
 12   9  10  1   
 13   9  27  1   
 14  10  11  ar  
 15  10  12  ar  
 16  11  13  ar  
 17  11  28  1   
 18  12  14  ar  
 19  12  29  1   
 20  13  15  1   
 21  13  16  ar  
 22  14  16  ar  
 23  14  30  1   
 24  15  17  1   
 25  16  18  1   
 26  17  31  1   
 27  17  32  1   
 28  17  33  1   
 29  18  19  am  
 30  18  34  1   
 31  19  20  2   
 32  19  21  1   
 33  21  22  1   
 34  21  35  1   
 35  21  36  1   
 36  22  23  1   
 37  22  37  1   
 38  22  38  1   
 39  23  24  1   
 40  23  39  1   
 41  23  40  1   
 42  24  41  1   
 43  24  42  1   
 44  24  43  1   
@<TRIPOS>SUBSTRUCTURE
  1 ****  10 GROUP 4 **** **** 0

# MOE 2024.06 (io_trps.svl 2023.06)
