@<TRIPOS>MOLECULE
NONAME
51 52 1 0 0 
SMALL
USER_CHARGES


@<TRIPOS>ATOM
  1 S       -1.0180     0.8480     0.6630 S.o2  1 <1>   1.4470 
  2 O       -1.9340     1.9370     0.9210 O.2   1 <1>  -0.6500 
  3 O       -0.6650    -0.0810     1.7130 O.2   1 <1>  -0.6500 
  4 N       -1.6920    -0.0610    -0.6030 N.am  1 <1>  -0.8490 
  5 C        0.5110     1.4930    -0.0720 C.ar  1 <1>  -0.0090 
  6 C       -2.6850    -1.0460    -0.0800 C.3   1 <1>   0.2570 
  7 C       -2.1410     0.7920    -1.7100 C.3   1 <1>   0.1960 
  8 C        1.4840     0.6310    -0.5630 C.ar  1 <1>  -0.1500 
  9 C        0.7450     2.8590    -0.1750 C.ar  1 <1>  -0.1500 
 10 C       -3.9710    -0.5010     0.5660 C.2   1 <1>   0.5690 
 11 C       -2.5520    -0.0390    -2.9250 C.3   1 <1>  -0.2400 
 12 C        2.6460     1.1120    -1.1400 C.ar  1 <1>  -0.1500 
 13 C        1.9050     3.3480    -0.7510 C.ar  1 <1>  -0.1500 
 14 O       -4.1820    -0.7480     1.7280 O.2   1 <1>  -0.5700 
 15 N       -4.8470     0.1860    -0.2300 N.am  1 <1>  -0.5470 
 16 C        2.8630     2.4750    -1.2370 C.ar  1 <1>  -0.1430 
 17 C       -6.0750     0.8320    -0.0070 C.ar  1 <1>   0.1170 
 18 C        4.1360     3.0070    -1.8700 C.3   1 <1>  -0.0970 
 19 C       -6.6290     1.5480    -1.0740 C.ar  1 <1>   0.0830 
 20 C       -6.7550     0.7940     1.2040 C.ar  1 <1>  -0.1500 
 21 O       -5.9220     1.5610    -2.2490 O.3   1 <1>  -0.3620 
 22 C       -7.8450     2.2050    -0.9140 C.ar  1 <1>  -0.1500 
 23 C       -7.9650     1.4480     1.3640 C.ar  1 <1>   0.0830 
 24 C       -6.3810     2.2990    -3.3620 C.3   1 <1>   0.0400 
 25 C       -8.5110     2.1560     0.2980 C.ar  1 <1>  -0.1500 
 26 O       -8.5550     1.3530     2.5850 O.3   1 <1>  -0.3620 
 27 C       -9.7500     2.0410     2.8760 C.3   1 <1>   0.0400 
 28 H       -2.2000    -1.6650     0.6550 H     1 <1>   0.0800 
 29 H       -2.9730    -1.7120    -0.8710 H     1 <1>   0.0800 
 30 H       -1.3240     1.4270    -2.0120 H     1 <1>   0.0800 
 31 H       -2.9440     1.4400    -1.3990 H     1 <1>   0.0800 
 32 H        1.3260    -0.4320    -0.4910 H     1 <1>   0.1500 
 33 H        0.0100     3.5510     0.2020 H     1 <1>   0.1500 
 34 H       -3.4590    -0.5850    -2.7470 H     1 <1>   0.0800 
 35 H       -1.7630    -0.7190    -3.1910 H     1 <1>   0.0800 
 36 H       -2.7250     0.6180    -3.7580 H     1 <1>   0.0800 
 37 H        3.3810     0.4190    -1.5130 H     1 <1>   0.1500 
 38 H        2.0570     4.4110    -0.8180 H     1 <1>   0.1500 
 39 H       -4.5340     0.3340    -1.1880 H     1 <1>   0.3700 
 40 H        4.9510     2.3250    -1.7060 H     1 <1>   0.0800 
 41 H        4.4000     3.9580    -1.4430 H     1 <1>   0.0800 
 42 H        3.9930     3.1290    -2.9290 H     1 <1>   0.0800 
 43 H       -6.3530     0.2560     2.0410 H     1 <1>   0.1500 
 44 H       -8.2930     2.7600    -1.7160 H     1 <1>   0.1500 
 45 H       -5.6690     2.1830    -4.1590 H     1 <1>   0.0800 
 46 H       -6.4560     3.3360    -3.0870 H     1 <1>   0.0800 
 47 H       -7.3370     1.9110    -3.6690 H     1 <1>   0.0800 
 48 H       -9.4470     2.6710     0.3930 H     1 <1>   0.1500 
 49 H      -10.0080     1.8410     3.9000 H     1 <1>   0.0800 
 50 H      -10.5270     1.6800     2.2260 H     1 <1>   0.0800 
 51 H       -9.5880     3.0960     2.7390 H     1 <1>   0.0800 
@<TRIPOS>BOND
  1   1   2  2   
  2   1   3  2   
  3   1   4  am  
  4   1   5  1   
  5   4   6  1   
  6   4   7  1   
  7   5   8  ar  
  8   5   9  ar  
  9   6  10  1   
 10   6  28  1   
 11   6  29  1   
 12   7  11  1   
 13   7  30  1   
 14   7  31  1   
 15   8  12  ar  
 16   8  32  1   
 17   9  13  ar  
 18   9  33  1   
 19  10  14  2   
 20  10  15  am  
 21  11  34  1   
 22  11  35  1   
 23  11  36  1   
 24  12  16  ar  
 25  12  37  1   
 26  13  16  ar  
 27  13  38  1   
 28  15  17  1   
 29  15  39  1   
 30  16  18  1   
 31  17  19  ar  
 32  17  20  ar  
 33  18  40  1   
 34  18  41  1   
 35  18  42  1   
 36  19  21  1   
 37  19  22  ar  
 38  20  23  ar  
 39  20  43  1   
 40  21  24  1   
 41  22  25  ar  
 42  22  44  1   
 43  23  25  ar  
 44  23  26  1   
 45  24  45  1   
 46  24  46  1   
 47  24  47  1   
 48  25  48  1   
 49  26  27  1   
 50  27  49  1   
 51  27  50  1   
 52  27  51  1   
@<TRIPOS>SUBSTRUCTURE
  1 ****   2 GROUP 4 **** **** 0

# MOE 2024.06 (io_trps.svl 2023.06)
