@<TRIPOS>MOLECULE
NONAME
37 38 1 0 0 
SMALL
USER_CHARGES


@<TRIPOS>ATOM
  1 S        0.3340    -1.1400    -1.6650 S.3   1 <1>  -0.4600 
  2 C        2.0320    -0.5760    -1.9570 C.3   1 <1>   0.0700 
  3 C        0.5750    -2.5170    -0.5120 C.3   1 <1>   0.0700 
  4 C        2.7040    -0.2980    -0.6070 C.3   1 <1>   0.3430 
  5 C        1.4050    -2.0300     0.6830 C.3   1 <1>   0.3430 
  6 N        2.7520    -1.5190     0.2700 N.4   1 <1>  -0.9590 
  7 C        3.6490    -1.3210     1.4380 C.3   1 <1>   0.4860 
  8 C        5.0630    -1.1250     0.9250 C.ar  1 <1>  -0.1430 
  9 C        5.6700    -2.1090     0.1490 C.ar  1 <1>   0.0830 
 10 C        5.7440     0.0440     1.2280 C.ar  1 <1>  -0.1500 
 11 O        4.9330    -3.2400    -0.0760 O.3   1 <1>  -0.3630 
 12 C        6.9590    -1.8930    -0.3660 C.ar  1 <1>   0.0830 
 13 C        7.0230     0.2440     0.7470 C.ar  1 <1>  -0.1500 
 14 C        5.5590    -4.5100    -0.0850 C.3   1 <1>   0.0400 
 15 O        7.5190    -2.8270    -1.1880 O.3   1 <1>  -0.3630 
 16 C        7.6260    -0.7140    -0.0470 C.ar  1 <1>  -0.1500 
 17 C        8.8120    -2.6750    -1.7340 C.3   1 <1>   0.0400 
 18 H        1.9690     0.3180    -2.5520 H     1 <1>   0.0800 
 19 H        2.5470    -1.3410    -2.5090 H     1 <1>   0.0800 
 20 H        1.0660    -3.3130    -1.0440 H     1 <1>   0.0800 
 21 H       -0.4030    -2.8410    -0.2000 H     1 <1>   0.0800 
 22 H        2.1670     0.4900    -0.1050 H     1 <1>   0.0800 
 23 H        3.7070     0.0520    -0.7960 H     1 <1>   0.0800 
 24 H        1.5270    -2.8520     1.3700 H     1 <1>   0.0800 
 25 H        0.8600    -1.2500     1.1900 H     1 <1>   0.0800 
 26 H        3.2400    -2.2590    -0.2670 H     1 <1>   0.4500 
 27 H        3.6290    -2.1940     2.0710 H     1 <1>   0.0800 
 28 H        3.3350    -0.4670     2.0150 H     1 <1>   0.0800 
 29 H        5.2950     0.8090     1.8400 H     1 <1>   0.1500 
 30 H        7.5550     1.1510     0.9880 H     1 <1>   0.1500 
 31 H        5.9440    -4.7030    -1.0700 H     1 <1>   0.0800 
 32 H        4.8250    -5.2540     0.1660 H     1 <1>   0.0800 
 33 H        6.3560    -4.5200     0.6390 H     1 <1>   0.0800 
 34 H        8.6180    -0.5140    -0.4070 H     1 <1>   0.1500 
 35 H        8.8320    -1.7920    -2.3490 H     1 <1>   0.0800 
 36 H        9.0260    -3.5400    -2.3350 H     1 <1>   0.0800 
 37 H        9.5270    -2.6040    -0.9330 H     1 <1>   0.0800 
@<TRIPOS>BOND
  1   1   2  1   
  2   1   3  1   
  3   2   4  1   
  4   2  18  1   
  5   2  19  1   
  6   3   5  1   
  7   3  20  1   
  8   3  21  1   
  9   4   6  1   
 10   4  22  1   
 11   4  23  1   
 12   5   6  1   
 13   5  24  1   
 14   5  25  1   
 15   6   7  1   
 16   6  26  1   
 17   7   8  1   
 18   7  27  1   
 19   7  28  1   
 20   8   9  ar  
 21   8  10  ar  
 22   9  11  1   
 23   9  12  ar  
 24  10  13  ar  
 25  10  29  1   
 26  11  14  1   
 27  12  15  1   
 28  12  16  ar  
 29  13  16  ar  
 30  13  30  1   
 31  14  31  1   
 32  14  32  1   
 33  14  33  1   
 34  15  17  1   
 35  16  34  1   
 36  17  35  1   
 37  17  36  1   
 38  17  37  1   
@<TRIPOS>SUBSTRUCTURE
  1 ****   9 GROUP 4 **** **** 0

# MOE 2024.06 (io_trps.svl 2023.06)
