@<TRIPOS>MOLECULE
NONAME
41 43 1 0 0 
SMALL
USER_CHARGES


@<TRIPOS>ATOM
  1 O        2.1370    -6.7600     0.1120 O.3   1 <1>  -0.3630 
  2 C        3.2880    -7.3790    -0.2610 C.ar  1 <1>   0.0830 
  3 C        0.8760    -7.3570    -0.0540 C.3   1 <1>   0.1200 
  4 C        4.4960    -6.6630    -0.0520 C.ar  1 <1>   0.0000 
  5 C        3.3090    -8.6390    -0.8160 C.ar  1 <1>  -0.1500 
  6 C       -0.1650    -6.3640     0.4660 C.3   1 <1>   0.3430 
  7 C        5.7170    -7.2700    -0.4270 C.ar  1 <1>   0.0000 
  8 C        4.5500    -5.3680     0.5130 C.ar  1 <1>  -0.1500 
  9 C        4.5200    -9.2310    -1.1830 C.ar  1 <1>  -0.1500 
 10 N       -1.5560    -6.8940     0.3300 N.4   1 <1>  -0.9060 
 11 C        5.6940    -8.5590    -0.9920 C.ar  1 <1>  -0.1500 
 12 C        6.9230    -6.5690    -0.2250 C.ar  1 <1>  -0.1500 
 13 C        5.7340    -4.7100     0.6970 C.ar  1 <1>  -0.1500 
 14 C       -2.5900    -5.9550     0.8060 C.3   1 <1>   0.4230 
 15 C        6.9370    -5.3180     0.3240 C.ar  1 <1>  -0.1500 
 16 C       -3.9240    -6.6900     0.8030 C.3   1 <1>  -0.1600 
 17 C       -2.8060    -4.8640    -0.2390 C.3   1 <1>  -0.1600 
 18 C       -4.4130    -6.6670    -0.6510 C.3   1 <1>  -0.1600 
 19 C       -3.6950    -5.4890    -1.3210 C.3   1 <1>  -0.1600 
 20 H        0.8620    -8.2690     0.5160 H     1 <1>   0.0800 
 21 H        0.7360    -7.5510    -1.1040 H     1 <1>   0.0800 
 22 H        2.4190    -9.2120    -0.9890 H     1 <1>   0.1500 
 23 H       -0.0680    -5.4460    -0.0900 H     1 <1>   0.0800 
 24 H        0.0440    -6.1580     1.5040 H     1 <1>   0.0800 
 25 H        3.6310    -4.8940     0.8030 H     1 <1>   0.1500 
 26 H        4.5170   -10.2160    -1.6160 H     1 <1>   0.1500 
 27 H       -1.6550    -7.7720     0.8510 H     1 <1>   0.4500 
 28 H       -1.7770    -7.0950    -0.6530 H     1 <1>   0.4500 
 29 H        6.6290    -9.0110    -1.2730 H     1 <1>   0.1500 
 30 H        7.8440    -7.0420    -0.5150 H     1 <1>   0.1500 
 31 H        5.7600    -3.7250     1.1290 H     1 <1>   0.1500 
 32 H       -2.3450    -5.5600     1.7800 H     1 <1>   0.0800 
 33 H        7.8610    -4.7880     0.4750 H     1 <1>   0.1500 
 34 H       -4.6190    -6.1260     1.4040 H     1 <1>   0.0800 
 35 H       -3.8670    -7.6850     1.2090 H     1 <1>   0.0800 
 36 H       -1.8970    -4.4510    -0.6380 H     1 <1>   0.0800 
 37 H       -3.3540    -4.0610     0.2270 H     1 <1>   0.0800 
 38 H       -5.4840    -6.5430    -0.6910 H     1 <1>   0.0800 
 39 H       -4.1620    -7.5870    -1.1520 H     1 <1>   0.0800 
 40 H       -3.1000    -5.8400    -2.1480 H     1 <1>   0.0800 
 41 H       -4.4020    -4.7670    -1.6970 H     1 <1>   0.0800 
@<TRIPOS>BOND
  1   1   2  1   
  2   1   3  1   
  3   2   4  ar  
  4   2   5  ar  
  5   3   6  1   
  6   3  20  1   
  7   3  21  1   
  8   4   7  ar  
  9   4   8  ar  
 10   5   9  ar  
 11   5  22  1   
 12   6  10  1   
 13   6  23  1   
 14   6  24  1   
 15   7  11  ar  
 16   7  12  ar  
 17   8  13  ar  
 18   8  25  1   
 19   9  11  ar  
 20   9  26  1   
 21  10  14  1   
 22  10  27  1   
 23  10  28  1   
 24  11  29  1   
 25  12  15  ar  
 26  12  30  1   
 27  13  15  ar  
 28  13  31  1   
 29  14  16  1   
 30  14  17  1   
 31  14  32  1   
 32  15  33  1   
 33  16  18  1   
 34  16  34  1   
 35  16  35  1   
 36  17  19  1   
 37  17  36  1   
 38  17  37  1   
 39  18  19  1   
 40  18  38  1   
 41  18  39  1   
 42  19  40  1   
 43  19  41  1   
@<TRIPOS>SUBSTRUCTURE
  1 ****   1 GROUP 4 **** **** 0

# MOE 2024.06 (io_trps.svl 2023.06)
