@<TRIPOS>MOLECULE
NONAME
43 45 1 0 0 
SMALL
USER_CHARGES


@<TRIPOS>ATOM
  1 F        0.6230    -0.3770    -0.4640 F     1 <1>  -0.1900 
  2 C        1.7120    -1.0410    -0.1720 C.ar  1 <1>   0.1900 
  3 C        2.8860    -0.7150    -0.8250 C.ar  1 <1>  -0.1500 
  4 C        1.6500    -2.0420     0.7770 C.ar  1 <1>  -0.1500 
  5 C        4.0350    -1.4210    -0.5130 C.ar  1 <1>  -0.1500 
  6 C        2.8070    -2.7390     1.0780 C.ar  1 <1>  -0.1500 
  7 C        4.0090    -2.4400     0.4390 C.ar  1 <1>   0.1000 
  8 N        5.1510    -3.1700     0.7600 N.pl3 1 <1>  -0.8380 
  9 C        5.2080    -4.6120     0.3750 C.3   1 <1>   0.2090 
 10 C        6.4550    -2.4820     1.0080 C.3   1 <1>   0.2090 
 11 C        6.2530    -4.8580    -0.7340 C.3   1 <1>   0.3430 
 12 C        7.4800    -2.7860    -0.1060 C.3   1 <1>   0.3430 
 13 N        7.5980    -4.2630    -0.4040 N.4   1 <1>  -0.9590 
 14 C        8.6060    -4.5330    -1.4640 C.3   1 <1>   0.4860 
 15 C        9.9540    -4.0470    -0.9730 C.ar  1 <1>  -0.1430 
 16 C       10.6290    -4.7440     0.0200 C.ar  1 <1>  -0.1500 
 17 C       10.5160    -2.8960    -1.5050 C.ar  1 <1>  -0.1500 
 18 C       11.8490    -4.2880     0.4920 C.ar  1 <1>  -0.1430 
 19 C       11.7350    -2.4410    -1.0370 C.ar  1 <1>  -0.1500 
 20 C       12.3970    -3.1340    -0.0400 C.ar  1 <1>  -0.1500 
 21 C       12.5920    -5.0480     1.5770 C.3   1 <1>  -0.0970 
 22 H        2.8900     0.0740    -1.5560 H     1 <1>   0.1500 
 23 H        0.7190    -2.2650     1.2660 H     1 <1>   0.1500 
 24 H        4.9500    -1.1790    -1.0170 H     1 <1>   0.1500 
 25 H        2.7870    -3.5160     1.8200 H     1 <1>   0.1500 
 26 H        4.2410    -4.9320     0.0260 H     1 <1>   0.0800 
 27 H        5.4510    -5.1990     1.2440 H     1 <1>   0.0800 
 28 H        6.8470    -2.8090     1.9560 H     1 <1>   0.0800 
 29 H        6.3000    -1.4190     1.0760 H     1 <1>   0.0800 
 30 H        5.8790    -4.4180    -1.6440 H     1 <1>   0.0800 
 31 H        6.3480    -5.9190    -0.8940 H     1 <1>   0.0800 
 32 H        8.4390    -2.3930     0.1910 H     1 <1>   0.0800 
 33 H        7.1730    -2.2640    -0.9960 H     1 <1>   0.0800 
 34 H        7.9480    -4.7020     0.4560 H     1 <1>   0.4500 
 35 H        8.3390    -4.0220    -2.3750 H     1 <1>   0.0800 
 36 H        8.6620    -5.5900    -1.6670 H     1 <1>   0.0800 
 37 H       10.2200    -5.6500     0.4320 H     1 <1>   0.1500 
 38 H       10.0230    -2.3430    -2.2860 H     1 <1>   0.1500 
 39 H       12.1760    -1.5480    -1.4480 H     1 <1>   0.1500 
 40 H       13.3470    -2.7720     0.3160 H     1 <1>   0.1500 
 41 H       11.9120    -5.6200     2.1820 H     1 <1>   0.0800 
 42 H       13.1210    -4.3650     2.2180 H     1 <1>   0.0800 
 43 H       13.3040    -5.7180     1.1280 H     1 <1>   0.0800 
@<TRIPOS>BOND
  1   1   2  1   
  2   2   3  ar  
  3   2   4  ar  
  4   3   5  ar  
  5   3  22  1   
  6   4   6  ar  
  7   4  23  1   
  8   5   7  ar  
  9   5  24  1   
 10   6   7  ar  
 11   6  25  1   
 12   7   8  1   
 13   8   9  1   
 14   8  10  1   
 15   9  11  1   
 16   9  26  1   
 17   9  27  1   
 18  10  12  1   
 19  10  28  1   
 20  10  29  1   
 21  11  13  1   
 22  11  30  1   
 23  11  31  1   
 24  12  13  1   
 25  12  32  1   
 26  12  33  1   
 27  13  14  1   
 28  13  34  1   
 29  14  15  1   
 30  14  35  1   
 31  14  36  1   
 32  15  16  ar  
 33  15  17  ar  
 34  16  18  ar  
 35  16  37  1   
 36  17  19  ar  
 37  17  38  1   
 38  18  20  ar  
 39  18  21  1   
 40  19  20  ar  
 41  19  39  1   
 42  20  40  1   
 43  21  41  1   
 44  21  42  1   
 45  21  43  1   
@<TRIPOS>SUBSTRUCTURE
  1 ****  12 GROUP 4 **** **** 0

# MOE 2024.06 (io_trps.svl 2023.06)
