@<TRIPOS>MOLECULE
NONAME
40 41 1 0 0 
SMALL
USER_CHARGES


@<TRIPOS>ATOM
  1 S        0.6630    -1.4290    -0.7810 S.o2  1 <1>   1.4470 
  2 O       -0.4170    -2.0380    -1.5180 O.2   1 <1>  -0.6500 
  3 O        2.0100    -1.6280    -1.2700 O.2   1 <1>  -0.6500 
  4 N        0.5440    -2.1520     0.7310 N.am  1 <1>  -0.9140 
  5 C        0.3160     0.3400    -0.5470 C.ar  1 <1>  -0.0090 
  6 C        1.7320    -2.2450     1.6000 C.3   1 <1>   0.3370 
  7 C       -0.0440     0.8790     0.6850 C.ar  1 <1>  -0.1500 
  8 C        0.4020     1.2090    -1.6300 C.ar  1 <1>  -0.1500 
  9 C        2.5590    -0.9500     1.8220 C.2   1 <1>   0.5690 
 10 C        2.5850    -3.4500     1.1820 C.3   1 <1>  -0.2400 
 11 C       -0.2950     2.2320     0.8330 C.ar  1 <1>  -0.1500 
 12 C        0.1520     2.5630    -1.4910 C.ar  1 <1>  -0.1500 
 13 O        2.4530    -0.3760     2.8810 O.2   1 <1>  -0.5700 
 14 N        3.3910    -0.4870     0.8520 N.am  1 <1>  -0.7300 
 15 C       -0.1960     3.0770    -0.2560 C.ar  1 <1>  -0.1500 
 16 C        4.2720     0.6860     0.9490 C.3   1 <1>   0.2200 
 17 C        3.7430     1.7830     0.0360 C.3   1 <1>  -0.1600 
 18 C        5.6120     0.3310     0.3180 C.3   1 <1>  -0.1600 
 19 C        4.1960     1.3980    -1.3770 C.3   1 <1>  -0.1600 
 20 C        5.4090     0.4760    -1.1950 C.3   1 <1>  -0.1600 
 21 H        0.2170    -3.0920     0.5260 H     1 <1>   0.4200 
 22 H        1.3520    -2.4910     2.5770 H     1 <1>   0.0800 
 23 H       -0.1290     0.2420     1.5490 H     1 <1>   0.1500 
 24 H        0.6720     0.8190    -2.5970 H     1 <1>   0.1500 
 25 H        3.0620    -3.2940     0.2330 H     1 <1>   0.0800 
 26 H        1.9870    -4.3420     1.1400 H     1 <1>   0.0800 
 27 H        3.3590    -3.6010     1.9130 H     1 <1>   0.0800 
 28 H       -0.5650     2.6250     1.7980 H     1 <1>   0.1500 
 29 H        0.2270     3.2160    -2.3440 H     1 <1>   0.1500 
 30 H        3.3630    -0.9190    -0.0820 H     1 <1>   0.3700 
 31 H       -0.3910     4.1290    -0.1430 H     1 <1>   0.1500 
 32 H        4.3670     1.0110     1.9720 H     1 <1>   0.0800 
 33 H        4.2120     2.7110     0.3120 H     1 <1>   0.0800 
 34 H        2.6780     1.9040     0.1190 H     1 <1>   0.0800 
 35 H        5.9490    -0.6510     0.6010 H     1 <1>   0.0800 
 36 H        6.3420     1.0510     0.6430 H     1 <1>   0.0800 
 37 H        4.4440     2.2720    -1.9540 H     1 <1>   0.0800 
 38 H        3.4090     0.8610    -1.8790 H     1 <1>   0.0800 
 39 H        5.1980    -0.4850    -1.6320 H     1 <1>   0.0800 
 40 H        6.2880     0.8850    -1.6630 H     1 <1>   0.0800 
@<TRIPOS>BOND
  1   1   2  2   
  2   1   3  2   
  3   1   4  am  
  4   1   5  1   
  5   4   6  1   
  6   4  21  1   
  7   5   7  ar  
  8   5   8  ar  
  9   6   9  1   
 10   6  10  1   
 11   6  22  1   
 12   7  11  ar  
 13   7  23  1   
 14   8  12  ar  
 15   8  24  1   
 16   9  13  2   
 17   9  14  am  
 18  10  25  1   
 19  10  26  1   
 20  10  27  1   
 21  11  15  ar  
 22  11  28  1   
 23  12  15  ar  
 24  12  29  1   
 25  14  16  1   
 26  14  30  1   
 27  15  31  1   
 28  16  17  1   
 29  16  18  1   
 30  16  32  1   
 31  17  19  1   
 32  17  33  1   
 33  17  34  1   
 34  18  20  1   
 35  18  35  1   
 36  18  36  1   
 37  19  20  1   
 38  19  37  1   
 39  19  38  1   
 40  20  39  1   
 41  20  40  1   
@<TRIPOS>SUBSTRUCTURE
  1 ****  14 GROUP 4 **** **** 0

# MOE 2024.06 (io_trps.svl 2023.06)
