@<TRIPOS>MOLECULE
NONAME
29 29 1 0 0 
SMALL
USER_CHARGES


@<TRIPOS>ATOM
  1 I        1.2220     0.0070     1.6800 I     1 <1>  -0.0810 
  2 C        0.4390    -1.8370     0.9600 C.ar  1 <1>   0.0810 
  3 C       -0.8470    -2.1930     1.3190 C.ar  1 <1>  -0.1500 
  4 C        1.2360    -2.6270     0.1550 C.ar  1 <1>  -0.1500 
  5 C       -1.3580    -3.3940     0.8490 C.ar  1 <1>  -0.1440 
  6 C        0.7210    -3.8230    -0.3110 C.ar  1 <1>  -0.1500 
  7 C       -0.5750    -4.2110     0.0320 C.ar  1 <1>   0.0830 
  8 C       -2.7600    -3.8190     1.2270 C.3   1 <1>   0.4870 
  9 O       -1.1360    -5.3720    -0.4080 O.3   1 <1>  -0.3620 
 10 N       -3.5350    -3.9170    -0.0240 N.4   1 <1>  -0.9060 
 11 C       -0.3420    -6.3790    -1.0070 C.3   1 <1>   0.0400 
 12 C       -4.9120    -4.4470     0.1740 C.3   1 <1>   0.3430 
 13 C       -5.6550    -4.6030    -1.1580 C.3   1 <1>   0.1200 
 14 O       -6.9200    -5.0810    -0.8740 O.3   1 <1>  -0.6800 
 15 H       -1.4190    -1.5380     1.9540 H     1 <1>   0.1500 
 16 H        2.2350    -2.3150    -0.1010 H     1 <1>   0.1500 
 17 H        1.3450    -4.4320    -0.9400 H     1 <1>   0.1500 
 18 H       -3.2050    -3.0990     1.8950 H     1 <1>   0.0800 
 19 H       -2.7210    -4.7790     1.7190 H     1 <1>   0.0800 
 20 H       -2.9740    -4.5470    -0.6210 H     1 <1>   0.4500 
 21 H       -3.5340    -2.9990    -0.4820 H     1 <1>   0.4500 
 22 H       -0.9570    -7.2460    -1.1710 H     1 <1>   0.0800 
 23 H        0.4680    -6.6310    -0.3440 H     1 <1>   0.0800 
 24 H        0.0350    -6.0200    -1.9490 H     1 <1>   0.0800 
 25 H       -5.4730    -3.7770     0.8050 H     1 <1>   0.0800 
 26 H       -4.8640    -5.4110     0.6540 H     1 <1>   0.0800 
 27 H       -5.1640    -5.3160    -1.7980 H     1 <1>   0.0800 
 28 H       -5.7630    -3.6560    -1.6590 H     1 <1>   0.0800 
 29 H       -7.4540    -5.2110    -1.6870 H     1 <1>   0.4000 
@<TRIPOS>BOND
  1   1   2  1   
  2   2   3  ar  
  3   2   4  ar  
  4   3   5  ar  
  5   3  15  1   
  6   4   6  ar  
  7   4  16  1   
  8   5   7  ar  
  9   5   8  1   
 10   6   7  ar  
 11   6  17  1   
 12   7   9  1   
 13   8  10  1   
 14   8  18  1   
 15   8  19  1   
 16   9  11  1   
 17  10  12  1   
 18  10  20  1   
 19  10  21  1   
 20  11  22  1   
 21  11  23  1   
 22  11  24  1   
 23  12  13  1   
 24  12  25  1   
 25  12  26  1   
 26  13  14  1   
 27  13  27  1   
 28  13  28  1   
 29  14  29  1   
@<TRIPOS>SUBSTRUCTURE
  1 ****   5 GROUP 4 **** **** 0

# MOE 2024.06 (io_trps.svl 2023.06)
