@<TRIPOS>MOLECULE
NONAME
29 30 1 0 0 
SMALL
USER_CHARGES


@<TRIPOS>ATOM
  1 BR      -0.2840     0.8770     2.0730 Br    1 <1>  -0.1110 
  2 C        0.7820     2.0200     0.9440 C.ar  1 <1>   0.1110 
  3 C        0.1640     2.8850     0.0540 C.ar  1 <1>  -0.1440 
  4 C        2.1540     1.9330     1.0660 C.ar  1 <1>  -0.1500 
  5 C        0.9780     3.6870    -0.7300 C.ar  1 <1>  -0.1500 
  6 C       -1.3500     2.9660    -0.0650 C.3   1 <1>  -0.0960 
  7 C        2.9770     2.7270     0.2700 C.ar  1 <1>   0.0860 
  8 C        2.3570     3.6070    -0.6180 C.ar  1 <1>  -0.1500 
  9 C        4.4240     2.6540     0.3560 C.2   1 <1>   0.5440 
 10 O        5.0720     3.6780     0.4620 O.2   1 <1>  -0.5700 
 11 N        5.0910     1.4510     0.3080 N.am  1 <1>  -0.6600 
 12 C        4.5200     0.1790    -0.1880 C.3   1 <1>   0.1400 
 13 C        6.5660     1.3670     0.3970 C.3   1 <1>   0.1400 
 14 C        5.7190    -0.6100    -0.7000 C.3   1 <1>  -0.1600 
 15 C        6.8950    -0.0970     0.1250 C.3   1 <1>  -0.1600 
 16 H        2.5880     1.2570     1.7800 H     1 <1>   0.1500 
 17 H        0.5440     4.3800    -1.4300 H     1 <1>   0.1500 
 18 H       -1.7500     2.0090    -0.3490 H     1 <1>   0.0800 
 19 H       -1.6410     3.6890    -0.8050 H     1 <1>   0.0800 
 20 H       -1.7780     3.2550     0.8790 H     1 <1>   0.0800 
 21 H        2.9780     4.2410    -1.2280 H     1 <1>   0.1500 
 22 H        3.7970     0.3500    -0.9680 H     1 <1>   0.0800 
 23 H        4.0570    -0.3430     0.6320 H     1 <1>   0.0800 
 24 H        6.9060     1.6820     1.3690 H     1 <1>   0.0800 
 25 H        7.0000     2.0010    -0.3580 H     1 <1>   0.0800 
 26 H        5.8720    -0.3750    -1.7390 H     1 <1>   0.0800 
 27 H        5.5750    -1.6700    -0.5980 H     1 <1>   0.0800 
 28 H        6.9430    -0.6230     1.0630 H     1 <1>   0.0800 
 29 H        7.8350    -0.2050    -0.3860 H     1 <1>   0.0800 
@<TRIPOS>BOND
  1   1   2  1   
  2   2   3  ar  
  3   2   4  ar  
  4   3   5  ar  
  5   3   6  1   
  6   4   7  ar  
  7   4  16  1   
  8   5   8  ar  
  9   5  17  1   
 10   6  18  1   
 11   6  19  1   
 12   6  20  1   
 13   7   8  ar  
 14   7   9  1   
 15   8  21  1   
 16   9  10  2   
 17   9  11  am  
 18  11  12  1   
 19  11  13  1   
 20  12  14  1   
 21  12  22  1   
 22  12  23  1   
 23  13  15  1   
 24  13  24  1   
 25  13  25  1   
 26  14  15  1   
 27  14  26  1   
 28  14  27  1   
 29  15  28  1   
 30  15  29  1   
@<TRIPOS>SUBSTRUCTURE
  1 ****   7 GROUP 4 **** **** 0

# MOE 2024.06 (io_trps.svl 2023.06)
