@<TRIPOS>MOLECULE
NONAME
49 50 1 0 0 
SMALL
USER_CHARGES


@<TRIPOS>ATOM
  1 CL       0.8750    -1.9770    -3.1210 Cl    1 <1>  -0.1770 
  2 C        2.0730    -2.1220    -1.8530 C.ar  1 <1>   0.1770 
  3 C        3.2620    -2.8110    -2.0540 C.ar  1 <1>  -0.1440 
  4 C        1.7800    -1.5200    -0.6430 C.ar  1 <1>  -0.1500 
  5 C        4.1590    -2.8790    -0.9920 C.ar  1 <1>  -0.1500 
  6 C        3.5590    -3.4670    -3.4050 C.3   1 <1>   1.1640 
  7 C        2.6850    -1.6000     0.3980 C.ar  1 <1>  -0.1500 
  8 C        3.8830    -2.2830     0.2350 C.ar  1 <1>   0.1990 
  9 F        3.5830    -2.5910    -4.4010 F     1 <1>  -0.3400 
 10 F        2.6600    -4.3880    -3.7290 F     1 <1>  -0.3400 
 11 F        4.7340    -4.0830    -3.4360 F     1 <1>  -0.3400 
 12 N        4.7910    -2.3510     1.2820 N.am  1 <1>  -0.6930 
 13 S        5.0830    -3.8390     2.1170 S.o2  1 <1>   1.3330 
 14 C        5.8870    -1.3300     1.2970 C.3   1 <1>   0.2570 
 15 O        4.9130    -4.9140     1.1750 O.2   1 <1>  -0.6500 
 16 O        6.3400    -3.6710     2.8090 O.2   1 <1>  -0.6500 
 17 C        3.7620    -3.8650     3.3080 C.3   1 <1>  -0.1350 
 18 C        7.0500    -1.6560     0.3540 C.2   1 <1>   0.5690 
 19 O        7.1390    -1.0200    -0.6700 O.2   1 <1>  -0.5700 
 20 N        7.9230    -2.6490     0.7110 N.am  1 <1>  -0.5470 
 21 C        9.0450    -3.1850     0.0620 C.ar  1 <1>   0.1170 
 22 C        9.4950    -4.4390     0.4530 C.ar  1 <1>  -0.1500 
 23 C        9.7390    -2.5230    -0.9440 C.ar  1 <1>  -0.1500 
 24 C       10.6010    -5.0180    -0.1440 C.ar  1 <1>  -0.1500 
 25 C       10.8440    -3.1010    -1.5430 C.ar  1 <1>  -0.1500 
 26 C       11.2880    -4.3550    -1.1510 C.ar  1 <1>  -0.1430 
 27 C       12.5070    -4.9780    -1.8280 C.3   1 <1>   0.0630 
 28 C       12.1280    -6.2780    -2.5440 C.3   1 <1>  -0.2400 
 29 C       13.6320    -5.2200    -0.8170 C.3   1 <1>  -0.2400 
 30 H        0.8500    -0.9930    -0.5240 H     1 <1>   0.1500 
 31 H        5.0960    -3.4030    -1.0980 H     1 <1>   0.1500 
 32 H        2.4680    -1.1310     1.3410 H     1 <1>   0.1500 
 33 H        6.2680    -1.2170     2.2960 H     1 <1>   0.0800 
 34 H        5.4790    -0.3810     1.0000 H     1 <1>   0.0800 
 35 H        3.8140    -3.0020     3.9420 H     1 <1>   0.0800 
 36 H        3.8340    -4.7450     3.9180 H     1 <1>   0.0800 
 37 H        2.8130    -3.8730     2.8080 H     1 <1>   0.0800 
 38 H        7.6610    -3.1530     1.5690 H     1 <1>   0.3700 
 39 H        8.9740    -4.9720     1.2280 H     1 <1>   0.1500 
 40 H        9.4230    -1.5490    -1.2670 H     1 <1>   0.1500 
 41 H       10.9240    -5.9910     0.1790 H     1 <1>   0.1500 
 42 H       11.3560    -2.5620    -2.3200 H     1 <1>   0.1500 
 43 H       12.8770    -4.2910    -2.5710 H     1 <1>   0.0800 
 44 H       11.7980    -7.0210    -1.8410 H     1 <1>   0.0800 
 45 H       12.9730    -6.6670    -3.0840 H     1 <1>   0.0800 
 46 H       11.3320    -6.0900    -3.2420 H     1 <1>   0.0800 
 47 H       13.3340    -5.9410    -0.0770 H     1 <1>   0.0800 
 48 H       13.8790    -4.3000    -0.3180 H     1 <1>   0.0800 
 49 H       14.5110    -5.5850    -1.3180 H     1 <1>   0.0800 
@<TRIPOS>BOND
  1   1   2  1   
  2   2   3  ar  
  3   2   4  ar  
  4   3   5  ar  
  5   3   6  1   
  6   4   7  ar  
  7   4  30  1   
  8   5   8  ar  
  9   5  31  1   
 10   6   9  1   
 11   6  10  1   
 12   6  11  1   
 13   7   8  ar  
 14   7  32  1   
 15   8  12  1   
 16  12  13  am  
 17  12  14  1   
 18  13  15  2   
 19  13  16  2   
 20  13  17  1   
 21  14  18  1   
 22  14  33  1   
 23  14  34  1   
 24  17  35  1   
 25  17  36  1   
 26  17  37  1   
 27  18  19  2   
 28  18  20  am  
 29  20  21  1   
 30  20  38  1   
 31  21  22  ar  
 32  21  23  ar  
 33  22  24  ar  
 34  22  39  1   
 35  23  25  ar  
 36  23  40  1   
 37  24  26  ar  
 38  24  41  1   
 39  25  26  ar  
 40  25  42  1   
 41  26  27  1   
 42  27  28  1   
 43  27  29  1   
 44  27  43  1   
 45  28  44  1   
 46  28  45  1   
 47  28  46  1   
 48  29  47  1   
 49  29  48  1   
 50  29  49  1   
@<TRIPOS>SUBSTRUCTURE
  1 ****  18 GROUP 4 **** **** 0

# MOE 2024.06 (io_trps.svl 2023.06)
