@<TRIPOS>MOLECULE
NONAME
40 42 1 0 0 
SMALL
USER_CHARGES


@<TRIPOS>ATOM
  1 O       -0.3810    -1.8420    -1.5490 O.2   1 <1>  -0.5700 
  2 C       -0.3010    -1.9320    -0.3530 C.2   1 <1>   0.5690 
  3 N       -1.3610    -1.6430     0.4210 N.am  1 <1>  -0.8000 
  4 C        1.0180    -2.3790     0.2730 C.3   1 <1>  -0.0190 
  5 C        2.1470    -1.3910    -0.0810 C.3   1 <1>  -0.1600 
  6 C        1.3860    -3.7990    -0.1980 C.3   1 <1>  -0.1600 
  7 C        3.5180    -1.8800     0.3810 C.3   1 <1>   0.3430 
  8 C        2.7740    -4.2240     0.2740 C.3   1 <1>   0.3430 
  9 N        3.7860    -3.2320    -0.1900 N.4   1 <1>  -0.9590 
 10 C        5.1640    -3.7370     0.0980 C.3   1 <1>   0.3430 
 11 C        6.2560    -2.9380    -0.6410 C.3   1 <1>  -0.0800 
 12 C        7.6270    -3.8570    -0.7750 C.3   1 <1>   0.0580 
 13 C        6.7280    -1.4900     0.1430 C.3   1 <1>  -0.1600 
 14 C        9.1750    -3.8570    -0.3190 C.2   1 <1>  -0.2880 
 15 C        7.8750    -2.6690    -0.2240 C.3   1 <1>  -0.1600 
 16 C        8.3560    -1.6030     0.4140 C.3   1 <1>   0.0580 
 17 C        9.5560    -2.6770     0.3040 C.2   1 <1>  -0.2880 
 18 H       -2.2300    -1.3470    -0.0300 H     1 <1>   0.3700 
 19 H       -1.3850    -1.6910     1.4390 H     1 <1>   0.3700 
 20 H        0.9000    -2.3940     1.3420 H     1 <1>   0.0800 
 21 H        1.9410    -0.4380     0.3750 H     1 <1>   0.0800 
 22 H        2.1750    -1.2320    -1.1460 H     1 <1>   0.0800 
 23 H        1.3510    -3.8500    -1.2740 H     1 <1>   0.0800 
 24 H        0.6570    -4.4970     0.1750 H     1 <1>   0.0800 
 25 H        3.5490    -1.9230     1.4580 H     1 <1>   0.0800 
 26 H        4.2650    -1.1810     0.0450 H     1 <1>   0.0800 
 27 H        3.0010    -5.1990    -0.1270 H     1 <1>   0.0800 
 28 H        2.7890    -4.2870     1.3500 H     1 <1>   0.0800 
 29 H        3.6810    -3.1550    -1.2110 H     1 <1>   0.4500 
 30 H        5.2310    -4.7630    -0.2280 H     1 <1>   0.0800 
 31 H        5.3590    -3.7190     1.1580 H     1 <1>   0.0800 
 32 H        5.8940    -2.7170    -1.6360 H     1 <1>   0.0800 
 33 H        7.7130    -3.9960    -1.8450 H     1 <1>   0.0800 
 34 H        6.2210    -1.3620     1.0880 H     1 <1>   0.0800 
 35 H        6.5040    -0.6280    -0.4700 H     1 <1>   0.0800 
 36 H        9.7740    -4.7290    -0.5230 H     1 <1>   0.1500 
 37 H        8.1750    -2.2170    -1.2590 H     1 <1>   0.0800 
 38 H        7.6510    -3.1720     0.8640 H     1 <1>   0.0800 
 39 H        8.7490    -0.7610    -0.1400 H     1 <1>   0.0800 
 40 H       10.5220    -2.4090     0.7020 H     1 <1>   0.1500 
@<TRIPOS>BOND
  1   1   2  2   
  2   2   3  am  
  3   2   4  1   
  4   3  18  1   
  5   3  19  1   
  6   4   5  1   
  7   4   6  1   
  8   4  20  1   
  9   5   7  1   
 10   5  21  1   
 11   5  22  1   
 12   6   8  1   
 13   6  23  1   
 14   6  24  1   
 15   7   9  1   
 16   7  25  1   
 17   7  26  1   
 18   8   9  1   
 19   8  27  1   
 20   8  28  1   
 21   9  10  1   
 22   9  29  1   
 23  10  11  1   
 24  10  30  1   
 25  10  31  1   
 26  11  12  1   
 27  11  13  1   
 28  11  32  1   
 29  12  14  1   
 30  12  15  1   
 31  12  33  1   
 32  13  16  1   
 33  13  34  1   
 34  13  35  1   
 35  14  17  2   
 36  14  36  1   
 37  15  16  1   
 38  15  37  1   
 39  15  38  1   
 40  16  17  1   
 41  16  39  1   
 42  17  40  1   
@<TRIPOS>SUBSTRUCTURE
  1 ****   9 GROUP 4 **** **** 0

# MOE 2024.06 (io_trps.svl 2023.06)
