@<TRIPOS>MOLECULE
NONAME
41 42 1 0 0 
SMALL
USER_CHARGES


@<TRIPOS>ATOM
  1 O       -0.0160    -4.5010    -0.7890 O.2   1 <1>  -0.5700 
  2 C       -0.1370    -3.4740    -0.1700 C.2   1 <1>   0.5690 
  3 N       -1.3250    -2.9960     0.3070 N.am  1 <1>  -0.5470 
  4 C        1.1100    -2.6540     0.0810 C.3   1 <1>  -0.0990 
  5 C       -2.6210    -3.5370     0.2470 C.ar  1 <1>   0.1170 
  6 C        2.3470    -3.5020    -0.2290 C.3   1 <1>   0.3430 
  7 C       -3.7040    -2.6840     0.4290 C.ar  1 <1>  -0.1500 
  8 C       -2.8760    -4.8890     0.0330 C.ar  1 <1>  -0.1500 
  9 N        3.6130    -2.7440     0.0040 N.4   1 <1>  -0.9590 
 10 C       -5.0020    -3.1610     0.3930 C.ar  1 <1>  -0.1500 
 11 C       -4.1730    -5.3700    -0.0040 C.ar  1 <1>  -0.1500 
 12 C        3.8610    -1.7220    -1.0470 C.3   1 <1>   0.3430 
 13 C        4.7660    -3.6840     0.0690 C.3   1 <1>   0.3430 
 14 C       -5.2390    -4.5060     0.1760 C.ar  1 <1>  -0.1500 
 15 C        4.3740    -0.4270    -0.4160 C.3   1 <1>  -0.1600 
 16 C        5.9120    -3.0950     0.8970 C.3   1 <1>  -0.1600 
 17 C        5.4320    -0.5820     0.6910 C.3   1 <1>  -0.1600 
 18 C        6.4380    -1.7180     0.4500 C.3   1 <1>  -0.1600 
 19 H       -1.2960    -2.0790     0.7460 H     1 <1>   0.3700 
 20 H        1.1240    -2.3510     1.1120 H     1 <1>   0.0800 
 21 H        1.0720    -1.7890    -0.5530 H     1 <1>   0.0800 
 22 H        2.3030    -3.8430    -1.2520 H     1 <1>   0.0800 
 23 H        2.3240    -4.3750     0.4040 H     1 <1>   0.0800 
 24 H       -3.5400    -1.6360     0.5960 H     1 <1>   0.1500 
 25 H       -2.0670    -5.5810    -0.1030 H     1 <1>   0.1500 
 26 H        3.5680    -2.2600     0.9100 H     1 <1>   0.4500 
 27 H       -5.8300    -2.4880     0.5330 H     1 <1>   0.1500 
 28 H       -4.3520    -6.4170    -0.1730 H     1 <1>   0.1500 
 29 H        2.9570    -1.5120    -1.5960 H     1 <1>   0.0800 
 30 H        4.5920    -2.0920    -1.7480 H     1 <1>   0.0800 
 31 H        5.1120    -3.9110    -0.9270 H     1 <1>   0.0800 
 32 H        4.4570    -4.6090     0.5290 H     1 <1>   0.0800 
 33 H       -6.2480    -4.8810     0.1460 H     1 <1>   0.1500 
 34 H        3.5410     0.1340    -0.0300 H     1 <1>   0.0800 
 35 H        4.7970     0.1650    -1.2100 H     1 <1>   0.0800 
 36 H        6.7310    -3.7930     0.8480 H     1 <1>   0.0800 
 37 H        5.6140    -3.0510     1.9300 H     1 <1>   0.0800 
 38 H        4.9540    -0.7210     1.6460 H     1 <1>   0.0800 
 39 H        5.9760     0.3470     0.7580 H     1 <1>   0.0800 
 40 H        6.7490    -1.7400    -0.5810 H     1 <1>   0.0800 
 41 H        7.3180    -1.5050     1.0350 H     1 <1>   0.0800 
@<TRIPOS>BOND
  1   1   2  2   
  2   2   3  am  
  3   2   4  1   
  4   3   5  1   
  5   3  19  1   
  6   4   6  1   
  7   4  20  1   
  8   4  21  1   
  9   5   7  ar  
 10   5   8  ar  
 11   6   9  1   
 12   6  22  1   
 13   6  23  1   
 14   7  10  ar  
 15   7  24  1   
 16   8  11  ar  
 17   8  25  1   
 18   9  12  1   
 19   9  13  1   
 20   9  26  1   
 21  10  14  ar  
 22  10  27  1   
 23  11  14  ar  
 24  11  28  1   
 25  12  15  1   
 26  12  29  1   
 27  12  30  1   
 28  13  16  1   
 29  13  31  1   
 30  13  32  1   
 31  14  33  1   
 32  15  17  1   
 33  15  34  1   
 34  15  35  1   
 35  16  18  1   
 36  16  36  1   
 37  16  37  1   
 38  17  18  1   
 39  17  38  1   
 40  17  39  1   
 41  18  40  1   
 42  18  41  1   
@<TRIPOS>SUBSTRUCTURE
  1 ****   4 GROUP 4 **** **** 0

# MOE 2024.06 (io_trps.svl 2023.06)
