@<TRIPOS>MOLECULE
NONAME
47 49 1 0 0 
SMALL
USER_CHARGES


@<TRIPOS>ATOM
  1 O        0.6240     1.1520     0.2470 O.3   1 <1>  -0.3630 
  2 C        1.4750     0.0860     0.1550 C.ar  1 <1>   0.0830 
  3 C       -0.6890     1.0820    -0.2640 C.3   1 <1>   0.0400 
  4 C        2.7510     0.2360     0.7070 C.ar  1 <1>   0.1000 
  5 C        1.1270    -1.1130    -0.4580 C.ar  1 <1>  -0.1500 
  6 N        3.1290     1.4550     1.2960 N.pl3 1 <1>  -0.5500 
  7 C        3.6420    -0.8270     0.6740 C.ar  1 <1>  -0.1500 
  8 C        2.0340    -2.1570    -0.5050 C.ar  1 <1>  -0.1500 
  9 C        4.1030     2.2970     0.9470 C.2   1 <1>   0.5500 
 10 C        3.2890    -2.0250     0.0640 C.ar  1 <1>   0.0830 
 11 N        4.8570     2.0370    -0.1230 N.pl3 1 <1>  -0.8190 
 12 N        4.2710     3.3990     1.6170 N.2   1 <1>  -0.6510 
 13 O        4.1120    -3.1020    -0.0100 O.3   1 <1>  -0.3620 
 14 C        6.2330     2.5110    -0.2970 C.3   1 <1>   0.8590 
 15 C        5.0320     4.2410     0.9810 C.cat 1 <1>   0.9100 
 16 C        5.2560    -3.1970     0.8100 C.3   1 <1>   0.0400 
 17 N        5.7570     3.8840    -0.0710 N.pl3 1 <1>  -0.7940 
 18 C        7.7230     3.0660    -0.3820 C.3   1 <1>  -0.1600 
 19 C        6.7150     1.0010    -0.4420 C.3   1 <1>  -0.1600 
 20 N        5.0370     5.4880     1.3900 N.pl3 1 <1>  -0.7540 
 21 C        8.5230     2.7600     0.9010 C.3   1 <1>  -0.1600 
 22 C        7.4150     0.4970     0.8360 C.3   1 <1>  -0.1600 
 23 C        8.7250     1.2520     1.0610 C.3   1 <1>  -0.1600 
 24 H       -1.1740     2.0220    -0.0720 H     1 <1>   0.0800 
 25 H       -1.2190     0.2900     0.2370 H     1 <1>   0.0800 
 26 H       -0.6440     0.9050    -1.3240 H     1 <1>   0.0800 
 27 H        0.1600    -1.2590    -0.9020 H     1 <1>   0.1500 
 28 H        2.4200     1.8600     1.9090 H     1 <1>   0.4000 
 29 H        4.6010    -0.7030     1.1340 H     1 <1>   0.1500 
 30 H        1.7710    -3.0870    -0.9790 H     1 <1>   0.1500 
 31 H        4.5870     1.2490    -0.7080 H     1 <1>   0.4000 
 32 H        5.6730    -4.1810     0.6860 H     1 <1>   0.0800 
 33 H        4.9650    -3.0510     1.8350 H     1 <1>   0.0800 
 34 H        5.9710    -2.4570     0.5010 H     1 <1>   0.0800 
 35 H        6.1490     4.5630    -0.7040 H     1 <1>   0.4500 
 36 H        7.8560     4.1240    -0.5580 H     1 <1>   0.0800 
 37 H        8.2620     2.6620    -1.2210 H     1 <1>   0.0800 
 38 H        7.3850     0.8620    -1.2730 H     1 <1>   0.0800 
 39 H        5.9650     0.2590    -0.6790 H     1 <1>   0.0800 
 40 H        5.5700     6.2480     0.9820 H     1 <1>   0.4500 
 41 H        4.4460     5.7240     2.1860 H     1 <1>   0.4500 
 42 H        7.9990     3.1450     1.7610 H     1 <1>   0.0800 
 43 H        9.4860     3.2400     0.8610 H     1 <1>   0.0800 
 44 H        7.6260    -0.5560     0.7520 H     1 <1>   0.0800 
 45 H        6.7650     0.6370     1.6850 H     1 <1>   0.0800 
 46 H        9.1170     1.0310     2.0400 H     1 <1>   0.0800 
 47 H        9.4510     0.9170     0.3380 H     1 <1>   0.0800 
@<TRIPOS>BOND
  1   1   2  1   
  2   1   3  1   
  3   2   4  ar  
  4   2   5  ar  
  5   3  24  1   
  6   3  25  1   
  7   3  26  1   
  8   4   6  1   
  9   4   7  ar  
 10   5   8  ar  
 11   5  27  1   
 12   6   9  1   
 13   6  28  1   
 14   7  10  ar  
 15   7  29  1   
 16   8  10  ar  
 17   8  30  1   
 18   9  11  1   
 19   9  12  2   
 20  10  13  1   
 21  11  14  1   
 22  11  31  1   
 23  12  15  1   
 24  13  16  1   
 25  14  17  1   
 26  14  18  1   
 27  14  19  1   
 28  15  17  ar  
 29  15  20  ar  
 30  16  32  1   
 31  16  33  1   
 32  16  34  1   
 33  17  35  1   
 34  18  21  1   
 35  18  36  1   
 36  18  37  1   
 37  19  22  1   
 38  19  38  1   
 39  19  39  1   
 40  20  40  1   
 41  20  41  1   
 42  21  23  1   
 43  21  42  1   
 44  21  43  1   
 45  22  23  1   
 46  22  44  1   
 47  22  45  1   
 48  23  46  1   
 49  23  47  1   
@<TRIPOS>SUBSTRUCTURE
  1 ****  11 GROUP 4 **** **** 0

# MOE 2024.06 (io_trps.svl 2023.06)
