@<TRIPOS>MOLECULE
NONAME
51 53 1 0 0 
SMALL
USER_CHARGES


@<TRIPOS>ATOM
  1 S        2.0420    -1.9170     0.4280 S.3   1 <1>  -0.4100 
  2 C        2.2330    -3.7290     0.4600 C.3   1 <1>   0.1500 
  3 C        0.9810    -4.3340     1.1060 C.3   1 <1>   0.1200 
  4 C        3.5300    -4.0610     1.2180 C.3   1 <1>   0.3430 
  5 O       -0.1090    -3.9710     0.3260 O.3   1 <1>  -0.5600 
  6 N        4.6600    -3.1700     0.7980 N.4   1 <1>  -0.9590 
  7 C       -1.3510    -4.3770     0.8140 C.3   1 <1>   0.2640 
  8 C        5.1340    -3.4420    -0.6130 C.3   1 <1>   0.3430 
  9 C        5.8120    -3.2050     1.7750 C.3   1 <1>   0.3430 
 10 C       -2.4230    -3.8590    -0.1290 C.ar  1 <1>  -0.1440 
 11 C        6.2890    -2.5120    -1.0390 C.3   1 <1>   0.2090 
 12 C        6.9720    -2.2760     1.3590 C.3   1 <1>   0.2090 
 13 C       -2.7640    -4.5820    -1.2620 C.ar  1 <1>  -0.1500 
 14 C       -3.0700    -2.6610     0.1330 C.ar  1 <1>  -0.1500 
 15 N        7.3960    -2.5580    -0.0420 N.pl3 1 <1>  -0.8380 
 16 C       -3.7450    -4.1150    -2.1210 C.ar  1 <1>  -0.1500 
 17 C       -4.0510    -2.1930    -0.7240 C.ar  1 <1>  -0.1500 
 18 C        8.6010    -1.9900    -0.4390 C.ar  1 <1>   0.1000 
 19 C       -4.3900    -2.9210    -1.8510 C.ar  1 <1>  -0.1500 
 20 C        9.7110    -2.8000    -0.6320 C.ar  1 <1>  -0.1500 
 21 C        8.7260    -0.6200    -0.6480 C.ar  1 <1>  -0.1500 
 22 C       10.9210    -2.2590    -1.0260 C.ar  1 <1>  -0.1500 
 23 C        9.9340    -0.0750    -1.0420 C.ar  1 <1>  -0.1500 
 24 C       11.0340    -0.8940    -1.2320 C.ar  1 <1>  -0.1500 
 25 H        0.7530    -1.8060    -0.0310 H     1 <1>   0.1800 
 26 H        2.2980    -4.0590    -0.5610 H     1 <1>   0.0800 
 27 H        0.8390    -3.9500     2.1020 H     1 <1>   0.0800 
 28 H        1.0390    -5.4100     1.1290 H     1 <1>   0.0800 
 29 H        3.7920    -5.0950     1.0620 H     1 <1>   0.0800 
 30 H        3.3460    -3.9190     2.2700 H     1 <1>   0.0800 
 31 H        4.2760    -2.2090     0.7950 H     1 <1>   0.4500 
 32 H       -1.4910    -3.9690     1.8010 H     1 <1>   0.0800 
 33 H       -1.3770    -5.4520     0.8590 H     1 <1>   0.0800 
 34 H        4.3180    -3.3180    -1.3050 H     1 <1>   0.0800 
 35 H        5.4830    -4.4590    -0.6870 H     1 <1>   0.0800 
 36 H        6.1990    -4.2080     1.8390 H     1 <1>   0.0800 
 37 H        5.4700    -2.9180     2.7550 H     1 <1>   0.0800 
 38 H        5.9290    -1.5020    -1.1380 H     1 <1>   0.0800 
 39 H        6.6650    -2.8240    -1.9990 H     1 <1>   0.0800 
 40 H        7.8090    -2.4310     2.0180 H     1 <1>   0.0800 
 41 H        6.6690    -1.2470     1.4460 H     1 <1>   0.0800 
 42 H       -2.2650    -5.5090    -1.4830 H     1 <1>   0.1500 
 43 H       -2.8120    -2.0840     1.0040 H     1 <1>   0.1500 
 44 H       -4.0060    -4.6810    -2.9980 H     1 <1>   0.1500 
 45 H       -4.5500    -1.2630    -0.5160 H     1 <1>   0.1500 
 46 H       -5.1520    -2.5580    -2.5180 H     1 <1>   0.1500 
 47 H        9.6200    -3.8580    -0.4720 H     1 <1>   0.1500 
 48 H        7.8780     0.0210    -0.5020 H     1 <1>   0.1500 
 49 H       11.7750    -2.8970    -1.1730 H     1 <1>   0.1500 
 50 H       10.0230     0.9850    -1.2020 H     1 <1>   0.1500 
 51 H       11.9760    -0.4720    -1.5380 H     1 <1>   0.1500 
@<TRIPOS>BOND
  1   1   2  1   
  2   1  25  1   
  3   2   3  1   
  4   2   4  1   
  5   2  26  1   
  6   3   5  1   
  7   3  27  1   
  8   3  28  1   
  9   4   6  1   
 10   4  29  1   
 11   4  30  1   
 12   5   7  1   
 13   6   8  1   
 14   6   9  1   
 15   6  31  1   
 16   7  10  1   
 17   7  32  1   
 18   7  33  1   
 19   8  11  1   
 20   8  34  1   
 21   8  35  1   
 22   9  12  1   
 23   9  36  1   
 24   9  37  1   
 25  10  13  ar  
 26  10  14  ar  
 27  11  15  1   
 28  11  38  1   
 29  11  39  1   
 30  12  15  1   
 31  12  40  1   
 32  12  41  1   
 33  13  16  ar  
 34  13  42  1   
 35  14  17  ar  
 36  14  43  1   
 37  15  18  1   
 38  16  19  ar  
 39  16  44  1   
 40  17  19  ar  
 41  17  45  1   
 42  18  20  ar  
 43  18  21  ar  
 44  19  46  1   
 45  20  22  ar  
 46  20  47  1   
 47  21  23  ar  
 48  21  48  1   
 49  22  24  ar  
 50  22  49  1   
 51  23  24  ar  
 52  23  50  1   
 53  24  51  1   
@<TRIPOS>SUBSTRUCTURE
  1 ****   2 GROUP 4 **** **** 0

# MOE 2024.06 (io_trps.svl 2023.06)
