@<TRIPOS>MOLECULE
NONAME
29 29 1 0 0 
SMALL
USER_CHARGES


@<TRIPOS>ATOM
  1 S       -0.0350     0.1900    -0.5800 S.3   1 <1>  -0.4600 
  2 C       -1.4350    -0.7830     0.0110 C.3   1 <1>   0.0700 
  3 C        1.3940    -0.8820    -0.2660 C.3   1 <1>  -0.0100 
  4 C       -2.6840     0.0620    -0.2410 C.3   1 <1>  -0.1600 
  5 C       -3.9400    -0.6520     0.2550 C.3   1 <1>   0.3430 
  6 N       -5.1560     0.1240    -0.1130 N.4   1 <1>  -0.9590 
  7 C       -5.2680     1.4650     0.5610 C.3   1 <1>   0.3430 
  8 C       -6.4220    -0.6610     0.0790 C.3   1 <1>   0.3430 
  9 C       -6.5730     2.1940     0.1640 C.3   1 <1>   0.1200 
 10 C       -7.6700     0.1660    -0.3120 C.3   1 <1>   0.1200 
 11 O       -7.3130     1.4450    -0.7620 O.3   1 <1>  -0.5600 
 12 H       -1.2720    -0.9730     1.0580 H     1 <1>   0.0800 
 13 H       -1.4440    -1.7040    -0.5460 H     1 <1>   0.0800 
 14 H        2.2730    -0.3580    -0.5980 H     1 <1>   0.0800 
 15 H        1.2600    -1.7920    -0.8240 H     1 <1>   0.0800 
 16 H        1.4430    -1.0760     0.7900 H     1 <1>   0.0800 
 17 H       -2.7620     0.2460    -1.2990 H     1 <1>   0.0800 
 18 H       -2.5610     0.9990     0.2710 H     1 <1>   0.0800 
 19 H       -3.8910    -0.7800     1.3240 H     1 <1>   0.0800 
 20 H       -3.9870    -1.6280    -0.2010 H     1 <1>   0.0800 
 21 H       -5.1300     0.3400    -1.1220 H     1 <1>   0.4500 
 22 H       -4.4310     2.0870     0.2900 H     1 <1>   0.0800 
 23 H       -5.2480     1.3440     1.6320 H     1 <1>   0.0800 
 24 H       -6.5150    -0.9640     1.1090 H     1 <1>   0.0800 
 25 H       -6.3960    -1.5560    -0.5210 H     1 <1>   0.0800 
 26 H       -6.3440     3.1430    -0.2910 H     1 <1>   0.0800 
 27 H       -7.1870     2.3770     1.0290 H     1 <1>   0.0800 
 28 H       -8.3370     0.2690     0.5270 H     1 <1>   0.0800 
 29 H       -8.2050    -0.3240    -1.1070 H     1 <1>   0.0800 
@<TRIPOS>BOND
  1   1   2  1   
  2   1   3  1   
  3   2   4  1   
  4   2  12  1   
  5   2  13  1   
  6   3  14  1   
  7   3  15  1   
  8   3  16  1   
  9   4   5  1   
 10   4  17  1   
 11   4  18  1   
 12   5   6  1   
 13   5  19  1   
 14   5  20  1   
 15   6   7  1   
 16   6   8  1   
 17   6  21  1   
 18   7   9  1   
 19   7  22  1   
 20   7  23  1   
 21   8  10  1   
 22   8  24  1   
 23   8  25  1   
 24   9  11  1   
 25   9  26  1   
 26   9  27  1   
 27  10  11  1   
 28  10  28  1   
 29  10  29  1   
@<TRIPOS>SUBSTRUCTURE
  1 ****   5 GROUP 4 **** **** 0

# MOE 2024.06 (io_trps.svl 2023.06)
