@<TRIPOS>MOLECULE
ka-06946
25 25 1 0 0 
SMALL
USER_CHARGES


@<TRIPOS>ATOM
  1 O       -0.5510     0.7170    -1.5890 O.3   1 <1>  -0.6800 
  2 C       -0.8420     1.0470    -0.2820 C.3   1 <1>   0.3440 
  3 C       -2.3580     1.1400    -0.1540 C.ar  1 <1>  -0.1440 
  4 C       -0.1410     2.3620     0.0800 C.3   1 <1>  -0.1600 
  5 C       -3.1020     1.9380    -1.0130 C.ar  1 <1>  -0.1500 
  6 C       -3.0160     0.4190     0.8330 C.ar  1 <1>  -0.1500 
  7 C        1.3930     2.2700     0.0140 C.3   1 <1>  -0.1600 
  8 C       -4.4780     2.0140    -0.8890 C.ar  1 <1>  -0.1500 
  9 C       -4.3920     0.4940     0.9580 C.ar  1 <1>  -0.1500 
 10 C        2.0450     3.5880     0.4400 C.3   1 <1>  -0.2400 
 11 C       -5.1250     1.2910     0.0970 C.ar  1 <1>  -0.1500 
 12 H       -1.2510     0.1180    -1.9100 H     1 <1>   0.4000 
 13 H       -0.4690     0.2510     0.3410 H     1 <1>   0.0800 
 14 H       -0.4320     2.6300     1.0800 H     1 <1>   0.0800 
 15 H       -0.4880     3.1400    -0.5760 H     1 <1>   0.0800 
 16 H       -2.6060     2.5040    -1.7840 H     1 <1>   0.1500 
 17 H       -2.4600    -0.2050     1.5110 H     1 <1>   0.1500 
 18 H        1.6960     2.0350    -0.9930 H     1 <1>   0.0800 
 19 H        1.7370     1.4780     0.6570 H     1 <1>   0.0800 
 20 H       -5.0450     2.6360    -1.5600 H     1 <1>   0.1500 
 21 H       -4.8940    -0.0690     1.7260 H     1 <1>   0.1500 
 22 H        1.7300     4.3880    -0.2070 H     1 <1>   0.0800 
 23 H        3.1160     3.5030     0.3820 H     1 <1>   0.0800 
 24 H        1.7750     3.8330     1.4520 H     1 <1>   0.0800 
 25 H       -6.1950     1.3500     0.1940 H     1 <1>   0.1500 
@<TRIPOS>BOND
  1   1   2  1   
  2   1  12  1   
  3   2   3  1   
  4   2   4  1   
  5   2  13  1   
  6   3   5  ar  
  7   3   6  ar  
  8   4   7  1   
  9   4  14  1   
 10   4  15  1   
 11   5   8  ar  
 12   5  16  1   
 13   6   9  ar  
 14   6  17  1   
 15   7  10  1   
 16   7  18  1   
 17   7  19  1   
 18   8  11  ar  
 19   8  20  1   
 20   9  11  ar  
 21   9  21  1   
 22  10  22  1   
 23  10  23  1   
 24  10  24  1   
 25  11  25  1   
@<TRIPOS>SUBSTRUCTURE
  1 ****   3 GROUP 4 **** **** 0

# MOE 2024.06 (io_trps.svl 2023.06)
