@<TRIPOS>MOLECULE
NONAME
46 49 1 0 0 
SMALL
USER_CHARGES


@<TRIPOS>ATOM
  1 S       -0.6940    -0.0030    -0.2260 S.3   1 <1>  -0.4600 
  2 C       -0.1550    -1.5750    -0.9670 C.3   1 <1>   0.0700 
  3 C       -2.3740    -0.3990     0.3510 C.3   1 <1>   0.0700 
  4 C       -0.3740    -2.7170     0.0320 C.3   1 <1>   0.1400 
  5 C       -2.3150    -1.6680     1.2070 C.3   1 <1>   0.1400 
  6 N       -1.8190    -2.8210     0.3970 N.am  1 <1>  -0.6600 
  7 C       -2.6240    -3.8390    -0.0940 C.2   1 <1>   0.7160 
  8 O       -2.0690    -4.8340    -0.5310 O.2   1 <1>  -0.5700 
  9 C       -4.0880    -3.7830    -0.1250 C.2   1 <1>   0.2030 
 10 N       -4.8530    -2.6950    -0.1090 N.2   1 <1>  -0.7070 
 11 C       -4.8830    -4.9260    -0.2030 C.2   1 <1>  -0.1500 
 12 N       -6.1190    -3.1380    -0.1730 N.pl3 1 <1>   0.6010 
 13 C       -6.1690    -4.5080    -0.2290 C.2   1 <1>  -0.0260 
 14 C       -7.2960    -2.4310    -0.1700 C.2   1 <1>  -0.1690 
 15 N       -7.3350    -5.2300    -0.2970 N.2   1 <1>  -0.5760 
 16 C       -8.4600    -3.1370    -0.2370 C.2   1 <1>  -0.1360 
 17 C       -7.1540    -0.9290    -0.0830 C.3   1 <1>   1.1580 
 18 C       -8.4580    -4.5680    -0.3130 C.2   1 <1>   0.3490 
 19 F       -6.4980    -0.4050    -1.1100 F     1 <1>  -0.3400 
 20 F       -6.5410    -0.5240     1.0220 F     1 <1>  -0.3400 
 21 F       -8.3400    -0.3340    -0.0750 F     1 <1>  -0.3400 
 22 C       -9.7180    -5.2770    -0.3920 C.ar  1 <1>   0.0860 
 23 C       -9.9280    -6.4450     0.3440 C.ar  1 <1>  -0.1500 
 24 C      -10.7670    -4.8310    -1.1980 C.ar  1 <1>  -0.1500 
 25 C      -11.1290    -7.1280     0.2970 C.ar  1 <1>  -0.1500 
 26 C      -11.9720    -5.5070    -1.2490 C.ar  1 <1>  -0.1500 
 27 C      -12.1660    -6.6570    -0.5020 C.ar  1 <1>   0.0820 
 28 O      -13.3740    -7.2570    -0.6040 O.3   1 <1>  -0.3630 
 29 C      -13.6710    -8.4440     0.0960 C.3   1 <1>   0.0400 
 30 H        0.8860    -1.4680    -1.2150 H     1 <1>   0.0800 
 31 H       -0.7290    -1.7280    -1.8630 H     1 <1>   0.0800 
 32 H       -2.9990    -0.5380    -0.5130 H     1 <1>   0.0800 
 33 H       -2.7220     0.4430     0.9220 H     1 <1>   0.0800 
 34 H        0.2080    -2.5380     0.9200 H     1 <1>   0.0800 
 35 H       -0.0250    -3.6370    -0.4050 H     1 <1>   0.0800 
 36 H       -3.2840    -1.8790     1.6210 H     1 <1>   0.0800 
 37 H       -1.6470    -1.5040     2.0340 H     1 <1>   0.0800 
 38 H       -4.5290    -5.9410    -0.2400 H     1 <1>   0.1500 
 39 H       -9.4180    -2.6480    -0.2270 H     1 <1>   0.1500 
 40 H       -9.1290    -6.8200     0.9610 H     1 <1>   0.1500 
 41 H      -10.6430    -3.9500    -1.8020 H     1 <1>   0.1500 
 42 H      -11.2400    -8.0200     0.8840 H     1 <1>   0.1500 
 43 H      -12.7730    -5.1520    -1.8720 H     1 <1>   0.1500 
 44 H      -14.6780    -8.7320    -0.1470 H     1 <1>   0.0800 
 45 H      -13.5880    -8.2570     1.1520 H     1 <1>   0.0800 
 46 H      -12.9860    -9.2130    -0.2150 H     1 <1>   0.0800 
@<TRIPOS>BOND
  1   1   2  1   
  2   1   3  1   
  3   2   4  1   
  4   2  30  1   
  5   2  31  1   
  6   3   5  1   
  7   3  32  1   
  8   3  33  1   
  9   4   6  1   
 10   4  34  1   
 11   4  35  1   
 12   5   6  1   
 13   5  36  1   
 14   5  37  1   
 15   6   7  am  
 16   7   8  2   
 17   7   9  1   
 18   9  10  2   
 19   9  11  1   
 20  10  12  1   
 21  11  13  2   
 22  11  38  1   
 23  12  13  1   
 24  12  14  1   
 25  13  15  1   
 26  14  16  2   
 27  14  17  1   
 28  15  18  2   
 29  16  18  1   
 30  16  39  1   
 31  17  19  1   
 32  17  20  1   
 33  17  21  1   
 34  18  22  1   
 35  22  23  ar  
 36  22  24  ar  
 37  23  25  ar  
 38  23  40  1   
 39  24  26  ar  
 40  24  41  1   
 41  25  27  ar  
 42  25  42  1   
 43  26  27  ar  
 44  26  43  1   
 45  27  28  1   
 46  28  29  1   
 47  29  44  1   
 48  29  45  1   
 49  29  46  1   
@<TRIPOS>SUBSTRUCTURE
  1 ****  12 GROUP 4 **** **** 0

# MOE 2024.06 (io_trps.svl 2023.06)
