@<TRIPOS>MOLECULE
NONAME
41 42 1 0 0 
SMALL
USER_CHARGES


@<TRIPOS>ATOM
  1 CL      -0.1660     1.1940    -1.3890 Cl    1 <1>  -0.1770 
  2 C       -1.8310     1.4740    -0.9430 C.ar  1 <1>   0.1770 
  3 C       -2.7510     1.7950    -1.9230 C.ar  1 <1>  -0.1500 
  4 C       -2.2060     1.3720     0.3830 C.ar  1 <1>  -0.1500 
  5 C       -4.0700     2.0160    -1.5650 C.ar  1 <1>  -0.1500 
  6 C       -3.5270     1.5960     0.7310 C.ar  1 <1>  -0.1500 
  7 C       -4.4770     1.9170    -0.2370 C.ar  1 <1>   0.1170 
  8 N       -5.8240     2.1610     0.0690 N.am  1 <1>  -0.5470 
  9 C       -6.5950     1.8080     1.1450 C.2   1 <1>   0.5690 
 10 O       -6.1880     1.1390     2.0640 O.2   1 <1>  -0.5700 
 11 C       -8.0370     2.2880     1.1700 C.3   1 <1>   0.1310 
 12 S       -8.7190     2.4330    -0.5610 S.3   1 <1>  -0.3710 
 13 C      -10.2450     3.3020    -0.2860 C.2   1 <1>   0.6510 
 14 N      -10.5270     3.6880     0.8920 N.2   1 <1>  -0.6210 
 15 N      -10.9990     3.4950    -1.3900 N.am  1 <1>  -0.4900 
 16 C      -11.7040     4.3690     1.0580 C.2   1 <1>   0.0210 
 17 C      -12.1800     4.1620    -1.2810 C.2   1 <1>   0.6160 
 18 O      -11.9360     4.7320     2.2150 O.3   1 <1>  -0.8500 
 19 C      -12.5590     4.6240    -0.0190 C.2   1 <1>  -0.1240 
 20 O      -12.8050     4.2870    -2.3470 O.2   1 <1>  -0.5700 
 21 C      -13.8680     5.3900     0.2060 C.3   1 <1>   0.0580 
 22 C      -15.0870     4.4990    -0.1070 C.3   1 <1>  -0.1600 
 23 C      -13.8730     6.7080    -0.5830 C.3   1 <1>  -0.2400 
 24 C      -16.4280     5.1260     0.3010 C.3   1 <1>  -0.2400 
 25 H       -2.4340     1.8680    -2.9480 H     1 <1>   0.1500 
 26 H       -1.4750     1.1220     1.1290 H     1 <1>   0.1500 
 27 H       -4.7890     2.2630    -2.3240 H     1 <1>   0.1500 
 28 H       -3.8150     1.5220     1.7640 H     1 <1>   0.1500 
 29 H       -6.3620     2.6250    -0.6650 H     1 <1>   0.3700 
 30 H       -8.0950     3.2590     1.6270 H     1 <1>   0.0800 
 31 H       -8.6650     1.6010     1.7060 H     1 <1>   0.0800 
 32 H      -10.7280     3.1520    -2.2990 H     1 <1>   0.3700 
 33 H      -13.9260     5.6510     1.2500 H     1 <1>   0.0800 
 34 H      -14.9640     3.5750     0.4320 H     1 <1>   0.0800 
 35 H      -15.1100     4.2660    -1.1560 H     1 <1>   0.0800 
 36 H      -13.9420     6.5230    -1.6390 H     1 <1>   0.0800 
 37 H      -12.9620     7.2440    -0.3820 H     1 <1>   0.0800 
 38 H      -14.6980     7.3250    -0.2810 H     1 <1>   0.0800 
 39 H      -16.4080     5.3950     1.3430 H     1 <1>   0.0800 
 40 H      -17.2220     4.4190     0.1440 H     1 <1>   0.0800 
 41 H      -16.6330     6.0040    -0.2840 H     1 <1>   0.0800 
@<TRIPOS>BOND
  1   1   2  1   
  2   2   3  ar  
  3   2   4  ar  
  4   3   5  ar  
  5   3  25  1   
  6   4   6  ar  
  7   4  26  1   
  8   5   7  ar  
  9   5  27  1   
 10   6   7  ar  
 11   6  28  1   
 12   7   8  1   
 13   8   9  am  
 14   8  29  1   
 15   9  10  2   
 16   9  11  1   
 17  11  12  1   
 18  11  30  1   
 19  11  31  1   
 20  12  13  1   
 21  13  14  2   
 22  13  15  1   
 23  14  16  1   
 24  15  17  am  
 25  15  32  1   
 26  16  18  1   
 27  16  19  2   
 28  17  19  1   
 29  17  20  2   
 30  19  21  1   
 31  21  22  1   
 32  21  23  1   
 33  21  33  1   
 34  22  24  1   
 35  22  34  1   
 36  22  35  1   
 37  23  36  1   
 38  23  37  1   
 39  23  38  1   
 40  24  39  1   
 41  24  40  1   
 42  24  41  1   
@<TRIPOS>SUBSTRUCTURE
  1 ****  12 GROUP 4 **** **** 0

# MOE 2024.06 (io_trps.svl 2023.06)
