@<TRIPOS>MOLECULE
NONAME
48 51 1 0 0 
SMALL
USER_CHARGES


@<TRIPOS>ATOM
  1 CL      -0.9280     1.7680     1.6660 Cl    1 <1>  -0.1770 
  2 C       -2.5310     1.3750     1.1010 C.ar  1 <1>   0.1770 
  3 C       -3.5070     1.0240     2.0120 C.ar  1 <1>  -0.1500 
  4 C       -2.8050     1.4190    -0.2520 C.ar  1 <1>  -0.1500 
  5 C       -4.7770     0.7130     1.5580 C.ar  1 <1>  -0.1500 
  6 C       -4.0790     1.1060    -0.6940 C.ar  1 <1>  -0.1500 
  7 C       -5.0960     0.7450     0.1960 C.ar  1 <1>   0.0540 
  8 C       -6.4310     0.4190    -0.2810 C.2   1 <1>   0.4620 
  9 N       -6.8360     0.5080    -1.4980 N.2   1 <1>  -0.4100 
 10 N       -7.3980    -0.0190     0.5310 N.2   1 <1>  -0.5650 
 11 O       -8.0790     0.1460    -1.5310 O.3   1 <1>  -0.0190 
 12 C       -8.3610    -0.1480    -0.2880 C.2   1 <1>   0.2980 
 13 C       -9.7710    -0.6320     0.0440 C.3   1 <1>   0.2900 
 14 N      -10.7630     0.4570     0.2170 N.3   1 <1>  -0.8100 
 15 C      -12.0510    -0.0850     0.7150 C.3   1 <1>   0.1100 
 16 C      -10.9850     1.2310    -1.0320 C.3   1 <1>   0.1100 
 17 C      -13.1220     1.0080     0.8940 C.3   1 <1>   0.2090 
 18 C      -12.0590     2.3240    -0.8680 C.3   1 <1>   0.2090 
 19 N      -13.3410     1.7350    -0.3880 N.pl3 1 <1>  -0.8380 
 20 C      -14.4500     2.5910    -0.4190 C.ar  1 <1>   0.1000 
 21 C      -14.5880     3.7490     0.3710 C.ar  1 <1>   0.0830 
 22 C      -15.4730     2.2590    -1.2950 C.ar  1 <1>  -0.1500 
 23 O      -13.5770     4.0750     1.2350 O.3   1 <1>  -0.3630 
 24 C      -15.7380     4.5260     0.2560 C.ar  1 <1>  -0.1500 
 25 C      -16.6110     3.0370    -1.4040 C.ar  1 <1>  -0.1500 
 26 C      -13.6280     5.2370     2.0310 C.3   1 <1>   0.0400 
 27 C      -16.7440     4.1720    -0.6270 C.ar  1 <1>  -0.1500 
 28 H       -3.2740     0.9960     3.0610 H     1 <1>   0.1500 
 29 H       -2.0310     1.6950    -0.9450 H     1 <1>   0.1500 
 30 H       -5.5360     0.4410     2.2710 H     1 <1>   0.1500 
 31 H       -4.2890     1.1410    -1.7500 H     1 <1>   0.1500 
 32 H       -9.7100    -1.1860     0.9640 H     1 <1>   0.0800 
 33 H      -10.1010    -1.3060    -0.7270 H     1 <1>   0.0800 
 34 H      -11.8910    -0.5640     1.6660 H     1 <1>   0.0800 
 35 H      -12.4300    -0.8200     0.0260 H     1 <1>   0.0800 
 36 H      -11.2890     0.5710    -1.8250 H     1 <1>   0.0800 
 37 H      -10.0700     1.7140    -1.3250 H     1 <1>   0.0800 
 38 H      -12.8020     1.6960     1.6560 H     1 <1>   0.0800 
 39 H      -14.0480     0.5610     1.2100 H     1 <1>   0.0800 
 40 H      -12.2250     2.8120    -1.8120 H     1 <1>   0.0800 
 41 H      -11.7090     3.0590    -0.1660 H     1 <1>   0.0800 
 42 H      -15.3620     1.3760    -1.8960 H     1 <1>   0.1500 
 43 H      -15.8750     5.4130     0.8430 H     1 <1>   0.1500 
 44 H      -17.3900     2.7570    -2.0920 H     1 <1>   0.1500 
 45 H      -12.7220     5.2840     2.6080 H     1 <1>   0.0800 
 46 H      -14.4770     5.1730     2.6870 H     1 <1>   0.0800 
 47 H      -13.6970     6.0970     1.3880 H     1 <1>   0.0800 
 48 H      -17.6280     4.7790    -0.7090 H     1 <1>   0.1500 
@<TRIPOS>BOND
  1   1   2  1   
  2   2   3  ar  
  3   2   4  ar  
  4   3   5  ar  
  5   3  28  1   
  6   4   6  ar  
  7   4  29  1   
  8   5   7  ar  
  9   5  30  1   
 10   6   7  ar  
 11   6  31  1   
 12   7   8  1   
 13   8   9  2   
 14   8  10  1   
 15   9  11  1   
 16  10  12  2   
 17  11  12  1   
 18  12  13  1   
 19  13  14  1   
 20  13  32  1   
 21  13  33  1   
 22  14  15  1   
 23  14  16  1   
 24  15  17  1   
 25  15  34  1   
 26  15  35  1   
 27  16  18  1   
 28  16  36  1   
 29  16  37  1   
 30  17  19  1   
 31  17  38  1   
 32  17  39  1   
 33  18  19  1   
 34  18  40  1   
 35  18  41  1   
 36  19  20  1   
 37  20  21  ar  
 38  20  22  ar  
 39  21  23  1   
 40  21  24  ar  
 41  22  25  ar  
 42  22  42  1   
 43  23  26  1   
 44  24  27  ar  
 45  24  43  1   
 46  25  27  ar  
 47  25  44  1   
 48  26  45  1   
 49  26  46  1   
 50  26  47  1   
 51  27  48  1   
@<TRIPOS>SUBSTRUCTURE
  1 ****  14 GROUP 4 **** **** 0

# MOE 2024.06 (io_trps.svl 2023.06)
