@<TRIPOS>MOLECULE
NONAME
47 48 1 0 0 
SMALL
USER_CHARGES


@<TRIPOS>ATOM
  1 O       -0.1090    -1.2130     0.1780 O.3   1 <1>  -0.3630 
  2 C       -1.3890    -1.4120    -0.2290 C.ar  1 <1>   0.0830 
  3 C        0.6160    -0.0540    -0.1710 C.3   1 <1>   0.0400 
  4 C       -1.9900    -2.6230     0.1000 C.ar  1 <1>  -0.1440 
  5 C       -2.1070    -0.4650    -0.9530 C.ar  1 <1>  -0.1500 
  6 C       -3.2960    -2.8720    -0.2880 C.ar  1 <1>  -0.1500 
  7 C       -1.2130    -3.6770     0.8790 C.3   1 <1>  -0.0960 
  8 C       -3.4110    -0.7200    -1.3360 C.ar  1 <1>  -0.1500 
  9 C       -4.0160    -1.9210    -0.9970 C.ar  1 <1>  -0.1440 
 10 C       -5.4540    -2.1890    -1.3940 C.3   1 <1>   0.4860 
 11 N       -6.3100    -2.1420    -0.1600 N.4   1 <1>  -0.9590 
 12 C       -7.7040    -2.6640    -0.3610 C.3   1 <1>   0.4230 
 13 C       -6.2560    -0.7430     0.4000 C.3   1 <1>   0.2630 
 14 C       -8.5080    -2.5760     0.9470 C.3   1 <1>  -0.1600 
 15 C       -7.6740    -4.1240    -0.8450 C.3   1 <1>  -0.1600 
 16 C       -9.9010    -3.1930     0.8090 C.3   1 <1>   0.3430 
 17 C       -9.0780    -4.7210    -0.9580 C.3   1 <1>   0.3430 
 18 N       -9.7920    -4.6020     0.3430 N.4   1 <1>  -0.9590 
 19 C      -11.1560    -5.2210     0.2440 C.3   1 <1>   0.2630 
 20 H        1.6060    -0.1440     0.2400 H     1 <1>   0.0800 
 21 H        0.1250     0.8060     0.2490 H     1 <1>   0.0800 
 22 H        0.6710     0.0150    -1.2430 H     1 <1>   0.0800 
 23 H       -1.6640     0.4740    -1.2270 H     1 <1>   0.1500 
 24 H       -3.7370    -3.8190    -0.0340 H     1 <1>   0.1500 
 25 H       -0.3330    -3.9580     0.3290 H     1 <1>   0.0800 
 26 H       -1.8020    -4.5580     1.0540 H     1 <1>   0.0800 
 27 H       -0.9050    -3.2750     1.8280 H     1 <1>   0.0800 
 28 H       -3.9390     0.0310    -1.9000 H     1 <1>   0.1500 
 29 H       -5.4970    -3.1600    -1.8560 H     1 <1>   0.0800 
 30 H       -5.7820    -1.4540    -2.1100 H     1 <1>   0.0800 
 31 H       -5.8160    -2.7390     0.5190 H     1 <1>   0.4500 
 32 H       -8.1990    -2.0620    -1.1080 H     1 <1>   0.0800 
 33 H       -6.7350    -0.0470    -0.2690 H     1 <1>   0.0800 
 34 H       -5.2320    -0.4320     0.5400 H     1 <1>   0.0800 
 35 H       -6.7430    -0.6950     1.3600 H     1 <1>   0.0800 
 36 H       -8.6520    -1.5490     1.2280 H     1 <1>   0.0800 
 37 H       -7.9850    -3.0730     1.7450 H     1 <1>   0.0800 
 38 H       -7.0910    -4.7310    -0.1740 H     1 <1>   0.0800 
 39 H       -7.2340    -4.1860    -1.8230 H     1 <1>   0.0800 
 40 H      -10.4850    -2.6210     0.1050 H     1 <1>   0.0800 
 41 H      -10.4050    -3.1600     1.7640 H     1 <1>   0.0800 
 42 H       -9.0060    -5.7600    -1.2420 H     1 <1>   0.0800 
 43 H       -9.6340    -4.2050    -1.7260 H     1 <1>   0.0800 
 44 H       -9.2750    -5.1450     1.0540 H     1 <1>   0.4500 
 45 H      -11.7570    -4.7010    -0.4850 H     1 <1>   0.0800 
 46 H      -11.6600    -5.1760     1.1970 H     1 <1>   0.0800 
 47 H      -11.0800    -6.2560    -0.0500 H     1 <1>   0.0800 
@<TRIPOS>BOND
  1   1   2  1   
  2   1   3  1   
  3   2   4  ar  
  4   2   5  ar  
  5   3  20  1   
  6   3  21  1   
  7   3  22  1   
  8   4   6  ar  
  9   4   7  1   
 10   5   8  ar  
 11   5  23  1   
 12   6   9  ar  
 13   6  24  1   
 14   7  25  1   
 15   7  26  1   
 16   7  27  1   
 17   8   9  ar  
 18   8  28  1   
 19   9  10  1   
 20  10  11  1   
 21  10  29  1   
 22  10  30  1   
 23  11  12  1   
 24  11  13  1   
 25  11  31  1   
 26  12  14  1   
 27  12  15  1   
 28  12  32  1   
 29  13  33  1   
 30  13  34  1   
 31  13  35  1   
 32  14  16  1   
 33  14  36  1   
 34  14  37  1   
 35  15  17  1   
 36  15  38  1   
 37  15  39  1   
 38  16  18  1   
 39  16  40  1   
 40  16  41  1   
 41  17  18  1   
 42  17  42  1   
 43  17  43  1   
 44  18  19  1   
 45  18  44  1   
 46  19  45  1   
 47  19  46  1   
 48  19  47  1   
@<TRIPOS>SUBSTRUCTURE
  1 ****  11 GROUP 4 **** **** 0

# MOE 2024.06 (io_trps.svl 2023.06)
