@<TRIPOS>MOLECULE
NONAME
49 51 1 0 0 
SMALL
USER_CHARGES


@<TRIPOS>ATOM
  1 N       -0.4260    -0.0700    -0.2520 N.4   1 <1>  -0.9590 
  2 C       -1.5560     0.8080    -0.6740 C.3   1 <1>   0.3430 
  3 C       -0.7780    -0.9670     0.8920 C.3   1 <1>   0.3430 
  4 C        0.7710     0.7680     0.0600 C.3   1 <1>   0.3430 
  5 C       -2.7710    -0.0420    -1.0490 C.3   1 <1>  -0.1600 
  6 C       -1.9880    -1.8320     0.5330 C.3   1 <1>  -0.1600 
  7 C        2.0240    -0.1000     0.0570 C.3   1 <1>  -0.2400 
  8 C       -3.1740    -0.9560     0.1110 C.3   1 <1>   0.4230 
  9 N       -4.3790    -1.7590    -0.2590 N.4   1 <1>  -0.9590 
 10 C       -5.0590    -2.3700     0.9270 C.3   1 <1>   0.4860 
 11 C       -4.1890    -2.7880    -1.3410 C.3   1 <1>   0.2630 
 12 C       -6.4720    -2.7160     0.5120 C.ar  1 <1>  -0.1440 
 13 C       -7.4190    -1.6810     0.2940 C.ar  1 <1>   0.0000 
 14 C       -6.8090    -4.0320     0.3210 C.ar  1 <1>  -0.1500 
 15 C       -8.6930    -2.0390    -0.2030 C.ar  1 <1>   0.0000 
 16 C       -7.1740    -0.3080     0.5450 C.ar  1 <1>  -0.1500 
 17 C       -8.0840    -4.3770    -0.1310 C.ar  1 <1>  -0.1500 
 18 C       -8.9990    -3.4000    -0.3950 C.ar  1 <1>  -0.1500 
 19 C       -9.6320    -1.0280    -0.4880 C.ar  1 <1>  -0.1500 
 20 C       -8.1080     0.6510     0.2680 C.ar  1 <1>  -0.1500 
 21 C       -9.3480     0.2890    -0.2640 C.ar  1 <1>  -0.1500 
 22 H       -0.1490    -0.6550    -1.0560 H     1 <1>   0.4500 
 23 H       -1.2600     1.4060    -1.5230 H     1 <1>   0.0800 
 24 H       -1.8150     1.4790     0.1310 H     1 <1>   0.0800 
 25 H       -1.0000    -0.3710     1.7640 H     1 <1>   0.0800 
 26 H        0.0580    -1.6060     1.1310 H     1 <1>   0.0800 
 27 H        0.6570     1.2500     1.0180 H     1 <1>   0.0800 
 28 H        0.8850     1.5350    -0.6900 H     1 <1>   0.0800 
 29 H       -2.5310    -0.6100    -1.9300 H     1 <1>   0.0800 
 30 H       -3.5850     0.6210    -1.2880 H     1 <1>   0.0800 
 31 H       -2.2480    -2.4160     1.3970 H     1 <1>   0.0800 
 32 H       -1.7000    -2.5050    -0.2550 H     1 <1>   0.0800 
 33 H        2.0140    -0.8210     0.8540 H     1 <1>   0.0800 
 34 H        2.8840     0.5300     0.2040 H     1 <1>   0.0800 
 35 H        2.1460    -0.6010    -0.8870 H     1 <1>   0.0800 
 36 H       -3.4350    -0.3240     0.9460 H     1 <1>   0.0800 
 37 H       -5.0970    -1.1120    -0.6250 H     1 <1>   0.4500 
 38 H       -5.0930    -1.6760     1.7500 H     1 <1>   0.0800 
 39 H       -4.5380    -3.2580     1.2460 H     1 <1>   0.0800 
 40 H       -3.5260    -3.5710    -1.0110 H     1 <1>   0.0800 
 41 H       -3.7810    -2.3370    -2.2300 H     1 <1>   0.0800 
 42 H       -5.1370    -3.2350    -1.6010 H     1 <1>   0.0800 
 43 H       -6.1130    -4.8340     0.5040 H     1 <1>   0.1500 
 44 H       -6.2470     0.0070     0.9800 H     1 <1>   0.1500 
 45 H       -8.3340    -5.4160    -0.2720 H     1 <1>   0.1500 
 46 H       -9.9800    -3.6590    -0.7530 H     1 <1>   0.1500 
 47 H      -10.5900    -1.3130    -0.8850 H     1 <1>   0.1500 
 48 H       -7.9180     1.6940     0.4590 H     1 <1>   0.1500 
 49 H      -10.0730     1.0560    -0.4820 H     1 <1>   0.1500 
@<TRIPOS>BOND
  1   1   2  1   
  2   1   3  1   
  3   1   4  1   
  4   1  22  1   
  5   2   5  1   
  6   2  23  1   
  7   2  24  1   
  8   3   6  1   
  9   3  25  1   
 10   3  26  1   
 11   4   7  1   
 12   4  27  1   
 13   4  28  1   
 14   5   8  1   
 15   5  29  1   
 16   5  30  1   
 17   6   8  1   
 18   6  31  1   
 19   6  32  1   
 20   7  33  1   
 21   7  34  1   
 22   7  35  1   
 23   8   9  1   
 24   8  36  1   
 25   9  10  1   
 26   9  11  1   
 27   9  37  1   
 28  10  12  1   
 29  10  38  1   
 30  10  39  1   
 31  11  40  1   
 32  11  41  1   
 33  11  42  1   
 34  12  13  ar  
 35  12  14  ar  
 36  13  15  ar  
 37  13  16  ar  
 38  14  17  ar  
 39  14  43  1   
 40  15  18  ar  
 41  15  19  ar  
 42  16  20  ar  
 43  16  44  1   
 44  17  18  ar  
 45  17  45  1   
 46  18  46  1   
 47  19  21  ar  
 48  19  47  1   
 49  20  21  ar  
 50  20  48  1   
 51  21  49  1   
@<TRIPOS>SUBSTRUCTURE
  1 ****   9 GROUP 4 **** **** 0

# MOE 2024.06 (io_trps.svl 2023.06)
