@<TRIPOS>MOLECULE
NONAME
40 41 1 0 0 
SMALL
USER_CHARGES


@<TRIPOS>ATOM
  1 CL      -2.2510     1.1690    -3.4360 Cl    1 <1>  -0.1770 
  2 C       -2.6300     1.5260    -1.7690 C.ar  1 <1>   0.1770 
  3 C       -1.9200     2.4840    -1.0650 C.ar  1 <1>   0.1770 
  4 C       -3.6620     0.8310    -1.1630 C.ar  1 <1>  -0.1500 
  5 CL      -0.6180     3.3710    -1.8190 Cl    1 <1>  -0.1770 
  6 C       -2.2370     2.7520     0.2540 C.ar  1 <1>  -0.1500 
  7 C       -3.9930     1.1000     0.1610 C.ar  1 <1>  -0.1440 
  8 C       -3.2720     2.0600     0.8650 C.ar  1 <1>  -0.1500 
  9 C       -5.1300     0.3490     0.8340 C.3   1 <1>   0.4870 
 10 N       -6.4260     0.8270     0.2770 N.4   1 <1>  -0.9590 
 11 C       -6.6690     2.2680     0.5830 C.3   1 <1>   0.3430 
 12 C       -7.5570    -0.0360     0.7200 C.3   1 <1>   0.3430 
 13 C       -7.9250     2.7390    -0.1470 C.3   1 <1>  -0.1600 
 14 C       -8.8320     0.3820    -0.0090 C.3   1 <1>  -0.1600 
 15 C       -9.1540     1.8760     0.1950 C.3   1 <1>  -0.0190 
 16 C      -10.3610     2.2940    -0.6400 C.2   1 <1>   0.6590 
 17 O      -10.3590     2.1780    -1.8370 O.2   1 <1>  -0.5700 
 18 O      -11.3900     2.7860     0.0330 O.3   1 <1>  -0.4300 
 19 C      -12.5620     3.2090    -0.6260 C.3   1 <1>   0.1200 
 20 C      -13.5400     3.7170     0.4290 C.3   1 <1>  -0.2400 
 21 H       -4.1830     0.0870    -1.7400 H     1 <1>   0.1500 
 22 H       -1.6730     3.4960     0.7920 H     1 <1>   0.1500 
 23 H       -3.5000     2.2790     1.8960 H     1 <1>   0.1500 
 24 H       -5.1000     0.5110     1.8990 H     1 <1>   0.0800 
 25 H       -5.0140    -0.7060     0.6480 H     1 <1>   0.0800 
 26 H       -6.3560     0.7530    -0.7470 H     1 <1>   0.4500 
 27 H       -5.8280     2.8640     0.2620 H     1 <1>   0.0800 
 28 H       -6.7940     2.4020     1.6450 H     1 <1>   0.0800 
 29 H       -7.7000     0.0620     1.7840 H     1 <1>   0.0800 
 30 H       -7.3450    -1.0710     0.4990 H     1 <1>   0.0800 
 31 H       -7.7440     2.7190    -1.2090 H     1 <1>   0.0800 
 32 H       -8.1230     3.7630     0.1210 H     1 <1>   0.0800 
 33 H       -9.6550    -0.2100     0.3530 H     1 <1>   0.0800 
 34 H       -8.7250     0.1690    -1.0590 H     1 <1>   0.0800 
 35 H       -9.4030     2.0320     1.2310 H     1 <1>   0.0800 
 36 H      -12.9750     2.3720    -1.1640 H     1 <1>   0.0800 
 37 H      -12.3020     3.9900    -1.3200 H     1 <1>   0.0800 
 38 H      -13.7850     2.9300     1.1200 H     1 <1>   0.0800 
 39 H      -14.4450     4.0470    -0.0470 H     1 <1>   0.0800 
 40 H      -13.1130     4.5470     0.9630 H     1 <1>   0.0800 
@<TRIPOS>BOND
  1   1   2  1   
  2   2   3  ar  
  3   2   4  ar  
  4   3   5  1   
  5   3   6  ar  
  6   4   7  ar  
  7   4  21  1   
  8   6   8  ar  
  9   6  22  1   
 10   7   8  ar  
 11   7   9  1   
 12   8  23  1   
 13   9  10  1   
 14   9  24  1   
 15   9  25  1   
 16  10  11  1   
 17  10  12  1   
 18  10  26  1   
 19  11  13  1   
 20  11  27  1   
 21  11  28  1   
 22  12  14  1   
 23  12  29  1   
 24  12  30  1   
 25  13  15  1   
 26  13  31  1   
 27  13  32  1   
 28  14  15  1   
 29  14  33  1   
 30  14  34  1   
 31  15  16  1   
 32  15  35  1   
 33  16  17  2   
 34  16  18  1   
 35  18  19  1   
 36  19  20  1   
 37  19  36  1   
 38  19  37  1   
 39  20  38  1   
 40  20  39  1   
 41  20  40  1   
@<TRIPOS>SUBSTRUCTURE
  1 ****  11 GROUP 4 **** **** 0

# MOE 2024.06 (io_trps.svl 2023.06)
