@<TRIPOS>MOLECULE
NONAME
32 33 1 0 0 
SMALL
USER_CHARGES


@<TRIPOS>ATOM
  1 S       -0.3470    -0.2570     0.3470 S.3   1 <1>  -0.3610 
  2 C       -1.2220     1.1050    -0.2780 C.cat 1 <1>   0.8400 
  3 C        1.3300     0.4570     0.1310 C.3   1 <1>   0.2300 
  4 N       -0.4060     2.0620    -0.6380 N.pl3 1 <1>  -0.7940 
  5 N       -2.5490     1.0720    -0.3450 N.pl3 1 <1>  -0.8330 
  6 C        1.0680     1.8610    -0.4770 C.3   1 <1>   0.3290 
  7 C        2.0910    -0.4810    -0.8130 C.3   1 <1>  -0.2400 
  8 C        1.9730     0.5070     1.5210 C.3   1 <1>  -0.2400 
  9 C       -3.3910     2.1890    -0.9020 C.3   1 <1>   0.3290 
 10 C       -3.3170    -0.1700     0.0610 C.3   1 <1>   0.3290 
 11 C       -4.5850     2.5710     0.0220 C.3   1 <1>   0.3430 
 12 C       -4.8310     0.0770     0.3010 C.3   1 <1>   0.3430 
 13 N       -5.1040     1.4400     0.8820 N.4   1 <1>  -0.9060 
 14 H       -0.6920     2.9470    -1.0520 H     1 <1>   0.4500 
 15 H        1.5520     1.9450    -1.4360 H     1 <1>   0.0800 
 16 H        1.4710     2.6250     0.1670 H     1 <1>   0.0800 
 17 H        1.5890    -0.5600    -1.7610 H     1 <1>   0.0800 
 18 H        2.1630    -1.4650    -0.3830 H     1 <1>   0.0800 
 19 H        3.0880    -0.1150    -0.9820 H     1 <1>   0.0800 
 20 H        1.3890     1.1120     2.1920 H     1 <1>   0.0800 
 21 H        2.9650     0.9190     1.4620 H     1 <1>   0.0800 
 22 H        2.0460    -0.4850     1.9340 H     1 <1>   0.0800 
 23 H       -3.7840     1.8790    -1.8570 H     1 <1>   0.0800 
 24 H       -2.7980     3.0690    -1.0820 H     1 <1>   0.0800 
 25 H       -2.9080    -0.5670     0.9760 H     1 <1>   0.0800 
 26 H       -3.2000    -0.9310    -0.6940 H     1 <1>   0.0800 
 27 H       -5.3820     2.9460    -0.6010 H     1 <1>   0.0800 
 28 H       -4.2810     3.3850     0.6600 H     1 <1>   0.0800 
 29 H       -5.2140    -0.6920     0.9540 H     1 <1>   0.0800 
 30 H       -5.3460    -0.0190    -0.6410 H     1 <1>   0.0800 
 31 H       -6.1150     1.5610     1.0560 H     1 <1>   0.4500 
 32 H       -4.6550     1.4990     1.8090 H     1 <1>   0.4500 
@<TRIPOS>BOND
  1   1   2  1   
  2   1   3  1   
  3   2   4  ar  
  4   2   5  ar  
  5   3   6  1   
  6   3   7  1   
  7   3   8  1   
  8   4   6  1   
  9   4  14  1   
 10   5   9  1   
 11   5  10  1   
 12   6  15  1   
 13   6  16  1   
 14   7  17  1   
 15   7  18  1   
 16   7  19  1   
 17   8  20  1   
 18   8  21  1   
 19   8  22  1   
 20   9  11  1   
 21   9  23  1   
 22   9  24  1   
 23  10  12  1   
 24  10  25  1   
 25  10  26  1   
 26  11  13  1   
 27  11  27  1   
 28  11  28  1   
 29  12  13  1   
 30  12  29  1   
 31  12  30  1   
 32  13  31  1   
 33  13  32  1   
@<TRIPOS>SUBSTRUCTURE
  1 ****   2 GROUP 4 **** **** 0

# MOE 2024.06 (io_trps.svl 2023.06)
