@<TRIPOS>MOLECULE
NONAME
43 45 1 0 0 
SMALL
USER_CHARGES


@<TRIPOS>ATOM
  1 F        1.2700     1.0310     0.3640 F     1 <1>  -0.1900 
  2 C        0.1080     1.5690     0.1260 C.ar  1 <1>   0.1900 
  3 C        0.0280     2.7990    -0.5150 C.ar  1 <1>  -0.1440 
  4 C       -1.0060     0.8610     0.5370 C.ar  1 <1>  -0.1500 
  5 C       -1.2470     3.3070    -0.7450 C.ar  1 <1>  -0.1500 
  6 C        1.2380     3.6200    -0.9790 C.3   1 <1>   0.3440 
  7 C       -2.2610     1.3910     0.3000 C.ar  1 <1>  -0.1500 
  8 C       -2.3770     2.6120    -0.3420 C.ar  1 <1>  -0.1500 
  9 O        2.1230     2.8110    -1.7170 O.3   1 <1>  -0.4300 
 10 C        1.9720     4.4570     0.0930 C.3   1 <1>   0.0610 
 11 C        3.3430     2.3960    -1.3870 C.2   1 <1>   0.6590 
 12 C        2.9870     3.5530     0.8100 C.2   1 <1>   0.4480 
 13 C        2.6810     5.6530    -0.5860 C.3   1 <1>  -0.2400 
 14 C        0.9610     5.0730     1.0950 C.3   1 <1>  -0.2400 
 15 O        3.9590     1.7700    -2.2090 O.2   1 <1>  -0.5700 
 16 C        3.9860     2.7430    -0.0310 C.3   1 <1>   0.1220 
 17 O        3.0230     3.5190     2.0070 O.2   1 <1>  -0.5700 
 18 C        4.3790     1.4190     0.7080 C.3   1 <1>  -0.1600 
 19 C        5.2630     3.6150    -0.2600 C.3   1 <1>  -0.1600 
 20 C        5.5880     1.5810     1.6430 C.3   1 <1>  -0.1600 
 21 C        6.5490     2.7870    -0.4090 C.3   1 <1>  -0.1600 
 22 C        6.8520     1.9830     0.8660 C.3   1 <1>  -0.1600 
 23 H       -0.8880    -0.0870     1.0310 H     1 <1>   0.1500 
 24 H       -1.3760     4.2530    -1.2420 H     1 <1>   0.1500 
 25 H        0.8530     4.3200    -1.7000 H     1 <1>   0.0800 
 26 H       -3.1420     0.8560     0.6120 H     1 <1>   0.1500 
 27 H       -3.3550     3.0240    -0.5280 H     1 <1>   0.1500 
 28 H        1.9610     6.3700    -0.9400 H     1 <1>   0.0800 
 29 H        3.3290     6.1500     0.1170 H     1 <1>   0.0800 
 30 H        3.2640     5.3420    -1.4330 H     1 <1>   0.0800 
 31 H        1.4720     5.7130     1.7950 H     1 <1>   0.0800 
 32 H        0.2120     5.6540     0.5880 H     1 <1>   0.0800 
 33 H        0.4690     4.3030     1.6650 H     1 <1>   0.0800 
 34 H        4.6240     0.6550    -0.0100 H     1 <1>   0.0800 
 35 H        3.5500     1.0490     1.2830 H     1 <1>   0.0800 
 36 H        5.3990     4.2810     0.5750 H     1 <1>   0.0800 
 37 H        5.1520     4.2200    -1.1410 H     1 <1>   0.0800 
 38 H        5.7680     0.6610     2.1720 H     1 <1>   0.0800 
 39 H        5.3640     2.3350     2.3780 H     1 <1>   0.0800 
 40 H        7.3810     3.4320    -0.6320 H     1 <1>   0.0800 
 41 H        6.4360     2.1080    -1.2380 H     1 <1>   0.0800 
 42 H        7.4000     1.0990     0.5890 H     1 <1>   0.0800 
 43 H        7.4830     2.5630     1.5170 H     1 <1>   0.0800 
@<TRIPOS>BOND
  1   1   2  1   
  2   2   3  ar  
  3   2   4  ar  
  4   3   5  ar  
  5   3   6  1   
  6   4   7  ar  
  7   4  23  1   
  8   5   8  ar  
  9   5  24  1   
 10   6   9  1   
 11   6  10  1   
 12   6  25  1   
 13   7   8  ar  
 14   7  26  1   
 15   8  27  1   
 16   9  11  1   
 17  10  12  1   
 18  10  13  1   
 19  10  14  1   
 20  11  15  2   
 21  11  16  1   
 22  12  16  1   
 23  12  17  2   
 24  13  28  1   
 25  13  29  1   
 26  13  30  1   
 27  14  31  1   
 28  14  32  1   
 29  14  33  1   
 30  16  18  1   
 31  16  19  1   
 32  18  20  1   
 33  18  34  1   
 34  18  35  1   
 35  19  21  1   
 36  19  36  1   
 37  19  37  1   
 38  20  22  1   
 39  20  38  1   
 40  20  39  1   
 41  21  22  1   
 42  21  40  1   
 43  21  41  1   
 44  22  42  1   
 45  22  43  1   
@<TRIPOS>SUBSTRUCTURE
  1 ****  12 GROUP 4 **** **** 0

# MOE 2024.06 (io_trps.svl 2023.06)
