@<TRIPOS>MOLECULE
NONAME
35 36 1 0 0 
SMALL
USER_CHARGES


@<TRIPOS>ATOM
  1 S       -0.1480     0.0930     0.3170 S.o2  1 <1>   1.5760 
  2 O       -0.2600    -0.8680    -0.7530 O.2   1 <1>  -0.6500 
  3 O       -0.0300    -0.3210     1.6950 O.2   1 <1>  -0.6500 
  4 N        1.0410     1.2280    -0.0480 N.am  1 <1>  -0.8490 
  5 N       -1.4870     1.0590     0.1760 N.am  1 <1>  -0.9140 
  6 C        2.3030     0.5690    -0.3980 C.3   1 <1>   0.1960 
  7 C        1.1800     2.2020     1.0410 C.3   1 <1>   0.1960 
  8 C       -2.6760     0.3280     0.5410 C.3   1 <1>   0.3760 
  9 C        3.1410     1.4690    -1.3110 C.3   1 <1>  -0.1600 
 10 C        2.0820     3.3920     0.6880 C.3   1 <1>  -0.1600 
 11 C       -3.8880     1.0960     0.0500 C.2   1 <1>  -0.0400 
 12 C        4.1020     2.4280    -0.5890 C.3   1 <1>  -0.1600 
 13 C        3.5770     3.0460     0.7130 C.3   1 <1>  -0.1600 
 14 O       -4.0640     1.2420    -1.2510 O.3   1 <1>  -0.2800 
 15 C       -4.8870     1.6970     0.7320 C.2   1 <1>  -0.1500 
 16 C       -5.1710     1.9360    -1.4270 C.2   1 <1>  -0.0100 
 17 C       -5.7310     2.2490    -0.2400 C.2   1 <1>  -0.1500 
 18 H       -1.5590     1.2080    -0.8270 H     1 <1>   0.4200 
 19 H        2.0940    -0.3280    -0.9570 H     1 <1>   0.0800 
 20 H        2.8490     0.2810     0.4860 H     1 <1>   0.0800 
 21 H        1.5470     1.7140     1.9290 H     1 <1>   0.0800 
 22 H        0.2070     2.6000     1.2760 H     1 <1>   0.0800 
 23 H       -2.7160     0.2140     1.6110 H     1 <1>   0.0800 
 24 H       -2.6820    -0.6500     0.0860 H     1 <1>   0.0800 
 25 H        2.4770     2.0260    -1.9500 H     1 <1>   0.0800 
 26 H        3.7320     0.8400    -1.9540 H     1 <1>   0.0800 
 27 H        1.9110     4.1460     1.4360 H     1 <1>   0.0800 
 28 H        1.7910     3.8150    -0.2580 H     1 <1>   0.0800 
 29 H        4.3510     3.2210    -1.2740 H     1 <1>   0.0800 
 30 H        5.0170     1.9060    -0.3660 H     1 <1>   0.0800 
 31 H        3.7730     2.3770     1.5340 H     1 <1>   0.0800 
 32 H        4.1400     3.9440     0.9030 H     1 <1>   0.0800 
 33 H       -5.0350     1.7630     1.7950 H     1 <1>   0.1500 
 34 H       -5.4870     2.1620    -2.4300 H     1 <1>   0.1500 
 35 H       -6.6310     2.8050    -0.0450 H     1 <1>   0.1500 
@<TRIPOS>BOND
  1   1   2  2   
  2   1   3  2   
  3   1   4  am  
  4   1   5  am  
  5   4   6  1   
  6   4   7  1   
  7   5   8  1   
  8   5  18  1   
  9   6   9  1   
 10   6  19  1   
 11   6  20  1   
 12   7  10  1   
 13   7  21  1   
 14   7  22  1   
 15   8  11  1   
 16   8  23  1   
 17   8  24  1   
 18   9  12  1   
 19   9  25  1   
 20   9  26  1   
 21  10  13  1   
 22  10  27  1   
 23  10  28  1   
 24  11  14  1   
 25  11  15  2   
 26  12  13  1   
 27  12  29  1   
 28  12  30  1   
 29  13  31  1   
 30  13  32  1   
 31  14  16  1   
 32  15  17  1   
 33  15  33  1   
 34  16  17  2   
 35  16  34  1   
 36  17  35  1   
@<TRIPOS>SUBSTRUCTURE
  1 ****   5 GROUP 4 **** **** 0

# MOE 2024.06 (io_trps.svl 2023.06)
