@<TRIPOS>MOLECULE
NONAME
48 49 1 0 0 
SMALL
USER_CHARGES


@<TRIPOS>ATOM
  1 S        0.1160     0.1910     0.5310 S.o2  1 <1>   1.3330 
  2 O        0.9810    -0.8200    -0.0360 O.2   1 <1>  -0.6500 
  3 O       -0.3000     0.0890     1.9120 O.2   1 <1>  -0.6500 
  4 N        0.8720     1.6960     0.3360 N.am  1 <1>  -0.8490 
  5 C       -1.3320     0.3310    -0.5220 C.3   1 <1>  -0.0550 
  6 C        2.3210     1.6100     0.5870 C.3   1 <1>   0.1960 
  7 C        0.2680     2.7350     1.1800 C.3   1 <1>   0.1960 
  8 C       -2.2070    -0.9330    -0.5430 C.3   1 <1>  -0.1600 
  9 C        3.0130     2.9350     0.2310 C.3   1 <1>  -0.0190 
 10 C        0.8630     4.1040     0.8370 C.3   1 <1>  -0.1600 
 11 C       -3.4250    -0.7540    -1.4550 C.3   1 <1>  -0.2400 
 12 C        4.5100     2.8430     0.4810 C.2   1 <1>   0.6590 
 13 C        2.3880     4.1070     1.0100 C.3   1 <1>  -0.1600 
 14 O        4.9560     2.1620     1.3690 O.2   1 <1>  -0.5700 
 15 O        5.2590     3.5840    -0.3350 O.3   1 <1>  -0.2320 
 16 C        6.6140     3.6780    -0.3940 C.ar  1 <1>   0.0820 
 17 C        7.4690     2.6360    -0.0580 C.ar  1 <1>  -0.1500 
 18 C        7.1450     4.8780    -0.8340 C.ar  1 <1>  -0.1500 
 19 C        8.8440     2.7930    -0.1460 C.ar  1 <1>  -0.1440 
 20 C        8.5150     5.0400    -0.9260 C.ar  1 <1>  -0.1500 
 21 C        9.3720     4.0050    -0.5830 C.ar  1 <1>  -0.1440 
 22 C        9.7450     1.6280     0.2400 C.3   1 <1>  -0.0970 
 23 C       10.8740     4.2230    -0.6950 C.3   1 <1>  -0.0970 
 24 H       -1.0080     0.5440    -1.5230 H     1 <1>   0.0800 
 25 H       -1.9300     1.1560    -0.1900 H     1 <1>   0.0800 
 26 H        2.7530     0.8300    -0.0190 H     1 <1>   0.0800 
 27 H        2.4970     1.3600     1.6220 H     1 <1>   0.0800 
 28 H        0.4420     2.5110     2.2210 H     1 <1>   0.0800 
 29 H       -0.7960     2.7650     1.0200 H     1 <1>   0.0800 
 30 H       -2.5370    -1.1550     0.4580 H     1 <1>   0.0800 
 31 H       -1.6190    -1.7670    -0.8900 H     1 <1>   0.0800 
 32 H        2.8690     3.0980    -0.8220 H     1 <1>   0.0800 
 33 H        0.4270     4.8520     1.4760 H     1 <1>   0.0800 
 34 H        0.6080     4.3500    -0.1790 H     1 <1>   0.0800 
 35 H       -4.0390     0.0610    -1.1110 H     1 <1>   0.0800 
 36 H       -4.0190    -1.6510    -1.4530 H     1 <1>   0.0800 
 37 H       -3.1150    -0.5540    -2.4660 H     1 <1>   0.0800 
 38 H        2.7950     5.0410     0.6630 H     1 <1>   0.0800 
 39 H        2.6270     4.0060     2.0560 H     1 <1>   0.0800 
 40 H        7.0670     1.6960     0.2700 H     1 <1>   0.1500 
 41 H        6.4880     5.6850    -1.1030 H     1 <1>   0.1500 
 42 H        8.9100     5.9800    -1.2670 H     1 <1>   0.1500 
 43 H        9.1650     0.7810     0.5590 H     1 <1>   0.0800 
 44 H       10.3920     1.9160     1.0480 H     1 <1>   0.0800 
 45 H       10.3430     1.3300    -0.6020 H     1 <1>   0.0800 
 46 H       11.3360     4.1000     0.2680 H     1 <1>   0.0800 
 47 H       11.0960     5.2120    -1.0510 H     1 <1>   0.0800 
 48 H       11.2990     3.5140    -1.3820 H     1 <1>   0.0800 
@<TRIPOS>BOND
  1   1   2  2   
  2   1   3  2   
  3   1   4  am  
  4   1   5  1   
  5   4   6  1   
  6   4   7  1   
  7   5   8  1   
  8   5  24  1   
  9   5  25  1   
 10   6   9  1   
 11   6  26  1   
 12   6  27  1   
 13   7  10  1   
 14   7  28  1   
 15   7  29  1   
 16   8  11  1   
 17   8  30  1   
 18   8  31  1   
 19   9  12  1   
 20   9  13  1   
 21   9  32  1   
 22  10  13  1   
 23  10  33  1   
 24  10  34  1   
 25  11  35  1   
 26  11  36  1   
 27  11  37  1   
 28  12  14  2   
 29  12  15  1   
 30  13  38  1   
 31  13  39  1   
 32  15  16  1   
 33  16  17  ar  
 34  16  18  ar  
 35  17  19  ar  
 36  17  40  1   
 37  18  20  ar  
 38  18  41  1   
 39  19  21  ar  
 40  19  22  1   
 41  20  21  ar  
 42  20  42  1   
 43  21  23  1   
 44  22  43  1   
 45  22  44  1   
 46  22  45  1   
 47  23  46  1   
 48  23  47  1   
 49  23  48  1   
@<TRIPOS>SUBSTRUCTURE
  1 ****  12 GROUP 4 **** **** 0

# MOE 2024.06 (io_trps.svl 2023.06)
