@<TRIPOS>MOLECULE
NONAME
53 55 1 0 0 
SMALL
USER_CHARGES


@<TRIPOS>ATOM
  1 O       -6.1900     0.8610     0.2170 O.3   1 <1>  -0.3630 
  2 C       -6.8220     2.0610     0.2430 C.ar  1 <1>   0.0830 
  3 C       -6.4720     0.0070    -0.8800 C.3   1 <1>   0.2000 
  4 C       -7.9300     2.3110    -0.5690 C.ar  1 <1>   0.0820 
  5 C       -6.3500     3.0470     1.0910 C.ar  1 <1>  -0.1500 
  6 C       -7.9810     0.0280    -1.1750 C.3   1 <1>   0.1200 
  7 C       -5.9820    -1.4090    -0.5550 C.3   1 <1>   0.1200 
  8 O       -8.4260     1.3530    -1.3940 O.3   1 <1>  -0.3630 
  9 C       -8.5440     3.5510    -0.5370 C.ar  1 <1>  -0.1500 
 10 C       -6.9710     4.2860     1.1240 C.ar  1 <1>  -0.1500 
 11 O       -4.5950    -1.4070    -0.3940 O.3   1 <1>  -0.5600 
 12 C       -8.0650     4.5380     0.3100 C.ar  1 <1>  -0.1500 
 13 C       -4.0670    -2.6100     0.0830 C.3   1 <1>   0.1200 
 14 C       -2.5460    -2.4610     0.2260 C.3   1 <1>   0.2000 
 15 O       -2.0590    -1.9170    -0.9550 O.3   1 <1>  -0.6800 
 16 C       -1.8520    -3.8050     0.5530 C.3   1 <1>   0.1100 
 17 N       -0.3810    -3.7890     0.3850 N.3   1 <1>  -0.8100 
 18 C        0.3230    -2.7870     1.2210 C.3   1 <1>   0.1100 
 19 C        0.2410    -5.1240     0.5040 C.3   1 <1>   0.1100 
 20 C        1.8430    -2.7570     0.9280 C.3   1 <1>   0.3430 
 21 C        1.7450    -5.0840     0.1320 C.3   1 <1>   0.3430 
 22 N        2.1820    -3.6870    -0.2010 N.4   1 <1>  -0.9590 
 23 C        3.5730    -3.6050    -0.7010 C.3   1 <1>   0.3430 
 24 C        3.7980    -2.2610    -1.3820 C.3   1 <1>  -0.2400 
 25 H       -5.9390     0.3820    -1.7360 H     1 <1>   0.0800 
 26 H       -5.4990     2.8420     1.7150 H     1 <1>   0.1500 
 27 H       -8.5320    -0.3730    -0.3430 H     1 <1>   0.0800 
 28 H       -8.2060    -0.5420    -2.0570 H     1 <1>   0.0800 
 29 H       -6.2230    -2.0810    -1.3600 H     1 <1>   0.0800 
 30 H       -6.4440    -1.7530     0.3550 H     1 <1>   0.0800 
 31 H       -9.3930     3.7370    -1.1700 H     1 <1>   0.1500 
 32 H       -6.6020     5.0530     1.7820 H     1 <1>   0.1500 
 33 H       -8.5430     5.5010     0.3360 H     1 <1>   0.1500 
 34 H       -4.3020    -3.3930    -0.6170 H     1 <1>   0.0800 
 35 H       -4.5100    -2.8320     1.0380 H     1 <1>   0.0800 
 36 H       -2.3500    -1.7540     1.0120 H     1 <1>   0.0800 
 37 H       -2.7190    -1.2490    -1.2460 H     1 <1>   0.4000 
 38 H       -2.2600    -4.5530    -0.1040 H     1 <1>   0.0800 
 39 H       -2.0980    -4.0910     1.5610 H     1 <1>   0.0800 
 40 H        0.1600    -2.9930     2.2650 H     1 <1>   0.0800 
 41 H       -0.0720    -1.8070     1.0150 H     1 <1>   0.0800 
 42 H       -0.2590    -5.8130    -0.1560 H     1 <1>   0.0800 
 43 H        0.1270    -5.4930     1.5090 H     1 <1>   0.0800 
 44 H        2.3850    -3.0400     1.8140 H     1 <1>   0.0800 
 45 H        2.1240    -1.7490     0.6760 H     1 <1>   0.0800 
 46 H        1.9080    -5.7280    -0.7160 H     1 <1>   0.0800 
 47 H        2.3260    -5.4680     0.9540 H     1 <1>   0.0800 
 48 H        1.5160    -3.4010    -0.9410 H     1 <1>   0.4500 
 49 H        3.7440    -4.3920    -1.4190 H     1 <1>   0.0800 
 50 H        4.2700    -3.7320     0.1120 H     1 <1>   0.0800 
 51 H        3.0830    -2.1100    -2.1720 H     1 <1>   0.0800 
 52 H        4.7820    -2.2470    -1.8180 H     1 <1>   0.0800 
 53 H        3.7410    -1.4490    -0.6810 H     1 <1>   0.0800 
@<TRIPOS>BOND
  1   1   2  1   
  2   1   3  1   
  3   2   4  ar  
  4   2   5  ar  
  5   3   6  1   
  6   3   7  1   
  7   3  25  1   
  8   4   8  1   
  9   4   9  ar  
 10   5  10  ar  
 11   5  26  1   
 12   6   8  1   
 13   6  27  1   
 14   6  28  1   
 15   7  11  1   
 16   7  29  1   
 17   7  30  1   
 18   9  12  ar  
 19   9  31  1   
 20  10  12  ar  
 21  10  32  1   
 22  11  13  1   
 23  12  33  1   
 24  13  14  1   
 25  13  34  1   
 26  13  35  1   
 27  14  15  1   
 28  14  16  1   
 29  14  36  1   
 30  15  37  1   
 31  16  17  1   
 32  16  38  1   
 33  16  39  1   
 34  17  18  1   
 35  17  19  1   
 36  18  20  1   
 37  18  40  1   
 38  18  41  1   
 39  19  21  1   
 40  19  42  1   
 41  19  43  1   
 42  20  22  1   
 43  20  44  1   
 44  20  45  1   
 45  21  22  1   
 46  21  46  1   
 47  21  47  1   
 48  22  23  1   
 49  22  48  1   
 50  23  24  1   
 51  23  49  1   
 52  23  50  1   
 53  24  51  1   
 54  24  52  1   
 55  24  53  1   
@<TRIPOS>SUBSTRUCTURE
  1 ****  11 GROUP 4 **** **** 0

# MOE 2024.06 (io_trps.svl 2023.06)
