@<TRIPOS>MOLECULE
NONAME
50 51 1 0 0 
SMALL
USER_CHARGES


@<TRIPOS>ATOM
  1 O        0.1830    -1.2940     2.9220 O.2   1 <1>  -0.5700 
  2 C        1.1350    -1.5290     2.2030 C.2   1 <1>   0.5440 
  3 N        1.9130    -0.4650     1.8750 N.am  1 <1>  -0.7300 
  4 C        1.3630    -2.8530     1.6670 C.ar  1 <1>   0.0860 
  5 C        2.6090    -0.2930     0.5780 C.3   1 <1>   0.1400 
  6 C        0.3430    -3.5230     0.9740 C.ar  1 <1>   0.1170 
  7 C        2.6020    -3.4810     1.8080 C.ar  1 <1>  -0.1500 
  8 C        1.5990    -0.0520    -0.5600 C.3   1 <1>  -0.0800 
  9 N       -0.9050    -2.9020     0.8430 N.am  1 <1>  -0.5470 
 10 C        0.5940    -4.7840     0.4430 C.ar  1 <1>  -0.1500 
 11 C        2.8370    -4.7330     1.2750 C.ar  1 <1>  -0.1500 
 12 C        2.3400     0.0950    -1.8940 C.3   1 <1>  -0.2400 
 13 C        0.7250     1.1890    -0.3170 C.3   1 <1>  -0.2400 
 14 C       -1.7860    -2.8480    -0.2100 C.2   1 <1>   0.5440 
 15 C        1.8280    -5.3870     0.5890 C.ar  1 <1>  -0.1500 
 16 O       -1.6620    -3.6180    -1.1420 O.2   1 <1>  -0.5700 
 17 C       -2.8520    -1.8610    -0.2060 C.ar  1 <1>   0.0860 
 18 C       -2.7440    -0.6610     0.4990 C.ar  1 <1>  -0.1500 
 19 C       -4.0270    -2.0800    -0.9240 C.ar  1 <1>  -0.1500 
 20 C       -3.7590     0.2780     0.4960 C.ar  1 <1>   0.0830 
 21 C       -5.0560    -1.1470    -0.9350 C.ar  1 <1>   0.0830 
 22 O       -3.5430     1.4090     1.2120 O.3   1 <1>  -0.3630 
 23 C       -4.9210     0.0310    -0.2230 C.ar  1 <1>  -0.1500 
 24 O       -6.2170    -1.3140    -1.6170 O.3   1 <1>  -0.3630 
 25 C       -4.5230     2.4210     1.2950 C.3   1 <1>   0.0400 
 26 C       -6.4400    -2.4550    -2.4180 C.3   1 <1>   0.0400 
 27 H        1.6150     0.4100     2.3120 H     1 <1>   0.3700 
 28 H        3.1920    -1.1720     0.3640 H     1 <1>   0.0800 
 29 H        3.2830     0.5430     0.6520 H     1 <1>   0.0800 
 30 H        3.3840    -2.9720     2.3430 H     1 <1>   0.1500 
 31 H        0.9580    -0.9150    -0.6380 H     1 <1>   0.0800 
 32 H       -1.0970    -2.2310     1.5990 H     1 <1>   0.3700 
 33 H       -0.1870    -5.3000    -0.0870 H     1 <1>   0.1500 
 34 H        3.7990    -5.2030     1.3920 H     1 <1>   0.1500 
 35 H        2.9940     0.9490    -1.8760 H     1 <1>   0.0800 
 36 H        1.6360     0.2190    -2.6990 H     1 <1>   0.0800 
 37 H        2.9250    -0.7850    -2.0960 H     1 <1>   0.0800 
 38 H        1.3340     2.0700    -0.2190 H     1 <1>   0.0800 
 39 H        0.1370     1.0750     0.5760 H     1 <1>   0.0800 
 40 H        0.0460     1.3320    -1.1390 H     1 <1>   0.0800 
 41 H        2.0040    -6.3630     0.1700 H     1 <1>   0.1500 
 42 H       -1.8560    -0.4340     1.0610 H     1 <1>   0.1500 
 43 H       -4.1110    -3.0000    -1.4730 H     1 <1>   0.1500 
 44 H       -5.7320     0.7330    -0.2510 H     1 <1>   0.1500 
 45 H       -4.1390     3.2080     1.9180 H     1 <1>   0.0800 
 46 H       -5.4140     2.0090     1.7340 H     1 <1>   0.0800 
 47 H       -4.7190     2.7990     0.3070 H     1 <1>   0.0800 
 48 H       -7.4090    -2.3590    -2.8740 H     1 <1>   0.0800 
 49 H       -6.4140    -3.3310    -1.7940 H     1 <1>   0.0800 
 50 H       -5.6810    -2.5010    -3.1790 H     1 <1>   0.0800 
@<TRIPOS>BOND
  1   1   2  2   
  2   2   3  am  
  3   2   4  1   
  4   3   5  1   
  5   3  27  1   
  6   4   6  ar  
  7   4   7  ar  
  8   5   8  1   
  9   5  28  1   
 10   5  29  1   
 11   6   9  1   
 12   6  10  ar  
 13   7  11  ar  
 14   7  30  1   
 15   8  12  1   
 16   8  13  1   
 17   8  31  1   
 18   9  14  am  
 19   9  32  1   
 20  10  15  ar  
 21  10  33  1   
 22  11  15  ar  
 23  11  34  1   
 24  12  35  1   
 25  12  36  1   
 26  12  37  1   
 27  13  38  1   
 28  13  39  1   
 29  13  40  1   
 30  14  16  2   
 31  14  17  1   
 32  15  41  1   
 33  17  18  ar  
 34  17  19  ar  
 35  18  20  ar  
 36  18  42  1   
 37  19  21  ar  
 38  19  43  1   
 39  20  22  1   
 40  20  23  ar  
 41  21  23  ar  
 42  21  24  1   
 43  22  25  1   
 44  23  44  1   
 45  24  26  1   
 46  25  45  1   
 47  25  46  1   
 48  25  47  1   
 49  26  48  1   
 50  26  49  1   
 51  26  50  1   
@<TRIPOS>SUBSTRUCTURE
  1 ****   9 GROUP 4 **** **** 0

# MOE 2024.06 (io_trps.svl 2023.06)
