@<TRIPOS>MOLECULE
NONAME
44 45 1 0 0 
SMALL
USER_CHARGES


@<TRIPOS>ATOM
  1 S        0.3040    -0.0380     0.7800 S.o2  1 <1>   1.4470 
  2 O        0.6410     0.0560     2.1840 O.2   1 <1>  -0.6500 
  3 O       -0.9530     0.5080     0.3160 O.2   1 <1>  -0.6500 
  4 N        1.5340     0.7660    -0.0670 N.am  1 <1>  -0.8490 
  5 C        0.4590    -1.7520     0.2030 C.ar  1 <1>  -0.0090 
  6 C        2.8750     0.3470     0.3790 C.3   1 <1>   0.1960 
  7 C        1.3850     2.2190     0.0500 C.3   1 <1>   0.1960 
  8 C        0.1810    -2.0850    -1.1180 C.ar  1 <1>  -0.1500 
  9 C        0.8790    -2.7680     1.0550 C.ar  1 <1>  -0.1500 
 10 C        3.9570     0.9680    -0.5160 C.3   1 <1>  -0.0190 
 11 C        2.4130     2.9330    -0.8360 C.3   1 <1>  -0.1600 
 12 C        0.3150    -3.3850    -1.5760 C.ar  1 <1>  -0.1500 
 13 C        1.0170    -4.0710     0.6060 C.ar  1 <1>  -0.1500 
 14 C        5.3410     0.5060    -0.0840 C.2   1 <1>   0.5690 
 15 C        3.8480     2.5030    -0.5000 C.3   1 <1>  -0.1600 
 16 C        0.7350    -4.3800    -0.7120 C.ar  1 <1>  -0.1500 
 17 O        5.5740     0.3290     1.0870 O.2   1 <1>  -0.5700 
 18 N        6.2920     0.3200    -1.0350 N.am  1 <1>  -0.7300 
 19 C        7.6690    -0.1730    -0.7650 C.3   1 <1>   0.1400 
 20 C        8.5510     0.9560    -0.2310 C.3   1 <1>   0.1200 
 21 O        9.8700     0.5070    -0.1990 O.3   1 <1>  -0.5600 
 22 C       10.7610     1.4200     0.3550 C.3   1 <1>   0.0400 
 23 H        2.9600    -0.7250     0.3290 H     1 <1>   0.0800 
 24 H        3.0320     0.6450     1.4040 H     1 <1>   0.0800 
 25 H        1.5100     2.5180     1.0790 H     1 <1>   0.0800 
 26 H        0.3960     2.5110    -0.2660 H     1 <1>   0.0800 
 27 H       -0.1460    -1.3130    -1.7940 H     1 <1>   0.1500 
 28 H        1.1010    -2.5380     2.0840 H     1 <1>   0.1500 
 29 H        3.7870     0.6140    -1.5170 H     1 <1>   0.0800 
 30 H        2.3140     3.9960    -0.7070 H     1 <1>   0.0800 
 31 H        2.1940     2.7060    -1.8660 H     1 <1>   0.0800 
 32 H        0.0920    -3.6200    -2.6020 H     1 <1>   0.1500 
 33 H        1.3430    -4.8430     1.2820 H     1 <1>   0.1500 
 34 H        4.5360     2.9310    -1.2080 H     1 <1>   0.0800 
 35 H        4.1080     2.8660     0.4800 H     1 <1>   0.0800 
 36 H        0.8400    -5.3910    -1.0640 H     1 <1>   0.1500 
 37 H        6.0760     0.5070    -2.0160 H     1 <1>   0.3700 
 38 H        8.0910    -0.5600    -1.6760 H     1 <1>   0.0800 
 39 H        7.6290    -0.9630    -0.0350 H     1 <1>   0.0800 
 40 H        8.2460     1.2190     0.7680 H     1 <1>   0.0800 
 41 H        8.5020     1.8130    -0.8790 H     1 <1>   0.0800 
 42 H       11.7450     0.9850     0.3300 H     1 <1>   0.0800 
 43 H       10.4780     1.6180     1.3740 H     1 <1>   0.0800 
 44 H       10.7500     2.3260    -0.2260 H     1 <1>   0.0800 
@<TRIPOS>BOND
  1   1   2  2   
  2   1   3  2   
  3   1   4  am  
  4   1   5  1   
  5   4   6  1   
  6   4   7  1   
  7   5   8  ar  
  8   5   9  ar  
  9   6  10  1   
 10   6  23  1   
 11   6  24  1   
 12   7  11  1   
 13   7  25  1   
 14   7  26  1   
 15   8  12  ar  
 16   8  27  1   
 17   9  13  ar  
 18   9  28  1   
 19  10  14  1   
 20  10  15  1   
 21  10  29  1   
 22  11  15  1   
 23  11  30  1   
 24  11  31  1   
 25  12  16  ar  
 26  12  32  1   
 27  13  16  ar  
 28  13  33  1   
 29  14  17  2   
 30  14  18  am  
 31  15  34  1   
 32  15  35  1   
 33  16  36  1   
 34  18  19  1   
 35  18  37  1   
 36  19  20  1   
 37  19  38  1   
 38  19  39  1   
 39  20  21  1   
 40  20  40  1   
 41  20  41  1   
 42  21  22  1   
 43  22  42  1   
 44  22  43  1   
 45  22  44  1   
@<TRIPOS>SUBSTRUCTURE
  1 ****   6 GROUP 4 **** **** 0

# MOE 2024.06 (io_trps.svl 2023.06)
