@<TRIPOS>MOLECULE
NONAME
39 39 1 0 0 
SMALL
USER_CHARGES


@<TRIPOS>ATOM
  1 O       -0.3780     0.0900     0.9060 O.2   1 <1>  -0.5700 
  2 C       -1.2620     0.6180     0.2560 C.2   1 <1>   0.6900 
  3 N       -2.4680    -0.0040     0.0740 N.am  1 <1>  -0.6600 
  4 N       -1.0480     1.8290    -0.3160 N.am  1 <1>  -0.7300 
  5 C       -2.6300    -1.4280     0.4960 C.3   1 <1>   0.1400 
  6 C       -3.6910     0.7110    -0.3980 C.3   1 <1>   0.1400 
  7 C        0.2000     2.6090    -0.2130 C.3   1 <1>   0.1400 
  8 C       -3.7590    -2.1040    -0.2970 C.3   1 <1>  -0.0800 
  9 C       -4.9560     0.1120     0.2360 C.3   1 <1>  -0.0800 
 10 C       -0.1470     4.0940    -0.1080 C.3   1 <1>  -0.1600 
 11 C       -5.1100    -1.3870    -0.0970 C.3   1 <1>  -0.1600 
 12 C       -3.8750    -3.5910     0.0630 C.3   1 <1>  -0.2400 
 13 C       -6.2100     0.8910    -0.1830 C.3   1 <1>  -0.2400 
 14 C        1.1190     4.9510     0.0080 C.3   1 <1>  -0.1600 
 15 C        0.7700     6.4380     0.1150 C.3   1 <1>  -0.2400 
 16 H       -1.7260     2.1430    -1.0020 H     1 <1>   0.3700 
 17 H       -2.8480    -1.4570     1.5500 H     1 <1>   0.0800 
 18 H       -1.7060    -1.9560     0.3310 H     1 <1>   0.0800 
 19 H       -3.7500     0.6330    -1.4700 H     1 <1>   0.0800 
 20 H       -3.6270     1.7520    -0.1300 H     1 <1>   0.0800 
 21 H        0.8050     2.4250    -1.0850 H     1 <1>   0.0800 
 22 H        0.7530     2.2970     0.6580 H     1 <1>   0.0800 
 23 H       -3.4900    -2.0410    -1.3380 H     1 <1>   0.0800 
 24 H       -4.8500     0.2130     1.3030 H     1 <1>   0.0800 
 25 H       -0.7610     4.2470     0.7620 H     1 <1>   0.0800 
 26 H       -0.7000     4.3930    -0.9810 H     1 <1>   0.0800 
 27 H       -5.6610    -1.8480     0.7040 H     1 <1>   0.0800 
 28 H       -5.6870    -1.5110    -0.9970 H     1 <1>   0.0800 
 29 H       -4.1100    -3.7120     1.1060 H     1 <1>   0.0800 
 30 H       -2.9470    -4.0960    -0.1390 H     1 <1>   0.0800 
 31 H       -4.6480    -4.0570    -0.5220 H     1 <1>   0.0800 
 32 H       -6.3470     0.8470    -1.2490 H     1 <1>   0.0800 
 33 H       -6.1240     1.9220     0.1120 H     1 <1>   0.0800 
 34 H       -7.0810     0.4750     0.2940 H     1 <1>   0.0800 
 35 H        1.7450     4.7960    -0.8550 H     1 <1>   0.0800 
 36 H        1.6770     4.6560     0.8820 H     1 <1>   0.0800 
 37 H        0.2310     6.7630    -0.7580 H     1 <1>   0.0800 
 38 H        1.6690     7.0230     0.1980 H     1 <1>   0.0800 
 39 H        0.1630     6.6210     0.9840 H     1 <1>   0.0800 
@<TRIPOS>BOND
  1   1   2  2   
  2   2   3  am  
  3   2   4  am  
  4   3   5  1   
  5   3   6  1   
  6   4   7  1   
  7   4  16  1   
  8   5   8  1   
  9   5  17  1   
 10   5  18  1   
 11   6   9  1   
 12   6  19  1   
 13   6  20  1   
 14   7  10  1   
 15   7  21  1   
 16   7  22  1   
 17   8  11  1   
 18   8  12  1   
 19   8  23  1   
 20   9  11  1   
 21   9  13  1   
 22   9  24  1   
 23  10  14  1   
 24  10  25  1   
 25  10  26  1   
 26  11  27  1   
 27  11  28  1   
 28  12  29  1   
 29  12  30  1   
 30  12  31  1   
 31  13  32  1   
 32  13  33  1   
 33  13  34  1   
 34  14  15  1   
 35  14  35  1   
 36  14  36  1   
 37  15  37  1   
 38  15  38  1   
 39  15  39  1   
@<TRIPOS>SUBSTRUCTURE
  1 ****   3 GROUP 4 **** **** 0

# MOE 2024.06 (io_trps.svl 2023.06)
