@<TRIPOS>MOLECULE
NONAME
30 30 1 0 0 
SMALL
USER_CHARGES


@<TRIPOS>ATOM
  1 BR      -0.0370     1.0520     2.1140 Br    1 <1>  -0.1110 
  2 C        1.4480     1.3960     0.9310 C.ar  1 <1>   0.1110 
  3 C        1.4190     2.5040     0.0940 C.ar  1 <1>   0.0830 
  4 C        2.5080     0.5120     0.9580 C.ar  1 <1>  -0.1500 
  5 O        0.3350     3.3230     0.1320 O.3   1 <1>  -0.3630 
  6 C        2.5120     2.7100    -0.7410 C.ar  1 <1>  -0.1500 
  7 C        3.6030     0.7170     0.1260 C.ar  1 <1>  -0.0090 
  8 C        0.2380     4.4580    -0.6980 C.3   1 <1>   0.0400 
  9 C        3.5800     1.8250    -0.7180 C.ar  1 <1>  -0.1500 
 10 S        5.0140    -0.4210     0.1290 S.o2  1 <1>   1.4470 
 11 O        4.9620    -1.2870     1.2830 O.2   1 <1>  -0.6500 
 12 O        5.1990    -0.9760    -1.1920 O.2   1 <1>  -0.6500 
 13 N        6.3100     0.5890     0.4620 N.am  1 <1>  -0.9140 
 14 C        7.5780     0.0790     0.0100 C.3   1 <1>   0.2760 
 15 C        8.6150     0.4530     1.0620 C.3   1 <1>  -0.2400 
 16 C        7.9160     0.7320    -1.3270 C.3   1 <1>  -0.2400 
 17 H        2.4800    -0.3330     1.6250 H     1 <1>   0.1500 
 18 H        2.5520     3.5470    -1.4120 H     1 <1>   0.1500 
 19 H       -0.7010     4.9410    -0.4930 H     1 <1>   0.0800 
 20 H        0.2690     4.1440    -1.7260 H     1 <1>   0.0800 
 21 H        1.0490     5.1280    -0.4730 H     1 <1>   0.0800 
 22 H        4.4220     1.9960    -1.3700 H     1 <1>   0.1500 
 23 H        6.3500     0.5600     1.4770 H     1 <1>   0.4200 
 24 H        7.5510    -0.9960    -0.0920 H     1 <1>   0.0800 
 25 H        8.6530     1.5200     1.1970 H     1 <1>   0.0800 
 26 H        9.5870     0.1160     0.7480 H     1 <1>   0.0800 
 27 H        8.3870    -0.0210     2.0000 H     1 <1>   0.0800 
 28 H        7.9350     1.8020    -1.2310 H     1 <1>   0.0800 
 29 H        7.1930     0.4570    -2.0740 H     1 <1>   0.0800 
 30 H        8.8810     0.3990    -1.6630 H     1 <1>   0.0800 
@<TRIPOS>BOND
  1   1   2  1   
  2   2   3  ar  
  3   2   4  ar  
  4   3   5  1   
  5   3   6  ar  
  6   4   7  ar  
  7   4  17  1   
  8   5   8  1   
  9   6   9  ar  
 10   6  18  1   
 11   7   9  ar  
 12   7  10  1   
 13   8  19  1   
 14   8  20  1   
 15   8  21  1   
 16   9  22  1   
 17  10  11  2   
 18  10  12  2   
 19  10  13  am  
 20  13  14  1   
 21  13  23  1   
 22  14  15  1   
 23  14  16  1   
 24  14  24  1   
 25  15  25  1   
 26  15  26  1   
 27  15  27  1   
 28  16  28  1   
 29  16  29  1   
 30  16  30  1   
@<TRIPOS>SUBSTRUCTURE
  1 ****   7 GROUP 4 **** **** 0

# MOE 2024.06 (io_trps.svl 2023.06)
