@<TRIPOS>MOLECULE
NONAME
49 50 1 0 0 
SMALL
USER_CHARGES


@<TRIPOS>ATOM
  1 S       -5.8690    -2.4540    -1.2430 S.o2  1 <1>   1.4470 
  2 O       -6.1590    -1.3180    -2.0930 O.2   1 <1>  -0.6500 
  3 O       -6.3380    -3.7660    -1.6330 O.2   1 <1>  -0.6500 
  4 N       -6.5250    -2.1100     0.2820 N.am  1 <1>  -0.8490 
  5 C       -4.0820    -2.5430    -0.9200 C.ar  1 <1>  -0.0090 
  6 C       -6.2430    -0.7330     0.7040 C.3   1 <1>   0.1960 
  7 C       -7.9650    -2.3830     0.3170 C.3   1 <1>   0.1960 
  8 C       -3.1630    -1.8900    -1.7330 C.ar  1 <1>  -0.1500 
  9 C       -3.5800    -3.2740     0.1480 C.ar  1 <1>  -0.1500 
 10 C       -6.7060    -0.5170     2.1470 C.3   1 <1>  -0.1600 
 11 C       -8.5030    -2.2160     1.7420 C.3   1 <1>  -0.1600 
 12 C       -1.8030    -1.9620    -1.4880 C.ar  1 <1>  -0.1500 
 13 C       -2.2200    -3.3480     0.3950 C.ar  1 <1>  -0.1500 
 14 C       -8.2000    -0.8210     2.3010 C.3   1 <1>  -0.1600 
 15 C       -1.2930    -2.6980    -0.4180 C.ar  1 <1>   0.0860 
 16 C        0.1330    -2.7930    -0.1500 C.2   1 <1>   0.5440 
 17 O        0.5480    -2.9750     0.9780 O.2   1 <1>  -0.5700 
 18 N        1.0550    -2.6890    -1.1570 N.am  1 <1>  -0.7300 
 19 C        2.5230    -2.9030    -1.0080 C.3   1 <1>   0.1400 
 20 C        3.1440    -1.9310     0.0220 C.3   1 <1>   0.3430 
 21 N        4.0340    -2.6090     1.0280 N.4   1 <1>  -0.9590 
 22 C        3.2260    -3.4680     1.9570 C.3   1 <1>   0.2630 
 23 C        4.7860    -1.5900     1.8190 C.3   1 <1>   0.2630 
 24 H       -6.7460    -0.0370     0.0510 H     1 <1>   0.0800 
 25 H       -5.1840    -0.5430     0.6460 H     1 <1>   0.0800 
 26 H       -8.1530    -3.3950    -0.0030 H     1 <1>   0.0800 
 27 H       -8.4800    -1.7170    -0.3560 H     1 <1>   0.0800 
 28 H       -3.5240    -1.3130    -2.5700 H     1 <1>   0.1500 
 29 H       -4.2690    -3.7920     0.7960 H     1 <1>   0.1500 
 30 H       -6.5120     0.5010     2.4360 H     1 <1>   0.0800 
 31 H       -6.1340    -1.1580     2.7950 H     1 <1>   0.0800 
 32 H       -8.0530    -2.9650     2.3700 H     1 <1>   0.0800 
 33 H       -9.5660    -2.3840     1.7430 H     1 <1>   0.0800 
 34 H       -1.1330    -1.4280    -2.1390 H     1 <1>   0.1500 
 35 H       -1.8680    -3.9220     1.2360 H     1 <1>   0.1500 
 36 H       -8.7730    -0.0870     1.7590 H     1 <1>   0.0800 
 37 H       -8.4840    -0.7690     3.3380 H     1 <1>   0.0800 
 38 H        0.7040    -2.7080    -2.1200 H     1 <1>   0.3700 
 39 H        2.9950    -2.7500    -1.9630 H     1 <1>   0.0800 
 40 H        2.6880    -3.9250    -0.7120 H     1 <1>   0.0800 
 41 H        2.3470    -1.4270     0.5430 H     1 <1>   0.0800 
 42 H        3.7100    -1.1870    -0.5140 H     1 <1>   0.0800 
 43 H        4.7090    -3.2080     0.5300 H     1 <1>   0.4500 
 44 H        2.5010    -2.8680     2.4840 H     1 <1>   0.0800 
 45 H        3.8640    -3.9550     2.6760 H     1 <1>   0.0800 
 46 H        2.6890    -4.2230     1.4050 H     1 <1>   0.0800 
 47 H        4.1010    -0.9530     2.3540 H     1 <1>   0.0800 
 48 H        5.3890    -0.9780     1.1670 H     1 <1>   0.0800 
 49 H        5.4340    -2.0730     2.5320 H     1 <1>   0.0800 
@<TRIPOS>BOND
  1   1   2  2   
  2   1   3  2   
  3   1   4  am  
  4   1   5  1   
  5   4   6  1   
  6   4   7  1   
  7   5   8  ar  
  8   5   9  ar  
  9   6  10  1   
 10   6  24  1   
 11   6  25  1   
 12   7  11  1   
 13   7  26  1   
 14   7  27  1   
 15   8  12  ar  
 16   8  28  1   
 17   9  13  ar  
 18   9  29  1   
 19  10  14  1   
 20  10  30  1   
 21  10  31  1   
 22  11  14  1   
 23  11  32  1   
 24  11  33  1   
 25  12  15  ar  
 26  12  34  1   
 27  13  15  ar  
 28  13  35  1   
 29  14  36  1   
 30  14  37  1   
 31  15  16  1   
 32  16  17  2   
 33  16  18  am  
 34  18  19  1   
 35  18  38  1   
 36  19  20  1   
 37  19  39  1   
 38  19  40  1   
 39  20  21  1   
 40  20  41  1   
 41  20  42  1   
 42  21  22  1   
 43  21  23  1   
 44  21  43  1   
 45  22  44  1   
 46  22  45  1   
 47  22  46  1   
 48  23  47  1   
 49  23  48  1   
 50  23  49  1   
@<TRIPOS>SUBSTRUCTURE
  1 ****  13 GROUP 4 **** **** 0

# MOE 2024.06 (io_trps.svl 2023.06)
