@<TRIPOS>MOLECULE
NONAME
40 41 1 0 0 
SMALL
USER_CHARGES


@<TRIPOS>ATOM
  1 S       -0.0070    -0.1060     0.7480 S.o2  1 <1>   1.3330 
  2 O        1.2810    -0.4840     1.2800 O.2   1 <1>  -0.6500 
  3 O       -0.8460    -1.0830     0.1010 O.2   1 <1>  -0.6500 
  4 N        0.3150     1.1260    -0.4170 N.am  1 <1>  -0.6930 
  5 C       -0.9150     0.7570     2.0130 C.3   1 <1>  -0.1350 
  6 C       -0.6770     2.0320    -0.7800 C.ar  1 <1>   0.1990 
  7 C        1.3220     0.7680    -1.4660 C.3   1 <1>   0.2570 
  8 C       -0.5630     3.3950    -0.4890 C.ar  1 <1>  -0.1440 
  9 C       -1.8170     1.5720    -1.4330 C.ar  1 <1>  -0.1500 
 10 C        2.7410     1.2620    -1.1710 C.2   1 <1>   0.5690 
 11 C       -1.5900     4.2550    -0.8460 C.ar  1 <1>  -0.1500 
 12 C        0.6590     3.9860     0.2120 C.3   1 <1>  -0.0170 
 13 C       -2.8340     2.4380    -1.7850 C.ar  1 <1>  -0.1500 
 14 O        3.3340     1.8670    -2.0360 O.2   1 <1>  -0.5700 
 15 N        3.3030     0.9990     0.0400 N.am  1 <1>  -0.5790 
 16 C       -2.7210     3.7840    -1.4890 C.ar  1 <1>  -0.1500 
 17 C        1.5550     4.7240    -0.7860 C.3   1 <1>  -0.2400 
 18 C        4.6310     1.4230     0.4950 C.3   1 <1>   0.0490 
 19 C        5.3680     0.5220     1.4290 C.3   1 <1>  -0.2000 
 20 C        4.7850     1.8110     1.9270 C.3   1 <1>  -0.2000 
 21 H       -1.1370     0.0930     2.8240 H     1 <1>   0.0800 
 22 H       -1.8380     1.1350     1.6180 H     1 <1>   0.0800 
 23 H       -0.3380     1.5790     2.3880 H     1 <1>   0.0800 
 24 H        1.0160     1.1910    -2.4060 H     1 <1>   0.0800 
 25 H        1.3510    -0.3000    -1.5870 H     1 <1>   0.0800 
 26 H       -1.9070     0.5260    -1.6660 H     1 <1>   0.1500 
 27 H       -1.5130     5.3060    -0.6260 H     1 <1>   0.1500 
 28 H        1.2340     3.2230     0.7050 H     1 <1>   0.0800 
 29 H        0.3340     4.6760     0.9710 H     1 <1>   0.0800 
 30 H       -3.7100     2.0670    -2.2880 H     1 <1>   0.1500 
 31 H        2.7650     0.4350     0.7150 H     1 <1>   0.3700 
 32 H       -3.5100     4.4640    -1.7610 H     1 <1>   0.1500 
 33 H        2.4360     5.0920    -0.2910 H     1 <1>   0.0800 
 34 H        1.0300     5.5540    -1.2230 H     1 <1>   0.0800 
 35 H        1.8600     4.0600    -1.5750 H     1 <1>   0.0800 
 36 H        5.1880     1.9650    -0.2540 H     1 <1>   0.1000 
 37 H        6.4370     0.4480     1.3370 H     1 <1>   0.1000 
 38 H        4.9090    -0.4070     1.7200 H     1 <1>   0.1000 
 39 H        3.9220     1.7800     2.5680 H     1 <1>   0.1000 
 40 H        5.4600     2.6120     2.1750 H     1 <1>   0.1000 
@<TRIPOS>BOND
  1   1   2  2   
  2   1   3  2   
  3   1   4  am  
  4   1   5  1   
  5   4   6  1   
  6   4   7  1   
  7   5  21  1   
  8   5  22  1   
  9   5  23  1   
 10   6   8  ar  
 11   6   9  ar  
 12   7  10  1   
 13   7  24  1   
 14   7  25  1   
 15   8  11  ar  
 16   8  12  1   
 17   9  13  ar  
 18   9  26  1   
 19  10  14  2   
 20  10  15  am  
 21  11  16  ar  
 22  11  27  1   
 23  12  17  1   
 24  12  28  1   
 25  12  29  1   
 26  13  16  ar  
 27  13  30  1   
 28  15  18  1   
 29  15  31  1   
 30  16  32  1   
 31  17  33  1   
 32  17  34  1   
 33  17  35  1   
 34  18  19  1   
 35  18  20  1   
 36  18  36  1   
 37  19  20  1   
 38  19  37  1   
 39  19  38  1   
 40  20  39  1   
 41  20  40  1   
@<TRIPOS>SUBSTRUCTURE
  1 ****   4 GROUP 4 **** **** 0

# MOE 2024.06 (io_trps.svl 2023.06)
