@<TRIPOS>MOLECULE
NONAME
45 47 1 0 0 
SMALL
USER_CHARGES


@<TRIPOS>ATOM
  1 O        3.6540     0.1350     1.9670 O.co2 1 <1>  -0.9000 
  2 C        4.0110    -1.0250     2.1900 C.2   1 <1>   0.9060 
  3 O        4.8560    -1.2910     3.0530 O.co2 1 <1>  -0.9000 
  4 C        3.4580    -2.1800     1.3790 C.3   1 <1>  -0.1860 
  5 C        4.5170    -2.8120     0.4490 C.3   1 <1>  -0.0190 
  6 C        2.1880    -1.8260     0.5920 C.3   1 <1>  -0.0220 
  7 C        5.0260    -1.8850    -0.6810 C.2   1 <1>   0.5690 
  8 C        3.9430    -4.1420    -0.0920 C.3   1 <1>  -0.0220 
  9 C        1.6900    -3.0140    -0.2320 C.2   1 <1>  -0.2760 
 10 O        4.5420    -2.0170    -1.7870 O.2   1 <1>  -0.5700 
 11 N        6.0400    -0.9690    -0.5050 N.am  1 <1>  -0.6600 
 12 C        2.4750    -4.0660    -0.5230 C.2   1 <1>  -0.2760 
 13 C        0.2430    -2.8070    -0.6620 C.3   1 <1>  -0.1020 
 14 C        6.7450    -0.7010     0.7960 C.3   1 <1>   0.2840 
 15 C        6.4140    -0.0960    -1.6650 C.3   1 <1>   0.1400 
 16 C        2.0710    -5.3090    -1.3060 C.3   1 <1>  -0.1020 
 17 C        8.1970    -0.2960     0.5630 C.ar  1 <1>  -0.1430 
 18 C        7.3200     1.0850    -1.2920 C.3   1 <1>  -0.0170 
 19 C        8.4870     0.5920    -0.4590 C.ar  1 <1>  -0.1430 
 20 C        9.2220    -0.7850     1.3580 C.ar  1 <1>  -0.1500 
 21 C        9.7940     0.9900    -0.6890 C.ar  1 <1>  -0.1500 
 22 C       10.5290    -0.3910     1.1280 C.ar  1 <1>  -0.1500 
 23 C       10.8150     0.4970     0.1050 C.ar  1 <1>  -0.1500 
 24 H        3.1820    -2.9200     2.1060 H     1 <1>   0.0800 
 25 H        5.3640    -3.0870     1.0470 H     1 <1>   0.0800 
 26 H        2.3820    -0.9940    -0.0630 H     1 <1>   0.0800 
 27 H        1.4350    -1.5190     1.2970 H     1 <1>   0.0800 
 28 H        4.0210    -4.8860     0.6800 H     1 <1>   0.0800 
 29 H        4.5510    -4.4690    -0.9170 H     1 <1>   0.0800 
 30 H       -0.3950    -2.8000     0.2020 H     1 <1>   0.0800 
 31 H       -0.1030    -3.5640    -1.3350 H     1 <1>   0.0800 
 32 H        0.1530    -1.8600    -1.1640 H     1 <1>   0.0800 
 33 H        6.7230    -1.5640     1.4320 H     1 <1>   0.0800 
 34 H        6.2410     0.1030     1.3060 H     1 <1>   0.0800 
 35 H        5.5160     0.2810    -2.1250 H     1 <1>   0.0800 
 36 H        6.9230    -0.7100    -2.3870 H     1 <1>   0.0800 
 37 H        2.6150    -5.3420    -2.2340 H     1 <1>   0.0800 
 38 H        1.0240    -5.3370    -1.5300 H     1 <1>   0.0800 
 39 H        2.3060    -6.1900    -0.7370 H     1 <1>   0.0800 
 40 H        6.7510     1.8020    -0.7270 H     1 <1>   0.0800 
 41 H        7.6680     1.5640    -2.1890 H     1 <1>   0.0800 
 42 H        8.9970    -1.4700     2.1580 H     1 <1>   0.1500 
 43 H       10.0190     1.6800    -1.4820 H     1 <1>   0.1500 
 44 H       11.3200    -0.7730     1.7480 H     1 <1>   0.1500 
 45 H       11.8300     0.8040    -0.0720 H     1 <1>   0.1500 
@<TRIPOS>BOND
  1   1   2  ar  
  2   2   3  ar  
  3   2   4  1   
  4   4   5  1   
  5   4   6  1   
  6   4  24  1   
  7   5   7  1   
  8   5   8  1   
  9   5  25  1   
 10   6   9  1   
 11   6  26  1   
 12   6  27  1   
 13   7  10  2   
 14   7  11  am  
 15   8  12  1   
 16   8  28  1   
 17   8  29  1   
 18   9  12  2   
 19   9  13  1   
 20  11  14  1   
 21  11  15  1   
 22  12  16  1   
 23  13  30  1   
 24  13  31  1   
 25  13  32  1   
 26  14  17  1   
 27  14  33  1   
 28  14  34  1   
 29  15  18  1   
 30  15  35  1   
 31  15  36  1   
 32  16  37  1   
 33  16  38  1   
 34  16  39  1   
 35  17  19  ar  
 36  17  20  ar  
 37  18  19  1   
 38  18  40  1   
 39  18  41  1   
 40  19  21  ar  
 41  20  22  ar  
 42  20  42  1   
 43  21  23  ar  
 44  21  43  1   
 45  22  23  ar  
 46  22  44  1   
 47  23  45  1   
@<TRIPOS>SUBSTRUCTURE
  1 ****  11 GROUP 4 **** **** 0

# MOE 2024.06 (io_trps.svl 2023.06)
