@<TRIPOS>MOLECULE
NONAME
55 57 1 0 0 
SMALL
USER_CHARGES


@<TRIPOS>ATOM
  1 F        3.9990    -2.3470    -4.4870 F     1 <1>  -0.1900 
  2 C        4.5860    -2.7680    -3.3960 C.ar  1 <1>   0.1900 
  3 C        5.2910    -3.9560    -3.4340 C.ar  1 <1>  -0.1500 
  4 C        4.4800    -2.0100    -2.2450 C.ar  1 <1>  -0.1500 
  5 C        5.9100    -4.3960    -2.2770 C.ar  1 <1>  -0.1500 
  6 C        5.1040    -2.4630    -1.0960 C.ar  1 <1>  -0.1500 
  7 C        5.8220    -3.6540    -1.0990 C.ar  1 <1>   0.1000 
  8 N        6.4390    -4.0790     0.0720 N.pl3 1 <1>  -0.8380 
  9 C        7.9310    -4.0120     0.0750 C.3   1 <1>   0.2090 
 10 C        5.9030    -5.3420     0.6670 C.3   1 <1>   0.2090 
 11 C        8.4920    -4.2440     1.4950 C.3   1 <1>   0.3430 
 12 C        6.4640    -5.5600     2.0880 C.3   1 <1>   0.3430 
 13 N        7.9700    -5.5140     2.1080 N.4   1 <1>  -0.9590 
 14 C        8.5590    -5.8370     3.4400 C.3   1 <1>   0.3430 
 15 C        8.6480    -7.3640     3.6640 C.3   1 <1>   0.1400 
 16 N        9.5110    -8.0480     2.6500 N.am  1 <1>  -0.7300 
 17 C        9.1220    -8.4110     1.4010 C.2   1 <1>   0.6900 
 18 O        8.0700    -7.9850     0.9650 O.2   1 <1>  -0.5700 
 19 N        9.9580    -9.1800     0.6560 N.am  1 <1>  -0.5470 
 20 C        9.8250    -9.6080    -0.6740 C.ar  1 <1>   0.1170 
 21 C       10.9390    -9.6500    -1.5220 C.ar  1 <1>  -0.1430 
 22 C        8.5880   -10.0190    -1.1570 C.ar  1 <1>  -0.1500 
 23 C       10.7940   -10.1130    -2.8290 C.ar  1 <1>  -0.1430 
 24 C       12.3050    -9.1900    -1.0040 C.3   1 <1>  -0.0970 
 25 C        8.4450   -10.4630    -2.4540 C.ar  1 <1>  -0.1500 
 26 C        9.5460   -10.5100    -3.2850 C.ar  1 <1>  -0.1500 
 27 C       11.9640   -10.2110    -3.8000 C.3   1 <1>  -0.0970 
 28 H        5.3510    -4.5180    -4.3490 H     1 <1>   0.1500 
 29 H        3.9220    -1.0910    -2.2540 H     1 <1>   0.1500 
 30 H        6.4630    -5.3170    -2.2860 H     1 <1>   0.1500 
 31 H        5.0400    -1.8960    -0.1850 H     1 <1>   0.1500 
 32 H        8.2410    -3.0440    -0.2790 H     1 <1>   0.0800 
 33 H        8.3280    -4.7540    -0.5960 H     1 <1>   0.0800 
 34 H        6.1650    -6.1800     0.0440 H     1 <1>   0.0800 
 35 H        4.8280    -5.2850     0.7100 H     1 <1>   0.0800 
 36 H        8.2120    -3.4040     2.1090 H     1 <1>   0.0800 
 37 H        9.5670    -4.2770     1.4430 H     1 <1>   0.0800 
 38 H        6.1230    -6.5170     2.4460 H     1 <1>   0.0800 
 39 H        6.0650    -4.7950     2.7320 H     1 <1>   0.0800 
 40 H        8.2470    -6.2980     1.4810 H     1 <1>   0.4500 
 41 H        7.9670    -5.3860     4.2200 H     1 <1>   0.0800 
 42 H        9.5550    -5.4310     3.5040 H     1 <1>   0.0800 
 43 H        7.6600    -7.7930     3.6390 H     1 <1>   0.0800 
 44 H        9.0550    -7.5480     4.6430 H     1 <1>   0.0800 
 45 H       10.3150    -8.5460     3.0400 H     1 <1>   0.3700 
 46 H       10.8660    -9.3770     1.0630 H     1 <1>   0.3700 
 47 H        7.7280   -10.0000    -0.5130 H     1 <1>   0.1500 
 48 H       12.2050    -8.3410    -0.3540 H     1 <1>   0.0800 
 49 H       12.9550    -8.8870    -1.8020 H     1 <1>   0.0800 
 50 H       12.7780    -9.9930    -0.4670 H     1 <1>   0.0800 
 51 H        7.4820   -10.7770    -2.8170 H     1 <1>   0.1500 
 52 H        9.4220   -10.8620    -4.2940 H     1 <1>   0.1500 
 53 H       12.7800   -10.7450    -3.3480 H     1 <1>   0.0800 
 54 H       12.2940    -9.2270    -4.0780 H     1 <1>   0.0800 
 55 H       11.6820   -10.7370    -4.6950 H     1 <1>   0.0800 
@<TRIPOS>BOND
  1   1   2  1   
  2   2   3  ar  
  3   2   4  ar  
  4   3   5  ar  
  5   3  28  1   
  6   4   6  ar  
  7   4  29  1   
  8   5   7  ar  
  9   5  30  1   
 10   6   7  ar  
 11   6  31  1   
 12   7   8  1   
 13   8   9  1   
 14   8  10  1   
 15   9  11  1   
 16   9  32  1   
 17   9  33  1   
 18  10  12  1   
 19  10  34  1   
 20  10  35  1   
 21  11  13  1   
 22  11  36  1   
 23  11  37  1   
 24  12  13  1   
 25  12  38  1   
 26  12  39  1   
 27  13  14  1   
 28  13  40  1   
 29  14  15  1   
 30  14  41  1   
 31  14  42  1   
 32  15  16  1   
 33  15  43  1   
 34  15  44  1   
 35  16  17  am  
 36  16  45  1   
 37  17  18  2   
 38  17  19  am  
 39  19  20  1   
 40  19  46  1   
 41  20  21  ar  
 42  20  22  ar  
 43  21  23  ar  
 44  21  24  1   
 45  22  25  ar  
 46  22  47  1   
 47  23  26  ar  
 48  23  27  1   
 49  24  48  1   
 50  24  49  1   
 51  24  50  1   
 52  25  26  ar  
 53  25  51  1   
 54  26  52  1   
 55  27  53  1   
 56  27  54  1   
 57  27  55  1   
@<TRIPOS>SUBSTRUCTURE
  1 ****  18 GROUP 4 **** **** 0

# MOE 2024.06 (io_trps.svl 2023.06)
