@<TRIPOS>MOLECULE
NONAME
51 54 1 0 0 
SMALL
USER_CHARGES


@<TRIPOS>ATOM
  1 O       -0.8680     1.4730    -1.3770 O.2   1 <1>  -0.5700 
  2 C       -0.7500     1.7450    -0.1930 C.2   1 <1>   0.4690 
  3 C        0.4210     2.4070     0.3230 C.ar  1 <1>   0.0860 
  4 C       -1.7850     1.4420     0.7460 C.2   1 <1>  -0.1240 
  5 C        0.4650     2.7370     1.6830 C.ar  1 <1>   0.0830 
  6 C        1.5220     2.7470    -0.4680 C.ar  1 <1>  -0.1500 
  7 C       -1.6490     1.7970     2.0420 C.2   1 <1>  -0.0730 
  8 C       -3.0230     0.7080     0.2540 C.3   1 <1>   0.2480 
  9 O       -0.5670     2.4310     2.4990 O.3   1 <1>  -0.1590 
 10 C        1.5680     3.3840     2.2220 C.ar  1 <1>  -0.1500 
 11 C        2.6220     3.3910     0.0660 C.ar  1 <1>  -0.1440 
 12 N       -4.1150     1.6530    -0.0660 N.3   1 <1>  -0.8100 
 13 C        2.6410     3.7100     1.4170 C.ar  1 <1>  -0.1500 
 14 C        3.8120     3.7540    -0.8050 C.3   1 <1>  -0.0970 
 15 C       -3.7720     2.5070    -1.2380 C.3   1 <1>   0.1100 
 16 C       -5.3820     0.9270    -0.3190 C.3   1 <1>   0.1100 
 17 C       -4.9430     3.4040    -1.7020 C.3   1 <1>   0.3430 
 18 C       -6.5620     1.8840    -0.6210 C.3   1 <1>   0.3430 
 19 N       -6.0940     3.3050    -0.7520 N.4   1 <1>  -0.9590 
 20 C       -7.1840     4.2810    -1.0060 C.3   1 <1>   0.4860 
 21 C       -8.2160     4.1600     0.0980 C.ar  1 <1>  -0.1430 
 22 C       -7.9310     4.6120     1.3790 C.ar  1 <1>  -0.1500 
 23 C       -9.4530     3.5860    -0.1640 C.ar  1 <1>  -0.1500 
 24 C       -8.8690     4.4820     2.3880 C.ar  1 <1>  -0.1500 
 25 C      -10.3890     3.4570     0.8470 C.ar  1 <1>  -0.1500 
 26 C      -10.0970     3.9030     2.1230 C.ar  1 <1>  -0.1500 
 27 H        1.4990     2.4950    -1.5140 H     1 <1>   0.1500 
 28 H       -2.3870     1.6040     2.8020 H     1 <1>   0.1500 
 29 H       -3.3540     0.0490     1.0390 H     1 <1>   0.0800 
 30 H       -2.7880     0.0980    -0.6030 H     1 <1>   0.0800 
 31 H        1.5790     3.6290     3.2690 H     1 <1>   0.1500 
 32 H        3.4950     4.2120     1.8390 H     1 <1>   0.1500 
 33 H        3.6710     3.4080    -1.8130 H     1 <1>   0.0800 
 34 H        4.7060     3.3040    -0.4120 H     1 <1>   0.0800 
 35 H        3.9390     4.8210    -0.8240 H     1 <1>   0.0800 
 36 H       -3.4510     1.8920    -2.0640 H     1 <1>   0.0800 
 37 H       -2.9460     3.1480    -0.9820 H     1 <1>   0.0800 
 38 H       -5.6360     0.3320     0.5420 H     1 <1>   0.0800 
 39 H       -5.2560     0.2530    -1.1510 H     1 <1>   0.0800 
 40 H       -5.2520     3.0980    -2.6880 H     1 <1>   0.0800 
 41 H       -4.5970     4.4220    -1.7660 H     1 <1>   0.0800 
 42 H       -7.2780     1.8120     0.1830 H     1 <1>   0.0800 
 43 H       -7.0540     1.5680    -1.5250 H     1 <1>   0.0800 
 44 H       -5.6840     3.5010     0.1730 H     1 <1>   0.4500 
 45 H       -7.6450     4.0840    -1.9600 H     1 <1>   0.0800 
 46 H       -6.7890     5.2840    -1.0160 H     1 <1>   0.0800 
 47 H       -6.9850     5.0720     1.6090 H     1 <1>   0.1500 
 48 H       -9.7050     3.2360    -1.1510 H     1 <1>   0.1500 
 49 H       -8.6480     4.8330     3.3820 H     1 <1>   0.1500 
 50 H      -11.3490     3.0130     0.6440 H     1 <1>   0.1500 
 51 H      -10.8270     3.8030     2.9090 H     1 <1>   0.1500 
@<TRIPOS>BOND
  1   1   2  2   
  2   2   3  1   
  3   2   4  1   
  4   3   5  ar  
  5   3   6  ar  
  6   4   7  2   
  7   4   8  1   
  8   5   9  1   
  9   5  10  ar  
 10   6  11  ar  
 11   6  27  1   
 12   7   9  1   
 13   7  28  1   
 14   8  12  1   
 15   8  29  1   
 16   8  30  1   
 17  10  13  ar  
 18  10  31  1   
 19  11  13  ar  
 20  11  14  1   
 21  12  15  1   
 22  12  16  1   
 23  13  32  1   
 24  14  33  1   
 25  14  34  1   
 26  14  35  1   
 27  15  17  1   
 28  15  36  1   
 29  15  37  1   
 30  16  18  1   
 31  16  38  1   
 32  16  39  1   
 33  17  19  1   
 34  17  40  1   
 35  17  41  1   
 36  18  19  1   
 37  18  42  1   
 38  18  43  1   
 39  19  20  1   
 40  19  44  1   
 41  20  21  1   
 42  20  45  1   
 43  20  46  1   
 44  21  22  ar  
 45  21  23  ar  
 46  22  24  ar  
 47  22  47  1   
 48  23  25  ar  
 49  23  48  1   
 50  24  26  ar  
 51  24  49  1   
 52  25  26  ar  
 53  25  50  1   
 54  26  51  1   
@<TRIPOS>SUBSTRUCTURE
  1 ****  12 GROUP 4 **** **** 0

# MOE 2024.06 (io_trps.svl 2023.06)
