@<TRIPOS>MOLECULE
NONAME
46 47 1 0 0 
SMALL
USER_CHARGES


@<TRIPOS>ATOM
  1 S        1.2310     0.9010    -1.1780 S.o2  1 <1>   1.3330 
  2 O        2.4160     1.1940    -1.9510 O.2   1 <1>  -0.6500 
  3 O        1.2310    -0.2000    -0.2480 O.2   1 <1>  -0.6500 
  4 N        0.8420     2.3500    -0.3150 N.am  1 <1>  -0.6930 
  5 C       -0.1440     0.7410    -2.2960 C.3   1 <1>  -0.1350 
  6 C       -0.2730     2.4110     0.5160 C.ar  1 <1>   0.1990 
  7 C        1.9790     3.2690     0.0060 C.3   1 <1>   0.2570 
  8 C       -1.3860     3.1950     0.1940 C.ar  1 <1>  -0.1440 
  9 C       -0.2820     1.6800     1.6990 C.ar  1 <1>  -0.1500 
 10 C        3.0530     2.6690     0.9210 C.2   1 <1>   0.5690 
 11 C       -2.4780     3.2130     1.0490 C.ar  1 <1>  -0.1500 
 12 C       -1.4520     4.0490    -1.0700 C.3   1 <1>  -0.0170 
 13 C       -1.3730     1.7050     2.5450 C.ar  1 <1>  -0.1500 
 14 O        3.1070     3.0270     2.0740 O.2   1 <1>  -0.5700 
 15 N        3.9300     1.7680     0.4100 N.am  1 <1>  -0.7300 
 16 C       -2.4760     2.4720     2.2180 C.ar  1 <1>  -0.1500 
 17 C       -1.1280     5.5120    -0.7560 C.3   1 <1>  -0.2400 
 18 C        4.9300     1.0090     1.1730 C.3   1 <1>   0.2200 
 19 C        6.2030     0.9150     0.3420 C.3   1 <1>  -0.1600 
 20 C        4.4680    -0.4400     1.2680 C.3   1 <1>  -0.1600 
 21 C        5.9510    -0.2070    -0.6720 C.3   1 <1>  -0.1600 
 22 C        4.8480    -1.0870    -0.0690 C.3   1 <1>  -0.1600 
 23 H       -0.0240    -0.1380    -2.8990 H     1 <1>   0.0800 
 24 H       -0.2010     1.5950    -2.9400 H     1 <1>   0.0800 
 25 H       -1.0600     0.6570    -1.7440 H     1 <1>   0.0800 
 26 H        1.5900     4.1460     0.4900 H     1 <1>   0.0800 
 27 H        2.4460     3.5830    -0.9090 H     1 <1>   0.0800 
 28 H        0.5780     1.0870     1.9570 H     1 <1>   0.1500 
 29 H       -3.3400     3.8110     0.8110 H     1 <1>   0.1500 
 30 H       -2.4420     3.9880    -1.4870 H     1 <1>   0.0800 
 31 H       -0.7710     3.6880    -1.8170 H     1 <1>   0.0800 
 32 H       -1.3620     1.1310     3.4550 H     1 <1>   0.1500 
 33 H        3.7860     1.4180    -0.5470 H     1 <1>   0.3700 
 34 H       -3.3290     2.4950     2.8740 H     1 <1>   0.1500 
 35 H       -1.8270     5.9040    -0.0390 H     1 <1>   0.0800 
 36 H       -1.1840     6.1040    -1.6520 H     1 <1>   0.0800 
 37 H       -0.1370     5.5950    -0.3490 H     1 <1>   0.0800 
 38 H        5.0940     1.4560     2.1400 H     1 <1>   0.0800 
 39 H        7.0110     0.6250     0.9900 H     1 <1>   0.0800 
 40 H        6.4540     1.8510    -0.1250 H     1 <1>   0.0800 
 41 H        3.4150    -0.5170     1.4800 H     1 <1>   0.0800 
 42 H        5.0140    -0.9210     2.0590 H     1 <1>   0.0800 
 43 H        6.8490    -0.7700    -0.8580 H     1 <1>   0.0800 
 44 H        5.6040     0.2130    -1.6020 H     1 <1>   0.0800 
 45 H        3.9920    -1.0960    -0.7230 H     1 <1>   0.0800 
 46 H        5.1830    -2.0990     0.0770 H     1 <1>   0.0800 
@<TRIPOS>BOND
  1   1   2  2   
  2   1   3  2   
  3   1   4  am  
  4   1   5  1   
  5   4   6  1   
  6   4   7  1   
  7   5  23  1   
  8   5  24  1   
  9   5  25  1   
 10   6   8  ar  
 11   6   9  ar  
 12   7  10  1   
 13   7  26  1   
 14   7  27  1   
 15   8  11  ar  
 16   8  12  1   
 17   9  13  ar  
 18   9  28  1   
 19  10  14  2   
 20  10  15  am  
 21  11  16  ar  
 22  11  29  1   
 23  12  17  1   
 24  12  30  1   
 25  12  31  1   
 26  13  16  ar  
 27  13  32  1   
 28  15  18  1   
 29  15  33  1   
 30  16  34  1   
 31  17  35  1   
 32  17  36  1   
 33  17  37  1   
 34  18  19  1   
 35  18  20  1   
 36  18  38  1   
 37  19  21  1   
 38  19  39  1   
 39  19  40  1   
 40  20  22  1   
 41  20  41  1   
 42  20  42  1   
 43  21  22  1   
 44  21  43  1   
 45  21  44  1   
 46  22  45  1   
 47  22  46  1   
@<TRIPOS>SUBSTRUCTURE
  1 ****   4 GROUP 4 **** **** 0

# MOE 2024.06 (io_trps.svl 2023.06)
