@<TRIPOS>MOLECULE
NONAME
52 53 1 0 0 
SMALL
USER_CHARGES


@<TRIPOS>ATOM
  1 O       -1.3530    -2.1620    -2.7000 O.2   1 <1>  -0.5700 
  2 C       -0.5460    -1.9230    -1.8340 C.2   1 <1>   0.5690 
  3 N       -0.8730    -1.1440    -0.7670 N.am  1 <1>  -0.7300 
  4 C        0.8550    -2.5130    -1.9400 C.3   1 <1>   0.1810 
  5 C       -2.1820    -0.5100    -0.5760 C.3   1 <1>   0.2200 
  6 O        1.6360    -2.1950    -0.7930 O.3   1 <1>  -0.3630 
  7 C       -2.0020     0.8340     0.1180 C.3   1 <1>  -0.1600 
  8 C       -3.0520    -1.4210     0.2810 C.3   1 <1>  -0.1600 
  9 C        2.9200    -2.6270    -0.6860 C.ar  1 <1>   0.0830 
 10 C       -3.3480     1.5200     0.3900 C.3   1 <1>   0.5030 
 11 C       -4.4300    -0.8070     0.5530 C.3   1 <1>   0.5030 
 12 C        3.6030    -2.2730     0.4670 C.ar  1 <1>  -0.1500 
 13 C        3.5650    -3.3900    -1.6570 C.ar  1 <1>  -0.1500 
 14 N       -4.3120     0.5910     1.0050 N.4   1 <1>  -0.9060 
 15 C       -3.1520     2.6400     1.4100 C.3   1 <1>  -0.2400 
 16 C       -3.9480     2.1340    -0.8780 C.3   1 <1>  -0.2400 
 17 C       -5.1030    -1.5540     1.7040 C.3   1 <1>  -0.2400 
 18 C       -5.3490    -0.8900    -0.6680 C.3   1 <1>  -0.2400 
 19 C        4.9150    -2.6690     0.6600 C.ar  1 <1>  -0.1500 
 20 C        4.8770    -3.7850    -1.4620 C.ar  1 <1>  -0.1500 
 21 C        5.5600    -3.4310    -0.3100 C.ar  1 <1>   0.0830 
 22 O        6.8440    -3.8630    -0.2040 O.3   1 <1>  -0.3620 
 23 C        7.6250    -3.5560     0.9300 C.3   1 <1>   0.0400 
 24 H       -0.1510    -1.0090    -0.0520 H     1 <1>   0.3700 
 25 H        1.3440    -2.1110    -2.8080 H     1 <1>   0.0800 
 26 H        0.7840    -3.5830    -2.0180 H     1 <1>   0.0800 
 27 H       -2.6360    -0.3690    -1.5440 H     1 <1>   0.0800 
 28 H       -1.3940     1.4740    -0.4980 H     1 <1>   0.0800 
 29 H       -1.4800     0.6840     1.0470 H     1 <1>   0.0800 
 30 H       -2.5490    -1.6160     1.2120 H     1 <1>   0.0800 
 31 H       -3.1770    -2.3650    -0.2220 H     1 <1>   0.0800 
 32 H        3.1030    -1.6850     1.2140 H     1 <1>   0.1500 
 33 H        3.0750    -3.6870    -2.5640 H     1 <1>   0.1500 
 34 H       -5.2400     1.0160     0.9490 H     1 <1>   0.4500 
 35 H       -4.0770     0.5490     1.9970 H     1 <1>   0.4500 
 36 H       -2.7560     2.2640     2.3360 H     1 <1>   0.0800 
 37 H       -4.0760     3.1560     1.6060 H     1 <1>   0.0800 
 38 H       -2.4510     3.3640     1.0290 H     1 <1>   0.0800 
 39 H       -3.9920     1.4380    -1.6920 H     1 <1>   0.0800 
 40 H       -3.3300     2.9500    -1.2120 H     1 <1>   0.0800 
 41 H       -4.9320     2.5280    -0.6950 H     1 <1>   0.0800 
 42 H       -4.5110    -1.5080     2.6010 H     1 <1>   0.0800 
 43 H       -5.2190    -2.5930     1.4470 H     1 <1>   0.0800 
 44 H       -6.0830    -1.1580     1.9060 H     1 <1>   0.0800 
 45 H       -4.8870    -0.5120    -1.5580 H     1 <1>   0.0800 
 46 H       -6.2750    -0.3700    -0.4990 H     1 <1>   0.0800 
 47 H       -5.5880    -1.9200    -0.8690 H     1 <1>   0.0800 
 48 H        5.4130    -2.3770     1.5640 H     1 <1>   0.1500 
 49 H        5.3840    -4.3740    -2.2050 H     1 <1>   0.1500 
 50 H        8.5960    -3.9970     0.7950 H     1 <1>   0.0800 
 51 H        7.1520    -3.9720     1.8020 H     1 <1>   0.0800 
 52 H        7.7170    -2.4880     1.0120 H     1 <1>   0.0800 
@<TRIPOS>BOND
  1   1   2  2   
  2   2   3  am  
  3   2   4  1   
  4   3   5  1   
  5   3  24  1   
  6   4   6  1   
  7   4  25  1   
  8   4  26  1   
  9   5   7  1   
 10   5   8  1   
 11   5  27  1   
 12   6   9  1   
 13   7  10  1   
 14   7  28  1   
 15   7  29  1   
 16   8  11  1   
 17   8  30  1   
 18   8  31  1   
 19   9  12  ar  
 20   9  13  ar  
 21  10  14  1   
 22  10  15  1   
 23  10  16  1   
 24  11  14  1   
 25  11  17  1   
 26  11  18  1   
 27  12  19  ar  
 28  12  32  1   
 29  13  20  ar  
 30  13  33  1   
 31  14  34  1   
 32  14  35  1   
 33  15  36  1   
 34  15  37  1   
 35  15  38  1   
 36  16  39  1   
 37  16  40  1   
 38  16  41  1   
 39  17  42  1   
 40  17  43  1   
 41  17  44  1   
 42  18  45  1   
 43  18  46  1   
 44  18  47  1   
 45  19  21  ar  
 46  19  48  1   
 47  20  21  ar  
 48  20  49  1   
 49  21  22  1   
 50  22  23  1   
 51  23  50  1   
 52  23  51  1   
 53  23  52  1   
@<TRIPOS>SUBSTRUCTURE
  1 ****   3 GROUP 4 **** **** 0

# MOE 2024.06 (io_trps.svl 2023.06)
