@<TRIPOS>MOLECULE
NONAME
34 34 1 0 0 
SMALL
USER_CHARGES


@<TRIPOS>ATOM
  1 O        0.3450    -0.2060    -1.4100 O.3   1 <1>  -0.5600 
  2 C       -0.3320    -1.3430    -0.9650 C.3   1 <1>   0.5600 
  3 C        1.6870    -0.2610    -1.0480 C.3   1 <1>   0.2000 
  4 O        0.5140    -1.9350    -0.0290 O.3   1 <1>  -0.5600 
  5 C       -1.6820    -0.9250    -0.2680 C.3   1 <1>   0.0000 
  6 C       -0.4720    -2.2980    -2.1560 C.3   1 <1>  -0.2400 
  7 C        1.8230    -1.5920    -0.3170 C.3   1 <1>   0.2000 
  8 C        2.0140     0.9980    -0.2270 C.3   1 <1>   0.1200 
  9 C       -2.6360    -0.2050    -1.2460 C.3   1 <1>  -0.2400 
 10 C       -1.4220     0.0400     0.9100 C.3   1 <1>  -0.2400 
 11 C       -2.4330    -2.1490     0.3000 C.3   1 <1>  -0.2400 
 12 C        2.6520    -1.6110     0.9770 C.3   1 <1>   0.1200 
 13 O        1.6180     2.1180    -0.9390 O.3   1 <1>  -0.6800 
 14 O        2.5300    -2.8560     1.5700 O.3   1 <1>  -0.6800 
 15 H        2.2840    -0.2700    -1.9420 H     1 <1>   0.0800 
 16 H        0.4850    -2.5060    -2.5950 H     1 <1>   0.0800 
 17 H       -1.0970    -1.8610    -2.9100 H     1 <1>   0.0800 
 18 H       -0.9130    -3.2240    -1.8400 H     1 <1>   0.0800 
 19 H        2.2180    -2.3270    -0.9970 H     1 <1>   0.0800 
 20 H        3.0690     1.0790    -0.0330 H     1 <1>   0.0800 
 21 H        1.4760     0.9930     0.7050 H     1 <1>   0.0800 
 22 H       -2.9510    -0.8600    -2.0370 H     1 <1>   0.0800 
 23 H       -2.1500     0.6490    -1.6840 H     1 <1>   0.0800 
 24 H       -3.5170     0.1370    -0.7320 H     1 <1>   0.0800 
 25 H       -0.9600     0.9460     0.5620 H     1 <1>   0.0800 
 26 H       -0.7740    -0.4150     1.6380 H     1 <1>   0.0800 
 27 H       -2.3430     0.3040     1.4000 H     1 <1>   0.0800 
 28 H       -2.7310    -2.8200    -0.4850 H     1 <1>   0.0800 
 29 H       -3.3200    -1.8400     0.8240 H     1 <1>   0.0800 
 30 H       -1.8070    -2.6880     0.9890 H     1 <1>   0.0800 
 31 H        2.2920    -0.8800     1.6790 H     1 <1>   0.0800 
 32 H        3.6940    -1.4350     0.7760 H     1 <1>   0.0800 
 33 H        0.7460     1.9200    -1.3460 H     1 <1>   0.4000 
 34 H        1.5830    -3.1140     1.5420 H     1 <1>   0.4000 
@<TRIPOS>BOND
  1   1   2  1   
  2   1   3  1   
  3   2   4  1   
  4   2   5  1   
  5   2   6  1   
  6   3   7  1   
  7   3   8  1   
  8   3  15  1   
  9   4   7  1   
 10   5   9  1   
 11   5  10  1   
 12   5  11  1   
 13   6  16  1   
 14   6  17  1   
 15   6  18  1   
 16   7  12  1   
 17   7  19  1   
 18   8  13  1   
 19   8  20  1   
 20   8  21  1   
 21   9  22  1   
 22   9  23  1   
 23   9  24  1   
 24  10  25  1   
 25  10  26  1   
 26  10  27  1   
 27  11  28  1   
 28  11  29  1   
 29  11  30  1   
 30  12  14  1   
 31  12  31  1   
 32  12  32  1   
 33  13  33  1   
 34  14  34  1   
@<TRIPOS>SUBSTRUCTURE
  1 ****   2 GROUP 4 **** **** 0

# MOE 2024.06 (io_trps.svl 2023.06)
