@<TRIPOS>MOLECULE
NONAME
52 53 1 0 0 
SMALL
USER_CHARGES


@<TRIPOS>ATOM
  1 O       -1.6900    -2.2870    -1.8430 O.3   1 <1>  -0.6800 
  2 C       -1.0740    -1.9760    -0.6550 C.3   1 <1>   0.7670 
  3 C        0.3860    -1.8920    -0.9660 C.1   1 <1>  -0.2000 
  4 C       -1.2290    -3.1340     0.3500 C.ar  1 <1>  -0.1440 
  5 C       -1.7130    -0.6610    -0.1810 C.ar  1 <1>  -0.1440 
  6 C        1.5580    -2.0300    -1.1230 C.1   1 <1>  -0.2000 
  7 C       -1.0200    -2.8990     1.7060 C.ar  1 <1>  -0.1500 
  8 C       -1.5380    -4.4310    -0.0530 C.ar  1 <1>  -0.1500 
  9 C       -1.0460     0.5620    -0.2190 C.ar  1 <1>  -0.1500 
 10 C       -3.0190    -0.6830     0.2970 C.ar  1 <1>  -0.1500 
 11 C        2.9880    -2.4330    -1.2020 C.3   1 <1>   0.7030 
 12 C       -1.1170    -3.9240     2.6300 C.ar  1 <1>  -0.1500 
 13 C       -1.6360    -5.4570     0.8700 C.ar  1 <1>  -0.1500 
 14 C       -1.6660     1.7210     0.2160 C.ar  1 <1>  -0.1500 
 15 C       -3.6400     0.4740     0.7320 C.ar  1 <1>  -0.1500 
 16 N        3.2090    -3.4280    -0.1130 N.4   1 <1>  -0.9590 
 17 C        3.2860    -3.0350    -2.5770 C.3   1 <1>  -0.2400 
 18 C        3.8390    -1.1850    -0.9630 C.3   1 <1>  -0.2400 
 19 C       -1.4250    -5.2050     2.2130 C.ar  1 <1>  -0.1500 
 20 C       -2.9630     1.6780     0.6930 C.ar  1 <1>  -0.1500 
 21 C        4.6270    -3.8390     0.0790 C.3   1 <1>   0.3430 
 22 C        2.3050    -4.6210    -0.2040 C.3   1 <1>   0.3430 
 23 C        5.1060    -3.3270     1.4310 C.3   1 <1>  -0.2400 
 24 C        2.1810    -5.2890     1.1600 C.3   1 <1>  -0.2400 
 25 H       -1.9270    -1.4400    -2.2590 H     1 <1>   0.4000 
 26 H       -0.7840    -1.9070     2.0560 H     1 <1>   0.1500 
 27 H       -1.7110    -4.6530    -1.0930 H     1 <1>   0.1500 
 28 H       -0.0380     0.6400    -0.5870 H     1 <1>   0.1500 
 29 H       -3.5650    -1.6130     0.3330 H     1 <1>   0.1500 
 30 H       -0.9620    -3.7230     3.6770 H     1 <1>   0.1500 
 31 H       -1.8850    -6.4530     0.5430 H     1 <1>   0.1500 
 32 H       -1.1410     2.6590     0.1840 H     1 <1>   0.1500 
 33 H       -4.6510     0.4360     1.1010 H     1 <1>   0.1500 
 34 H        2.9140    -2.9270     0.7300 H     1 <1>   0.4500 
 35 H        4.3100    -3.3450    -2.6590 H     1 <1>   0.0800 
 36 H        3.1060    -2.2950    -3.3360 H     1 <1>   0.0800 
 37 H        2.6410    -3.8690    -2.7870 H     1 <1>   0.0800 
 38 H        4.8880    -1.3880    -1.0740 H     1 <1>   0.0800 
 39 H        3.6510    -0.7750     0.0130 H     1 <1>   0.0800 
 40 H        3.5820    -0.4320    -1.6880 H     1 <1>   0.0800 
 41 H       -1.5070    -6.0030     2.9320 H     1 <1>   0.1500 
 42 H       -3.4450     2.5790     1.0310 H     1 <1>   0.1500 
 43 H        5.2510    -3.4410    -0.7050 H     1 <1>   0.0800 
 44 H        4.7090    -4.9140     0.0540 H     1 <1>   0.0800 
 45 H        2.6850    -5.3230    -0.9290 H     1 <1>   0.0800 
 46 H        1.3170    -4.3250    -0.5180 H     1 <1>   0.0800 
 47 H        5.0780    -2.2530     1.4740 H     1 <1>   0.0800 
 48 H        6.1260    -3.6350     1.5820 H     1 <1>   0.0800 
 49 H        4.5170    -3.7370     2.2310 H     1 <1>   0.0800 
 50 H        3.1150    -5.7090     1.4850 H     1 <1>   0.0800 
 51 H        1.4680    -6.0920     1.0890 H     1 <1>   0.0800 
 52 H        1.8140    -4.5920     1.8920 H     1 <1>   0.0800 
@<TRIPOS>BOND
  1   1   2  1   
  2   1  25  1   
  3   2   3  1   
  4   2   4  1   
  5   2   5  1   
  6   3   6  3   
  7   4   7  ar  
  8   4   8  ar  
  9   5   9  ar  
 10   5  10  ar  
 11   6  11  1   
 12   7  12  ar  
 13   7  26  1   
 14   8  13  ar  
 15   8  27  1   
 16   9  14  ar  
 17   9  28  1   
 18  10  15  ar  
 19  10  29  1   
 20  11  16  1   
 21  11  17  1   
 22  11  18  1   
 23  12  19  ar  
 24  12  30  1   
 25  13  19  ar  
 26  13  31  1   
 27  14  20  ar  
 28  14  32  1   
 29  15  20  ar  
 30  15  33  1   
 31  16  21  1   
 32  16  22  1   
 33  16  34  1   
 34  17  35  1   
 35  17  36  1   
 36  17  37  1   
 37  18  38  1   
 38  18  39  1   
 39  18  40  1   
 40  19  41  1   
 41  20  42  1   
 42  21  23  1   
 43  21  43  1   
 44  21  44  1   
 45  22  24  1   
 46  22  45  1   
 47  22  46  1   
 48  23  47  1   
 49  23  48  1   
 50  23  49  1   
 51  24  50  1   
 52  24  51  1   
 53  24  52  1   
@<TRIPOS>SUBSTRUCTURE
  1 ****   3 GROUP 4 **** **** 0

# MOE 2024.06 (io_trps.svl 2023.06)
