@<TRIPOS>MOLECULE
NONAME
45 46 1 0 0 
SMALL
USER_CHARGES


@<TRIPOS>ATOM
  1 S       -0.3030    -0.2290    -0.3410 S.3   1 <1>  -0.3610 
  2 C        0.7600    -1.5970    -0.0090 C.cat 1 <1>   0.8400 
  3 C       -1.6710    -0.1850     0.9250 C.3   1 <1>   0.2110 
  4 N        0.3140    -2.5810     0.7320 N.pl3 1 <1>  -0.7940 
  5 N        1.9580    -1.5700    -0.5470 N.pl3 1 <1>  -0.7940 
  6 C       -2.6970    -1.2740     0.6710 C.2   1 <1>   0.5690 
  7 C       -2.4630     1.1130     0.7410 C.3   1 <1>  -0.0990 
  8 C        0.9900    -3.8110     1.1860 C.3   1 <1>   0.3290 
  9 C        2.5640    -0.5180    -1.3910 C.3   1 <1>   0.3290 
 10 O       -2.4300    -2.4390     0.8390 O.2   1 <1>  -0.5700 
 11 N       -3.8960    -0.7460     0.2800 N.am  1 <1>  -0.2370 
 12 C       -3.8210     0.6240     0.2960 C.2   1 <1>   0.5690 
 13 C        0.3110    -4.9990     0.5170 C.3   1 <1>  -0.2400 
 14 C        4.0630    -0.5000    -1.1230 C.3   1 <1>  -0.2400 
 15 C       -5.0460    -1.4990    -0.0550 C.ar  1 <1>   0.1170 
 16 O       -4.7000     1.3940     0.0160 O.2   1 <1>  -0.5700 
 17 C       -4.9620    -2.5780    -0.9300 C.ar  1 <1>  -0.1500 
 18 C       -6.2890    -1.1790     0.4830 C.ar  1 <1>  -0.1500 
 19 C       -6.0860    -3.3160    -1.2520 C.ar  1 <1>  -0.1500 
 20 C       -7.4160    -1.9150     0.1630 C.ar  1 <1>  -0.1500 
 21 C       -7.3190    -2.9930    -0.7110 C.ar  1 <1>   0.0830 
 22 O       -8.3720    -3.7670    -1.0810 O.3   1 <1>  -0.3630 
 23 C       -9.6730    -3.5010    -0.6070 C.3   1 <1>   0.0400 
 24 H       -1.2320    -0.2640     1.9030 H     1 <1>   0.0800 
 25 H       -0.6900    -2.6050     0.9680 H     1 <1>   0.4500 
 26 H        2.5760    -2.3660    -0.4120 H     1 <1>   0.4500 
 27 H       -2.0400     1.7610    -0.0050 H     1 <1>   0.0800 
 28 H       -2.5640     1.6420     1.6710 H     1 <1>   0.0800 
 29 H        0.9000    -3.8950     2.2570 H     1 <1>   0.0800 
 30 H        2.0370    -3.7940     0.9350 H     1 <1>   0.0800 
 31 H        2.1500     0.4510    -1.1650 H     1 <1>   0.0800 
 32 H        2.3810    -0.7370    -2.4310 H     1 <1>   0.0800 
 33 H       -0.7290    -5.0430     0.7900 H     1 <1>   0.0800 
 34 H        0.7810    -5.9120     0.8380 H     1 <1>   0.0800 
 35 H        0.3970    -4.9330    -0.5530 H     1 <1>   0.0800 
 36 H        4.2610    -0.2790    -0.0890 H     1 <1>   0.0800 
 37 H        4.5230     0.2680    -1.7210 H     1 <1>   0.0800 
 38 H        4.5130    -1.4400    -1.3870 H     1 <1>   0.0800 
 39 H       -4.0160    -2.8490    -1.3630 H     1 <1>   0.1500 
 40 H       -6.3810    -0.3450     1.1560 H     1 <1>   0.1500 
 41 H       -6.0160    -4.1500    -1.9280 H     1 <1>   0.1500 
 42 H       -8.3560    -1.6340     0.5990 H     1 <1>   0.1500 
 43 H      -10.3390    -4.2280    -1.0360 H     1 <1>   0.0800 
 44 H       -9.9620    -2.5120    -0.9170 H     1 <1>   0.0800 
 45 H       -9.6790    -3.5880     0.4650 H     1 <1>   0.0800 
@<TRIPOS>BOND
  1   1   2  1   
  2   1   3  1   
  3   2   4  ar  
  4   2   5  ar  
  5   3   6  1   
  6   3   7  1   
  7   3  24  1   
  8   4   8  1   
  9   4  25  1   
 10   5   9  1   
 11   5  26  1   
 12   6  10  2   
 13   6  11  am  
 14   7  12  1   
 15   7  27  1   
 16   7  28  1   
 17   8  13  1   
 18   8  29  1   
 19   8  30  1   
 20   9  14  1   
 21   9  31  1   
 22   9  32  1   
 23  11  12  am  
 24  11  15  1   
 25  12  16  2   
 26  13  33  1   
 27  13  34  1   
 28  13  35  1   
 29  14  36  1   
 30  14  37  1   
 31  14  38  1   
 32  15  17  ar  
 33  15  18  ar  
 34  17  19  ar  
 35  17  39  1   
 36  18  20  ar  
 37  18  40  1   
 38  19  21  ar  
 39  19  41  1   
 40  20  21  ar  
 41  20  42  1   
 42  21  22  1   
 43  22  23  1   
 44  23  43  1   
 45  23  44  1   
 46  23  45  1   
@<TRIPOS>SUBSTRUCTURE
  1 ****   6 GROUP 4 **** **** 0

# MOE 2024.06 (io_trps.svl 2023.06)
