@<TRIPOS>MOLECULE
NONAME
34 34 1 0 0 
SMALL
USER_CHARGES


@<TRIPOS>ATOM
  1 I        0.1730     2.5840    -2.8660 I     1 <1>  -0.0810 
  2 C       -1.1620     3.0620    -1.2760 C.ar  1 <1>   0.0810 
  3 C       -2.2010     3.9410    -1.5230 C.ar  1 <1>  -0.1500 
  4 C       -0.9550     2.4830    -0.0380 C.ar  1 <1>  -0.1500 
  5 C       -3.0630     4.2450    -0.4850 C.ar  1 <1>  -0.1500 
  6 C       -1.8290     2.7980     0.9880 C.ar  1 <1>  -0.1500 
  7 C       -2.8890     3.6740     0.7730 C.ar  1 <1>   0.1170 
  8 N       -3.7580     3.9810     1.8220 N.am  1 <1>  -0.5470 
  9 C       -5.0760     3.6930     1.9850 C.2   1 <1>   0.5690 
 10 O       -5.6490     4.0840     2.9700 O.2   1 <1>  -0.5700 
 11 C       -5.8430     2.8530     0.9730 C.3   1 <1>  -0.0990 
 12 C       -7.2610     3.3970     0.7100 C.3   1 <1>  -0.0990 
 13 C       -7.2630     4.8410     0.2480 C.2   1 <1>   0.6590 
 14 O       -6.4110     5.2770    -0.4810 O.2   1 <1>  -0.5700 
 15 O       -8.2720     5.5860     0.6800 O.3   1 <1>  -0.4300 
 16 C       -8.4390     6.9490     0.3070 C.3   1 <1>   0.1200 
 17 C       -9.3760     7.1230    -0.9040 C.3   1 <1>   0.6800 
 18 F       -8.9240     6.4140    -1.9380 F     1 <1>  -0.3400 
 19 F       -9.2740     8.3850    -1.3220 F     1 <1>  -0.3400 
 20 C      -10.8680     6.7910    -0.6630 C.3   1 <1>   0.6000 
 21 F      -11.3590     7.4850     0.3650 F     1 <1>  -0.3400 
 22 F      -11.0520     5.5160    -0.3180 F     1 <1>  -0.3400 
 23 H       -2.3340     4.3780    -2.4970 H     1 <1>   0.1500 
 24 H       -0.1360     1.8050     0.1210 H     1 <1>   0.1500 
 25 H       -3.8760     4.9320    -0.6480 H     1 <1>   0.1500 
 26 H       -1.6940     2.3610     1.9620 H     1 <1>   0.1500 
 27 H       -3.3630     4.4970     2.6080 H     1 <1>   0.3700 
 28 H       -5.9130     1.8520     1.3570 H     1 <1>   0.0800 
 29 H       -5.3100     2.8100     0.0430 H     1 <1>   0.0800 
 30 H       -7.8400     3.3270     1.6140 H     1 <1>   0.0800 
 31 H       -7.7450     2.8010    -0.0400 H     1 <1>   0.0800 
 32 H       -7.4760     7.3790     0.0950 H     1 <1>   0.0800 
 33 H       -8.8580     7.4570     1.1570 H     1 <1>   0.0800 
 34 H      -11.4780     6.9920    -1.5230 H     1 <1>   0.0800 
@<TRIPOS>BOND
  1   1   2  1   
  2   2   3  ar  
  3   2   4  ar  
  4   3   5  ar  
  5   3  23  1   
  6   4   6  ar  
  7   4  24  1   
  8   5   7  ar  
  9   5  25  1   
 10   6   7  ar  
 11   6  26  1   
 12   7   8  1   
 13   8   9  am  
 14   8  27  1   
 15   9  10  2   
 16   9  11  1   
 17  11  12  1   
 18  11  28  1   
 19  11  29  1   
 20  12  13  1   
 21  12  30  1   
 22  12  31  1   
 23  13  14  2   
 24  13  15  1   
 25  15  16  1   
 26  16  17  1   
 27  16  32  1   
 28  16  33  1   
 29  17  18  1   
 30  17  19  1   
 31  17  20  1   
 32  20  21  1   
 33  20  22  1   
 34  20  34  1   
@<TRIPOS>SUBSTRUCTURE
  1 ****  14 GROUP 4 **** **** 0

# MOE 2024.06 (io_trps.svl 2023.06)
