@<TRIPOS>MOLECULE
NONAME
44 46 1 0 0 
SMALL
USER_CHARGES


@<TRIPOS>ATOM
  1 S       -0.1540     0.0950    -1.4460 S.3   1 <1>  -0.0800 
  2 C        0.7200     1.5020    -0.8590 C.2   1 <1>   0.1660 
  3 C       -1.6670     0.7410    -0.8270 C.2   1 <1>  -0.1400 
  4 N        2.0480     1.6390    -1.0320 N.2   1 <1>  -0.5760 
  5 C       -0.1160     2.3800    -0.2390 C.2   1 <1>  -0.0860 
  6 C       -1.4820     1.9230    -0.2190 C.2   1 <1>  -0.1810 
  7 C       -2.9590    -0.0220    -1.0080 C.3   1 <1>   0.0200 
  8 C        2.5770     2.7230    -0.5480 C.2   1 <1>   0.4490 
  9 C        0.4860     3.5620     0.2620 C.2   1 <1>   0.7160 
 10 C       -2.6420     2.6790     0.4120 C.3   1 <1>   0.0210 
 11 C       -4.1420     0.9060    -0.6730 C.3   1 <1>  -0.1600 
 12 N        1.8580     3.7220     0.0900 N.am  1 <1>  -0.1110 
 13 C        4.0900     2.9260    -0.7160 C.3   1 <1>  -0.0990 
 14 O       -0.1570     4.4480     0.8320 O.2   1 <1>  -0.5700 
 15 C       -3.8750     1.7600     0.5870 C.3   1 <1>  -0.0800 
 16 N        2.5040     4.9650     0.5570 N.3   1 <1>  -0.7290 
 17 C        4.9310     1.6560    -0.9610 C.3   1 <1>  -0.1600 
 18 C       -5.1150     2.5850     0.9520 C.3   1 <1>  -0.2400 
 19 C        4.9640     0.7280     0.2630 C.3   1 <1>  -0.1600 
 20 C        5.8420    -0.4990     0.0000 C.3   1 <1>  -0.1600 
 21 C        5.8790    -1.4230     1.2200 C.3   1 <1>  -0.2400 
 22 H       -2.9550    -0.8720    -0.3490 H     1 <1>   0.0800 
 23 H       -3.0430    -0.3720    -2.0210 H     1 <1>   0.0800 
 24 H       -2.8880     3.5150    -0.2190 H     1 <1>   0.0800 
 25 H       -2.3500     3.0600     1.3740 H     1 <1>   0.0800 
 26 H       -5.0280     0.3110    -0.5380 H     1 <1>   0.0800 
 27 H       -4.3100     1.5640    -1.5080 H     1 <1>   0.0800 
 28 H        4.4850     3.4090     0.1590 H     1 <1>   0.0800 
 29 H        4.2320     3.5960    -1.5430 H     1 <1>   0.0800 
 30 H       -3.6690     1.0870     1.4040 H     1 <1>   0.0800 
 31 H        2.2750     5.0580     1.5570 H     1 <1>   0.3600 
 32 H        2.0080     5.7450     0.1050 H     1 <1>   0.3600 
 33 H        5.9380     1.9550    -1.1970 H     1 <1>   0.0800 
 34 H        4.5450     1.1220    -1.8140 H     1 <1>   0.0800 
 35 H       -5.3680     3.2640     0.1560 H     1 <1>   0.0800 
 36 H       -4.9340     3.1560     1.8460 H     1 <1>   0.0800 
 37 H       -5.9560     1.9380     1.1310 H     1 <1>   0.0800 
 38 H        3.9650     0.4010     0.4980 H     1 <1>   0.0800 
 39 H        5.3480     1.2670     1.1130 H     1 <1>   0.0800 
 40 H        6.8450    -0.1850    -0.2360 H     1 <1>   0.0800 
 41 H        5.4550    -1.0440    -0.8440 H     1 <1>   0.0800 
 42 H        6.2780    -0.9050     2.0740 H     1 <1>   0.0800 
 43 H        6.5000    -2.2780     1.0170 H     1 <1>   0.0800 
 44 H        4.8880    -1.7700     1.4570 H     1 <1>   0.0800 
@<TRIPOS>BOND
  1   1   2  1   
  2   1   3  1   
  3   2   4  1   
  4   2   5  2   
  5   3   6  2   
  6   3   7  1   
  7   4   8  2   
  8   5   6  1   
  9   5   9  1   
 10   6  10  1   
 11   7  11  1   
 12   7  22  1   
 13   7  23  1   
 14   8  12  1   
 15   8  13  1   
 16   9  12  am  
 17   9  14  2   
 18  10  15  1   
 19  10  24  1   
 20  10  25  1   
 21  11  15  1   
 22  11  26  1   
 23  11  27  1   
 24  12  16  1   
 25  13  17  1   
 26  13  28  1   
 27  13  29  1   
 28  15  18  1   
 29  15  30  1   
 30  16  31  1   
 31  16  32  1   
 32  17  19  1   
 33  17  33  1   
 34  17  34  1   
 35  18  35  1   
 36  18  36  1   
 37  18  37  1   
 38  19  20  1   
 39  19  38  1   
 40  19  39  1   
 41  20  21  1   
 42  20  40  1   
 43  20  41  1   
 44  21  42  1   
 45  21  43  1   
 46  21  44  1   
@<TRIPOS>SUBSTRUCTURE
  1 ****   2 GROUP 4 **** **** 0

# MOE 2024.06 (io_trps.svl 2023.06)
