@<TRIPOS>MOLECULE
NONAME
38 39 1 0 0 
SMALL
USER_CHARGES


@<TRIPOS>ATOM
  1 O        0.5980     0.6880     1.1670 O.2   1 <1>  -0.5700 
  2 C        0.6950     1.5470     0.3110 C.2   1 <1>   0.6900 
  3 N       -0.2610     2.5240     0.1780 N.am  1 <1>  -0.6600 
  4 N        1.7520     1.5400    -0.5370 N.am  1 <1>  -0.7300 
  5 C       -1.5460     2.4440     0.9260 C.3   1 <1>   0.0600 
  6 C       -0.0740     3.7720    -0.6100 C.3   1 <1>   0.0600 
  7 C        2.8620     0.5580    -0.5250 C.3   1 <1>   0.1400 
  8 C        4.1740     1.2600    -0.1740 C.3   1 <1>   0.0210 
  9 C        5.3710     0.3260    -0.2580 C.2   1 <1>  -0.1810 
 10 C        6.7040     0.7750    -0.1190 C.ar  1 <1>   0.0000 
 11 C        5.4120    -1.0130    -0.4630 C.2   1 <1>  -0.3020 
 12 C        7.5160    -0.3450    -0.2540 C.ar  1 <1>  -0.1520 
 13 C        7.2890     2.0240     0.1080 C.ar  1 <1>  -0.1500 
 14 N        6.7110    -1.4360    -0.4640 N.pl3 1 <1>   0.0330 
 15 C        8.9060    -0.2400    -0.1700 C.ar  1 <1>  -0.1500 
 16 C        8.6580     2.1380     0.1920 C.ar  1 <1>   0.0820 
 17 C        9.4700     0.9960     0.0520 C.ar  1 <1>  -0.1500 
 18 O        9.1570     3.3870     0.4130 O.3   1 <1>  -0.3630 
 19 C       10.5460     3.6040     0.5210 C.3   1 <1>   0.0400 
 20 H        1.7250     2.1930    -1.3140 H     1 <1>   0.3700 
 21 H       -1.7010     1.4500     1.3100 H     1 <1>   0.0800 
 22 H       -2.3650     2.6880     0.2730 H     1 <1>   0.0800 
 23 H       -1.5280     3.1340     1.7510 H     1 <1>   0.0800 
 24 H        0.9720     3.9990    -0.7190 H     1 <1>   0.0800 
 25 H       -0.5450     4.5970    -0.1060 H     1 <1>   0.0800 
 26 H       -0.5180     3.6540    -1.5830 H     1 <1>   0.0800 
 27 H        2.9400     0.1010    -1.4960 H     1 <1>   0.0800 
 28 H        2.6660    -0.2150     0.1990 H     1 <1>   0.0800 
 29 H        4.1090     1.6510     0.8260 H     1 <1>   0.0800 
 30 H        4.3320     2.0760    -0.8550 H     1 <1>   0.0800 
 31 H        4.5980    -1.7020    -0.6080 H     1 <1>   0.1500 
 32 H        6.6660     2.8910     0.2170 H     1 <1>   0.1500 
 33 H        7.0400    -2.3980    -0.5900 H     1 <1>   0.2700 
 34 H        9.5190    -1.1170    -0.2780 H     1 <1>   0.1500 
 35 H       10.5380     1.0730     0.1150 H     1 <1>   0.1500 
 36 H       10.7060     4.6530     0.6960 H     1 <1>   0.0800 
 37 H       11.0180     3.3110    -0.4000 H     1 <1>   0.0800 
 38 H       10.9250     3.0340     1.3510 H     1 <1>   0.0800 
@<TRIPOS>BOND
  1   1   2  2   
  2   2   3  am  
  3   2   4  am  
  4   3   5  1   
  5   3   6  1   
  6   4   7  1   
  7   4  20  1   
  8   5  21  1   
  9   5  22  1   
 10   5  23  1   
 11   6  24  1   
 12   6  25  1   
 13   6  26  1   
 14   7   8  1   
 15   7  27  1   
 16   7  28  1   
 17   8   9  1   
 18   8  29  1   
 19   8  30  1   
 20   9  10  1   
 21   9  11  2   
 22  10  12  ar  
 23  10  13  ar  
 24  11  14  1   
 25  11  31  1   
 26  12  14  1   
 27  12  15  ar  
 28  13  16  ar  
 29  13  32  1   
 30  14  33  1   
 31  15  17  ar  
 32  15  34  1   
 33  16  17  ar  
 34  16  18  1   
 35  17  35  1   
 36  18  19  1   
 37  19  36  1   
 38  19  37  1   
 39  19  38  1   
@<TRIPOS>SUBSTRUCTURE
  1 ****   8 GROUP 4 **** **** 0

# MOE 2024.06 (io_trps.svl 2023.06)
