@<TRIPOS>MOLECULE
NONAME
38 39 1 0 0 
SMALL
USER_CHARGES


@<TRIPOS>ATOM
  1 F        0.4260     0.0240    -0.2880 F     1 <1>  -0.3400 
  2 C        1.4150    -0.8480    -0.1300 C.3   1 <1>   1.1640 
  3 F        0.9810    -1.7510     0.7380 F     1 <1>  -0.3400 
  4 F        1.5410    -1.4780    -1.2930 F     1 <1>  -0.3400 
  5 C        2.7200    -0.1830     0.3370 C.ar  1 <1>  -0.1440 
  6 C        3.9570    -0.6610    -0.0800 C.ar  1 <1>  -0.1500 
  7 C        2.6890     0.9090     1.1990 C.ar  1 <1>  -0.1500 
  8 C        5.1360    -0.0680     0.3410 C.ar  1 <1>   0.0830 
  9 C        3.8620     1.5080     1.6250 C.ar  1 <1>  -0.1500 
 10 O        6.2870    -0.6100    -0.1260 O.3   1 <1>  -0.3630 
 11 C        5.0860     1.0250     1.2000 C.ar  1 <1>  -0.1500 
 12 C        7.5430    -0.0860     0.2230 C.3   1 <1>   0.1200 
 13 C        8.5950    -0.9360    -0.4910 C.3   1 <1>   0.3430 
 14 N        9.9840    -0.4700    -0.1950 N.4   1 <1>  -0.9060 
 15 C       11.0230    -1.2800    -0.8600 C.3   1 <1>   0.4230 
 16 C       11.2100    -2.5900    -0.0990 C.3   1 <1>  -0.1600 
 17 C       12.3610    -0.5810    -0.6570 C.3   1 <1>  -0.1600 
 18 C       12.0790    -2.2470     1.1180 C.3   1 <1>  -0.1600 
 19 C       12.8180    -0.9510     0.7600 C.3   1 <1>  -0.1600 
 20 H        4.0200    -1.5080    -0.7430 H     1 <1>   0.1500 
 21 H        1.7470     1.3030     1.5450 H     1 <1>   0.1500 
 22 H        3.8170     2.3540     2.2910 H     1 <1>   0.1500 
 23 H        5.9740     1.5140     1.5510 H     1 <1>   0.1500 
 24 H        7.6470    -0.1540     1.2920 H     1 <1>   0.0800 
 25 H        7.5810     0.9380    -0.1070 H     1 <1>   0.0800 
 26 H        8.4160    -0.8860    -1.5530 H     1 <1>   0.0800 
 27 H        8.4790    -1.9590    -0.1730 H     1 <1>   0.0800 
 28 H       10.1830    -0.5140     0.8110 H     1 <1>   0.4500 
 29 H       10.1050     0.5060    -0.4890 H     1 <1>   0.4500 
 30 H       10.7970    -1.4310    -1.9050 H     1 <1>   0.0800 
 31 H       11.7640    -3.2650    -0.7300 H     1 <1>   0.0800 
 32 H       10.2900    -3.0750     0.1730 H     1 <1>   0.0800 
 33 H       12.3180     0.4820    -0.8170 H     1 <1>   0.0800 
 34 H       13.0650    -0.9940    -1.3600 H     1 <1>   0.0800 
 35 H       12.7740    -3.0450     1.3260 H     1 <1>   0.0800 
 36 H       11.4680    -2.0960     1.9930 H     1 <1>   0.0800 
 37 H       12.5600    -0.1730     1.4590 H     1 <1>   0.0800 
 38 H       13.8860    -1.0920     0.7910 H     1 <1>   0.0800 
@<TRIPOS>BOND
  1   1   2  1   
  2   2   3  1   
  3   2   4  1   
  4   2   5  1   
  5   5   6  ar  
  6   5   7  ar  
  7   6   8  ar  
  8   6  20  1   
  9   7   9  ar  
 10   7  21  1   
 11   8  10  1   
 12   8  11  ar  
 13   9  11  ar  
 14   9  22  1   
 15  10  12  1   
 16  11  23  1   
 17  12  13  1   
 18  12  24  1   
 19  12  25  1   
 20  13  14  1   
 21  13  26  1   
 22  13  27  1   
 23  14  15  1   
 24  14  28  1   
 25  14  29  1   
 26  15  16  1   
 27  15  17  1   
 28  15  30  1   
 29  16  18  1   
 30  16  31  1   
 31  16  32  1   
 32  17  19  1   
 33  17  33  1   
 34  17  34  1   
 35  18  19  1   
 36  18  35  1   
 37  18  36  1   
 38  19  37  1   
 39  19  38  1   
@<TRIPOS>SUBSTRUCTURE
  1 ****  10 GROUP 4 **** **** 0

# MOE 2024.06 (io_trps.svl 2023.06)
