@<TRIPOS>MOLECULE
NONAME
45 48 1 0 0 
SMALL
USER_CHARGES


@<TRIPOS>ATOM
  1 S       -0.2810    -0.8600    -0.5460 S.3   1 <1>  -0.0800 
  2 C       -1.5270     0.3170    -0.1470 C.ar  1 <1>   0.2970 
  3 C        0.9910     0.3850    -0.6130 C.2   1 <1>  -0.0450 
  4 N       -2.7670    -0.0790     0.0280 N.ar  1 <1>  -0.5670 
  5 C       -0.9880     1.5960    -0.0780 C.ar  1 <1>   0.0000 
  6 C        0.4470     1.5970    -0.2910 C.2   1 <1>   0.0830 
  7 C        2.3080    -0.0260    -0.9770 C.2   1 <1>   0.7150 
  8 C       -3.6070     0.9060     0.2990 C.ar  1 <1>   0.4100 
  9 C       -1.9010     2.6280     0.1820 C.ar  1 <1>  -0.1430 
 10 N        1.2170     2.7360    -0.1240 N.pl3 1 <1>  -0.8830 
 11 O        2.6740    -1.1860    -0.9830 O.2   1 <1>  -0.5700 
 12 N        3.2350     0.8770    -1.3730 N.am  1 <1>  -0.8000 
 13 N       -4.9270     0.5320     0.4690 N.pl3 1 <1>  -0.8380 
 14 C       -3.2210     2.2590     0.3940 C.ar  1 <1>  -0.1430 
 15 C       -1.4610     4.0920     0.2280 C.3   1 <1>  -0.0170 
 16 C       -5.8410     0.6410    -0.6960 C.3   1 <1>   0.2090 
 17 C       -5.2600    -0.5240     1.4630 C.3   1 <1>   0.2090 
 18 C       -4.2930     3.3010     0.7310 C.3   1 <1>  -0.0170 
 19 C       -2.6250     5.0850     0.1960 C.3   1 <1>  -0.1600 
 20 C       -6.0150    -0.7210    -1.3740 C.3   1 <1>  -0.1600 
 21 C       -5.4690    -1.8820     0.7800 C.3   1 <1>  -0.1600 
 22 C       -3.7170     4.6490     1.1700 C.3   1 <1>  -0.1600 
 23 C       -6.4680    -1.7970    -0.3800 C.3   1 <1>  -0.1600 
 24 H        0.7720     3.5330     0.3400 H     1 <1>   0.4000 
 25 H        2.1890     2.6100     0.1860 H     1 <1>   0.4000 
 26 H        4.0920     0.5070    -1.7820 H     1 <1>   0.3700 
 27 H        2.9200     1.7880    -1.7080 H     1 <1>   0.3700 
 28 H       -0.8270     4.3040    -0.6140 H     1 <1>   0.0800 
 29 H       -0.9000     4.2470     1.1330 H     1 <1>   0.0800 
 30 H       -5.4400     1.3450    -1.4050 H     1 <1>   0.0800 
 31 H       -6.7950     1.0070    -0.3570 H     1 <1>   0.0800 
 32 H       -6.1560    -0.2370     1.9840 H     1 <1>   0.0800 
 33 H       -4.4640    -0.6020     2.1840 H     1 <1>   0.0800 
 34 H       -4.9250     2.9300     1.5190 H     1 <1>   0.0800 
 35 H       -4.9060     3.4470    -0.1400 H     1 <1>   0.0800 
 36 H       -3.0320     5.1280    -0.8010 H     1 <1>   0.0800 
 37 H       -2.2710     6.0680     0.4540 H     1 <1>   0.0800 
 38 H       -5.0730    -1.0060    -1.8110 H     1 <1>   0.0800 
 39 H       -6.7330    -0.6330    -2.1690 H     1 <1>   0.0800 
 40 H       -5.8120    -2.5940     1.5070 H     1 <1>   0.0800 
 41 H       -4.5180    -2.2260     0.4110 H     1 <1>   0.0800 
 42 H       -3.3030     4.5570     2.1590 H     1 <1>   0.0800 
 43 H       -4.5030     5.3840     1.2010 H     1 <1>   0.0800 
 44 H       -6.5300    -2.7490    -0.8770 H     1 <1>   0.0800 
 45 H       -7.4440    -1.5490     0.0010 H     1 <1>   0.0800 
@<TRIPOS>BOND
  1   1   2  1   
  2   1   3  1   
  3   2   4  ar  
  4   2   5  ar  
  5   3   6  2   
  6   3   7  1   
  7   4   8  ar  
  8   5   6  1   
  9   5   9  ar  
 10   6  10  1   
 11   7  11  2   
 12   7  12  am  
 13   8  13  1   
 14   8  14  ar  
 15   9  14  ar  
 16   9  15  1   
 17  10  24  1   
 18  10  25  1   
 19  12  26  1   
 20  12  27  1   
 21  13  16  1   
 22  13  17  1   
 23  14  18  1   
 24  15  19  1   
 25  15  28  1   
 26  15  29  1   
 27  16  20  1   
 28  16  30  1   
 29  16  31  1   
 30  17  21  1   
 31  17  32  1   
 32  17  33  1   
 33  18  22  1   
 34  18  34  1   
 35  18  35  1   
 36  19  22  1   
 37  19  36  1   
 38  19  37  1   
 39  20  23  1   
 40  20  38  1   
 41  20  39  1   
 42  21  23  1   
 43  21  40  1   
 44  21  41  1   
 45  22  42  1   
 46  22  43  1   
 47  23  44  1   
 48  23  45  1   
@<TRIPOS>SUBSTRUCTURE
  1 ****   2 GROUP 4 **** **** 0

# MOE 2024.06 (io_trps.svl 2023.06)
