@<TRIPOS>MOLECULE
NONAME
54 57 1 0 0 
SMALL
USER_CHARGES


@<TRIPOS>ATOM
  1 O       -0.5480    -0.5770     1.0820 O.2   1 <1>  -0.5700 
  2 C       -1.1770    -1.5630     0.7570 C.2   1 <1>   0.6900 
  3 N       -0.5630    -2.5660     0.0140 N.am  1 <1>  -0.4200 
  4 N       -2.5100    -1.6800     1.1200 N.am  1 <1>  -0.4360 
  5 C       -1.2790    -3.6660    -0.4400 C.2   1 <1>   0.7030 
  6 C        0.8850    -2.4220    -0.3370 C.3   1 <1>   0.0600 
  7 C       -3.2110    -2.7810     0.6650 C.2   1 <1>   0.4260 
  8 C       -3.1730    -0.6320     1.9500 C.3   1 <1>   0.0600 
  9 O       -0.7390    -4.5150    -1.1280 O.2   1 <1>  -0.5700 
 10 C       -2.6670    -3.7670    -0.0880 C.2   1 <1>   0.2770 
 11 N       -4.5200    -3.0720     0.8590 N.pl3 1 <1>  -0.7000 
 12 N       -3.6940    -4.6840    -0.3480 N.pl3 1 <1>  -0.7640 
 13 C       -4.7900    -4.2160     0.2430 C.cat 1 <1>   0.6560 
 14 C       -3.5070    -5.9260    -1.1440 C.3   1 <1>   0.3540 
 15 C       -6.2000    -4.8310     0.2590 C.3   1 <1>   0.2540 
 16 C       -2.9650    -7.0200    -0.2310 C.3   1 <1>  -0.2400 
 17 N       -7.2550    -3.8070     0.4860 N.3   1 <1>  -0.8100 
 18 C       -8.5210    -4.4480     0.9260 C.3   1 <1>   0.1100 
 19 C       -7.4940    -3.0050    -0.7450 C.3   1 <1>   0.1100 
 20 C       -9.6490    -3.4230     1.1510 C.3   1 <1>   0.1400 
 21 C       -8.5810    -1.9410    -0.5280 C.3   1 <1>   0.1400 
 22 N       -9.8380    -2.5950    -0.0740 N.am  1 <1>  -0.6600 
 23 C      -10.8800    -2.8210    -0.9530 C.2   1 <1>   0.7150 
 24 O      -10.6530    -2.7150    -2.1460 O.2   1 <1>  -0.5700 
 25 C      -12.1980    -3.1840    -0.4750 C.2   1 <1>   0.0550 
 26 O      -12.9700    -4.0260    -1.1570 O.3   1 <1>  -0.2800 
 27 C      -12.8730    -2.8030     0.6470 C.2   1 <1>  -0.1500 
 28 C      -14.1010    -4.1890    -0.5100 C.2   1 <1>  -0.0100 
 29 C      -14.1050    -3.4570     0.6230 C.2   1 <1>  -0.1500 
 30 H        1.4220    -1.9660     0.4770 H     1 <1>   0.0800 
 31 H        0.9850    -1.8000    -1.2090 H     1 <1>   0.0800 
 32 H        1.3310    -3.3810    -0.5370 H     1 <1>   0.0800 
 33 H       -2.4430    -0.0850     2.5240 H     1 <1>   0.0800 
 34 H       -3.8670    -1.0800     2.6380 H     1 <1>   0.0800 
 35 H       -3.6940     0.0600     1.3120 H     1 <1>   0.0800 
 36 H       -5.2400    -2.5390     1.3560 H     1 <1>   0.4500 
 37 H       -2.8190    -5.7450    -1.9540 H     1 <1>   0.0800 
 38 H       -4.4450    -6.2390    -1.5720 H     1 <1>   0.0800 
 39 H       -6.2250    -5.5510     1.0590 H     1 <1>   0.0800 
 40 H       -6.3870    -5.3510    -0.6640 H     1 <1>   0.0800 
 41 H       -2.0050    -6.7390     0.1630 H     1 <1>   0.0800 
 42 H       -2.8390    -7.9270    -0.7960 H     1 <1>   0.0800 
 43 H       -3.6440    -7.2160     0.5780 H     1 <1>   0.0800 
 44 H       -8.3550    -4.9790     1.8480 H     1 <1>   0.0800 
 45 H       -8.8490    -5.1600     0.1870 H     1 <1>   0.0800 
 46 H       -7.8070    -3.6460    -1.5540 H     1 <1>   0.0800 
 47 H       -6.5890    -2.5080    -1.0470 H     1 <1>   0.0800 
 48 H       -9.3990    -2.7830     1.9790 H     1 <1>   0.0800 
 49 H      -10.5530    -3.9500     1.3990 H     1 <1>   0.0800 
 50 H       -8.7480    -1.4000    -1.4450 H     1 <1>   0.0800 
 51 H       -8.2570    -1.2350     0.2160 H     1 <1>   0.0800 
 52 H      -12.5420    -2.1240     1.4130 H     1 <1>   0.1500 
 53 H      -14.8500    -4.8420    -0.9250 H     1 <1>   0.1500 
 54 H      -14.8800    -3.3730     1.3650 H     1 <1>   0.1500 
@<TRIPOS>BOND
  1   1   2  2   
  2   2   3  am  
  3   2   4  am  
  4   3   5  am  
  5   3   6  1   
  6   4   7  1   
  7   4   8  1   
  8   5   9  2   
  9   5  10  1   
 10   6  30  1   
 11   6  31  1   
 12   6  32  1   
 13   7  10  2   
 14   7  11  1   
 15   8  33  1   
 16   8  34  1   
 17   8  35  1   
 18  10  12  1   
 19  11  13  ar  
 20  11  36  1   
 21  12  13  ar  
 22  12  14  1   
 23  13  15  1   
 24  14  16  1   
 25  14  37  1   
 26  14  38  1   
 27  15  17  1   
 28  15  39  1   
 29  15  40  1   
 30  16  41  1   
 31  16  42  1   
 32  16  43  1   
 33  17  18  1   
 34  17  19  1   
 35  18  20  1   
 36  18  44  1   
 37  18  45  1   
 38  19  21  1   
 39  19  46  1   
 40  19  47  1   
 41  20  22  1   
 42  20  48  1   
 43  20  49  1   
 44  21  22  1   
 45  21  50  1   
 46  21  51  1   
 47  22  23  am  
 48  23  24  2   
 49  23  25  1   
 50  25  26  1   
 51  25  27  2   
 52  26  28  1   
 53  27  29  1   
 54  27  52  1   
 55  28  29  2   
 56  28  53  1   
 57  29  54  1   
@<TRIPOS>SUBSTRUCTURE
  1 ****  17 GROUP 4 **** **** 0

# MOE 2024.06 (io_trps.svl 2023.06)
