@<TRIPOS>MOLECULE
NONAME
53 55 1 0 0 
SMALL
USER_CHARGES


@<TRIPOS>ATOM
  1 CL       0.9430    -0.5150    -2.0260 Cl    1 <1>  -0.1770 
  2 C        2.4200    -1.1320    -1.3370 C.ar  1 <1>   0.1770 
  3 C        2.5410    -1.2300     0.0360 C.ar  1 <1>  -0.1500 
  4 C        3.4510    -1.5170    -2.1720 C.ar  1 <1>  -0.1500 
  5 C        3.7180    -1.7170     0.5780 C.ar  1 <1>  -0.1500 
  6 C        4.6230    -2.0040    -1.6180 C.ar  1 <1>  -0.1500 
  7 C        4.7870    -2.1070    -0.2350 C.ar  1 <1>   0.0860 
  8 C        6.0240    -2.6150     0.3300 C.2   1 <1>   0.5440 
  9 O        6.5170    -3.6250    -0.1360 O.2   1 <1>  -0.5700 
 10 N        6.6710    -1.9800     1.3710 N.am  1 <1>  -0.6600 
 11 C        7.7340    -2.6650     2.1550 C.3   1 <1>   0.1400 
 12 C        6.5760    -0.5170     1.6220 C.3   1 <1>   0.1400 
 13 C        9.0900    -2.0500     1.8060 C.3   1 <1>  -0.1600 
 14 C        7.9160     0.1380     1.2740 C.3   1 <1>  -0.1600 
 15 C        9.0910    -0.5230     2.0240 C.3   1 <1>  -0.0190 
 16 C       10.4260     0.1070     1.6380 C.2   1 <1>   0.5690 
 17 O       11.0370     0.7350     2.4670 O.2   1 <1>  -0.5700 
 18 N       10.8930    -0.0580     0.3720 N.am  1 <1>  -0.7300 
 19 C       12.1660     0.5000    -0.1380 C.3   1 <1>   0.1400 
 20 C       13.2670    -0.5560    -0.0550 C.3   1 <1>  -0.0170 
 21 C       14.5660    -0.0040    -0.6190 C.ar  1 <1>  -0.1430 
 22 C       14.9370    -0.2740    -1.9270 C.ar  1 <1>  -0.1500 
 23 C       15.3880     0.7820     0.1730 C.ar  1 <1>  -0.1500 
 24 C       16.1170     0.2390    -2.4360 C.ar  1 <1>  -0.1500 
 25 C       16.5700     1.2950    -0.3330 C.ar  1 <1>  -0.1500 
 26 C       16.9410     1.0250    -1.6470 C.ar  1 <1>   0.0830 
 27 O       18.0790     1.4880    -2.2220 O.3   1 <1>  -0.3630 
 28 C       18.9840     2.2960    -1.5030 C.3   1 <1>   0.0400 
 29 H        1.7210    -0.9310     0.6650 H     1 <1>   0.1500 
 30 H        3.3330    -1.4400    -3.2380 H     1 <1>   0.1500 
 31 H        3.8170    -1.8060     1.6460 H     1 <1>   0.1500 
 32 H        5.4300    -2.3170    -2.2590 H     1 <1>   0.1500 
 33 H        7.7440    -3.7200     1.9400 H     1 <1>   0.0800 
 34 H        7.5310    -2.5430     3.2050 H     1 <1>   0.0800 
 35 H        6.3420    -0.3510     2.6600 H     1 <1>   0.0800 
 36 H        5.7990    -0.0720     1.0250 H     1 <1>   0.0800 
 37 H        9.3110    -2.2860     0.7800 H     1 <1>   0.0800 
 38 H        9.8520    -2.5010     2.4170 H     1 <1>   0.0800 
 39 H        7.8760     1.1830     1.5240 H     1 <1>   0.0800 
 40 H        8.0680     0.0620     0.2110 H     1 <1>   0.0800 
 41 H        8.9500    -0.3430     3.0760 H     1 <1>   0.0800 
 42 H       10.3560    -0.6280    -0.2840 H     1 <1>   0.3700 
 43 H       12.4470     1.3590     0.4490 H     1 <1>   0.0800 
 44 H       12.0360     0.8190    -1.1580 H     1 <1>   0.0800 
 45 H       12.9750    -1.4320    -0.6060 H     1 <1>   0.0800 
 46 H       13.4150    -0.8360     0.9740 H     1 <1>   0.0800 
 47 H       14.3110    -0.8820    -2.5570 H     1 <1>   0.1500 
 48 H       15.1090     0.9980     1.1910 H     1 <1>   0.1500 
 49 H       16.4090     0.0320    -3.4490 H     1 <1>   0.1500 
 50 H       17.1830     1.9000     0.3070 H     1 <1>   0.1500 
 51 H       19.8040     2.5400    -2.1550 H     1 <1>   0.0800 
 52 H       19.3430     1.7440    -0.6530 H     1 <1>   0.0800 
 53 H       18.4800     3.1950    -1.1960 H     1 <1>   0.0800 
@<TRIPOS>BOND
  1   1   2  1   
  2   2   3  ar  
  3   2   4  ar  
  4   3   5  ar  
  5   3  29  1   
  6   4   6  ar  
  7   4  30  1   
  8   5   7  ar  
  9   5  31  1   
 10   6   7  ar  
 11   6  32  1   
 12   7   8  1   
 13   8   9  2   
 14   8  10  am  
 15  10  11  1   
 16  10  12  1   
 17  11  13  1   
 18  11  33  1   
 19  11  34  1   
 20  12  14  1   
 21  12  35  1   
 22  12  36  1   
 23  13  15  1   
 24  13  37  1   
 25  13  38  1   
 26  14  15  1   
 27  14  39  1   
 28  14  40  1   
 29  15  16  1   
 30  15  41  1   
 31  16  17  2   
 32  16  18  am  
 33  18  19  1   
 34  18  42  1   
 35  19  20  1   
 36  19  43  1   
 37  19  44  1   
 38  20  21  1   
 39  20  45  1   
 40  20  46  1   
 41  21  22  ar  
 42  21  23  ar  
 43  22  24  ar  
 44  22  47  1   
 45  23  25  ar  
 46  23  48  1   
 47  24  26  ar  
 48  24  49  1   
 49  25  26  ar  
 50  25  50  1   
 51  26  27  1   
 52  27  28  1   
 53  28  51  1   
 54  28  52  1   
 55  28  53  1   
@<TRIPOS>SUBSTRUCTURE
  1 ****  18 GROUP 4 **** **** 0

# MOE 2024.06 (io_trps.svl 2023.06)
