@<TRIPOS>MOLECULE
NONAME
45 46 1 0 0 
SMALL
USER_CHARGES


@<TRIPOS>ATOM
  1 O       -1.3420    -9.2560     0.3100 O.3   1 <1>  -0.3630 
  2 C       -2.5840    -8.7090     0.2760 C.ar  1 <1>   0.0830 
  3 C       -0.2010    -8.4640     0.0990 C.3   1 <1>   0.1200 
  4 C       -2.8290    -7.3640     0.0180 C.ar  1 <1>  -0.1500 
  5 C       -3.6500    -9.5620     0.5160 C.ar  1 <1>  -0.1500 
  6 C        1.0190    -9.3830     0.2140 C.3   1 <1>   0.3430 
  7 C       -4.1250    -6.8790     0.0020 C.ar  1 <1>   0.0830 
  8 C       -4.9470    -9.0820     0.5010 C.ar  1 <1>  -0.1500 
  9 N        2.3150    -8.6730    -0.0520 N.4   1 <1>  -0.9590 
 10 O       -4.2690    -5.5560    -0.2580 O.3   1 <1>  -0.3630 
 11 C       -5.1890    -7.7440     0.2450 C.ar  1 <1>  -0.1500 
 12 C        3.3960    -9.6800    -0.2540 C.3   1 <1>   0.3430 
 13 C        2.6260    -7.6870     1.0260 C.3   1 <1>   0.3430 
 14 C       -5.5420    -4.9540    -0.3060 C.3   1 <1>   0.1200 
 15 C        4.4550    -9.1200    -1.2030 C.3   1 <1>  -0.1600 
 16 C        3.8170    -6.7940     0.6710 C.3   1 <1>  -0.1600 
 17 C       -5.3520    -3.4730    -0.6210 C.3   1 <1>  -0.2400 
 18 C        5.5530    -8.2720    -0.5390 C.3   1 <1>  -0.1600 
 19 C        5.1650    -7.5240     0.7440 C.3   1 <1>  -0.1600 
 20 H       -0.1890    -7.6970     0.8530 H     1 <1>   0.0800 
 21 H       -0.2700    -8.0380    -0.8870 H     1 <1>   0.0800 
 22 H       -2.0420    -6.6640    -0.1770 H     1 <1>   0.1500 
 23 H       -3.4620   -10.6020     0.7160 H     1 <1>   0.1500 
 24 H        0.8980   -10.1790    -0.5030 H     1 <1>   0.0800 
 25 H        1.0390    -9.8170     1.2000 H     1 <1>   0.0800 
 26 H       -5.7690    -9.7520     0.6890 H     1 <1>   0.1500 
 27 H        2.2290    -8.1540    -0.9360 H     1 <1>   0.4500 
 28 H       -6.2050    -7.3970     0.2400 H     1 <1>   0.1500 
 29 H        2.9760   -10.5630    -0.7090 H     1 <1>   0.0800 
 30 H        3.8400    -9.9670     0.6860 H     1 <1>   0.0800 
 31 H        2.8270    -8.2030     1.9510 H     1 <1>   0.0800 
 32 H        1.7710    -7.0500     1.1860 H     1 <1>   0.0800 
 33 H       -6.0160    -5.0810     0.6520 H     1 <1>   0.0800 
 34 H       -6.1190    -5.4350    -1.0770 H     1 <1>   0.0800 
 35 H        3.9790    -8.5540    -1.9850 H     1 <1>   0.0800 
 36 H        4.9410    -9.9510    -1.6840 H     1 <1>   0.0800 
 37 H        3.8410    -6.0040     1.4020 H     1 <1>   0.0800 
 38 H        3.6790    -6.3250    -0.2880 H     1 <1>   0.0800 
 39 H       -4.7630    -3.0040     0.1470 H     1 <1>   0.0800 
 40 H       -6.3090    -2.9850    -0.6650 H     1 <1>   0.0800 
 41 H       -4.8630    -3.3570    -1.5720 H     1 <1>   0.0800 
 42 H        5.9130    -7.5590    -1.2630 H     1 <1>   0.0800 
 43 H        6.3890    -8.9100    -0.3030 H     1 <1>   0.0800 
 44 H        5.1680    -8.2040     1.5800 H     1 <1>   0.0800 
 45 H        5.9370    -6.7980     0.9400 H     1 <1>   0.0800 
@<TRIPOS>BOND
  1   1   2  1   
  2   1   3  1   
  3   2   4  ar  
  4   2   5  ar  
  5   3   6  1   
  6   3  20  1   
  7   3  21  1   
  8   4   7  ar  
  9   4  22  1   
 10   5   8  ar  
 11   5  23  1   
 12   6   9  1   
 13   6  24  1   
 14   6  25  1   
 15   7  10  1   
 16   7  11  ar  
 17   8  11  ar  
 18   8  26  1   
 19   9  12  1   
 20   9  13  1   
 21   9  27  1   
 22  10  14  1   
 23  11  28  1   
 24  12  15  1   
 25  12  29  1   
 26  12  30  1   
 27  13  16  1   
 28  13  31  1   
 29  13  32  1   
 30  14  17  1   
 31  14  33  1   
 32  14  34  1   
 33  15  18  1   
 34  15  35  1   
 35  15  36  1   
 36  16  19  1   
 37  16  37  1   
 38  16  38  1   
 39  17  39  1   
 40  17  40  1   
 41  17  41  1   
 42  18  19  1   
 43  18  42  1   
 44  18  43  1   
 45  19  44  1   
 46  19  45  1   
@<TRIPOS>SUBSTRUCTURE
  1 ****   3 GROUP 4 **** **** 0

# MOE 2024.06 (io_trps.svl 2023.06)
