@<TRIPOS>MOLECULE
NONAME
34 34 1 0 0 
SMALL
USER_CHARGES


@<TRIPOS>ATOM
  1 O       -0.2280    -1.2220     0.7390 O.2   1 <1>  -0.5700 
  2 C       -0.8580    -1.6870    -0.1910 C.2   1 <1>   0.5440 
  3 N       -0.1760    -2.3700    -1.1600 N.am  1 <1>  -0.7300 
  4 C       -2.2970    -1.5130    -0.2750 C.ar  1 <1>   0.0860 
  5 C        1.2980    -2.5590    -1.1910 C.3   1 <1>   0.1400 
  6 C       -2.9200    -0.4220     0.3300 C.ar  1 <1>  -0.1500 
  7 C       -3.1120    -2.4180    -0.9540 C.ar  1 <1>  -0.1500 
  8 C        1.7330    -3.5790    -0.1390 C.3   1 <1>   0.1200 
  9 C       -4.2950    -0.2140     0.2660 C.ar  1 <1>   0.0830 
 10 C       -4.4770    -2.2270    -1.0350 C.ar  1 <1>  -0.1500 
 11 O        3.0700    -3.9000    -0.3620 O.3   1 <1>  -0.5600 
 12 O       -4.8660     0.8650     0.8770 O.3   1 <1>  -0.3630 
 13 C       -5.0890    -1.1370    -0.4400 C.ar  1 <1>   0.0830 
 14 C        3.6070    -4.7550     0.5950 C.3   1 <1>   0.0400 
 15 C       -4.1380     1.7290     1.7240 C.3   1 <1>   0.0400 
 16 O       -6.4380    -1.0950    -0.6190 O.3   1 <1>  -0.3630 
 17 C       -7.2680    -0.0630    -0.1360 C.3   1 <1>   0.0400 
 18 H       -0.6720    -2.6620    -2.0030 H     1 <1>   0.3700 
 19 H        1.7830    -1.6170    -0.9920 H     1 <1>   0.0800 
 20 H        1.5890    -2.9040    -2.1670 H     1 <1>   0.0800 
 21 H       -2.2820     0.2630     0.8550 H     1 <1>   0.1500 
 22 H       -2.6800    -3.2850    -1.4190 H     1 <1>   0.1500 
 23 H        1.1490    -4.4790    -0.2240 H     1 <1>   0.0800 
 24 H        1.6320    -3.1570     0.8470 H     1 <1>   0.0800 
 25 H       -5.0900    -2.9350    -1.5660 H     1 <1>   0.1500 
 26 H        4.6330    -4.9470     0.3340 H     1 <1>   0.0800 
 27 H        3.0530    -5.6790     0.5980 H     1 <1>   0.0800 
 28 H        3.5600    -4.2820     1.5600 H     1 <1>   0.0800 
 29 H       -4.8240     2.4480     2.1360 H     1 <1>   0.0800 
 30 H       -3.3860     2.2350     1.1450 H     1 <1>   0.0800 
 31 H       -3.6950     1.1520     2.5160 H     1 <1>   0.0800 
 32 H       -8.2760    -0.2730    -0.4420 H     1 <1>   0.0800 
 33 H       -6.9430     0.8710    -0.5580 H     1 <1>   0.0800 
 34 H       -7.2080    -0.0430     0.9370 H     1 <1>   0.0800 
@<TRIPOS>BOND
  1   1   2  2   
  2   2   3  am  
  3   2   4  1   
  4   3   5  1   
  5   3  18  1   
  6   4   6  ar  
  7   4   7  ar  
  8   5   8  1   
  9   5  19  1   
 10   5  20  1   
 11   6   9  ar  
 12   6  21  1   
 13   7  10  ar  
 14   7  22  1   
 15   8  11  1   
 16   8  23  1   
 17   8  24  1   
 18   9  12  1   
 19   9  13  ar  
 20  10  13  ar  
 21  10  25  1   
 22  11  14  1   
 23  12  15  1   
 24  13  16  1   
 25  14  26  1   
 26  14  27  1   
 27  14  28  1   
 28  15  29  1   
 29  15  30  1   
 30  15  31  1   
 31  16  17  1   
 32  17  32  1   
 33  17  33  1   
 34  17  34  1   
@<TRIPOS>SUBSTRUCTURE
  1 ****   4 GROUP 4 **** **** 0

# MOE 2024.06 (io_trps.svl 2023.06)
