@<TRIPOS>MOLECULE
NONAME
50 52 1 0 0 
SMALL
USER_CHARGES


@<TRIPOS>ATOM
  1 O       -7.6110    -2.7040    -1.2450 O.3   1 <1>  -0.3630 
  2 C       -8.0160    -1.6020    -0.5590 C.ar  1 <1>   0.0830 
  3 C       -7.5210    -3.9570    -0.5630 C.3   1 <1>   0.2000 
  4 C       -8.2880    -1.6620     0.8070 C.ar  1 <1>   0.0830 
  5 C       -8.1540    -0.4030    -1.2370 C.ar  1 <1>  -0.1500 
  6 C       -8.4870    -3.9790     0.6350 C.3   1 <1>   0.1200 
  7 C       -6.0860    -4.2520    -0.0850 C.3   1 <1>   0.1200 
  8 O       -8.2560    -2.8480     1.4580 O.3   1 <1>  -0.3630 
  9 C       -8.6300    -0.5120     1.4980 C.ar  1 <1>  -0.1500 
 10 C       -8.5260     0.7420    -0.5490 C.ar  1 <1>  -0.1500 
 11 O       -5.1390    -4.0460    -1.0980 O.3   1 <1>  -0.5600 
 12 C       -8.7500     0.6900     0.8190 C.ar  1 <1>  -0.1500 
 13 C       -3.8660    -4.5970    -0.8670 C.3   1 <1>   0.1200 
 14 C       -2.7950    -3.5280    -0.5570 C.3   1 <1>   0.2000 
 15 O       -1.6010    -4.1970    -0.3090 O.3   1 <1>  -0.6800 
 16 C       -3.1080    -2.6180     0.6570 C.3   1 <1>   0.1100 
 17 N       -3.4900    -1.2200     0.3240 N.3   1 <1>  -0.8100 
 18 C       -3.8640    -0.4930     1.5540 C.3   1 <1>   0.1100 
 19 C       -4.5700    -1.1230    -0.6830 C.3   1 <1>   0.1100 
 20 C       -4.2380     0.9760     1.2680 C.3   1 <1>   0.3430 
 21 C       -4.9120     0.3390    -1.0120 C.3   1 <1>   0.3430 
 22 N       -5.3110     1.0960     0.2220 N.4   1 <1>  -0.9590 
 23 C       -5.6110     2.5200    -0.0910 C.3   1 <1>   0.2630 
 24 H       -7.8090    -4.7180    -1.2660 H     1 <1>   0.0800 
 25 H       -7.9840    -0.3790    -2.3000 H     1 <1>   0.1500 
 26 H       -8.3490    -4.8630     1.2320 H     1 <1>   0.0800 
 27 H       -9.5070    -3.9450     0.2950 H     1 <1>   0.0800 
 28 H       -6.0370    -5.2790     0.2320 H     1 <1>   0.0800 
 29 H       -5.8440    -3.6200     0.7480 H     1 <1>   0.0800 
 30 H       -8.8290    -0.5710     2.5540 H     1 <1>   0.1500 
 31 H       -8.6590     1.6690    -1.0820 H     1 <1>   0.1500 
 32 H       -9.0460     1.5780     1.3530 H     1 <1>   0.1500 
 33 H       -3.5850    -5.1120    -1.7690 H     1 <1>   0.0800 
 34 H       -3.9210    -5.3140    -0.0670 H     1 <1>   0.0800 
 35 H       -2.6140    -2.9310    -1.4330 H     1 <1>   0.0800 
 36 H       -1.6550    -4.7340     0.5030 H     1 <1>   0.4000 
 37 H       -2.2260    -2.5660     1.2730 H     1 <1>   0.0800 
 38 H       -3.8820    -3.0710     1.2480 H     1 <1>   0.0800 
 39 H       -3.0330    -0.5090     2.2390 H     1 <1>   0.0800 
 40 H       -4.6960    -0.9830     2.0310 H     1 <1>   0.0800 
 41 H       -5.4470    -1.6170    -0.3160 H     1 <1>   0.0800 
 42 H       -4.2760    -1.6070    -1.5970 H     1 <1>   0.0800 
 43 H       -3.3500     1.4880     0.9340 H     1 <1>   0.0800 
 44 H       -4.5650     1.4410     2.1830 H     1 <1>   0.0800 
 45 H       -5.7130     0.3570    -1.7310 H     1 <1>   0.0800 
 46 H       -4.0460     0.7960    -1.4610 H     1 <1>   0.0800 
 47 H       -6.1650     0.6340     0.5780 H     1 <1>   0.4500 
 48 H       -4.7310     3.0120    -0.4730 H     1 <1>   0.0800 
 49 H       -5.9390     3.0360     0.7970 H     1 <1>   0.0800 
 50 H       -6.3910     2.5820    -0.8320 H     1 <1>   0.0800 
@<TRIPOS>BOND
  1   1   2  1   
  2   1   3  1   
  3   2   4  ar  
  4   2   5  ar  
  5   3   6  1   
  6   3   7  1   
  7   3  24  1   
  8   4   8  1   
  9   4   9  ar  
 10   5  10  ar  
 11   5  25  1   
 12   6   8  1   
 13   6  26  1   
 14   6  27  1   
 15   7  11  1   
 16   7  28  1   
 17   7  29  1   
 18   9  12  ar  
 19   9  30  1   
 20  10  12  ar  
 21  10  31  1   
 22  11  13  1   
 23  12  32  1   
 24  13  14  1   
 25  13  33  1   
 26  13  34  1   
 27  14  15  1   
 28  14  16  1   
 29  14  35  1   
 30  15  36  1   
 31  16  17  1   
 32  16  37  1   
 33  16  38  1   
 34  17  18  1   
 35  17  19  1   
 36  18  20  1   
 37  18  39  1   
 38  18  40  1   
 39  19  21  1   
 40  19  41  1   
 41  19  42  1   
 42  20  22  1   
 43  20  43  1   
 44  20  44  1   
 45  21  22  1   
 46  21  45  1   
 47  21  46  1   
 48  22  23  1   
 49  22  47  1   
 50  23  48  1   
 51  23  49  1   
 52  23  50  1   
@<TRIPOS>SUBSTRUCTURE
  1 ****  19 GROUP 4 **** **** 0

# MOE 2024.06 (io_trps.svl 2023.06)
