@<TRIPOS>MOLECULE
NONAME
50 53 1 0 0 
SMALL
USER_CHARGES


@<TRIPOS>ATOM
  1 O       -5.1440    -5.6090    -1.2540 O.3   1 <1>  -0.3630 
  2 C       -4.3760    -4.7290    -0.6040 C.ar  1 <1>   0.0830 
  3 C       -6.4100    -5.6090    -0.5960 C.3   1 <1>   0.4000 
  4 C       -5.0720    -4.1670     0.4250 C.ar  1 <1>   0.0830 
  5 C       -3.0670    -4.3790    -0.8660 C.ar  1 <1>  -0.1500 
  6 O       -6.3120    -4.6680     0.4720 O.3   1 <1>  -0.3630 
  7 C       -4.5000    -3.2230     1.2530 C.ar  1 <1>  -0.1500 
  8 C       -2.4650    -3.4320    -0.0470 C.ar  1 <1>   0.0830 
  9 C       -3.1820    -2.8550     1.0100 C.ar  1 <1>  -0.1500 
 10 O       -1.1750    -3.1200    -0.3380 O.3   1 <1>  -0.3630 
 11 C       -0.4530    -2.1910     0.4410 C.3   1 <1>   0.1200 
 12 C        0.9710    -2.0970    -0.1180 C.3   1 <1>   0.2000 
 13 O        1.4990    -3.3850    -0.2370 O.3   1 <1>  -0.6800 
 14 C        1.9060    -1.2550     0.7760 C.3   1 <1>   0.3430 
 15 N        3.3330    -1.6350     0.5500 N.4   1 <1>  -0.9590 
 16 C        4.2180    -1.3510     1.7350 C.3   1 <1>   0.3430 
 17 C        3.9050    -1.0590    -0.7210 C.3   1 <1>   0.3430 
 18 C        5.6820    -1.7730     1.4960 C.3   1 <1>   0.2090 
 19 C        5.3690    -1.4840    -0.9560 C.3   1 <1>   0.2090 
 20 N        6.2210    -1.1850     0.2330 N.pl3 1 <1>  -0.8380 
 21 C        7.5630    -1.4190     0.0340 C.ar  1 <1>   0.4100 
 22 N        7.9140    -2.6830    -0.1570 N.ar  1 <1>  -0.6200 
 23 C        8.4630    -0.3580     0.0430 C.ar  1 <1>  -0.1500 
 24 C        9.2070    -2.8940    -0.3460 C.ar  1 <1>   0.1600 
 25 C        9.8030    -0.5930    -0.1550 C.ar  1 <1>  -0.1500 
 26 C       10.1770    -1.9070    -0.3550 C.ar  1 <1>  -0.1500 
 27 H       -6.6090    -6.5880    -0.1980 H     1 <1>   0.0800 
 28 H       -7.1740    -5.2950    -1.2850 H     1 <1>   0.0800 
 29 H       -2.5370    -4.8320    -1.6820 H     1 <1>   0.1500 
 30 H       -5.0700    -2.7940     2.0580 H     1 <1>   0.1500 
 31 H       -2.7420    -2.1200     1.6550 H     1 <1>   0.1500 
 32 H       -0.4400    -2.5410     1.4600 H     1 <1>   0.0800 
 33 H       -0.9520    -1.2390     0.3840 H     1 <1>   0.0800 
 34 H        0.9300    -1.6680    -1.1050 H     1 <1>   0.0800 
 35 H        0.7940    -3.9770    -0.5940 H     1 <1>   0.4000 
 36 H        1.6470    -1.4530     1.8030 H     1 <1>   0.0800 
 37 H        1.7540    -0.2030     0.5940 H     1 <1>   0.0800 
 38 H        3.2930    -2.6630     0.4060 H     1 <1>   0.4500 
 39 H        3.8450    -1.8690     2.6030 H     1 <1>   0.0800 
 40 H        4.2070    -0.2950     1.9480 H     1 <1>   0.0800 
 41 H        3.8740     0.0170    -0.6760 H     1 <1>   0.0800 
 42 H        3.3130    -1.3760    -1.5640 H     1 <1>   0.0800 
 43 H        5.7470    -2.8470     1.4490 H     1 <1>   0.0800 
 44 H        6.2890    -1.4460     2.3230 H     1 <1>   0.0800 
 45 H        5.7610    -0.9610    -1.8110 H     1 <1>   0.0800 
 46 H        5.4090    -2.5390    -1.1720 H     1 <1>   0.0800 
 47 H        8.0940     0.6360     0.2050 H     1 <1>   0.1500 
 48 H        9.5140    -3.9150    -0.5030 H     1 <1>   0.1500 
 49 H       10.5260     0.2050    -0.1550 H     1 <1>   0.1500 
 50 H       11.2090    -2.1620    -0.5160 H     1 <1>   0.1500 
@<TRIPOS>BOND
  1   1   2  1   
  2   1   3  1   
  3   2   4  ar  
  4   2   5  ar  
  5   3   6  1   
  6   3  27  1   
  7   3  28  1   
  8   4   6  1   
  9   4   7  ar  
 10   5   8  ar  
 11   5  29  1   
 12   7   9  ar  
 13   7  30  1   
 14   8   9  ar  
 15   8  10  1   
 16   9  31  1   
 17  10  11  1   
 18  11  12  1   
 19  11  32  1   
 20  11  33  1   
 21  12  13  1   
 22  12  14  1   
 23  12  34  1   
 24  13  35  1   
 25  14  15  1   
 26  14  36  1   
 27  14  37  1   
 28  15  16  1   
 29  15  17  1   
 30  15  38  1   
 31  16  18  1   
 32  16  39  1   
 33  16  40  1   
 34  17  19  1   
 35  17  41  1   
 36  17  42  1   
 37  18  20  1   
 38  18  43  1   
 39  18  44  1   
 40  19  20  1   
 41  19  45  1   
 42  19  46  1   
 43  20  21  1   
 44  21  22  ar  
 45  21  23  ar  
 46  22  24  ar  
 47  23  25  ar  
 48  23  47  1   
 49  24  26  ar  
 50  24  48  1   
 51  25  26  ar  
 52  25  49  1   
 53  26  50  1   
@<TRIPOS>SUBSTRUCTURE
  1 ****  13 GROUP 4 **** **** 0

# MOE 2024.06 (io_trps.svl 2023.06)
