@<TRIPOS>MOLECULE
NONAME
33 34 1 0 0 
SMALL
USER_CHARGES


@<TRIPOS>ATOM
  1 S        0.2010     0.2460     0.0180 S.o2  1 <1>   1.4470 
  2 O        0.8690     0.3720     1.2900 O.2   1 <1>  -0.6500 
  3 O        0.7980     0.7830    -1.1800 O.2   1 <1>  -0.6500 
  4 N        0.2590    -1.3830    -0.2590 N.am  1 <1>  -0.9780 
  5 C       -1.5680     0.6300     0.1350 C.ar  1 <1>  -0.0090 
  6 C       -2.2600     0.4710     1.3290 C.ar  1 <1>  -0.1500 
  7 C       -2.2830     1.0740    -0.9710 C.ar  1 <1>  -0.1500 
  8 C       -3.6120     0.7500     1.4200 C.ar  1 <1>  -0.1500 
  9 C       -3.6360     1.3550    -0.8860 C.ar  1 <1>  -0.1500 
 10 C       -4.3160     1.1960     0.3120 C.ar  1 <1>  -0.1430 
 11 C       -5.8090     1.5010     0.4270 C.3   1 <1>   0.0630 
 12 C       -6.6370     0.5860    -0.4900 C.3   1 <1>  -0.1600 
 13 C       -6.0990     2.9830     0.1350 C.3   1 <1>  -0.1600 
 14 C       -8.1380     0.8960    -0.3850 C.3   1 <1>  -0.1600 
 15 C       -7.5990     3.2930     0.2400 C.3   1 <1>  -0.1600 
 16 C       -8.4200     2.3760    -0.6760 C.3   1 <1>  -0.1600 
 17 H        0.9240    -1.7110     0.4360 H     1 <1>   0.4200 
 18 H        0.7300    -1.4470    -1.1580 H     1 <1>   0.4200 
 19 H       -1.7320     0.1240     2.2020 H     1 <1>   0.1500 
 20 H       -1.7760     1.2040    -1.9120 H     1 <1>   0.1500 
 21 H       -4.1140     0.6160     2.3620 H     1 <1>   0.1500 
 22 H       -4.1570     1.6990    -1.7620 H     1 <1>   0.1500 
 23 H       -6.1180     1.3060     1.4400 H     1 <1>   0.0800 
 24 H       -6.4610    -0.4410    -0.2220 H     1 <1>   0.0800 
 25 H       -6.3250     0.7170    -1.5110 H     1 <1>   0.0800 
 26 H       -5.7600     3.2310    -0.8550 H     1 <1>   0.0800 
 27 H       -5.5550     3.5960     0.8320 H     1 <1>   0.0800 
 28 H       -8.4840     0.6560     0.6060 H     1 <1>   0.0800 
 29 H       -8.6820     0.2810    -1.0810 H     1 <1>   0.0800 
 30 H       -7.7750     4.3200    -0.0270 H     1 <1>   0.0800 
 31 H       -7.9220     3.1580     1.2590 H     1 <1>   0.0800 
 32 H       -9.4690     2.5750    -0.5400 H     1 <1>   0.0800 
 33 H       -8.1770     2.5890    -1.7030 H     1 <1>   0.0800 
@<TRIPOS>BOND
  1   1   2  2   
  2   1   3  2   
  3   1   4  am  
  4   1   5  1   
  5   4  17  1   
  6   4  18  1   
  7   5   6  ar  
  8   5   7  ar  
  9   6   8  ar  
 10   6  19  1   
 11   7   9  ar  
 12   7  20  1   
 13   8  10  ar  
 14   8  21  1   
 15   9  10  ar  
 16   9  22  1   
 17  10  11  1   
 18  11  12  1   
 19  11  13  1   
 20  11  23  1   
 21  12  14  1   
 22  12  24  1   
 23  12  25  1   
 24  13  15  1   
 25  13  26  1   
 26  13  27  1   
 27  14  16  1   
 28  14  28  1   
 29  14  29  1   
 30  15  16  1   
 31  15  30  1   
 32  15  31  1   
 33  16  32  1   
 34  16  33  1   
@<TRIPOS>SUBSTRUCTURE
  1 ****  10 GROUP 4 **** **** 0

# MOE 2024.06 (io_trps.svl 2023.06)
