@<TRIPOS>MOLECULE
NONAME
29 29 1 0 0 
SMALL
USER_CHARGES


@<TRIPOS>ATOM
  1 BR      -0.0940    -0.0060    -0.0400 Br    1 <1>  -0.1110 
  2 C        1.8260    -0.1680     0.0400 C.ar  1 <1>   0.1110 
  3 C        2.3840    -1.3240     0.5570 C.ar  1 <1>  -0.1440 
  4 C        2.5860     0.8800    -0.4390 C.ar  1 <1>  -0.1500 
  5 C        3.7660    -1.4120     0.5880 C.ar  1 <1>  -0.1500 
  6 C        1.5270    -2.4580     1.0660 C.3   1 <1>   0.4870 
  7 C        3.9750     0.7830    -0.4140 C.ar  1 <1>   0.0830 
  8 C        4.5660    -0.3820     0.1140 C.ar  1 <1>   0.0830 
  9 N        1.1450    -3.2710    -0.1050 N.4   1 <1>  -0.8530 
 10 O        4.7560     1.7870    -0.9050 O.3   1 <1>  -0.3620 
 11 O        5.9000    -0.6410     0.2180 O.3   1 <1>  -0.3620 
 12 C        4.2200     2.9840    -1.4300 C.3   1 <1>   0.0400 
 13 C        6.8810     0.3710     0.1900 C.3   1 <1>   0.1200 
 14 C        8.1950    -0.2340     0.6730 C.3   1 <1>  -0.2400 
 15 H        2.0790     1.7440    -0.8250 H     1 <1>   0.1500 
 16 H        4.2620    -2.2820     0.9860 H     1 <1>   0.1500 
 17 H        0.6510    -2.0700     1.5620 H     1 <1>   0.0800 
 18 H        2.0880    -3.0520     1.7700 H     1 <1>   0.0800 
 19 H        0.5920    -2.6960    -0.7500 H     1 <1>   0.4500 
 20 H        0.5970    -4.0950     0.1630 H     1 <1>   0.4500 
 21 H        1.9890    -3.5700    -0.6050 H     1 <1>   0.4500 
 22 H        5.0400     3.6090    -1.7360 H     1 <1>   0.0800 
 23 H        3.6520     3.4810    -0.6640 H     1 <1>   0.0800 
 24 H        3.6060     2.7510    -2.2810 H     1 <1>   0.0800 
 25 H        6.5680     1.1720     0.8370 H     1 <1>   0.0800 
 26 H        6.9770     0.7240    -0.8220 H     1 <1>   0.0800 
 27 H        8.0880    -0.5970     1.6800 H     1 <1>   0.0800 
 28 H        8.9650     0.5170     0.6600 H     1 <1>   0.0800 
 29 H        8.4920    -1.0400     0.0270 H     1 <1>   0.0800 
@<TRIPOS>BOND
  1   1   2  1   
  2   2   3  ar  
  3   2   4  ar  
  4   3   5  ar  
  5   3   6  1   
  6   4   7  ar  
  7   4  15  1   
  8   5   8  ar  
  9   5  16  1   
 10   6   9  1   
 11   6  17  1   
 12   6  18  1   
 13   7   8  ar  
 14   7  10  1   
 15   8  11  1   
 16   9  19  1   
 17   9  20  1   
 18   9  21  1   
 19  10  12  1   
 20  11  13  1   
 21  12  22  1   
 22  12  23  1   
 23  12  24  1   
 24  13  14  1   
 25  13  25  1   
 26  13  26  1   
 27  14  27  1   
 28  14  28  1   
 29  14  29  1   
@<TRIPOS>SUBSTRUCTURE
  1 ****   8 GROUP 4 **** **** 0

# MOE 2024.06 (io_trps.svl 2023.06)
