@<TRIPOS>MOLECULE
NONAME
35 35 1 0 0 
SMALL
USER_CHARGES


@<TRIPOS>ATOM
  1 BR       0.1610    -0.1070     0.4310 Br    1 <1>  -0.1110 
  2 C       -1.5800    -0.8990     0.2160 C.ar  1 <1>   0.1110 
  3 C       -1.6660    -2.2030    -0.2320 C.ar  1 <1>  -0.1500 
  4 C       -2.6980    -0.1410     0.5150 C.ar  1 <1>  -0.1500 
  5 C       -2.9260    -2.7500    -0.3790 C.ar  1 <1>   0.1770 
  6 C       -3.9550    -0.7060     0.3620 C.ar  1 <1>  -0.1500 
  7 CL      -3.0480    -4.4030    -0.9450 Cl    1 <1>  -0.1770 
  8 C       -4.0790    -2.0220    -0.0890 C.ar  1 <1>   0.0830 
  9 O       -5.2810    -2.6370    -0.2610 O.3   1 <1>  -0.3630 
 10 C       -6.4990    -1.9780     0.0070 C.3   1 <1>   0.1200 
 11 C       -7.6330    -2.9540    -0.2920 C.3   1 <1>   0.1200 
 12 O       -8.8510    -2.3220    -0.0290 O.3   1 <1>  -0.5600 
 13 C       -9.9660    -3.1150    -0.2660 C.3   1 <1>   0.1200 
 14 C      -11.2060    -2.2710     0.0550 C.3   1 <1>   0.3430 
 15 N      -12.4970    -2.9950    -0.2110 N.4   1 <1>  -0.9590 
 16 C      -13.6450    -2.0410    -0.1110 C.3   1 <1>   0.2630 
 17 C      -12.7020    -4.1480     0.7230 C.3   1 <1>   0.2630 
 18 H       -0.7850    -2.7730    -0.4590 H     1 <1>   0.1500 
 19 H       -2.5840     0.8710     0.8610 H     1 <1>   0.1500 
 20 H       -4.8160    -0.1090     0.5970 H     1 <1>   0.1500 
 21 H       -6.5670    -1.1160    -0.6320 H     1 <1>   0.0800 
 22 H       -6.5110    -1.6950     1.0450 H     1 <1>   0.0800 
 23 H       -7.5460    -3.8210     0.3410 H     1 <1>   0.0800 
 24 H       -7.6050    -3.2410    -1.3300 H     1 <1>   0.0800 
 25 H       -9.9060    -3.9780     0.3740 H     1 <1>   0.0800 
 26 H       -9.9600    -3.4080    -1.3020 H     1 <1>   0.0800 
 27 H      -11.1650    -1.3820    -0.5520 H     1 <1>   0.0800 
 28 H      -11.1640    -1.9730     1.0900 H     1 <1>   0.0800 
 29 H      -12.4690    -3.3530    -1.1790 H     1 <1>   0.4500 
 30 H      -13.7090    -1.6330     0.8850 H     1 <1>   0.0800 
 31 H      -14.5710    -2.5430    -0.3380 H     1 <1>   0.0800 
 32 H      -13.5180    -1.2270    -0.8070 H     1 <1>   0.0800 
 33 H      -12.7190    -3.8050     1.7450 H     1 <1>   0.0800 
 34 H      -11.9080    -4.8690     0.6150 H     1 <1>   0.0800 
 35 H      -13.6390    -4.6390     0.5100 H     1 <1>   0.0800 
@<TRIPOS>BOND
  1   1   2  1   
  2   2   3  ar  
  3   2   4  ar  
  4   3   5  ar  
  5   3  18  1   
  6   4   6  ar  
  7   4  19  1   
  8   5   7  1   
  9   5   8  ar  
 10   6   8  ar  
 11   6  20  1   
 12   8   9  1   
 13   9  10  1   
 14  10  11  1   
 15  10  21  1   
 16  10  22  1   
 17  11  12  1   
 18  11  23  1   
 19  11  24  1   
 20  12  13  1   
 21  13  14  1   
 22  13  25  1   
 23  13  26  1   
 24  14  15  1   
 25  14  27  1   
 26  14  28  1   
 27  15  16  1   
 28  15  17  1   
 29  15  29  1   
 30  16  30  1   
 31  16  31  1   
 32  16  32  1   
 33  17  33  1   
 34  17  34  1   
 35  17  35  1   
@<TRIPOS>SUBSTRUCTURE
  1 ****  10 GROUP 4 **** **** 0

# MOE 2024.06 (io_trps.svl 2023.06)
