@<TRIPOS>MOLECULE
NONAME
50 54 1 0 0 
SMALL
USER_CHARGES


@<TRIPOS>ATOM
  1 N       -1.3000    -0.2940    -2.7380 N.pl3 1 <1>  -0.9000 
  2 C       -2.4200     0.2120    -2.1040 C.ar  1 <1>   0.1000 
  3 C       -3.5000    -0.6050    -1.8130 C.ar  1 <1>  -0.1500 
  4 C       -2.4860     1.5480    -1.7430 C.ar  1 <1>  -0.1500 
  5 C       -4.6120    -0.0990    -1.1660 C.ar  1 <1>  -0.1500 
  6 C       -3.5990     2.0530    -1.0960 C.ar  1 <1>  -0.1500 
  7 C       -4.6890     1.2390    -0.7890 C.ar  1 <1>  -0.1430 
  8 C       -5.9530     1.7580    -0.0630 C.3   1 <1>   0.1430 
  9 C       -7.1970     1.5620    -0.9620 C.3   1 <1>  -0.1600 
 10 C       -5.8670     3.2610     0.3000 C.3   1 <1>  -0.1600 
 11 C       -6.1600     0.9710     1.2530 C.3   1 <1>  -0.1600 
 12 C       -8.5020     2.0060    -0.2590 C.3   1 <1>   0.1430 
 13 C       -7.1380     3.7340     1.0260 C.3   1 <1>  -0.0800 
 14 C       -7.4350     1.4320     1.9830 C.3   1 <1>  -0.0800 
 15 C       -9.7180     1.7280    -1.1740 C.ar  1 <1>  -0.1430 
 16 C       -8.3520     3.5020     0.1100 C.3   1 <1>  -0.1600 
 17 C       -8.6500     1.2130     1.0620 C.3   1 <1>  -0.1600 
 18 C       -7.3160     2.9260     2.3210 C.3   1 <1>  -0.1600 
 19 C       -9.9920     0.4240    -1.5770 C.ar  1 <1>  -0.1500 
 20 C      -10.5720     2.7310    -1.6290 C.ar  1 <1>  -0.1500 
 21 C      -11.0700     0.1310    -2.3920 C.ar  1 <1>  -0.1500 
 22 C      -11.6510     2.4390    -2.4440 C.ar  1 <1>  -0.1500 
 23 C      -11.9170     1.1350    -2.8310 C.ar  1 <1>   0.1000 
 24 N      -13.0040     0.8440    -3.6330 N.pl3 1 <1>  -0.9000 
 25 H       -0.4330     0.2320    -2.6060 H     1 <1>   0.4000 
 26 H       -1.1520    -1.3030    -2.6500 H     1 <1>   0.4000 
 27 H       -3.4690    -1.6400    -2.0960 H     1 <1>   0.1500 
 28 H       -1.6610     2.1960    -1.9730 H     1 <1>   0.1500 
 29 H       -5.4260    -0.7690    -0.9590 H     1 <1>   0.1500 
 30 H       -3.5880     3.0960    -0.8420 H     1 <1>   0.1500 
 31 H       -7.0730     2.1230    -1.8720 H     1 <1>   0.0800 
 32 H       -7.2760     0.5290    -1.2390 H     1 <1>   0.0800 
 33 H       -5.7400     3.8440    -0.5940 H     1 <1>   0.0800 
 34 H       -5.0180     3.4330     0.9370 H     1 <1>   0.0800 
 35 H       -5.3050     1.1110     1.8900 H     1 <1>   0.0800 
 36 H       -6.2400    -0.0820     1.0520 H     1 <1>   0.0800 
 37 H       -7.0540     4.7810     1.2600 H     1 <1>   0.0800 
 38 H       -7.5600     0.8650     2.8900 H     1 <1>   0.0800 
 39 H       -9.2390     3.8440     0.6140 H     1 <1>   0.0800 
 40 H       -8.2290     4.0860    -0.7850 H     1 <1>   0.0800 
 41 H       -8.7440     0.1620     0.8600 H     1 <1>   0.0800 
 42 H       -9.5490     1.5240     1.5660 H     1 <1>   0.0800 
 43 H       -6.4740     3.0880     2.9720 H     1 <1>   0.0800 
 44 H       -8.1990     3.2550     2.8400 H     1 <1>   0.0800 
 45 H       -9.3620    -0.3870    -1.2600 H     1 <1>   0.1500 
 46 H      -10.4220     3.7600    -1.3650 H     1 <1>   0.1500 
 47 H      -11.2560    -0.8830    -2.6920 H     1 <1>   0.1500 
 48 H      -12.2920     3.2290    -2.7860 H     1 <1>   0.1500 
 49 H      -13.7640     1.5290    -3.6250 H     1 <1>   0.4000 
 50 H      -13.3550    -0.1160    -3.5830 H     1 <1>   0.4000 
@<TRIPOS>BOND
  1   1   2  1   
  2   1  25  1   
  3   1  26  1   
  4   2   3  ar  
  5   2   4  ar  
  6   3   5  ar  
  7   3  27  1   
  8   4   6  ar  
  9   4  28  1   
 10   5   7  ar  
 11   5  29  1   
 12   6   7  ar  
 13   6  30  1   
 14   7   8  1   
 15   8   9  1   
 16   8  10  1   
 17   8  11  1   
 18   9  12  1   
 19   9  31  1   
 20   9  32  1   
 21  10  13  1   
 22  10  33  1   
 23  10  34  1   
 24  11  14  1   
 25  11  35  1   
 26  11  36  1   
 27  12  15  1   
 28  12  16  1   
 29  12  17  1   
 30  13  16  1   
 31  13  18  1   
 32  13  37  1   
 33  14  17  1   
 34  14  18  1   
 35  14  38  1   
 36  15  19  ar  
 37  15  20  ar  
 38  16  39  1   
 39  16  40  1   
 40  17  41  1   
 41  17  42  1   
 42  18  43  1   
 43  18  44  1   
 44  19  21  ar  
 45  19  45  1   
 46  20  22  ar  
 47  20  46  1   
 48  21  23  ar  
 49  21  47  1   
 50  22  23  ar  
 51  22  48  1   
 52  23  24  1   
 53  24  49  1   
 54  24  50  1   
@<TRIPOS>SUBSTRUCTURE
  1 ****   9 GROUP 4 **** **** 0

# MOE 2024.06 (io_trps.svl 2023.06)
