@<TRIPOS>MOLECULE
NONAME
40 41 1 0 0 
SMALL
USER_CHARGES


@<TRIPOS>ATOM
  1 O       -1.1380    -3.2120     1.7570 O.2   1 <1>  -0.5700 
  2 C       -0.3920    -2.4690     1.1670 C.2   1 <1>   0.5690 
  3 N       -0.8120    -1.5930     0.2130 N.am  1 <1>  -0.4930 
  4 C        1.0880    -2.5200     1.5110 C.3   1 <1>   0.0450 
  5 C       -2.0860    -1.3490    -0.2940 C.2   1 <1>   0.3520 
  6 C        1.9340    -1.5940     0.6350 C.ar  1 <1>  -0.1440 
  7 N       -2.2800    -0.5040    -1.2450 N.2   1 <1>  -0.4100 
  8 C       -3.2910    -1.9270     0.1040 C.2   1 <1>  -0.1500 
  9 C        2.3490    -1.9590    -0.6430 C.ar  1 <1>  -0.1440 
 10 C        2.2710    -0.3430     1.1320 C.ar  1 <1>  -0.1500 
 11 O       -3.5690    -0.5150    -1.4770 O.3   1 <1>  -0.0190 
 12 C       -4.2030    -1.3510    -0.6930 C.2   1 <1>  -0.0400 
 13 C        3.0910    -1.0640    -1.3990 C.ar  1 <1>  -0.1500 
 14 C        2.0110    -3.3170    -1.2470 C.3   1 <1>  -0.0970 
 15 C        3.0110     0.5420     0.3710 C.ar  1 <1>  -0.1500 
 16 C       -5.7190    -1.5060    -0.8100 C.3   1 <1>   0.1800 
 17 C        3.4220     0.1810    -0.8970 C.ar  1 <1>  -0.1500 
 18 C       -6.3930    -0.1550    -0.5380 C.3   1 <1>  -0.2400 
 19 C       -6.0760    -1.9820    -2.2240 C.3   1 <1>  -0.2400 
 20 C       -6.2330    -2.5340     0.2070 C.3   1 <1>  -0.2400 
 21 H       -0.0810    -1.0350    -0.2330 H     1 <1>   0.3700 
 22 H        1.4270    -3.5350     1.4190 H     1 <1>   0.0800 
 23 H        1.1970    -2.2480     2.5440 H     1 <1>   0.0800 
 24 H       -3.4120    -2.6620     0.8770 H     1 <1>   0.1500 
 25 H        1.9570    -0.0440     2.1180 H     1 <1>   0.1500 
 26 H        3.4200    -1.3310    -2.3880 H     1 <1>   0.1500 
 27 H        0.9480    -3.4800    -1.2430 H     1 <1>   0.0800 
 28 H        2.4900    -4.0990    -0.6870 H     1 <1>   0.0800 
 29 H        2.3500    -3.3800    -2.2660 H     1 <1>   0.0800 
 30 H        3.2670     1.5110     0.7650 H     1 <1>   0.1500 
 31 H        3.9980     0.8670    -1.4930 H     1 <1>   0.1500 
 32 H       -6.1350     0.1970     0.4450 H     1 <1>   0.0800 
 33 H       -7.4630    -0.2440    -0.6020 H     1 <1>   0.0800 
 34 H       -6.0680     0.5780    -1.2540 H     1 <1>   0.0800 
 35 H       -5.7470    -1.2650    -2.9550 H     1 <1>   0.0800 
 36 H       -7.1380    -2.1100    -2.3260 H     1 <1>   0.0800 
 37 H       -5.5930    -2.9200    -2.4320 H     1 <1>   0.0800 
 38 H       -7.3000    -2.6450     0.1260 H     1 <1>   0.0800 
 39 H       -5.7780    -3.4930     0.0330 H     1 <1>   0.0800 
 40 H       -5.9990    -2.2210     1.2080 H     1 <1>   0.0800 
@<TRIPOS>BOND
  1   1   2  2   
  2   2   3  am  
  3   2   4  1   
  4   3   5  1   
  5   3  21  1   
  6   4   6  1   
  7   4  22  1   
  8   4  23  1   
  9   5   7  2   
 10   5   8  1   
 11   6   9  ar  
 12   6  10  ar  
 13   7  11  1   
 14   8  12  2   
 15   8  24  1   
 16   9  13  ar  
 17   9  14  1   
 18  10  15  ar  
 19  10  25  1   
 20  11  12  1   
 21  12  16  1   
 22  13  17  ar  
 23  13  26  1   
 24  14  27  1   
 25  14  28  1   
 26  14  29  1   
 27  15  17  ar  
 28  15  30  1   
 29  16  18  1   
 30  16  19  1   
 31  16  20  1   
 32  17  31  1   
 33  18  32  1   
 34  18  33  1   
 35  18  34  1   
 36  19  35  1   
 37  19  36  1   
 38  19  37  1   
 39  20  38  1   
 40  20  39  1   
 41  20  40  1   
@<TRIPOS>SUBSTRUCTURE
  1 ****   3 GROUP 4 **** **** 0

# MOE 2024.06 (io_trps.svl 2023.06)
