@<TRIPOS>MOLECULE
NONAME
39 40 1 0 0 
SMALL
USER_CHARGES


@<TRIPOS>ATOM
  1 S       -0.1780    -0.0540     0.5090 S.o2  1 <1>   1.4470 
  2 O       -0.5250    -0.4220     1.8630 O.2   1 <1>  -0.6500 
  3 O       -0.2540    -1.0330    -0.5520 O.2   1 <1>  -0.6500 
  4 N       -1.2640     1.1280     0.0260 N.am  1 <1>  -0.9140 
  5 C        1.4170     0.8080     0.4750 C.ar  1 <1>  -0.0090 
  6 C       -2.6360     0.8170     0.4010 C.3   1 <1>   0.1960 
  7 C        2.4890     0.3160    -0.2600 C.ar  1 <1>  -0.1500 
  8 C        1.6060     1.9860     1.1880 C.ar  1 <1>  -0.1500 
  9 C       -3.6070     1.8430    -0.2060 C.3   1 <1>  -0.0800 
 10 C        3.7060     0.9770    -0.2840 C.ar  1 <1>  -0.1500 
 11 C        2.8190     2.6510     1.1690 C.ar  1 <1>  -0.1500 
 12 C       -3.3320     3.2710     0.3070 C.3   1 <1>  -0.1600 
 13 C       -5.0590     1.4370     0.1040 C.3   1 <1>  -0.1600 
 14 C        3.8780     2.1490     0.4320 C.ar  1 <1>  -0.1430 
 15 C       -4.3370     4.2810    -0.2640 C.3   1 <1>  -0.1600 
 16 C       -6.0630     2.4440    -0.4720 C.3   1 <1>  -0.1600 
 17 C        5.2100     2.8760     0.4070 C.3   1 <1>  -0.0970 
 18 C       -5.7800     3.8610     0.0410 C.3   1 <1>  -0.1600 
 19 H       -1.2200     1.0890    -0.9890 H     1 <1>   0.4200 
 20 H       -2.7270     0.8280     1.4760 H     1 <1>   0.0800 
 21 H       -2.8900    -0.1710     0.0520 H     1 <1>   0.0800 
 22 H        2.3730    -0.5960    -0.8210 H     1 <1>   0.1500 
 23 H        0.7890     2.3850     1.7660 H     1 <1>   0.1500 
 24 H       -3.4830     1.8300    -1.2750 H     1 <1>   0.0800 
 25 H        4.5190     0.5730    -0.8630 H     1 <1>   0.1500 
 26 H        2.9340     3.5620     1.7300 H     1 <1>   0.1500 
 27 H       -2.3370     3.5770     0.0310 H     1 <1>   0.0800 
 28 H       -3.3900     3.2830     1.3820 H     1 <1>   0.0800 
 29 H       -5.1960     1.3770     1.1710 H     1 <1>   0.0800 
 30 H       -5.2620     0.4640    -0.3100 H     1 <1>   0.0800 
 31 H       -4.2040     4.3510    -1.3300 H     1 <1>   0.0800 
 32 H       -4.1480     5.2530     0.1570 H     1 <1>   0.0800 
 33 H       -7.0630     2.1550    -0.1960 H     1 <1>   0.0800 
 34 H       -6.0020     2.4360    -1.5470 H     1 <1>   0.0800 
 35 H        6.0170     2.1790     0.2720 H     1 <1>   0.0800 
 36 H        5.3690     3.4020     1.3310 H     1 <1>   0.0800 
 37 H        5.2230     3.5840    -0.4020 H     1 <1>   0.0800 
 38 H       -6.4620     4.5550    -0.4200 H     1 <1>   0.0800 
 39 H       -5.9440     3.8950     1.1040 H     1 <1>   0.0800 
@<TRIPOS>BOND
  1   1   2  2   
  2   1   3  2   
  3   1   4  am  
  4   1   5  1   
  5   4   6  1   
  6   4  19  1   
  7   5   7  ar  
  8   5   8  ar  
  9   6   9  1   
 10   6  20  1   
 11   6  21  1   
 12   7  10  ar  
 13   7  22  1   
 14   8  11  ar  
 15   8  23  1   
 16   9  12  1   
 17   9  13  1   
 18   9  24  1   
 19  10  14  ar  
 20  10  25  1   
 21  11  14  ar  
 22  11  26  1   
 23  12  15  1   
 24  12  27  1   
 25  12  28  1   
 26  13  16  1   
 27  13  29  1   
 28  13  30  1   
 29  14  17  1   
 30  15  18  1   
 31  15  31  1   
 32  15  32  1   
 33  16  18  1   
 34  16  33  1   
 35  16  34  1   
 36  17  35  1   
 37  17  36  1   
 38  17  37  1   
 39  18  38  1   
 40  18  39  1   
@<TRIPOS>SUBSTRUCTURE
  1 ****   4 GROUP 4 **** **** 0

# MOE 2024.06 (io_trps.svl 2023.06)
