@<TRIPOS>MOLECULE
NONAME
48 49 1 0 0 
SMALL
USER_CHARGES


@<TRIPOS>ATOM
  1 N        0.5930    -0.2390    -0.3600 N.4   1 <1>  -0.9590 
  2 C        1.9480     0.4010    -0.5660 C.3   1 <1>   0.3430 
  3 C        0.6490    -1.7140    -0.1240 C.3   1 <1>   0.3430 
  4 C       -0.2810     0.0530    -1.5370 C.3   1 <1>   0.3430 
  5 C        2.8970     0.3630     0.6690 C.3   1 <1>   0.3430 
  6 C        0.5080    -1.9830     1.3680 C.3   1 <1>  -0.2400 
  7 C       -1.7430    -0.0880    -1.1290 C.3   1 <1>  -0.2400 
  8 N        4.2250     1.0470     0.4550 N.4   1 <1>  -0.9590 
  9 C        5.1690     0.7800     1.5900 C.3   1 <1>   0.4860 
 10 C        4.1210     2.5300     0.2240 C.3   1 <1>   0.2630 
 11 C        6.5600     1.1430     1.1170 C.ar  1 <1>  -0.1440 
 12 C        7.2160     0.3280     0.1580 C.ar  1 <1>   0.0000 
 13 C        7.1560     2.2780     1.6030 C.ar  1 <1>  -0.1500 
 14 C        8.4620     0.7650    -0.3470 C.ar  1 <1>   0.0000 
 15 C        6.7070    -0.9030    -0.3260 C.ar  1 <1>  -0.1500 
 16 C        8.4080     2.6780     1.1300 C.ar  1 <1>  -0.1500 
 17 C        9.0390     1.9410     0.1700 C.ar  1 <1>  -0.1500 
 18 C        9.1030     0.0110    -1.3490 C.ar  1 <1>  -0.1500 
 19 C        7.3570    -1.6190    -1.2930 C.ar  1 <1>  -0.1500 
 20 C        8.5640    -1.1520    -1.8190 C.ar  1 <1>  -0.1500 
 21 H        0.1060     0.1830     0.4460 H     1 <1>   0.4500 
 22 H        1.7970     1.4320    -0.8370 H     1 <1>   0.0800 
 23 H        2.4380    -0.0880    -1.3920 H     1 <1>   0.0800 
 24 H        1.5710    -2.1290    -0.5000 H     1 <1>   0.0800 
 25 H       -0.1640    -2.2050    -0.6370 H     1 <1>   0.0800 
 26 H       -0.0560    -0.6180    -2.3520 H     1 <1>   0.0800 
 27 H       -0.1190     1.0630    -1.8780 H     1 <1>   0.0800 
 28 H        3.0790    -0.6690     0.9220 H     1 <1>   0.0800 
 29 H        2.3980     0.8280     1.5040 H     1 <1>   0.0800 
 30 H        1.3120    -1.5580     1.9390 H     1 <1>   0.0800 
 31 H        0.5180    -3.0470     1.5330 H     1 <1>   0.0800 
 32 H       -0.4340    -1.6110     1.7340 H     1 <1>   0.0800 
 33 H       -1.9840    -1.0950    -0.8380 H     1 <1>   0.0800 
 34 H       -2.3670     0.1620    -1.9700 H     1 <1>   0.0800 
 35 H       -1.9890     0.5880    -0.3290 H     1 <1>   0.0800 
 36 H        4.7260     0.6530    -0.3610 H     1 <1>   0.4500 
 37 H        5.1520    -0.2610     1.8700 H     1 <1>   0.0800 
 38 H        4.9030     1.3710     2.4520 H     1 <1>   0.0800 
 39 H        3.6870     3.0190     1.0820 H     1 <1>   0.0800 
 40 H        3.5160     2.7430    -0.6420 H     1 <1>   0.0800 
 41 H        5.1010     2.9510     0.0550 H     1 <1>   0.0800 
 42 H        6.6880     2.8980     2.3500 H     1 <1>   0.1500 
 43 H        5.8020    -1.3120     0.0760 H     1 <1>   0.1500 
 44 H        8.8640     3.5710     1.5260 H     1 <1>   0.1500 
 45 H        9.9990     2.2490    -0.2060 H     1 <1>   0.1500 
 46 H       10.0400     0.3680    -1.7410 H     1 <1>   0.1500 
 47 H        6.9670    -2.5540    -1.6600 H     1 <1>   0.1500 
 48 H        9.0620    -1.7240    -2.5840 H     1 <1>   0.1500 
@<TRIPOS>BOND
  1   1   2  1   
  2   1   3  1   
  3   1   4  1   
  4   1  21  1   
  5   2   5  1   
  6   2  22  1   
  7   2  23  1   
  8   3   6  1   
  9   3  24  1   
 10   3  25  1   
 11   4   7  1   
 12   4  26  1   
 13   4  27  1   
 14   5   8  1   
 15   5  28  1   
 16   5  29  1   
 17   6  30  1   
 18   6  31  1   
 19   6  32  1   
 20   7  33  1   
 21   7  34  1   
 22   7  35  1   
 23   8   9  1   
 24   8  10  1   
 25   8  36  1   
 26   9  11  1   
 27   9  37  1   
 28   9  38  1   
 29  10  39  1   
 30  10  40  1   
 31  10  41  1   
 32  11  12  ar  
 33  11  13  ar  
 34  12  14  ar  
 35  12  15  ar  
 36  13  16  ar  
 37  13  42  1   
 38  14  17  ar  
 39  14  18  ar  
 40  15  19  ar  
 41  15  43  1   
 42  16  17  ar  
 43  16  44  1   
 44  17  45  1   
 45  18  20  ar  
 46  18  46  1   
 47  19  20  ar  
 48  19  47  1   
 49  20  48  1   
@<TRIPOS>SUBSTRUCTURE
  1 ****   8 GROUP 4 **** **** 0

# MOE 2024.06 (io_trps.svl 2023.06)
