@<TRIPOS>MOLECULE
NONAME
38 38 1 0 0 
SMALL
USER_CHARGES


@<TRIPOS>ATOM
  1 O       -0.7350    -1.6110    -1.4160 O.2   1 <1>  -0.5700 
  2 C       -0.5040    -2.0670    -0.3140 C.2   1 <1>   0.5440 
  3 N        0.7390    -1.9170     0.2430 N.am  1 <1>  -0.7300 
  4 C       -1.5490    -2.7530     0.4260 C.ar  1 <1>   0.0860 
  5 C        1.9400    -1.2840    -0.3120 C.3   1 <1>   0.3000 
  6 C       -2.8860    -2.3910     0.2650 C.ar  1 <1>  -0.1500 
  7 C       -1.2630    -3.7890     1.3180 C.ar  1 <1>  -0.1500 
  8 C        2.3600    -1.9980    -1.5970 C.3   1 <1>  -0.2400 
  9 C        3.0360    -1.4430     0.7400 C.3   1 <1>  -0.2400 
 10 C        1.6780     0.2020    -0.5560 C.3   1 <1>  -0.2400 
 11 C       -3.9010    -3.0250     0.9720 C.ar  1 <1>   0.0830 
 12 C       -2.2640    -4.4250     2.0280 C.ar  1 <1>  -0.1500 
 13 O       -5.2190    -2.7170     0.8600 O.3   1 <1>  -0.3630 
 14 C       -3.5800    -4.0410     1.8560 C.ar  1 <1>  -0.1500 
 15 C       -5.7200    -1.7840    -0.0720 C.3   1 <1>   0.2000 
 16 C       -7.1130    -1.3810     0.4060 C.3   1 <1>  -0.2400 
 17 C       -5.7820    -2.4420    -1.4520 C.3   1 <1>  -0.2400 
 18 H        0.8550    -2.1980     1.2130 H     1 <1>   0.3700 
 19 H       -3.1030    -1.6020    -0.4290 H     1 <1>   0.1500 
 20 H       -0.2450    -4.1090     1.4510 H     1 <1>   0.1500 
 21 H        1.6210    -1.8640    -2.3650 H     1 <1>   0.0800 
 22 H        2.4910    -3.0490    -1.4190 H     1 <1>   0.0800 
 23 H        3.2880    -1.5930    -1.9600 H     1 <1>   0.0800 
 24 H        3.2250    -2.4830     0.9350 H     1 <1>   0.0800 
 25 H        2.7570    -0.9530     1.6560 H     1 <1>   0.0800 
 26 H        3.9500    -0.9980     0.3890 H     1 <1>   0.0800 
 27 H        1.3420     0.6790     0.3470 H     1 <1>   0.0800 
 28 H        0.9320     0.3350    -1.3190 H     1 <1>   0.0800 
 29 H        2.5770     0.6880    -0.8860 H     1 <1>   0.0800 
 30 H       -2.0230    -5.2210     2.7130 H     1 <1>   0.1500 
 31 H       -4.3680    -4.5280     2.4030 H     1 <1>   0.1500 
 32 H       -5.0850    -0.9150    -0.0740 H     1 <1>   0.0800 
 33 H       -7.7570    -2.2400     0.4490 H     1 <1>   0.0800 
 34 H       -7.5400    -0.6620    -0.2680 H     1 <1>   0.0800 
 35 H       -7.0490    -0.9350     1.3830 H     1 <1>   0.0800 
 36 H       -6.4060    -3.3170    -1.4200 H     1 <1>   0.0800 
 37 H       -4.8000    -2.7220    -1.7850 H     1 <1>   0.0800 
 38 H       -6.1940    -1.7530    -2.1680 H     1 <1>   0.0800 
@<TRIPOS>BOND
  1   1   2  2   
  2   2   3  am  
  3   2   4  1   
  4   3   5  1   
  5   3  18  1   
  6   4   6  ar  
  7   4   7  ar  
  8   5   8  1   
  9   5   9  1   
 10   5  10  1   
 11   6  11  ar  
 12   6  19  1   
 13   7  12  ar  
 14   7  20  1   
 15   8  21  1   
 16   8  22  1   
 17   8  23  1   
 18   9  24  1   
 19   9  25  1   
 20   9  26  1   
 21  10  27  1   
 22  10  28  1   
 23  10  29  1   
 24  11  13  1   
 25  11  14  ar  
 26  12  14  ar  
 27  12  30  1   
 28  13  15  1   
 29  14  31  1   
 30  15  16  1   
 31  15  17  1   
 32  15  32  1   
 33  16  33  1   
 34  16  34  1   
 35  16  35  1   
 36  17  36  1   
 37  17  37  1   
 38  17  38  1   
@<TRIPOS>SUBSTRUCTURE
  1 ****   4 GROUP 4 **** **** 0

# MOE 2024.06 (io_trps.svl 2023.06)
