@<TRIPOS>MOLECULE
NONAME
28 28 1 0 0 
SMALL
USER_CHARGES


@<TRIPOS>ATOM
  1 S        0.1400    -0.6350     1.1120 S.o2  1 <1>   1.4470 
  2 O        0.1530    -1.3340     2.3820 O.2   1 <1>  -0.6500 
  3 O        0.2800     0.8050     1.1040 O.2   1 <1>  -0.6500 
  4 N        1.3420    -1.3040     0.1240 N.am  1 <1>  -0.8490 
  5 C       -1.3800    -1.0580     0.2100 C.ar  1 <1>  -0.0090 
  6 C        2.6760    -0.6280     0.3090 C.3   1 <1>   0.0900 
  7 C        1.4600    -2.7590     0.2430 C.3   1 <1>   0.1960 
  8 C       -2.5100    -1.5260     0.8790 C.ar  1 <1>  -0.1500 
  9 C       -1.4460    -0.9080    -1.1750 C.ar  1 <1>  -0.1500 
 10 C        3.9000    -1.1440    -0.4680 C.2   1 <1>   0.9060 
 11 C        1.5430    -3.3660    -1.1550 C.3   1 <1>  -0.2400 
 12 C       -3.6710    -1.8430     0.1930 C.ar  1 <1>  -0.1500 
 13 C       -2.5970    -1.2200    -1.8790 C.ar  1 <1>  -0.1500 
 14 O        4.2270    -0.5940    -1.5270 O.co2 1 <1>  -0.9000 
 15 O        4.5470    -2.0920     0.0020 O.co2 1 <1>  -0.9000 
 16 C       -3.6910    -1.6840    -1.1780 C.ar  1 <1>   0.1900 
 17 F       -4.7800    -1.9830    -1.8320 F     1 <1>  -0.1900 
 18 H        2.9410    -0.6710     1.3490 H     1 <1>   0.0800 
 19 H        2.5730     0.4080     0.0460 H     1 <1>   0.0800 
 20 H        0.5950    -3.1720     0.7330 H     1 <1>   0.0800 
 21 H        2.3260    -3.0280     0.8270 H     1 <1>   0.0800 
 22 H       -2.4750    -1.6430     1.9500 H     1 <1>   0.1500 
 23 H       -0.5770    -0.5440    -1.7020 H     1 <1>   0.1500 
 24 H        0.6670    -3.1140    -1.7240 H     1 <1>   0.0800 
 25 H        1.6140    -4.4340    -1.0790 H     1 <1>   0.0800 
 26 H        2.4160    -3.0090    -1.6710 H     1 <1>   0.0800 
 27 H       -4.5440    -2.2050     0.7080 H     1 <1>   0.1500 
 28 H       -2.6440    -1.1060    -2.9470 H     1 <1>   0.1500 
@<TRIPOS>BOND
  1   1   2  2   
  2   1   3  2   
  3   1   4  am  
  4   1   5  1   
  5   4   6  1   
  6   4   7  1   
  7   5   8  ar  
  8   5   9  ar  
  9   6  10  1   
 10   6  18  1   
 11   6  19  1   
 12   7  11  1   
 13   7  20  1   
 14   7  21  1   
 15   8  12  ar  
 16   8  22  1   
 17   9  13  ar  
 18   9  23  1   
 19  10  14  ar  
 20  10  15  ar  
 21  11  24  1   
 22  11  25  1   
 23  11  26  1   
 24  12  16  ar  
 25  12  27  1   
 26  13  16  ar  
 27  13  28  1   
 28  16  17  1   
@<TRIPOS>SUBSTRUCTURE
  1 ****   4 GROUP 4 **** **** 0

# MOE 2024.06 (io_trps.svl 2023.06)
