@<TRIPOS>MOLECULE
NONAME
49 50 1 0 0 
SMALL
USER_CHARGES


@<TRIPOS>ATOM
  1 BR       0.0100     0.6090     0.4850 Br    1 <1>  -0.1110 
  2 C        0.9890     2.1530    -0.1290 C.ar  1 <1>   0.1110 
  3 C        0.3370     3.3680    -0.2720 C.ar  1 <1>   0.0820 
  4 C        2.3310     1.9900    -0.4210 C.ar  1 <1>  -0.1500 
  5 O       -0.9850     3.4520     0.0110 O.3   1 <1>  -0.3630 
  6 C        1.0800     4.4680    -0.7110 C.ar  1 <1>   0.0820 
  7 C        3.0590     3.0830    -0.8730 C.ar  1 <1>  -0.1440 
  8 C       -1.8510     3.4940    -1.1040 C.3   1 <1>   0.2640 
  9 O        0.5670     5.7160    -0.8650 O.3   1 <1>  -0.3630 
 10 C        2.4230     4.3100    -1.0200 C.ar  1 <1>  -0.1500 
 11 C        4.5320     2.9490    -1.1910 C.3   1 <1>   0.4870 
 12 C       -3.2440     3.8670    -0.6240 C.ar  1 <1>  -0.1440 
 13 C       -0.1750     6.2820     0.1980 C.3   1 <1>   0.0400 
 14 N        5.2640     3.4280    -0.0040 N.4   1 <1>  -0.9060 
 15 C       -3.8820     3.0810     0.3290 C.ar  1 <1>  -0.1500 
 16 C       -3.8830     4.9910    -1.1350 C.ar  1 <1>  -0.1500 
 17 C        6.7350     3.4100     0.0020 C.3   1 <1>   0.5030 
 18 C       -5.1520     3.4100     0.7720 C.ar  1 <1>  -0.1500 
 19 C       -5.1540     5.3310    -0.7000 C.ar  1 <1>  -0.1500 
 20 C        7.1880     4.3410     1.1600 C.3   1 <1>   0.1200 
 21 C        7.2690     3.9490    -1.3300 C.3   1 <1>  -0.2400 
 22 C        7.2070     1.9750     0.2280 C.3   1 <1>  -0.2400 
 23 C       -5.7640     4.5310     0.2470 C.ar  1 <1>   0.1900 
 24 O        6.3630     5.4740     1.2150 O.3   1 <1>  -0.6800 
 25 F       -6.9620     4.8470     0.6600 F     1 <1>  -0.1900 
 26 H        2.7770     1.0190    -0.2930 H     1 <1>   0.1500 
 27 H       -1.8560     2.5210    -1.5620 H     1 <1>   0.0800 
 28 H       -1.4780     4.2210    -1.8040 H     1 <1>   0.0800 
 29 H        2.9580     5.1750    -1.3740 H     1 <1>   0.1500 
 30 H        4.7760     3.5470    -2.0550 H     1 <1>   0.0800 
 31 H        4.7760     1.9190    -1.3960 H     1 <1>   0.0800 
 32 H       -0.1610     7.3510     0.0850 H     1 <1>   0.0800 
 33 H        0.2770     6.0060     1.1350 H     1 <1>   0.0800 
 34 H       -1.1890     5.9300     0.1540 H     1 <1>   0.0800 
 35 H        4.9120     2.9470     0.8260 H     1 <1>   0.4500 
 36 H        5.0360     4.4220     0.1670 H     1 <1>   0.4500 
 37 H       -3.3850     2.2130     0.7290 H     1 <1>   0.1500 
 38 H       -3.3970     5.6070    -1.8720 H     1 <1>   0.1500 
 39 H       -5.6580     2.8120     1.5080 H     1 <1>   0.1500 
 40 H       -5.6630     6.1960    -1.0830 H     1 <1>   0.1500 
 41 H        8.2070     4.6600     1.0190 H     1 <1>   0.0800 
 42 H        7.1170     3.8340     2.1070 H     1 <1>   0.0800 
 43 H        6.8800     4.9320    -1.5290 H     1 <1>   0.0800 
 44 H        7.0350     3.2960    -2.1510 H     1 <1>   0.0800 
 45 H        8.3410     4.0270    -1.2860 H     1 <1>   0.0800 
 46 H        8.2810     1.9500     0.2780 H     1 <1>   0.0800 
 47 H        6.8250     1.5830     1.1540 H     1 <1>   0.0800 
 48 H        6.9030     1.3330    -0.5800 H     1 <1>   0.0800 
 49 H        6.6990     6.1240     1.8730 H     1 <1>   0.4000 
@<TRIPOS>BOND
  1   1   2  1   
  2   2   3  ar  
  3   2   4  ar  
  4   3   5  1   
  5   3   6  ar  
  6   4   7  ar  
  7   4  26  1   
  8   5   8  1   
  9   6   9  1   
 10   6  10  ar  
 11   7  10  ar  
 12   7  11  1   
 13   8  12  1   
 14   8  27  1   
 15   8  28  1   
 16   9  13  1   
 17  10  29  1   
 18  11  14  1   
 19  11  30  1   
 20  11  31  1   
 21  12  15  ar  
 22  12  16  ar  
 23  13  32  1   
 24  13  33  1   
 25  13  34  1   
 26  14  17  1   
 27  14  35  1   
 28  14  36  1   
 29  15  18  ar  
 30  15  37  1   
 31  16  19  ar  
 32  16  38  1   
 33  17  20  1   
 34  17  21  1   
 35  17  22  1   
 36  18  23  ar  
 37  18  39  1   
 38  19  23  ar  
 39  19  40  1   
 40  20  24  1   
 41  20  41  1   
 42  20  42  1   
 43  21  43  1   
 44  21  44  1   
 45  21  45  1   
 46  22  46  1   
 47  22  47  1   
 48  22  48  1   
 49  23  25  1   
 50  24  49  1   
@<TRIPOS>SUBSTRUCTURE
  1 ****   3 GROUP 4 **** **** 0

# MOE 2024.06 (io_trps.svl 2023.06)
