@<TRIPOS>MOLECULE
NONAME
51 53 1 0 0 
SMALL
USER_CHARGES


@<TRIPOS>ATOM
  1 O       -2.2420    -2.5240    -0.6580 O.3   1 <1>  -0.3630 
  2 C       -3.5620    -2.6100    -0.9580 C.ar  1 <1>   0.0830 
  3 C       -1.5210    -3.6480    -0.1910 C.3   1 <1>   0.1200 
  4 C       -4.1960    -1.4360    -1.3340 C.ar  1 <1>  -0.1500 
  5 C       -4.2930    -3.7950    -0.9070 C.ar  1 <1>  -0.1500 
  6 C       -0.0710    -3.2350     0.0860 C.3   1 <1>   0.2000 
  7 C       -5.5420    -1.4350    -1.6540 C.ar  1 <1>  -0.1500 
  8 C       -5.6400    -3.7920    -1.2280 C.ar  1 <1>  -0.1500 
  9 O        0.4390    -2.6280    -1.0570 O.3   1 <1>  -0.6800 
 10 C        0.8040    -4.4410     0.5050 C.3   1 <1>   0.1100 
 11 C       -6.2650    -2.6140    -1.6010 C.ar  1 <1>  -0.1500 
 12 N        2.2580    -4.1620     0.5210 N.3   1 <1>  -0.8100 
 13 C        2.6680    -3.0980     1.4730 C.3   1 <1>   0.1100 
 14 C        3.0910    -5.3730     0.6710 C.3   1 <1>   0.1100 
 15 C        4.1920    -2.8270     1.4200 C.3   1 <1>   0.3430 
 16 C        4.5900    -5.0580     0.4330 C.3   1 <1>   0.3430 
 17 N        4.8110    -3.5830     0.2810 N.4   1 <1>  -0.9590 
 18 C        6.2060    -3.1930    -0.0410 C.3   1 <1>   0.4860 
 19 C        6.2660    -1.6920    -0.2570 C.ar  1 <1>  -0.1430 
 20 C        6.9370    -0.8860     0.6520 C.ar  1 <1>  -0.1500 
 21 C        5.6450    -1.1120    -1.3550 C.ar  1 <1>  -0.1500 
 22 C        6.9790     0.4850     0.4690 C.ar  1 <1>  -0.1500 
 23 C        5.6870     0.2590    -1.5350 C.ar  1 <1>  -0.1500 
 24 C        6.3530     1.0580    -0.6230 C.ar  1 <1>  -0.1500 
 25 H       -1.5530    -4.4130    -0.9480 H     1 <1>   0.0800 
 26 H       -1.9900    -4.0020     0.7100 H     1 <1>   0.0800 
 27 H       -3.6300    -0.5230    -1.3730 H     1 <1>   0.1500 
 28 H       -3.8380    -4.7250    -0.6250 H     1 <1>   0.1500 
 29 H       -0.0720    -2.5010     0.8720 H     1 <1>   0.0800 
 30 H       -6.0260    -0.5190    -1.9450 H     1 <1>   0.1500 
 31 H       -6.2050    -4.7080    -1.1890 H     1 <1>   0.1500 
 32 H       -0.2590    -2.0510    -1.4340 H     1 <1>   0.4000 
 33 H        0.6170    -5.2380    -0.1950 H     1 <1>   0.0800 
 34 H        0.4910    -4.7830     1.4770 H     1 <1>   0.0800 
 35 H       -7.3120    -2.6150    -1.8500 H     1 <1>   0.1500 
 36 H        2.3850    -3.3660     2.4760 H     1 <1>   0.0800 
 37 H        2.1600    -2.1830     1.2220 H     1 <1>   0.0800 
 38 H        2.7780    -6.1180    -0.0420 H     1 <1>   0.0800 
 39 H        2.9600    -5.7880     1.6560 H     1 <1>   0.0800 
 40 H        4.6440    -3.1240     2.3510 H     1 <1>   0.0800 
 41 H        4.3490    -1.7680     1.2970 H     1 <1>   0.0800 
 42 H        4.9120    -5.5670    -0.4600 H     1 <1>   0.0800 
 43 H        5.1690    -5.4400     1.2580 H     1 <1>   0.0800 
 44 H        4.1980    -3.3190    -0.5080 H     1 <1>   0.4500 
 45 H        6.5330    -3.6940    -0.9380 H     1 <1>   0.0800 
 46 H        6.8640    -3.4700     0.7660 H     1 <1>   0.0800 
 47 H        7.4350    -1.3090     1.5080 H     1 <1>   0.1500 
 48 H        5.1230    -1.7130    -2.0800 H     1 <1>   0.1500 
 49 H        7.5000     1.1110     1.1740 H     1 <1>   0.1500 
 50 H        5.2040     0.7080    -2.3870 H     1 <1>   0.1500 
 51 H        6.3860     2.1250    -0.7650 H     1 <1>   0.1500 
@<TRIPOS>BOND
  1   1   2  1   
  2   1   3  1   
  3   2   4  ar  
  4   2   5  ar  
  5   3   6  1   
  6   3  25  1   
  7   3  26  1   
  8   4   7  ar  
  9   4  27  1   
 10   5   8  ar  
 11   5  28  1   
 12   6   9  1   
 13   6  10  1   
 14   6  29  1   
 15   7  11  ar  
 16   7  30  1   
 17   8  11  ar  
 18   8  31  1   
 19   9  32  1   
 20  10  12  1   
 21  10  33  1   
 22  10  34  1   
 23  11  35  1   
 24  12  13  1   
 25  12  14  1   
 26  13  15  1   
 27  13  36  1   
 28  13  37  1   
 29  14  16  1   
 30  14  38  1   
 31  14  39  1   
 32  15  17  1   
 33  15  40  1   
 34  15  41  1   
 35  16  17  1   
 36  16  42  1   
 37  16  43  1   
 38  17  18  1   
 39  17  44  1   
 40  18  19  1   
 41  18  45  1   
 42  18  46  1   
 43  19  20  ar  
 44  19  21  ar  
 45  20  22  ar  
 46  20  47  1   
 47  21  23  ar  
 48  21  48  1   
 49  22  24  ar  
 50  22  49  1   
 51  23  24  ar  
 52  23  50  1   
 53  24  51  1   
@<TRIPOS>SUBSTRUCTURE
  1 ****   9 GROUP 4 **** **** 0

# MOE 2024.06 (io_trps.svl 2023.06)
