@<TRIPOS>MOLECULE
NONAME
32 32 1 0 0 
SMALL
USER_CHARGES


@<TRIPOS>ATOM
  1 BR       0.4050     0.0490     0.0140 Br    1 <1>  -0.1110 
  2 C        0.1750     1.9570    -0.1680 C.ar  1 <1>   0.1110 
  3 C        1.2860     2.7600    -0.3740 C.ar  1 <1>   0.0820 
  4 C       -1.1080     2.4630    -0.0860 C.ar  1 <1>  -0.1500 
  5 O        2.5080     2.1700    -0.4410 O.3   1 <1>  -0.3630 
  6 C        1.0780     4.1290    -0.5000 C.ar  1 <1>  -0.1500 
  7 C       -1.3210     3.8340    -0.2110 C.ar  1 <1>  -0.1430 
  8 C        3.6890     2.9330    -0.6500 C.3   1 <1>   0.1810 
  9 C       -0.2060     4.6460    -0.4190 C.ar  1 <1>  -0.1500 
 10 C       -2.7230     4.4740    -0.1310 C.3   1 <1>   0.1440 
 11 C        4.9220     2.0370    -0.6850 C.2   1 <1>   0.5690 
 12 C       -3.0300     5.2060    -1.4450 C.3   1 <1>  -0.2400 
 13 C       -2.7650     5.4750     1.0340 C.3   1 <1>  -0.2400 
 14 C       -3.8440     3.4460     0.1010 C.3   1 <1>  -0.2400 
 15 O        6.0070     2.5330    -0.8550 O.2   1 <1>  -0.5700 
 16 N        4.8060     0.7020    -0.5280 N.am  1 <1>  -0.8000 
 17 H       -1.9090     1.7680     0.0750 H     1 <1>   0.1500 
 18 H        1.8920     4.8090    -0.6610 H     1 <1>   0.1500 
 19 H        3.7870     3.6380     0.1540 H     1 <1>   0.0800 
 20 H        3.6000     3.4490    -1.5880 H     1 <1>   0.0800 
 21 H       -0.3290     5.7090    -0.5210 H     1 <1>   0.1500 
 22 H       -2.9700     4.5200    -2.2710 H     1 <1>   0.0800 
 23 H       -4.0190     5.6280    -1.4230 H     1 <1>   0.0800 
 24 H       -2.3330     6.0040    -1.6190 H     1 <1>   0.0800 
 25 H       -2.5180     4.9780     1.9550 H     1 <1>   0.0800 
 26 H       -3.7460     5.9050     1.1300 H     1 <1>   0.0800 
 27 H       -2.0650     6.2760     0.8850 H     1 <1>   0.0800 
 28 H       -3.6910     2.9220     1.0270 H     1 <1>   0.0800 
 29 H       -3.8760     2.7340    -0.7050 H     1 <1>   0.0800 
 30 H       -4.8010     3.9340     0.1500 H     1 <1>   0.0800 
 31 H        5.6290     0.1010    -0.5510 H     1 <1>   0.3700 
 32 H        3.8960     0.2590    -0.3830 H     1 <1>   0.3700 
@<TRIPOS>BOND
  1   1   2  1   
  2   2   3  ar  
  3   2   4  ar  
  4   3   5  1   
  5   3   6  ar  
  6   4   7  ar  
  7   4  17  1   
  8   5   8  1   
  9   6   9  ar  
 10   6  18  1   
 11   7   9  ar  
 12   7  10  1   
 13   8  11  1   
 14   8  19  1   
 15   8  20  1   
 16   9  21  1   
 17  10  12  1   
 18  10  13  1   
 19  10  14  1   
 20  11  15  2   
 21  11  16  am  
 22  12  22  1   
 23  12  23  1   
 24  12  24  1   
 25  13  25  1   
 26  13  26  1   
 27  13  27  1   
 28  14  28  1   
 29  14  29  1   
 30  14  30  1   
 31  16  31  1   
 32  16  32  1   
@<TRIPOS>SUBSTRUCTURE
  1 ****   3 GROUP 4 **** **** 0

# MOE 2024.06 (io_trps.svl 2023.06)
