@<TRIPOS>MOLECULE
NONAME
36 36 1 0 0 
SMALL
USER_CHARGES


@<TRIPOS>ATOM
  1 S        0.2050    -0.3170     2.0440 S.o2  1 <1>   1.3330 
  2 O       -0.1220     1.0800     2.1960 O.2   1 <1>  -0.6500 
  3 O       -0.2500    -1.3060     2.9880 O.2   1 <1>  -0.6500 
  4 N        1.9110    -0.4640     2.0500 N.am  1 <1>  -0.7570 
  5 C       -0.2080    -0.8600     0.3830 C.3   1 <1>  -0.0550 
  6 C        2.7500     0.1000     1.0950 C.ar  1 <1>   0.1990 
  7 C       -1.7180    -0.8890     0.0990 C.3   1 <1>  -0.1600 
  8 C        3.6120    -0.7180     0.3570 C.ar  1 <1>   0.0830 
  9 C        2.7420     1.4670     0.8550 C.ar  1 <1>  -0.1500 
 10 C       -2.0050    -1.3540    -1.3330 C.3   1 <1>  -0.1600 
 11 O        3.5820    -2.0600     0.6240 O.3   1 <1>  -0.3630 
 12 C        4.4400    -0.1540    -0.6070 C.ar  1 <1>  -0.1500 
 13 C        3.5630     2.0280    -0.1080 C.ar  1 <1>  -0.1430 
 14 C       -3.5100    -1.3780    -1.6100 C.3   1 <1>  -0.2400 
 15 C        4.5160    -2.9380     0.0330 C.3   1 <1>   0.0400 
 16 C        4.4120     1.2120    -0.8360 C.ar  1 <1>  -0.1500 
 17 C        3.5390     3.5250    -0.3590 C.3   1 <1>  -0.0970 
 18 H        2.1690    -1.4100     2.3210 H     1 <1>   0.4200 
 19 H        0.1930    -1.8430     0.2300 H     1 <1>   0.0800 
 20 H        0.2620    -0.2020    -0.3230 H     1 <1>   0.0800 
 21 H       -2.1240     0.0980     0.2480 H     1 <1>   0.0800 
 22 H       -2.1970    -1.5540     0.8000 H     1 <1>   0.0800 
 23 H        2.0880     2.0940     1.4360 H     1 <1>   0.1500 
 24 H       -1.6030    -2.3430    -1.4830 H     1 <1>   0.0800 
 25 H       -1.5280    -0.6900    -2.0340 H     1 <1>   0.0800 
 26 H        5.1120    -0.7530    -1.1920 H     1 <1>   0.1500 
 27 H       -4.0070    -2.0540    -0.9350 H     1 <1>   0.0800 
 28 H       -3.6940    -1.7060    -2.6180 H     1 <1>   0.0800 
 29 H       -3.9310    -0.3960    -1.4890 H     1 <1>   0.0800 
 30 H        4.3460    -3.9240     0.4290 H     1 <1>   0.0800 
 31 H        5.5100    -2.6120     0.2830 H     1 <1>   0.0800 
 32 H        4.3680    -2.9440    -1.0320 H     1 <1>   0.0800 
 33 H        5.0580     1.6380    -1.5850 H     1 <1>   0.1500 
 34 H        3.6600     3.7310    -1.4070 H     1 <1>   0.0800 
 35 H        4.3390     3.9970     0.1830 H     1 <1>   0.0800 
 36 H        2.6050     3.9480    -0.0350 H     1 <1>   0.0800 
@<TRIPOS>BOND
  1   1   2  2   
  2   1   3  2   
  3   1   4  am  
  4   1   5  1   
  5   4   6  1   
  6   4  18  1   
  7   5   7  1   
  8   5  19  1   
  9   5  20  1   
 10   6   8  ar  
 11   6   9  ar  
 12   7  10  1   
 13   7  21  1   
 14   7  22  1   
 15   8  11  1   
 16   8  12  ar  
 17   9  13  ar  
 18   9  23  1   
 19  10  14  1   
 20  10  24  1   
 21  10  25  1   
 22  11  15  1   
 23  12  16  ar  
 24  12  26  1   
 25  13  16  ar  
 26  13  17  1   
 27  14  27  1   
 28  14  28  1   
 29  14  29  1   
 30  15  30  1   
 31  15  31  1   
 32  15  32  1   
 33  16  33  1   
 34  17  34  1   
 35  17  35  1   
 36  17  36  1   
@<TRIPOS>SUBSTRUCTURE
  1 ****   6 GROUP 4 **** **** 0

# MOE 2024.06 (io_trps.svl 2023.06)
