@<TRIPOS>MOLECULE
NONAME
34 35 1 0 0 
SMALL
USER_CHARGES


@<TRIPOS>ATOM
  1 S       -0.0810     0.2050    -0.3220 S.o2  1 <1>   1.4470 
  2 O       -0.2040    -1.0090     0.4540 O.2   1 <1>  -0.6500 
  3 O        0.1130     0.1120    -1.7530 O.2   1 <1>  -0.6500 
  4 N        1.2760     1.0280     0.2770 N.am  1 <1>  -0.8490 
  5 C       -1.4560     1.3020     0.0990 C.ar  1 <1>  -0.0090 
  6 C        2.4240     0.1420     0.5050 C.3   1 <1>   0.1960 
  7 C        1.6840     2.1960    -0.5390 C.3   1 <1>   0.1960 
  8 C       -2.6610     1.2220    -0.5870 C.ar  1 <1>   0.1900 
  9 C       -1.3820     2.2320     1.1340 C.ar  1 <1>  -0.1500 
 10 C        3.5890     0.8850     1.2110 C.3   1 <1>   0.2000 
 11 C        3.1580     2.6330    -0.3310 C.3   1 <1>   0.2000 
 12 F       -2.7950     0.3470    -1.5450 F     1 <1>  -0.1900 
 13 C       -3.7570     2.0260    -0.3090 C.ar  1 <1>  -0.1500 
 14 C       -2.4730     3.0360     1.4140 C.ar  1 <1>   0.1900 
 15 O        3.6210     2.2600     0.9300 O.3   1 <1>  -0.5600 
 16 C        4.9590     0.3010     0.8590 C.3   1 <1>  -0.2400 
 17 C        3.3400     4.1450    -0.4440 C.3   1 <1>  -0.2400 
 18 C       -3.6610     2.9550     0.7120 C.ar  1 <1>  -0.1500 
 19 F       -2.3750     3.9070     2.3810 F     1 <1>  -0.1900 
 20 H        2.7600    -0.2560    -0.4390 H     1 <1>   0.0800 
 21 H        2.1370    -0.6930     1.1210 H     1 <1>   0.0800 
 22 H        1.0350     3.0200    -0.3010 H     1 <1>   0.0800 
 23 H        1.5620     1.9930    -1.5890 H     1 <1>   0.0800 
 24 H       -0.4870     2.3320     1.7240 H     1 <1>   0.1500 
 25 H        3.4440     0.8020     2.2740 H     1 <1>   0.0800 
 26 H        3.7800     2.1500    -1.0650 H     1 <1>   0.0800 
 27 H       -4.6620     1.9190    -0.8800 H     1 <1>   0.1500 
 28 H        5.1460     0.3730    -0.1970 H     1 <1>   0.0800 
 29 H        5.0000    -0.7350     1.1440 H     1 <1>   0.0800 
 30 H        5.7260     0.8300     1.3940 H     1 <1>   0.0800 
 31 H        2.7620     4.6470     0.3120 H     1 <1>   0.0800 
 32 H        3.0200     4.4870    -1.4120 H     1 <1>   0.0800 
 33 H        4.3780     4.3960    -0.3190 H     1 <1>   0.0800 
 34 H       -4.4850     3.6010     0.9630 H     1 <1>   0.1500 
@<TRIPOS>BOND
  1   1   2  2   
  2   1   3  2   
  3   1   4  am  
  4   1   5  1   
  5   4   6  1   
  6   4   7  1   
  7   5   8  ar  
  8   5   9  ar  
  9   6  10  1   
 10   6  20  1   
 11   6  21  1   
 12   7  11  1   
 13   7  22  1   
 14   7  23  1   
 15   8  12  1   
 16   8  13  ar  
 17   9  14  ar  
 18   9  24  1   
 19  10  15  1   
 20  10  16  1   
 21  10  25  1   
 22  11  15  1   
 23  11  17  1   
 24  11  26  1   
 25  13  18  ar  
 26  13  27  1   
 27  14  18  ar  
 28  14  19  1   
 29  16  28  1   
 30  16  29  1   
 31  16  30  1   
 32  17  31  1   
 33  17  32  1   
 34  17  33  1   
 35  18  34  1   
@<TRIPOS>SUBSTRUCTURE
  1 ****   4 GROUP 4 **** **** 0

# MOE 2024.06 (io_trps.svl 2023.06)
