@<TRIPOS>MOLECULE
NONAME
51 52 1 0 0 
SMALL
USER_CHARGES


@<TRIPOS>ATOM
  1 O        0.2360    -0.1570     0.1820 O.3   1 <1>  -0.3630 
  2 C       -0.9920    -0.7340     0.0690 C.ar  1 <1>   0.0830 
  3 C        1.4270    -0.9020     0.0720 C.3   1 <1>   0.1200 
  4 C       -2.1170     0.0790     0.2150 C.ar  1 <1>  -0.1440 
  5 C       -1.1470    -2.0960    -0.1800 C.ar  1 <1>  -0.1500 
  6 C        2.5980     0.0560     0.2660 C.3   1 <1>   0.1200 
  7 C       -3.3860    -0.4880     0.1290 C.ar  1 <1>  -0.1440 
  8 C       -1.9570     1.5770     0.4780 C.3   1 <1>  -0.0960 
  9 C       -2.4080    -2.6540    -0.2770 C.ar  1 <1>  -0.1430 
 10 O        3.7930    -0.6620     0.1590 O.3   1 <1>  -0.5600 
 11 C       -3.5190    -1.8460    -0.1190 C.ar  1 <1>  -0.1500 
 12 C       -4.6540     0.3380     0.3030 C.3   1 <1>  -0.0970 
 13 C       -2.5750    -4.1380    -0.5480 C.3   1 <1>  -0.0970 
 14 C        4.9360     0.1080     0.3220 C.3   1 <1>   0.1200 
 15 C        6.1410    -0.8330     0.1930 C.3   1 <1>   0.3430 
 16 N        7.4530    -0.1400     0.4110 N.4   1 <1>  -0.9590 
 17 C        7.7650     0.8400    -0.6750 C.3   1 <1>   0.3430 
 18 C        8.5430    -1.1510     0.5540 C.3   1 <1>   0.3430 
 19 C        9.0590     1.5860    -0.3400 C.3   1 <1>  -0.1600 
 20 C        9.8530    -0.4500     0.9170 C.3   1 <1>  -0.1600 
 21 C       10.2300     0.6210    -0.1160 C.3   1 <1>  -0.1600 
 22 H        1.4600    -1.3450    -0.9070 H     1 <1>   0.0800 
 23 H        1.4260    -1.6560     0.8390 H     1 <1>   0.0800 
 24 H       -0.2980    -2.7390    -0.2990 H     1 <1>   0.1500 
 25 H        2.5460     0.5020     1.2450 H     1 <1>   0.0800 
 26 H        2.5780     0.8160    -0.4960 H     1 <1>   0.0800 
 27 H       -0.9970     1.9370     0.1590 H     1 <1>   0.0800 
 28 H       -2.0620     1.7710     1.5290 H     1 <1>   0.0800 
 29 H       -2.6970     2.1410    -0.0590 H     1 <1>   0.0800 
 30 H       -4.4990    -2.2830    -0.1890 H     1 <1>   0.1500 
 31 H       -4.5940     0.9240     1.2020 H     1 <1>   0.0800 
 32 H       -5.5210    -0.2940     0.3750 H     1 <1>   0.0800 
 33 H       -4.7810     0.9940    -0.5390 H     1 <1>   0.0800 
 34 H       -1.7450    -4.5130    -1.1190 H     1 <1>   0.0800 
 35 H       -3.4770    -4.3190    -1.1040 H     1 <1>   0.0800 
 36 H       -2.6270    -4.6730     0.3830 H     1 <1>   0.0800 
 37 H        4.9050     0.5570     1.3000 H     1 <1>   0.0800 
 38 H        4.9450     0.8620    -0.4450 H     1 <1>   0.0800 
 39 H        6.1270    -1.2830    -0.7860 H     1 <1>   0.0800 
 40 H        6.0260    -1.6150     0.9250 H     1 <1>   0.0800 
 41 H        7.4130     0.3780     1.2980 H     1 <1>   0.4500 
 42 H        6.9630     1.5520    -0.7790 H     1 <1>   0.0800 
 43 H        7.8830     0.3210    -1.6120 H     1 <1>   0.0800 
 44 H        8.6670    -1.6870    -0.3730 H     1 <1>   0.0800 
 45 H        8.2910    -1.8610     1.3260 H     1 <1>   0.0800 
 46 H        8.9080     2.1900     0.5370 H     1 <1>   0.0800 
 47 H        9.3000     2.2530    -1.1500 H     1 <1>   0.0800 
 48 H       10.6400    -1.1830     0.9700 H     1 <1>   0.0800 
 49 H        9.7640    -0.0050     1.8930 H     1 <1>   0.0800 
 50 H       11.0960     1.1660     0.2210 H     1 <1>   0.0800 
 51 H       10.4870     0.1450    -1.0480 H     1 <1>   0.0800 
@<TRIPOS>BOND
  1   1   2  1   
  2   1   3  1   
  3   2   4  ar  
  4   2   5  ar  
  5   3   6  1   
  6   3  22  1   
  7   3  23  1   
  8   4   7  ar  
  9   4   8  1   
 10   5   9  ar  
 11   5  24  1   
 12   6  10  1   
 13   6  25  1   
 14   6  26  1   
 15   7  11  ar  
 16   7  12  1   
 17   8  27  1   
 18   8  28  1   
 19   8  29  1   
 20   9  11  ar  
 21   9  13  1   
 22  10  14  1   
 23  11  30  1   
 24  12  31  1   
 25  12  32  1   
 26  12  33  1   
 27  13  34  1   
 28  13  35  1   
 29  13  36  1   
 30  14  15  1   
 31  14  37  1   
 32  14  38  1   
 33  15  16  1   
 34  15  39  1   
 35  15  40  1   
 36  16  17  1   
 37  16  18  1   
 38  16  41  1   
 39  17  19  1   
 40  17  42  1   
 41  17  43  1   
 42  18  20  1   
 43  18  44  1   
 44  18  45  1   
 45  19  21  1   
 46  19  46  1   
 47  19  47  1   
 48  20  21  1   
 49  20  48  1   
 50  20  49  1   
 51  21  50  1   
 52  21  51  1   
@<TRIPOS>SUBSTRUCTURE
  1 ****   6 GROUP 4 **** **** 0

# MOE 2024.06 (io_trps.svl 2023.06)
