@<TRIPOS>MOLECULE
NONAME
47 49 1 0 0 
SMALL
USER_CHARGES


@<TRIPOS>ATOM
  1 S       -1.8580     1.7350    -0.9790 S.3   1 <1>  -0.0800 
  2 C       -2.3810     0.6610     0.2770 C.2   1 <1>   0.4420 
  3 C       -0.2490     1.5320    -0.3790 C.2   1 <1>   0.1980 
  4 N       -1.4060     0.2540     1.0050 N.2   1 <1>  -0.3380 
  5 N       -3.7290     0.3900     0.3360 N.am  1 <1>  -0.4940 
  6 N       -0.1910     0.7560     0.6240 N.2   1 <1>  -0.3380 
  7 C        0.8720     2.2660    -1.0800 C.3   1 <1>  -0.0600 
  8 C       -4.4500    -0.3740     1.2030 C.2   1 <1>   0.5690 
  9 O       -3.9850    -0.9760     2.1380 O.2   1 <1>  -0.5700 
 10 C       -5.9530    -0.4450     0.9380 C.3   1 <1>   0.1710 
 11 N       -6.4670     0.7200     0.1570 N.3   1 <1>  -0.8100 
 12 C       -7.7950     0.4140    -0.4240 C.3   1 <1>   0.1100 
 13 C       -6.5800     1.9240     1.0220 C.3   1 <1>   0.1100 
 14 C       -8.3670     1.5880    -1.2440 C.3   1 <1>   0.2090 
 15 C       -7.1140     3.1560     0.2640 C.3   1 <1>   0.2090 
 16 N       -8.3770     2.8620    -0.4710 N.pl3 1 <1>  -0.8380 
 17 C       -9.5850     3.2900     0.0820 C.ar  1 <1>   0.1000 
 18 C      -10.3140     4.3390    -0.4900 C.ar  1 <1>  -0.1430 
 19 C      -10.0800     2.6610     1.2180 C.ar  1 <1>  -0.1500 
 20 C      -11.5250     4.7310     0.0760 C.ar  1 <1>  -0.1430 
 21 C       -9.7480     5.0200    -1.7370 C.3   1 <1>  -0.0970 
 22 C      -11.2750     3.0550     1.7830 C.ar  1 <1>  -0.1500 
 23 C      -11.9940     4.0860     1.2110 C.ar  1 <1>  -0.1500 
 24 C      -12.3740     5.8520    -0.5080 C.3   1 <1>  -0.0970 
 25 H       -4.3290     0.8580    -0.3460 H     1 <1>   0.3700 
 26 H        0.9290     1.9520    -2.1050 H     1 <1>   0.0800 
 27 H        1.8060     2.0470    -0.5950 H     1 <1>   0.0800 
 28 H        0.6970     3.3250    -1.0400 H     1 <1>   0.0800 
 29 H       -6.4730    -0.5230     1.8770 H     1 <1>   0.0800 
 30 H       -6.1310    -1.3510     0.3880 H     1 <1>   0.0800 
 31 H       -8.4910     0.1710     0.3600 H     1 <1>   0.0800 
 32 H       -7.7140    -0.4420    -1.0700 H     1 <1>   0.0800 
 33 H       -5.6160     2.1710     1.4320 H     1 <1>   0.0800 
 34 H       -7.2390     1.7200     1.8470 H     1 <1>   0.0800 
 35 H       -9.3710     1.3530    -1.5550 H     1 <1>   0.0800 
 36 H       -7.7720     1.7240    -2.1290 H     1 <1>   0.0800 
 37 H       -6.3730     3.4860    -0.4420 H     1 <1>   0.0800 
 38 H       -7.2860     3.9580     0.9600 H     1 <1>   0.0800 
 39 H       -9.5240     1.8580     1.6570 H     1 <1>   0.1500 
 40 H       -9.8690     4.3690    -2.5830 H     1 <1>   0.0800 
 41 H       -8.6990     5.2130    -1.6040 H     1 <1>   0.0800 
 42 H      -10.2210     5.9580    -1.9510 H     1 <1>   0.0800 
 43 H      -11.6460     2.5610     2.6630 H     1 <1>   0.1500 
 44 H      -12.9260     4.3830     1.6590 H     1 <1>   0.1500 
 45 H      -11.8560     6.7890    -0.4150 H     1 <1>   0.0800 
 46 H      -13.3150     5.9340     0.0030 H     1 <1>   0.0800 
 47 H      -12.5740     5.6590    -1.5470 H     1 <1>   0.0800 
@<TRIPOS>BOND
  1   1   2  1   
  2   1   3  1   
  3   2   4  2   
  4   2   5  1   
  5   3   6  2   
  6   3   7  1   
  7   4   6  1   
  8   5   8  am  
  9   5  25  1   
 10   7  26  1   
 11   7  27  1   
 12   7  28  1   
 13   8   9  2   
 14   8  10  1   
 15  10  11  1   
 16  10  29  1   
 17  10  30  1   
 18  11  12  1   
 19  11  13  1   
 20  12  14  1   
 21  12  31  1   
 22  12  32  1   
 23  13  15  1   
 24  13  33  1   
 25  13  34  1   
 26  14  16  1   
 27  14  35  1   
 28  14  36  1   
 29  15  16  1   
 30  15  37  1   
 31  15  38  1   
 32  16  17  1   
 33  17  18  ar  
 34  17  19  ar  
 35  18  20  ar  
 36  18  21  1   
 37  19  22  ar  
 38  19  39  1   
 39  20  23  ar  
 40  20  24  1   
 41  21  40  1   
 42  21  41  1   
 43  21  42  1   
 44  22  23  ar  
 45  22  43  1   
 46  23  44  1   
 47  24  45  1   
 48  24  46  1   
 49  24  47  1   
@<TRIPOS>SUBSTRUCTURE
  1 ****  13 GROUP 4 **** **** 0

# MOE 2024.06 (io_trps.svl 2023.06)
