@<TRIPOS>MOLECULE
NONAME
26 27 1 0 0 
SMALL
USER_CHARGES


@<TRIPOS>ATOM
  1 BR       0.0860     0.6170    -0.1710 Br    1 <1>  -0.1110 
  2 C       -1.8370     0.5140    -0.1300 C.ar  1 <1>   0.1110 
  3 C       -2.5760     1.1250    -1.1260 C.ar  1 <1>   0.1600 
  4 C       -2.4520    -0.1690     0.8950 C.ar  1 <1>  -0.1500 
  5 N       -3.9010     1.1030    -1.1740 N.ar  1 <1>  -0.6200 
  6 C       -3.8280    -0.1930     0.8470 C.ar  1 <1>  -0.1500 
  7 C       -4.5110     0.4480    -0.1930 C.ar  1 <1>   0.4270 
  8 N       -5.8830     0.4690    -0.3090 N.am  1 <1>  -0.5470 
  9 C       -6.9080    -0.0430     0.4310 C.2   1 <1>   0.5690 
 10 O       -6.7470    -0.6970     1.4350 O.2   1 <1>  -0.5700 
 11 C       -8.3380     0.2410    -0.0510 C.3   1 <1>   0.2610 
 12 O       -8.3600     0.8860    -1.2970 O.3   1 <1>  -0.5600 
 13 C       -9.1210     1.1810     0.8580 C.3   1 <1>  -0.1600 
 14 C       -9.5790     1.5340    -1.4800 C.3   1 <1>   0.1200 
 15 C      -10.1280     1.8220    -0.0840 C.3   1 <1>  -0.1600 
 16 H       -2.0570     1.6480    -1.9090 H     1 <1>   0.1500 
 17 H       -1.8890    -0.6480     1.6760 H     1 <1>   0.1500 
 18 H       -4.3710    -0.7080     1.6150 H     1 <1>   0.1500 
 19 H       -6.1960     0.9730    -1.1410 H     1 <1>   0.3700 
 20 H       -8.8640    -0.6910    -0.1610 H     1 <1>   0.0800 
 21 H       -8.4570     1.9270     1.2600 H     1 <1>   0.0800 
 22 H       -9.5860     0.6490     1.6700 H     1 <1>   0.0800 
 23 H      -10.2310     0.8750    -2.0290 H     1 <1>   0.0800 
 24 H       -9.4070     2.4350    -2.0440 H     1 <1>   0.0800 
 25 H      -10.2120     2.8810     0.0890 H     1 <1>   0.0800 
 26 H      -11.1000     1.3730     0.0220 H     1 <1>   0.0800 
@<TRIPOS>BOND
  1   1   2  1   
  2   2   3  ar  
  3   2   4  ar  
  4   3   5  ar  
  5   3  16  1   
  6   4   6  ar  
  7   4  17  1   
  8   5   7  ar  
  9   6   7  ar  
 10   6  18  1   
 11   7   8  1   
 12   8   9  am  
 13   8  19  1   
 14   9  10  2   
 15   9  11  1   
 16  11  12  1   
 17  11  13  1   
 18  11  20  1   
 19  12  14  1   
 20  13  15  1   
 21  13  21  1   
 22  13  22  1   
 23  14  15  1   
 24  14  23  1   
 25  14  24  1   
 26  15  25  1   
 27  15  26  1   
@<TRIPOS>SUBSTRUCTURE
  1 ****   8 GROUP 4 **** **** 0

# MOE 2024.06 (io_trps.svl 2023.06)
