@<TRIPOS>MOLECULE
NONAME
36 38 1 0 0 
SMALL
USER_CHARGES


@<TRIPOS>ATOM
  1 O       -0.6680    -0.4410    -0.7000 O.2   1 <1>  -0.5700 
  2 C       -0.2990    -1.5710    -0.4610 C.2   1 <1>   0.5440 
  3 N        0.9940    -2.0080    -0.5910 N.am  1 <1>  -0.4200 
  4 C       -1.1120    -2.6630    -0.0080 C.ar  1 <1>   0.0860 
  5 C        1.0430    -3.3320    -0.2380 C.2   1 <1>   0.5440 
  6 C        2.1490    -1.1840    -1.0180 C.3   1 <1>   0.0600 
  7 C       -0.2770    -3.7590     0.1300 C.ar  1 <1>   0.0860 
  8 C       -2.4660    -2.7630     0.2810 C.ar  1 <1>  -0.1500 
  9 O        2.0530    -4.0030    -0.2480 O.2   1 <1>  -0.5700 
 10 C       -0.7970    -4.9710     0.5610 C.ar  1 <1>  -0.1500 
 11 C       -3.0170    -3.9740     0.7080 C.ar  1 <1>   0.0860 
 12 C       -2.1480    -5.0660     0.8430 C.ar  1 <1>  -0.1500 
 13 C       -4.4320    -4.1100     1.0070 C.2   1 <1>   0.5440 
 14 O       -4.8220    -4.9840     1.7560 O.2   1 <1>  -0.5700 
 15 N       -5.3500    -3.2700     0.4440 N.am  1 <1>  -0.7300 
 16 C       -6.8040    -3.3030     0.6740 C.3   1 <1>   0.2200 
 17 C       -7.5020    -3.5540    -0.6560 C.3   1 <1>  -0.1600 
 18 C       -7.2690    -1.9040     1.0550 C.3   1 <1>  -0.1600 
 19 C       -7.5550    -2.1950    -1.3630 C.3   1 <1>  -0.1600 
 20 C       -7.4060    -1.1350    -0.2640 C.3   1 <1>  -0.1600 
 21 H        1.8150    -0.3990    -1.6740 H     1 <1>   0.0800 
 22 H        2.8640    -1.8000    -1.5360 H     1 <1>   0.0800 
 23 H        2.6170    -0.7480    -0.1530 H     1 <1>   0.0800 
 24 H       -3.0790    -1.8850     0.1760 H     1 <1>   0.1500 
 25 H       -0.1440    -5.8210     0.6700 H     1 <1>   0.1500 
 26 H       -2.5540    -6.0070     1.1800 H     1 <1>   0.1500 
 27 H       -5.0660    -2.5900    -0.2590 H     1 <1>   0.3700 
 28 H       -7.0620    -4.0390     1.4190 H     1 <1>   0.0800 
 29 H       -8.5070    -3.8810    -0.4540 H     1 <1>   0.0800 
 30 H       -7.0070    -4.3110    -1.2390 H     1 <1>   0.0800 
 31 H       -6.5990    -1.4280     1.7500 H     1 <1>   0.0800 
 32 H       -8.2380    -1.9830     1.5150 H     1 <1>   0.0800 
 33 H       -8.4820    -2.0780    -1.8990 H     1 <1>   0.0800 
 34 H       -6.7400    -2.1120    -2.0620 H     1 <1>   0.0800 
 35 H       -6.5210    -0.5480    -0.4420 H     1 <1>   0.0800 
 36 H       -8.2570    -0.4760    -0.2350 H     1 <1>   0.0800 
@<TRIPOS>BOND
  1   1   2  2   
  2   2   3  am  
  3   2   4  1   
  4   3   5  am  
  5   3   6  1   
  6   4   7  ar  
  7   4   8  ar  
  8   5   7  1   
  9   5   9  2   
 10   6  21  1   
 11   6  22  1   
 12   6  23  1   
 13   7  10  ar  
 14   8  11  ar  
 15   8  24  1   
 16  10  12  ar  
 17  10  25  1   
 18  11  12  ar  
 19  11  13  1   
 20  12  26  1   
 21  13  14  2   
 22  13  15  am  
 23  15  16  1   
 24  15  27  1   
 25  16  17  1   
 26  16  18  1   
 27  16  28  1   
 28  17  19  1   
 29  17  29  1   
 30  17  30  1   
 31  18  20  1   
 32  18  31  1   
 33  18  32  1   
 34  19  20  1   
 35  19  33  1   
 36  19  34  1   
 37  20  35  1   
 38  20  36  1   
@<TRIPOS>SUBSTRUCTURE
  1 ****   8 GROUP 4 **** **** 0

# MOE 2024.06 (io_trps.svl 2023.06)
