@<TRIPOS>MOLECULE
NONAME
38 40 1 0 0 
SMALL
USER_CHARGES


@<TRIPOS>ATOM
  1 O       -0.0450     2.9520    -2.8920 O.2   1 <1>  -0.5700 
  2 C       -0.1470     2.8450    -1.6610 C.2   1 <1>   0.5330 
  3 C        1.0880     2.7910    -0.9020 C.ar  1 <1>   0.0860 
  4 C       -1.4590     2.8130    -1.0810 C.cat 1 <1>   0.7510 
  5 C        2.1780     2.0610    -1.3810 C.ar  1 <1>  -0.1500 
  6 C        1.2730     3.4850     0.2960 C.ar  1 <1>  -0.1500 
  7 N       -2.5950     3.0970    -1.8000 N.pl3 1 <1>  -0.7000 
  8 N       -1.8780     2.5210     0.1790 N.pl3 1 <1>  -0.8080 
  9 C        3.3830     2.0210    -0.7030 C.ar  1 <1>  -0.1500 
 10 C        2.4740     3.4480     0.9780 C.ar  1 <1>  -0.1500 
 11 C       -3.6810     2.9930    -0.9880 C.2   1 <1>   0.1820 
 12 O       -1.1630     2.1270     1.1630 O.3   1 <1>  -0.4420 
 13 C       -3.2450     2.6240     0.2340 C.2   1 <1>   0.1820 
 14 C        3.5400     2.7170     0.4820 C.ar  1 <1>  -0.1430 
 15 C       -5.0950     3.2830    -1.4600 C.3   1 <1>   0.0080 
 16 C       -4.0310     2.3280     1.4990 C.3   1 <1>   0.0080 
 17 C        4.8560     2.6740     1.2360 C.3   1 <1>  -0.0970 
 18 C       -5.9440     3.8930    -0.3330 C.3   1 <1>  -0.1600 
 19 C       -5.4480     1.8180     1.1930 C.3   1 <1>  -0.1600 
 20 C       -6.4480     2.8900     0.7210 C.3   1 <1>  -0.1600 
 21 H        2.0780     1.5180    -2.3040 H     1 <1>   0.1500 
 22 H        0.4570     4.0520     0.7110 H     1 <1>   0.1500 
 23 H       -2.5320     3.3200    -2.7930 H     1 <1>   0.4500 
 24 H        4.1990     1.4440    -1.1020 H     1 <1>   0.1500 
 25 H        2.5710     3.9870     1.9050 H     1 <1>   0.1500 
 26 H       -5.5490     2.3840    -1.8380 H     1 <1>   0.0800 
 27 H       -5.0420     3.9940    -2.2640 H     1 <1>   0.0800 
 28 H       -4.0530     3.2010     2.1240 H     1 <1>   0.0800 
 29 H       -3.5060     1.5570     2.0360 H     1 <1>   0.0800 
 30 H        4.8290     1.8850     1.9660 H     1 <1>   0.0800 
 31 H        5.0300     3.6080     1.7400 H     1 <1>   0.0800 
 32 H        5.6730     2.4960     0.5600 H     1 <1>   0.0800 
 33 H       -6.8020     4.3760    -0.7690 H     1 <1>   0.0800 
 34 H       -5.3700     4.6630     0.1550 H     1 <1>   0.0800 
 35 H       -5.8430     1.3620     2.0840 H     1 <1>   0.0800 
 36 H       -5.3780     1.0390     0.4530 H     1 <1>   0.0800 
 37 H       -7.3130     2.3830     0.3290 H     1 <1>   0.0800 
 38 H       -6.7800     3.4510     1.5790 H     1 <1>   0.0800 
@<TRIPOS>BOND
  1   1   2  2   
  2   2   3  1   
  3   2   4  1   
  4   3   5  ar  
  5   3   6  ar  
  6   4   7  ar  
  7   4   8  ar  
  8   5   9  ar  
  9   5  21  1   
 10   6  10  ar  
 11   6  22  1   
 12   7  11  1   
 13   7  23  1   
 14   8  12  1   
 15   8  13  1   
 16   9  14  ar  
 17   9  24  1   
 18  10  14  ar  
 19  10  25  1   
 20  11  13  2   
 21  11  15  1   
 22  13  16  1   
 23  14  17  1   
 24  15  18  1   
 25  15  26  1   
 26  15  27  1   
 27  16  19  1   
 28  16  28  1   
 29  16  29  1   
 30  17  30  1   
 31  17  31  1   
 32  17  32  1   
 33  18  20  1   
 34  18  33  1   
 35  18  34  1   
 36  19  20  1   
 37  19  35  1   
 38  19  36  1   
 39  20  37  1   
 40  20  38  1   
@<TRIPOS>SUBSTRUCTURE
  1 ****   4 GROUP 4 **** **** 0

# MOE 2024.06 (io_trps.svl 2023.06)
