@<TRIPOS>MOLECULE
NONAME
48 49 1 0 0 
SMALL
USER_CHARGES


@<TRIPOS>ATOM
  1 O        0.6380     0.4580     0.1920 O.3   1 <1>  -0.3630 
  2 C       -0.6070     0.9790     0.0540 C.ar  1 <1>   0.0830 
  3 C        1.7860     1.2210    -0.0900 C.3   1 <1>   0.1200 
  4 C       -1.6700     0.1450     0.3570 C.ar  1 <1>  -0.1500 
  5 C       -0.8590     2.2830    -0.3660 C.ar  1 <1>  -0.1500 
  6 C        3.0090     0.3400     0.1660 C.3   1 <1>  -0.1600 
  7 C       -2.9760     0.5900     0.2460 C.ar  1 <1>   0.0830 
  8 C       -2.1630     2.7340    -0.4790 C.ar  1 <1>  -0.1500 
  9 C        4.3170     1.0920    -0.1190 C.3   1 <1>  -0.1600 
 10 O       -3.9540    -0.2960     0.5630 O.3   1 <1>  -0.3630 
 11 C       -3.2210     1.8950    -0.1750 C.ar  1 <1>  -0.1500 
 12 C        5.5330     0.1920     0.1450 C.3   1 <1>  -0.1600 
 13 C       -5.3170     0.0570     0.4850 C.3   1 <1>   0.0400 
 14 C        6.8370     0.9410    -0.1360 C.3   1 <1>   0.3430 
 15 N        8.0110     0.1030     0.2330 N.4   1 <1>  -0.9590 
 16 C        9.2380     0.9460     0.3420 C.3   1 <1>   0.3430 
 17 C        8.2170    -1.0360    -0.7130 C.3   1 <1>   0.3430 
 18 C       10.4010     0.1020     0.8670 C.3   1 <1>  -0.1600 
 19 C        9.3590    -1.9230    -0.2130 C.3   1 <1>  -0.1600 
 20 C       10.6550    -1.1260    -0.0160 C.3   1 <1>  -0.1600 
 21 H        1.7890     2.0800     0.5590 H     1 <1>   0.0800 
 22 H        1.7430     1.5290    -1.1210 H     1 <1>   0.0800 
 23 H       -1.4800    -0.8600     0.6810 H     1 <1>   0.1500 
 24 H       -0.0600     2.9570    -0.6090 H     1 <1>   0.1500 
 25 H        2.9440    -0.5290    -0.4670 H     1 <1>   0.0800 
 26 H        2.9910     0.0180     1.1930 H     1 <1>   0.0800 
 27 H       -2.3550     3.7420    -0.8040 H     1 <1>   0.1500 
 28 H        4.3650     1.9650     0.5110 H     1 <1>   0.0800 
 29 H        4.3200     1.4180    -1.1460 H     1 <1>   0.0800 
 30 H       -4.2210     2.2710    -0.2710 H     1 <1>   0.1500 
 31 H        5.4590    -0.6750    -0.4870 H     1 <1>   0.0800 
 32 H        5.5130    -0.1240     1.1740 H     1 <1>   0.0800 
 33 H       -5.9000    -0.7960     0.7800 H     1 <1>   0.0800 
 34 H       -5.5500     0.3250    -0.5310 H     1 <1>   0.0800 
 35 H       -5.5040     0.8780     1.1550 H     1 <1>   0.0800 
 36 H        6.8450     1.8470     0.4500 H     1 <1>   0.0800 
 37 H        6.8890     1.2160    -1.1770 H     1 <1>   0.0800 
 38 H        7.8390    -0.2990     1.1640 H     1 <1>   0.4500 
 39 H        9.0630     1.7710     1.0140 H     1 <1>   0.0800 
 40 H        9.4930     1.3460    -0.6270 H     1 <1>   0.0800 
 41 H        8.4590    -0.6580    -1.6930 H     1 <1>   0.0800 
 42 H        7.3190    -1.6270    -0.7890 H     1 <1>   0.0800 
 43 H       10.1920    -0.2070     1.8760 H     1 <1>   0.0800 
 44 H       11.2900     0.7090     0.8960 H     1 <1>   0.0800 
 45 H        9.5310    -2.7100    -0.9260 H     1 <1>   0.0800 
 46 H        9.0700    -2.3890     0.7140 H     1 <1>   0.0800 
 47 H       11.4070    -1.7530     0.4350 H     1 <1>   0.0800 
 48 H       11.0290    -0.8070    -0.9760 H     1 <1>   0.0800 
@<TRIPOS>BOND
  1   1   2  1   
  2   1   3  1   
  3   2   4  ar  
  4   2   5  ar  
  5   3   6  1   
  6   3  21  1   
  7   3  22  1   
  8   4   7  ar  
  9   4  23  1   
 10   5   8  ar  
 11   5  24  1   
 12   6   9  1   
 13   6  25  1   
 14   6  26  1   
 15   7  10  1   
 16   7  11  ar  
 17   8  11  ar  
 18   8  27  1   
 19   9  12  1   
 20   9  28  1   
 21   9  29  1   
 22  10  13  1   
 23  11  30  1   
 24  12  14  1   
 25  12  31  1   
 26  12  32  1   
 27  13  33  1   
 28  13  34  1   
 29  13  35  1   
 30  14  15  1   
 31  14  36  1   
 32  14  37  1   
 33  15  16  1   
 34  15  17  1   
 35  15  38  1   
 36  16  18  1   
 37  16  39  1   
 38  16  40  1   
 39  17  19  1   
 40  17  41  1   
 41  17  42  1   
 42  18  20  1   
 43  18  43  1   
 44  18  44  1   
 45  19  20  1   
 46  19  45  1   
 47  19  46  1   
 48  20  47  1   
 49  20  48  1   
@<TRIPOS>SUBSTRUCTURE
  1 ****   6 GROUP 4 **** **** 0

# MOE 2024.06 (io_trps.svl 2023.06)
