@<TRIPOS>MOLECULE
NONAME
35 35 1 0 0 
SMALL
USER_CHARGES


@<TRIPOS>ATOM
  1 O        0.2030     0.5010    -1.2100 O.2   1 <1>  -0.5700 
  2 C        0.1430     1.4800    -0.4910 C.2   1 <1>   0.5440 
  3 N        1.2570     1.8520     0.2080 N.am  1 <1>  -0.7300 
  4 C       -1.0750     2.2600    -0.3610 C.ar  1 <1>   0.0860 
  5 C        2.5740     1.1890     0.1340 C.3   1 <1>   0.1400 
  6 C       -2.3080     1.7030     0.0020 C.ar  1 <1>  -0.1430 
  7 C       -1.0280     3.6350    -0.5920 C.ar  1 <1>  -0.1500 
  8 C        3.6690     2.2520     0.1620 C.3   1 <1>  -0.1600 
  9 C       -3.4310     2.5070     0.1250 C.ar  1 <1>  -0.1500 
 10 C       -2.4430     0.2090     0.2720 C.3   1 <1>  -0.0970 
 11 C       -2.1500     4.4310    -0.4660 C.ar  1 <1>  -0.1500 
 12 C        5.0480     1.6100     0.0430 C.3   1 <1>   0.1200 
 13 C       -3.3620     3.8700    -0.1070 C.ar  1 <1>  -0.1430 
 14 O        5.9930     2.6240     0.1210 O.3   1 <1>  -0.5600 
 15 C       -4.6020     4.7330     0.0340 C.3   1 <1>  -0.0970 
 16 C        7.3070     2.1840     0.0030 C.3   1 <1>   0.0400 
 17 H        1.1820     2.6250     0.8710 H     1 <1>   0.3700 
 18 H        2.6410     0.6140    -0.7750 H     1 <1>   0.0800 
 19 H        2.6800     0.5200     0.9710 H     1 <1>   0.0800 
 20 H       -0.0950     4.0830    -0.8820 H     1 <1>   0.1500 
 21 H        3.6180     2.7970     1.0880 H     1 <1>   0.0800 
 22 H        3.5300     2.9290    -0.6620 H     1 <1>   0.0800 
 23 H       -4.3740     2.0700     0.4030 H     1 <1>   0.1500 
 24 H       -1.6910    -0.1130     0.9700 H     1 <1>   0.0800 
 25 H       -2.3170    -0.3390    -0.6450 H     1 <1>   0.0800 
 26 H       -3.4080    -0.0290     0.6810 H     1 <1>   0.0800 
 27 H       -2.0770     5.4890    -0.6520 H     1 <1>   0.1500 
 28 H        5.1540     1.1090    -0.9050 H     1 <1>   0.0800 
 29 H        5.2200     0.9170     0.8490 H     1 <1>   0.0800 
 30 H       -5.4690     4.1980    -0.3100 H     1 <1>   0.0800 
 31 H       -4.5070     5.6320    -0.5480 H     1 <1>   0.0800 
 32 H       -4.7440     5.0000     1.0650 H     1 <1>   0.0800 
 33 H        7.9530     3.0410     0.0780 H     1 <1>   0.0800 
 34 H        7.4400     1.7130    -0.9550 H     1 <1>   0.0800 
 35 H        7.5240     1.4950     0.8010 H     1 <1>   0.0800 
@<TRIPOS>BOND
  1   1   2  2   
  2   2   3  am  
  3   2   4  1   
  4   3   5  1   
  5   3  17  1   
  6   4   6  ar  
  7   4   7  ar  
  8   5   8  1   
  9   5  18  1   
 10   5  19  1   
 11   6   9  ar  
 12   6  10  1   
 13   7  11  ar  
 14   7  20  1   
 15   8  12  1   
 16   8  21  1   
 17   8  22  1   
 18   9  13  ar  
 19   9  23  1   
 20  10  24  1   
 21  10  25  1   
 22  10  26  1   
 23  11  13  ar  
 24  11  27  1   
 25  12  14  1   
 26  12  28  1   
 27  12  29  1   
 28  13  15  1   
 29  14  16  1   
 30  15  30  1   
 31  15  31  1   
 32  15  32  1   
 33  16  33  1   
 34  16  34  1   
 35  16  35  1   
@<TRIPOS>SUBSTRUCTURE
  1 ****   2 GROUP 4 **** **** 0

# MOE 2024.06 (io_trps.svl 2023.06)
