@<TRIPOS>MOLECULE
NONAME
45 46 1 0 0 
SMALL
USER_CHARGES


@<TRIPOS>ATOM
  1 O       -0.2540     0.8170    -0.2160 O.3   1 <1>  -0.3630 
  2 C       -1.5480     1.1770    -0.3950 C.ar  1 <1>   0.0820 
  3 C        0.2940     1.0910     1.0520 C.3   1 <1>   0.1200 
  4 C       -1.9680     2.5120    -0.4210 C.ar  1 <1>   0.0820 
  5 C       -2.4770     0.1610    -0.5500 C.ar  1 <1>  -0.1500 
  6 C        1.7120     0.5290     1.0870 C.3   1 <1>  -0.2400 
  7 O       -1.1120     3.5590    -0.3240 O.3   1 <1>  -0.3620 
  8 C       -3.3160     2.8000    -0.5520 C.ar  1 <1>  -0.1500 
  9 C       -3.8250     0.4530    -0.7010 C.ar  1 <1>  -0.1440 
 10 C       -0.1720     3.7040    -1.3660 C.3   1 <1>   0.0400 
 11 C       -4.2390     1.7770    -0.6920 C.ar  1 <1>  -0.1500 
 12 C       -4.8450    -0.6600    -0.8670 C.3   1 <1>   0.3530 
 13 N       -5.6350    -0.7520     0.3730 N.pl3 1 <1>  -0.8690 
 14 C       -7.0110    -0.5710     0.2470 C.ar  1 <1>   0.1000 
 15 C       -7.6360     0.5560     0.7930 C.ar  1 <1>   0.0820 
 16 C       -7.7800    -1.5140    -0.4220 C.ar  1 <1>  -0.1500 
 17 O       -6.8420     1.4580     1.4490 O.3   1 <1>  -0.3620 
 18 C       -9.0090     0.7200     0.6480 C.ar  1 <1>  -0.1500 
 19 C       -9.1470    -1.3490    -0.5690 C.ar  1 <1>  -0.1430 
 20 C       -7.3980     2.5690     2.1140 C.3   1 <1>   0.0400 
 21 C       -9.7570    -0.2290    -0.0310 C.ar  1 <1>  -0.1500 
 22 C       -9.9750    -2.3880    -1.3030 C.3   1 <1>  -0.0970 
 23 H        0.3020     2.1550     1.2080 H     1 <1>   0.0800 
 24 H       -0.3250     0.6210     1.7980 H     1 <1>   0.0800 
 25 H       -2.1340    -0.8580    -0.5410 H     1 <1>   0.1500 
 26 H        2.1550     0.7200     2.0470 H     1 <1>   0.0800 
 27 H        2.3130     0.9990     0.3300 H     1 <1>   0.0800 
 28 H        1.6910    -0.5340     0.9230 H     1 <1>   0.0800 
 29 H       -3.6380     3.8250    -0.5480 H     1 <1>   0.1500 
 30 H        0.5410     2.9010    -1.3190 H     1 <1>   0.0800 
 31 H       -0.6920     3.6880    -2.3080 H     1 <1>   0.0800 
 32 H        0.3300     4.6450    -1.2370 H     1 <1>   0.0800 
 33 H       -5.2860     2.0120    -0.7900 H     1 <1>   0.1500 
 34 H       -4.3540    -1.6010    -1.0440 H     1 <1>   0.0800 
 35 H       -5.4860    -0.4440    -1.7060 H     1 <1>   0.0800 
 36 H       -5.2660    -0.0400     1.0190 H     1 <1>   0.4000 
 37 H       -7.2910    -2.3830    -0.8200 H     1 <1>   0.1500 
 38 H       -9.5180     1.5730     1.0520 H     1 <1>   0.1500 
 39 H       -6.5970     3.1090     2.5860 H     1 <1>   0.0800 
 40 H       -8.0910     2.2190     2.8580 H     1 <1>   0.0800 
 41 H       -7.8890     3.1990     1.3930 H     1 <1>   0.0800 
 42 H      -10.8190    -0.0920    -0.1360 H     1 <1>   0.1500 
 43 H       -9.3500    -2.9980    -1.9300 H     1 <1>   0.0800 
 44 H      -10.7110    -1.9080    -1.9220 H     1 <1>   0.0800 
 45 H      -10.4750    -3.0210    -0.5930 H     1 <1>   0.0800 
@<TRIPOS>BOND
  1   1   2  1   
  2   1   3  1   
  3   2   4  ar  
  4   2   5  ar  
  5   3   6  1   
  6   3  23  1   
  7   3  24  1   
  8   4   7  1   
  9   4   8  ar  
 10   5   9  ar  
 11   5  25  1   
 12   6  26  1   
 13   6  27  1   
 14   6  28  1   
 15   7  10  1   
 16   8  11  ar  
 17   8  29  1   
 18   9  11  ar  
 19   9  12  1   
 20  10  30  1   
 21  10  31  1   
 22  10  32  1   
 23  11  33  1   
 24  12  13  1   
 25  12  34  1   
 26  12  35  1   
 27  13  14  1   
 28  13  36  1   
 29  14  15  ar  
 30  14  16  ar  
 31  15  17  1   
 32  15  18  ar  
 33  16  19  ar  
 34  16  37  1   
 35  17  20  1   
 36  18  21  ar  
 37  18  38  1   
 38  19  21  ar  
 39  19  22  1   
 40  20  39  1   
 41  20  40  1   
 42  20  41  1   
 43  21  42  1   
 44  22  43  1   
 45  22  44  1   
 46  22  45  1   
@<TRIPOS>SUBSTRUCTURE
  1 ****   9 GROUP 4 **** **** 0

# MOE 2024.06 (io_trps.svl 2023.06)
