@<TRIPOS>MOLECULE
NONAME
44 46 1 0 0 
SMALL
USER_CHARGES


@<TRIPOS>ATOM
  1 O        1.7480    -1.7640     1.1820 O.2   1 <1>  -0.5700 
  2 C        1.1060    -2.4680     0.4290 C.2   1 <1>   0.7060 
  3 O       -0.0580    -2.9450     0.8840 O.3   1 <1>  -0.2320 
  4 C        1.5170    -2.8340    -0.8940 C.2   1 <1>   0.0290 
  5 C       -0.8820    -3.7450     0.1610 C.ar  1 <1>   0.0830 
  6 C        2.7750    -2.3240    -1.3530 C.2   1 <1>   0.6160 
  7 C        0.7130    -3.6220    -1.6570 C.2   1 <1>  -0.1780 
  8 C       -2.0770    -4.1960     0.7230 C.ar  1 <1>   0.0830 
  9 C       -0.5210    -4.1060    -1.1410 C.ar  1 <1>   0.0280 
 10 O        2.7760    -1.3290    -2.0530 O.2   1 <1>  -0.5700 
 11 N        3.9660    -2.9720    -1.0870 N.am  1 <1>  -0.6600 
 12 O       -2.3630    -3.8100     1.9970 O.3   1 <1>  -0.3630 
 13 C       -2.9160    -5.0110    -0.0270 C.ar  1 <1>  -0.1500 
 14 C       -1.3840    -4.9230    -1.8720 C.ar  1 <1>  -0.1500 
 15 C        5.2610    -2.3760    -1.5180 C.3   1 <1>   0.1400 
 16 C        4.0310    -4.3750    -0.5980 C.3   1 <1>   0.1400 
 17 C       -3.5630    -4.1880     2.6350 C.3   1 <1>   0.0400 
 18 C       -2.5670    -5.3700    -1.3210 C.ar  1 <1>  -0.1500 
 19 C        5.6790    -1.2180    -0.6060 C.3   1 <1>  -0.1600 
 20 C        4.1360    -4.4620     0.9280 C.3   1 <1>  -0.1600 
 21 C        6.3570    -1.6270     0.7110 C.3   1 <1>  -0.1600 
 22 C        5.4390    -3.9050     1.5240 C.3   1 <1>  -0.1600 
 23 C        5.4490    -2.3750     1.7010 C.3   1 <1>  -0.1600 
 24 H        0.9870    -3.8940    -2.6620 H     1 <1>   0.1500 
 25 H       -3.8440    -5.3780     0.3700 H     1 <1>   0.1500 
 26 H       -1.1210    -5.2060    -2.8760 H     1 <1>   0.1500 
 27 H        5.1450    -2.0010    -2.5210 H     1 <1>   0.0800 
 28 H        6.0370    -3.1210    -1.5400 H     1 <1>   0.0800 
 29 H        4.8740    -4.8750    -1.0430 H     1 <1>   0.0800 
 30 H        3.1510    -4.9060    -0.9160 H     1 <1>   0.0800 
 31 H       -3.5670    -3.7540     3.6190 H     1 <1>   0.0800 
 32 H       -3.5970    -5.2600     2.7090 H     1 <1>   0.0800 
 33 H       -4.3950    -3.8100     2.0670 H     1 <1>   0.0800 
 34 H       -3.2250    -6.0010    -1.8940 H     1 <1>   0.1500 
 35 H        4.8280    -0.5900    -0.4040 H     1 <1>   0.0800 
 36 H        6.3820    -0.6180    -1.1550 H     1 <1>   0.0800 
 37 H        4.0860    -5.5050     1.1850 H     1 <1>   0.0800 
 38 H        3.2870    -3.9930     1.3900 H     1 <1>   0.0800 
 39 H        6.6760    -0.7190     1.1920 H     1 <1>   0.0800 
 40 H        7.2460    -2.1990     0.5100 H     1 <1>   0.0800 
 41 H        6.2850    -4.2370     0.9480 H     1 <1>   0.0800 
 42 H        5.5450    -4.3370     2.5040 H     1 <1>   0.0800 
 43 H        4.4510    -1.9710     1.6680 H     1 <1>   0.0800 
 44 H        5.8250    -2.1710     2.6890 H     1 <1>   0.0800 
@<TRIPOS>BOND
  1   1   2  2   
  2   2   3  1   
  3   2   4  1   
  4   3   5  1   
  5   4   6  1   
  6   4   7  2   
  7   5   8  ar  
  8   5   9  ar  
  9   6  10  2   
 10   6  11  am  
 11   7   9  1   
 12   7  24  1   
 13   8  12  1   
 14   8  13  ar  
 15   9  14  ar  
 16  11  15  1   
 17  11  16  1   
 18  12  17  1   
 19  13  18  ar  
 20  13  25  1   
 21  14  18  ar  
 22  14  26  1   
 23  15  19  1   
 24  15  27  1   
 25  15  28  1   
 26  16  20  1   
 27  16  29  1   
 28  16  30  1   
 29  17  31  1   
 30  17  32  1   
 31  17  33  1   
 32  18  34  1   
 33  19  21  1   
 34  19  35  1   
 35  19  36  1   
 36  20  22  1   
 37  20  37  1   
 38  20  38  1   
 39  21  23  1   
 40  21  39  1   
 41  21  40  1   
 42  22  23  1   
 43  22  41  1   
 44  22  42  1   
 45  23  43  1   
 46  23  44  1   
@<TRIPOS>SUBSTRUCTURE
  1 ****   4 GROUP 4 **** **** 0

# MOE 2024.06 (io_trps.svl 2023.06)
