@<TRIPOS>MOLECULE
NONAME
37 38 1 0 0 
SMALL
USER_CHARGES


@<TRIPOS>ATOM
  1 S       -0.7260    -2.1240     0.6590 S.3   1 <1>  -0.0800 
  2 C       -2.0300    -1.6630    -0.3920 C.2   1 <1>   0.4420 
  3 C        0.0390    -2.8290    -0.7230 C.2   1 <1>   0.1980 
  4 N       -1.8280    -2.0340    -1.6030 N.2   1 <1>  -0.3380 
  5 N       -3.1360    -0.9820     0.0660 N.am  1 <1>  -0.4940 
  6 N       -0.6470    -2.6980    -1.7860 N.2   1 <1>  -0.3380 
  7 C        1.3850    -3.4950    -0.5340 C.3   1 <1>   0.0200 
  8 C       -3.4730    -0.4940     1.2980 C.2   1 <1>   0.5690 
  9 C        2.4800    -2.4460    -0.3650 C.3   1 <1>   0.1200 
 10 O       -2.7650    -0.5870     2.2670 O.2   1 <1>  -0.5700 
 11 C       -4.8130     0.2090     1.4570 C.3   1 <1>   0.0450 
 12 O        3.6890    -3.1080    -0.1850 O.3   1 <1>  -0.5600 
 13 C       -5.5980     0.2870     0.1520 C.ar  1 <1>  -0.1440 
 14 C        4.7780    -2.2620    -0.0290 C.3   1 <1>   0.1200 
 15 C       -6.4710    -0.7320    -0.2010 C.ar  1 <1>  -0.1500 
 16 C       -5.4260     1.3640    -0.7040 C.ar  1 <1>  -0.1500 
 17 C        6.0130    -3.1340     0.1560 C.3   1 <1>  -0.2400 
 18 C       -7.1610    -0.6750    -1.3990 C.ar  1 <1>  -0.1500 
 19 C       -6.1160     1.4210    -1.9020 C.ar  1 <1>  -0.1500 
 20 C       -6.9830     0.4000    -2.2510 C.ar  1 <1>  -0.1500 
 21 H       -3.8330    -0.8080    -0.6620 H     1 <1>   0.3700 
 22 H        1.6010    -4.0960    -1.3980 H     1 <1>   0.0800 
 23 H        1.3490    -4.1300     0.3330 H     1 <1>   0.0800 
 24 H        2.2890    -1.8340     0.5000 H     1 <1>   0.0800 
 25 H        2.5470    -1.8300    -1.2450 H     1 <1>   0.0800 
 26 H       -4.6340     1.1990     1.8350 H     1 <1>   0.0800 
 27 H       -5.3860    -0.3190     2.1970 H     1 <1>   0.0800 
 28 H        4.6180    -1.6420     0.8380 H     1 <1>   0.0800 
 29 H        4.8740    -1.6500    -0.9100 H     1 <1>   0.0800 
 30 H       -6.6190    -1.5760     0.4520 H     1 <1>   0.1500 
 31 H       -4.7550     2.1660    -0.4460 H     1 <1>   0.1500 
 32 H        5.9010    -3.7510     1.0300 H     1 <1>   0.0800 
 33 H        6.8830    -2.5150     0.2810 H     1 <1>   0.0800 
 34 H        6.1560    -3.7580    -0.7080 H     1 <1>   0.0800 
 35 H       -7.8370    -1.4680    -1.6700 H     1 <1>   0.1500 
 36 H       -5.9800     2.2580    -2.5640 H     1 <1>   0.1500 
 37 H       -7.5190     0.4440    -3.1830 H     1 <1>   0.1500 
@<TRIPOS>BOND
  1   1   2  1   
  2   1   3  1   
  3   2   4  2   
  4   2   5  1   
  5   3   6  2   
  6   3   7  1   
  7   4   6  1   
  8   5   8  am  
  9   5  21  1   
 10   7   9  1   
 11   7  22  1   
 12   7  23  1   
 13   8  10  2   
 14   8  11  1   
 15   9  12  1   
 16   9  24  1   
 17   9  25  1   
 18  11  13  1   
 19  11  26  1   
 20  11  27  1   
 21  12  14  1   
 22  13  15  ar  
 23  13  16  ar  
 24  14  17  1   
 25  14  28  1   
 26  14  29  1   
 27  15  18  ar  
 28  15  30  1   
 29  16  19  ar  
 30  16  31  1   
 31  17  32  1   
 32  17  33  1   
 33  17  34  1   
 34  18  20  ar  
 35  18  35  1   
 36  19  20  ar  
 37  19  36  1   
 38  20  37  1   
@<TRIPOS>SUBSTRUCTURE
  1 ****   2 GROUP 4 **** **** 0

# MOE 2024.06 (io_trps.svl 2023.06)
