@<TRIPOS>MOLECULE
NONAME
40 41 1 0 0 
SMALL
USER_CHARGES


@<TRIPOS>ATOM
  1 S       -0.5010     0.3450    -1.2390 S.o2  1 <1>   1.5010 
  2 O       -0.8620     1.2050    -2.3400 O.2   1 <1>  -0.6500 
  3 O       -0.6270    -1.0910    -1.3490 O.2   1 <1>  -0.6500 
  4 N       -1.5120     0.8440     0.0010 N.am  1 <1>  -0.9140 
  5 C        1.1290     0.7720    -0.6200 C.2   1 <1>  -0.0630 
  6 C       -2.8280     0.2260    -0.0640 C.3   1 <1>   0.1960 
  7 C        1.9550    -0.1110     0.0620 C.2   1 <1>   0.1390 
  8 C        1.8400     1.9280    -0.6380 C.2   1 <1>  -0.3020 
  9 C       -3.7130     0.7810     1.0510 C.3   1 <1>  -0.0160 
 10 N        3.0760     0.4310     0.4310 N.2   1 <1>  -0.7070 
 11 N        3.0050     1.6990    -0.0050 N.pl3 1 <1>   0.3140 
 12 C       -5.1090     0.1750     0.9680 C.ar  1 <1>  -0.1430 
 13 C        4.1010     2.6650     0.2150 C.3   1 <1>   0.0960 
 14 C       -6.0240     0.6150     0.0140 C.ar  1 <1>   0.0830 
 15 C       -5.4700    -0.8310     1.8510 C.ar  1 <1>  -0.1500 
 16 C        3.7720     3.6240     1.3660 C.3   1 <1>  -0.2400 
 17 O       -5.6260     1.5980    -0.8380 O.3   1 <1>  -0.3630 
 18 C       -7.2930     0.0400    -0.0390 C.ar  1 <1>  -0.1500 
 19 C       -6.7300    -1.3990     1.7930 C.ar  1 <1>  -0.1500 
 20 C       -6.4620     2.0670    -1.8720 C.3   1 <1>   0.0400 
 21 C       -7.6410    -0.9620     0.8480 C.ar  1 <1>  -0.1500 
 22 H       -1.6480     1.8330    -0.2000 H     1 <1>   0.4200 
 23 H       -2.7390    -0.8420     0.0560 H     1 <1>   0.0800 
 24 H       -3.2800     0.4230    -1.0230 H     1 <1>   0.0800 
 25 H        1.6970    -1.1390     0.2660 H     1 <1>   0.1500 
 26 H        1.5770     2.8790    -1.0630 H     1 <1>   0.1500 
 27 H       -3.7860     1.8500     0.9640 H     1 <1>   0.0800 
 28 H       -3.2690     0.5520     2.0030 H     1 <1>   0.0800 
 29 H        4.2610     3.2130    -0.6950 H     1 <1>   0.0800 
 30 H        4.9950     2.1120     0.4430 H     1 <1>   0.0800 
 31 H       -4.7710    -1.1810     2.5910 H     1 <1>   0.1500 
 32 H        2.8880     4.1950     1.1410 H     1 <1>   0.0800 
 33 H        4.5900     4.3050     1.5180 H     1 <1>   0.0800 
 34 H        3.6170     3.0690     2.2740 H     1 <1>   0.0800 
 35 H       -8.0210     0.3570    -0.7600 H     1 <1>   0.1500 
 36 H       -7.0010    -2.1790     2.4820 H     1 <1>   0.1500 
 37 H       -5.9250     2.8190    -2.4210 H     1 <1>   0.0800 
 38 H       -7.3480     2.4950    -1.4380 H     1 <1>   0.0800 
 39 H       -6.7070     1.2460    -2.5220 H     1 <1>   0.0800 
 40 H       -8.6220    -1.4040     0.8050 H     1 <1>   0.1500 
@<TRIPOS>BOND
  1   1   2  2   
  2   1   3  2   
  3   1   4  am  
  4   1   5  1   
  5   4   6  1   
  6   4  22  1   
  7   5   7  1   
  8   5   8  2   
  9   6   9  1   
 10   6  23  1   
 11   6  24  1   
 12   7  10  2   
 13   7  25  1   
 14   8  11  1   
 15   8  26  1   
 16   9  12  1   
 17   9  27  1   
 18   9  28  1   
 19  10  11  1   
 20  11  13  1   
 21  12  14  ar  
 22  12  15  ar  
 23  13  16  1   
 24  13  29  1   
 25  13  30  1   
 26  14  17  1   
 27  14  18  ar  
 28  15  19  ar  
 29  15  31  1   
 30  16  32  1   
 31  16  33  1   
 32  16  34  1   
 33  17  20  1   
 34  18  21  ar  
 35  18  35  1   
 36  19  21  ar  
 37  19  36  1   
 38  20  37  1   
 39  20  38  1   
 40  20  39  1   
 41  21  40  1   
@<TRIPOS>SUBSTRUCTURE
  1 ****   4 GROUP 4 **** **** 0

# MOE 2024.06 (io_trps.svl 2023.06)
