@<TRIPOS>MOLECULE
NONAME
27 28 1 0 0 
SMALL
USER_CHARGES


@<TRIPOS>ATOM
  1 I        0.2090     0.7040    -1.7100 I     1 <1>  -0.0810 
  2 C        2.0550     0.4440    -0.6850 C.ar  1 <1>   0.0810 
  3 C        2.8450    -0.6440    -1.0030 C.ar  1 <1>  -0.1500 
  4 C        2.4200     1.3690     0.2730 C.ar  1 <1>  -0.1500 
  5 C        4.0450    -0.8010    -0.3290 C.ar  1 <1>  -0.1500 
  6 C        3.6250     1.1900     0.9330 C.ar  1 <1>  -0.1500 
  7 C        4.4550     0.1080     0.6440 C.ar  1 <1>  -0.0090 
  8 S        6.0350    -0.1190     1.5080 S.o2  1 <1>   1.4470 
  9 O        6.3780     1.0790     2.2470 O.2   1 <1>  -0.6500 
 10 O        6.0310    -1.3940     2.1910 O.2   1 <1>  -0.6500 
 11 N        7.1470    -0.2530     0.2370 N.am  1 <1>  -0.8490 
 12 C        8.4440    -0.7380     0.6720 C.3   1 <1>   0.1960 
 13 C        7.4140     0.9870    -0.4720 C.3   1 <1>   0.1960 
 14 C        9.3830    -0.4160    -0.4850 C.3   1 <1>  -0.1600 
 15 C        8.6810     0.6950    -1.2670 C.3   1 <1>  -0.1600 
 16 H        2.5340    -1.3500    -1.7530 H     1 <1>   0.1500 
 17 H        1.7830     2.2050     0.5010 H     1 <1>   0.1500 
 18 H        4.6780    -1.6420    -0.5580 H     1 <1>   0.1500 
 19 H        3.9260     1.9000     1.6860 H     1 <1>   0.1500 
 20 H        8.4090    -1.7940     0.8850 H     1 <1>   0.0800 
 21 H        8.7560    -0.2060     1.5570 H     1 <1>   0.0800 
 22 H        7.6080     1.7860     0.2260 H     1 <1>   0.0800 
 23 H        6.5910     1.2570    -1.1120 H     1 <1>   0.0800 
 24 H        9.5090    -1.2870    -1.1040 H     1 <1>   0.0800 
 25 H       10.3440    -0.1050    -0.1160 H     1 <1>   0.0800 
 26 H        9.2900     1.5770    -1.3580 H     1 <1>   0.0800 
 27 H        8.4150     0.3470    -2.2490 H     1 <1>   0.0800 
@<TRIPOS>BOND
  1   1   2  1   
  2   2   3  ar  
  3   2   4  ar  
  4   3   5  ar  
  5   3  16  1   
  6   4   6  ar  
  7   4  17  1   
  8   5   7  ar  
  9   5  18  1   
 10   6   7  ar  
 11   6  19  1   
 12   7   8  1   
 13   8   9  2   
 14   8  10  2   
 15   8  11  am  
 16  11  12  1   
 17  11  13  1   
 18  12  14  1   
 19  12  20  1   
 20  12  21  1   
 21  13  15  1   
 22  13  22  1   
 23  13  23  1   
 24  14  15  1   
 25  14  24  1   
 26  14  25  1   
 27  15  26  1   
 28  15  27  1   
@<TRIPOS>SUBSTRUCTURE
  1 ****   7 GROUP 4 **** **** 0

# MOE 2024.06 (io_trps.svl 2023.06)
