@<TRIPOS>MOLECULE
NONAME
54 57 1 0 0 
SMALL
USER_CHARGES


@<TRIPOS>ATOM
  1 CL      -1.0130    -0.2780     0.1320 Cl    1 <1>  -0.1770 
  2 C       -0.7560     1.4450     0.0410 C.ar  1 <1>   0.1770 
  3 C       -1.0480     2.1130    -1.1340 C.ar  1 <1>  -0.1500 
  4 C       -0.2630     2.1170     1.1440 C.ar  1 <1>  -0.1500 
  5 C       -0.8460     3.4800    -1.2020 C.ar  1 <1>  -0.1500 
  6 C       -0.0630     3.4840     1.0690 C.ar  1 <1>  -0.1500 
  7 C       -0.3570     4.1780    -0.1020 C.ar  1 <1>   0.1170 
  8 N       -0.1670     5.5780    -0.1730 N.am  1 <1>  -0.2860 
  9 C        1.1040     6.0530    -0.5190 C.2   1 <1>   0.6160 
 10 C       -1.2080     6.4610     0.0470 C.2   1 <1>  -0.0290 
 11 O        2.0350     5.2640    -0.6200 O.2   1 <1>  -0.5700 
 12 C        1.2800     7.4550    -0.7180 C.2   1 <1>   0.0290 
 13 C       -1.0580     7.8190    -0.1350 C.2   1 <1>   0.0140 
 14 C       -2.5650     5.8910     0.4870 C.3   1 <1>  -0.0220 
 15 C        2.5640     7.9380    -1.1410 C.2   1 <1>   0.6160 
 16 C        0.2190     8.2950    -0.5320 C.2   1 <1>  -0.1500 
 17 C       -2.1380     8.7520     0.0530 C.2   1 <1>   0.4950 
 18 C       -3.4670     6.9220     1.1980 C.3   1 <1>   0.0000 
 19 O        2.6470     8.4360    -2.2490 O.2   1 <1>  -0.5700 
 20 N        3.6810     7.9200    -0.3260 N.am  1 <1>  -0.6600 
 21 O       -2.0150     9.9480    -0.0330 O.2   1 <1>  -0.5700 
 22 C       -3.5210     8.2150     0.3670 C.3   1 <1>  -0.0990 
 23 C       -4.8870     6.3500     1.3440 C.3   1 <1>  -0.2400 
 24 C       -2.9220     7.2190     2.6080 C.3   1 <1>  -0.2400 
 25 C        3.6920     7.3900     1.0670 C.3   1 <1>   0.1400 
 26 C        5.0190     8.3510    -0.8210 C.3   1 <1>   0.1400 
 27 C        4.2640     8.4450     2.0200 C.3   1 <1>  -0.1600 
 28 C        5.5990     9.4170     0.1150 C.3   1 <1>  -0.1600 
 29 C        5.6500     8.9260     1.5680 C.3   1 <1>  -0.1600 
 30 H       -1.4240     1.5660    -1.9800 H     1 <1>   0.1500 
 31 H       -0.0380     1.5720     2.0440 H     1 <1>   0.1500 
 32 H       -1.0610     4.0130    -2.1120 H     1 <1>   0.1500 
 33 H        0.3260     4.0200     1.9160 H     1 <1>   0.1500 
 34 H       -2.4270     5.0610     1.1570 H     1 <1>   0.0800 
 35 H       -3.0650     5.5160    -0.3890 H     1 <1>   0.0800 
 36 H        0.3390     9.3550    -0.6960 H     1 <1>   0.1500 
 37 H       -4.0230     8.0350    -0.5660 H     1 <1>   0.0800 
 38 H       -4.0770     8.9690     0.8960 H     1 <1>   0.0800 
 39 H       -5.5290     7.0540     1.8440 H     1 <1>   0.0800 
 40 H       -5.3140     6.1320     0.3810 H     1 <1>   0.0800 
 41 H       -4.8730     5.4400     1.9190 H     1 <1>   0.0800 
 42 H       -1.9180     7.6020     2.5750 H     1 <1>   0.0800 
 43 H       -2.9160     6.3250     3.2070 H     1 <1>   0.0800 
 44 H       -3.5400     7.9470     3.1050 H     1 <1>   0.0800 
 45 H        4.3000     6.5010     1.0940 H     1 <1>   0.0800 
 46 H        2.7020     7.1250     1.3910 H     1 <1>   0.0800 
 47 H        4.9520     8.7490    -1.8190 H     1 <1>   0.0800 
 48 H        5.6700     7.4940    -0.8500 H     1 <1>   0.0800 
 49 H        4.3310     8.0310     3.0100 H     1 <1>   0.0800 
 50 H        3.5860     9.2810     2.0590 H     1 <1>   0.0800 
 51 H        4.9890    10.3010     0.0490 H     1 <1>   0.0800 
 52 H        6.5890     9.6760    -0.2150 H     1 <1>   0.0800 
 53 H        6.3520     8.1130     1.6460 H     1 <1>   0.0800 
 54 H        5.9880     9.7210     2.2100 H     1 <1>   0.0800 
@<TRIPOS>BOND
  1   1   2  1   
  2   2   3  ar  
  3   2   4  ar  
  4   3   5  ar  
  5   3  30  1   
  6   4   6  ar  
  7   4  31  1   
  8   5   7  ar  
  9   5  32  1   
 10   6   7  ar  
 11   6  33  1   
 12   7   8  1   
 13   8   9  am  
 14   8  10  1   
 15   9  11  2   
 16   9  12  1   
 17  10  13  2   
 18  10  14  1   
 19  12  15  1   
 20  12  16  2   
 21  13  16  1   
 22  13  17  1   
 23  14  18  1   
 24  14  34  1   
 25  14  35  1   
 26  15  19  2   
 27  15  20  am  
 28  16  36  1   
 29  17  21  2   
 30  17  22  1   
 31  18  22  1   
 32  18  23  1   
 33  18  24  1   
 34  20  25  1   
 35  20  26  1   
 36  22  37  1   
 37  22  38  1   
 38  23  39  1   
 39  23  40  1   
 40  23  41  1   
 41  24  42  1   
 42  24  43  1   
 43  24  44  1   
 44  25  27  1   
 45  25  45  1   
 46  25  46  1   
 47  26  28  1   
 48  26  47  1   
 49  26  48  1   
 50  27  29  1   
 51  27  49  1   
 52  27  50  1   
 53  28  29  1   
 54  28  51  1   
 55  28  52  1   
 56  29  53  1   
 57  29  54  1   
@<TRIPOS>SUBSTRUCTURE
  1 ****   8 GROUP 4 **** **** 0

# MOE 2024.06 (io_trps.svl 2023.06)
