@<TRIPOS>MOLECULE
NONAME
49 50 1 0 0 
SMALL
USER_CHARGES


@<TRIPOS>ATOM
  1 O        6.0200    -1.1900    -0.0340 O.3   1 <1>  -0.5600 
  2 C        5.4970    -2.4860    -0.0660 C.3   1 <1>   0.1200 
  3 C        5.2440    -0.2300    -0.6910 C.3   1 <1>   0.1200 
  4 C        4.1140    -2.5210     0.6120 C.3   1 <1>   0.3430 
  5 C        3.8460    -0.1410    -0.0490 C.3   1 <1>   0.3430 
  6 N        3.1900    -1.4900     0.0250 N.4   1 <1>  -0.9590 
  7 C        1.8470    -1.4630     0.6830 C.3   1 <1>   0.3430 
  8 C        0.9780    -2.6370     0.1810 C.3   1 <1>   0.2000 
  9 O        1.2700    -2.8720    -1.1650 O.3   1 <1>  -0.6800 
 10 C       -0.5250    -2.3700     0.3260 C.3   1 <1>   0.1200 
 11 O       -1.2230    -3.4140    -0.3180 O.3   1 <1>  -0.3630 
 12 C       -2.5790    -3.4470    -0.3410 C.ar  1 <1>   0.0830 
 13 C       -3.3950    -2.4670     0.2120 C.ar  1 <1>  -0.1500 
 14 C       -3.1650    -4.5340    -0.9590 C.ar  1 <1>  -0.1500 
 15 C       -4.7790    -2.5650     0.1530 C.ar  1 <1>  -0.1430 
 16 C       -4.5400    -4.6370    -1.0250 C.ar  1 <1>  -0.1500 
 17 C       -5.3710    -3.6640    -0.4800 C.ar  1 <1>  -0.1430 
 18 C       -5.5660    -1.4300     0.7980 C.3   1 <1>  -0.0970 
 19 C       -6.8820    -3.9170    -0.6340 C.3   1 <1>   0.0630 
 20 C       -7.6760    -2.7320    -1.1990 C.3   1 <1>  -0.2400 
 21 C       -7.5000    -4.4490     0.6630 C.3   1 <1>  -0.2400 
 22 H        6.1830    -3.1290     0.4570 H     1 <1>   0.0800 
 23 H        5.4360    -2.8120    -1.0900 H     1 <1>   0.0800 
 24 H        5.1780    -0.4900    -1.7340 H     1 <1>   0.0800 
 25 H        5.7520     0.7150    -0.6060 H     1 <1>   0.0800 
 26 H        4.2480    -2.3340     1.6640 H     1 <1>   0.0800 
 27 H        3.6880    -3.5040     0.4970 H     1 <1>   0.0800 
 28 H        3.2340     0.5350    -0.6220 H     1 <1>   0.0800 
 29 H        3.9550     0.2660     0.9420 H     1 <1>   0.0800 
 30 H        2.9720    -1.8110    -0.9390 H     1 <1>   0.4500 
 31 H        1.3460    -0.5450     0.4230 H     1 <1>   0.0800 
 32 H        1.9420    -1.4960     1.7560 H     1 <1>   0.0800 
 33 H        1.2260    -3.5300     0.7290 H     1 <1>   0.0800 
 34 H        0.5480    -3.4310    -1.5420 H     1 <1>   0.4000 
 35 H       -0.7960    -1.4400    -0.1450 H     1 <1>   0.0800 
 36 H       -0.8140    -2.3570     1.3630 H     1 <1>   0.0800 
 37 H       -2.9640    -1.6130     0.6950 H     1 <1>   0.1500 
 38 H       -2.5450    -5.2990    -1.3880 H     1 <1>   0.1500 
 39 H       -4.9590    -5.4990    -1.5130 H     1 <1>   0.1500 
 40 H       -4.9480    -0.8650     1.4720 H     1 <1>   0.0800 
 41 H       -6.3930    -1.8050     1.3660 H     1 <1>   0.0800 
 42 H       -5.9280    -0.7620     0.0380 H     1 <1>   0.0800 
 43 H       -7.0000    -4.7010    -1.3620 H     1 <1>   0.0800 
 44 H       -7.8640    -1.9860    -0.4520 H     1 <1>   0.0800 
 45 H       -8.6270    -3.0750    -1.5660 H     1 <1>   0.0800 
 46 H       -7.1370    -2.2870    -2.0160 H     1 <1>   0.0800 
 47 H       -7.4720    -3.7140     1.4440 H     1 <1>   0.0800 
 48 H       -6.9560    -5.3150     0.9950 H     1 <1>   0.0800 
 49 H       -8.5240    -4.7320     0.4980 H     1 <1>   0.0800 
@<TRIPOS>BOND
  1   1   2  1   
  2   1   3  1   
  3   2   4  1   
  4   2  22  1   
  5   2  23  1   
  6   3   5  1   
  7   3  24  1   
  8   3  25  1   
  9   4   6  1   
 10   4  26  1   
 11   4  27  1   
 12   5   6  1   
 13   5  28  1   
 14   5  29  1   
 15   6   7  1   
 16   6  30  1   
 17   7   8  1   
 18   7  31  1   
 19   7  32  1   
 20   8   9  1   
 21   8  10  1   
 22   8  33  1   
 23   9  34  1   
 24  10  11  1   
 25  10  35  1   
 26  10  36  1   
 27  11  12  1   
 28  12  13  ar  
 29  12  14  ar  
 30  13  15  ar  
 31  13  37  1   
 32  14  16  ar  
 33  14  38  1   
 34  15  17  ar  
 35  15  18  1   
 36  16  17  ar  
 37  16  39  1   
 38  17  19  1   
 39  18  40  1   
 40  18  41  1   
 41  18  42  1   
 42  19  20  1   
 43  19  21  1   
 44  19  43  1   
 45  20  44  1   
 46  20  45  1   
 47  20  46  1   
 48  21  47  1   
 49  21  48  1   
 50  21  49  1   
@<TRIPOS>SUBSTRUCTURE
  1 ****  10 GROUP 4 **** **** 0

# MOE 2024.06 (io_trps.svl 2023.06)
