@<TRIPOS>MOLECULE
NONAME
51 53 1 0 0 
SMALL
USER_CHARGES


@<TRIPOS>ATOM
  1 S       -0.1640    -0.1050     1.6430 S.o2  1 <1>   1.4470 
  2 O       -0.3520    -1.2650     2.4850 O.2   1 <1>  -0.6500 
  3 O        0.0830     1.1840     2.2550 O.2   1 <1>  -0.6500 
  4 N       -1.5510     0.0650     0.6810 N.am  1 <1>  -0.8490 
  5 C        1.1500    -0.4560     0.4390 C.ar  1 <1>  -0.0090 
  6 C       -1.5590     1.3320    -0.0570 C.3   1 <1>   0.1960 
  7 C       -2.7760    -0.0890     1.4720 C.3   1 <1>   0.1960 
  8 C        2.4320     0.0410     0.6260 C.ar  1 <1>  -0.1500 
  9 C        0.9120    -1.2370    -0.6850 C.ar  1 <1>  -0.1500 
 10 C       -2.7370     1.3670    -1.0350 C.3   1 <1>  -0.1600 
 11 C       -4.0040    -0.0890     0.5570 C.3   1 <1>  -0.1600 
 12 C        3.4700    -0.1890    -0.2780 C.ar  1 <1>   0.0860 
 13 C        1.9210    -1.4990    -1.5950 C.ar  1 <1>  -0.1500 
 14 C       -4.0700     1.1820    -0.3000 C.3   1 <1>  -0.0800 
 15 C        4.8020     0.3570    -0.0770 C.2   1 <1>   0.5440 
 16 C        3.1830    -0.9780    -1.3900 C.ar  1 <1>  -0.1500 
 17 C       -5.2370     1.1140    -1.2910 C.3   1 <1>  -0.2400 
 18 O        5.7850    -0.2800    -0.3920 O.2   1 <1>  -0.5700 
 19 N        5.0260     1.5920     0.4470 N.am  1 <1>  -0.7300 
 20 C        4.1320     2.7760     0.4510 C.3   1 <1>   0.1400 
 21 C        4.8540     3.9920    -0.1510 C.3   1 <1>   0.2000 
 22 O        6.0800     4.1890     0.4780 O.3   1 <1>  -0.5600 
 23 C        4.1200     5.3110     0.0340 C.3   1 <1>  -0.1600 
 24 C        6.4980     5.5080     0.3250 C.3   1 <1>   0.1200 
 25 C        5.2490     6.3260     0.0010 C.3   1 <1>  -0.1600 
 26 H       -0.6420     1.4380    -0.6120 H     1 <1>   0.0800 
 27 H       -1.6340     2.1600     0.6310 H     1 <1>   0.0800 
 28 H       -2.8490     0.7090     2.1940 H     1 <1>   0.0800 
 29 H       -2.7500    -1.0240     2.0080 H     1 <1>   0.0800 
 30 H        2.6380     0.6230     1.5080 H     1 <1>   0.1500 
 31 H       -0.0710    -1.6470    -0.8470 H     1 <1>   0.1500 
 32 H       -2.6040     0.5870    -1.7640 H     1 <1>   0.0800 
 33 H       -2.7370     2.3090    -1.5550 H     1 <1>   0.0800 
 34 H       -4.8910    -0.1680     1.1590 H     1 <1>   0.0800 
 35 H       -3.9590    -0.9590    -0.0760 H     1 <1>   0.0800 
 36 H        1.7230    -2.1090    -2.4600 H     1 <1>   0.1500 
 37 H       -4.2240     2.0270     0.3520 H     1 <1>   0.0800 
 38 H        3.9710    -1.1850    -2.0960 H     1 <1>   0.1500 
 39 H       -5.1190     0.2800    -1.9600 H     1 <1>   0.0800 
 40 H       -5.2850     2.0180    -1.8730 H     1 <1>   0.0800 
 41 H       -6.1680     1.0020    -0.7630 H     1 <1>   0.0800 
 42 H        6.0130     1.8500     0.5650 H     1 <1>   0.3700 
 43 H        3.8480     2.9970     1.4660 H     1 <1>   0.0800 
 44 H        3.2420     2.5760    -0.1170 H     1 <1>   0.0800 
 45 H        5.0520     3.8220    -1.1960 H     1 <1>   0.0800 
 46 H        3.6370     5.3310     0.9960 H     1 <1>   0.0800 
 47 H        3.3890     5.4780    -0.7370 H     1 <1>   0.0800 
 48 H        7.2140     5.5450    -0.4780 H     1 <1>   0.0800 
 49 H        6.9600     5.8230     1.2450 H     1 <1>   0.0800 
 50 H        5.1010     7.1170     0.7160 H     1 <1>   0.0800 
 51 H        5.3500     6.7570    -0.9800 H     1 <1>   0.0800 
@<TRIPOS>BOND
  1   1   2  2   
  2   1   3  2   
  3   1   4  am  
  4   1   5  1   
  5   4   6  1   
  6   4   7  1   
  7   5   8  ar  
  8   5   9  ar  
  9   6  10  1   
 10   6  26  1   
 11   6  27  1   
 12   7  11  1   
 13   7  28  1   
 14   7  29  1   
 15   8  12  ar  
 16   8  30  1   
 17   9  13  ar  
 18   9  31  1   
 19  10  14  1   
 20  10  32  1   
 21  10  33  1   
 22  11  14  1   
 23  11  34  1   
 24  11  35  1   
 25  12  15  1   
 26  12  16  ar  
 27  13  16  ar  
 28  13  36  1   
 29  14  17  1   
 30  14  37  1   
 31  15  18  2   
 32  15  19  am  
 33  16  38  1   
 34  17  39  1   
 35  17  40  1   
 36  17  41  1   
 37  19  20  1   
 38  19  42  1   
 39  20  21  1   
 40  20  43  1   
 41  20  44  1   
 42  21  22  1   
 43  21  23  1   
 44  21  45  1   
 45  22  24  1   
 46  23  25  1   
 47  23  46  1   
 48  23  47  1   
 49  24  25  1   
 50  24  48  1   
 51  24  49  1   
 52  25  50  1   
 53  25  51  1   
@<TRIPOS>SUBSTRUCTURE
  1 ****   8 GROUP 4 **** **** 0

# MOE 2024.06 (io_trps.svl 2023.06)
