@<TRIPOS>MOLECULE
NONAME
55 58 1 0 0 
SMALL
USER_CHARGES


@<TRIPOS>ATOM
  1 S        1.2230    -3.0530    -2.0200 S.3   1 <1>  -0.0800 
  2 C        1.9280    -1.8090    -0.9810 C.2   1 <1>  -0.0450 
  3 C        0.0160    -3.4760    -0.8250 C.2   1 <1>  -0.1100 
  4 C        3.0560    -1.0550    -1.4750 C.2   1 <1>   0.7150 
  5 C        1.2260    -1.7740     0.1830 C.2   1 <1>  -0.1500 
  6 C        0.1560    -2.7120     0.2730 C.2   1 <1>  -0.1500 
  7 O        3.1380    -0.7950    -2.6620 O.2   1 <1>  -0.5700 
  8 N        4.0520    -0.5960    -0.6310 N.am  1 <1>  -0.6600 
  9 C        4.4080    -1.2650     0.6510 C.3   1 <1>   0.1400 
 10 C        4.9880     0.4830    -1.0530 C.3   1 <1>   0.1400 
 11 C        5.8370    -1.8070     0.5700 C.3   1 <1>  -0.1600 
 12 C        6.4110    -0.0690    -1.1480 C.3   1 <1>  -0.1600 
 13 C        6.8330    -0.7180     0.1740 C.3   1 <1>   0.1900 
 14 N        8.1390    -1.3470     0.0360 N.3   1 <1>  -0.9000 
 15 C        9.2900    -0.4210     0.0800 C.3   1 <1>   0.2510 
 16 C       10.5760    -1.0280    -0.4890 C.2   1 <1>   0.5690 
 17 C        9.6580    -0.1100     1.5320 C.3   1 <1>  -0.0990 
 18 O       10.6650    -1.3790    -1.6410 O.2   1 <1>  -0.5700 
 19 N       11.5610    -1.0850     0.4590 N.am  1 <1>  -0.2370 
 20 C       11.0960    -0.5570     1.6340 C.2   1 <1>   0.5690 
 21 C       12.8630    -1.6000     0.2490 C.ar  1 <1>   0.1170 
 22 O       11.7200    -0.4160     2.6530 O.2   1 <1>  -0.5700 
 23 C       13.0510    -2.8200    -0.3940 C.ar  1 <1>  -0.1500 
 24 C       13.9880    -0.9000     0.6760 C.ar  1 <1>  -0.1500 
 25 C       14.3200    -3.3280    -0.6080 C.ar  1 <1>  -0.1500 
 26 C       15.2590    -1.4030     0.4650 C.ar  1 <1>  -0.1500 
 27 C       15.4370    -2.6170    -0.1780 C.ar  1 <1>   0.0830 
 28 O       16.7170    -3.0370    -0.3470 O.3   1 <1>  -0.3620 
 29 C       17.0040    -4.2520    -0.9990 C.3   1 <1>   0.1200 
 30 C       18.5190    -4.4240    -1.0290 C.3   1 <1>  -0.2400 
 31 H       -0.6780    -4.2590    -1.0740 H     1 <1>   0.1500 
 32 H        1.4280    -1.0980     0.9940 H     1 <1>   0.1500 
 33 H       -0.4620    -2.7700     1.1530 H     1 <1>   0.1500 
 34 H        3.7420    -2.0830     0.8570 H     1 <1>   0.0800 
 35 H        4.3290    -0.5520     1.4540 H     1 <1>   0.0800 
 36 H        4.9500     1.2790    -0.3280 H     1 <1>   0.0800 
 37 H        4.6940     0.8930    -2.0050 H     1 <1>   0.0800 
 38 H        5.8610    -2.6050    -0.1520 H     1 <1>   0.0800 
 39 H        6.1140    -2.2130     1.5270 H     1 <1>   0.0800 
 40 H        7.0710     0.7400    -1.4010 H     1 <1>   0.0800 
 41 H        6.4410    -0.7930    -1.9440 H     1 <1>   0.0800 
 42 H        6.8630     0.0240     0.9560 H     1 <1>   0.0800 
 43 H        8.1560    -1.8320    -0.8760 H     1 <1>   0.3600 
 44 H        9.0800     0.4820    -0.4650 H     1 <1>   0.0800 
 45 H        9.0610    -0.6650     2.2330 H     1 <1>   0.0800 
 46 H        9.5930     0.9420     1.7350 H     1 <1>   0.0800 
 47 H       12.1960    -3.3770    -0.7350 H     1 <1>   0.1500 
 48 H       13.8730     0.0430     1.1810 H     1 <1>   0.1500 
 49 H       14.4180    -4.2720    -1.1100 H     1 <1>   0.1500 
 50 H       16.1230    -0.8580     0.7990 H     1 <1>   0.1500 
 51 H       16.6070    -4.2040    -1.9980 H     1 <1>   0.0800 
 52 H       16.5410    -5.0520    -0.4480 H     1 <1>   0.0800 
 53 H       18.9720    -3.6110    -1.5670 H     1 <1>   0.0800 
 54 H       18.7720    -5.3450    -1.5220 H     1 <1>   0.0800 
 55 H       18.9070    -4.4530    -0.0260 H     1 <1>   0.0800 
@<TRIPOS>BOND
  1   1   2  1   
  2   1   3  1   
  3   2   4  1   
  4   2   5  2   
  5   3   6  2   
  6   3  31  1   
  7   4   7  2   
  8   4   8  am  
  9   5   6  1   
 10   5  32  1   
 11   6  33  1   
 12   8   9  1   
 13   8  10  1   
 14   9  11  1   
 15   9  34  1   
 16   9  35  1   
 17  10  12  1   
 18  10  36  1   
 19  10  37  1   
 20  11  13  1   
 21  11  38  1   
 22  11  39  1   
 23  12  13  1   
 24  12  40  1   
 25  12  41  1   
 26  13  14  1   
 27  13  42  1   
 28  14  15  1   
 29  14  43  1   
 30  15  16  1   
 31  15  17  1   
 32  15  44  1   
 33  16  18  2   
 34  16  19  am  
 35  17  20  1   
 36  17  45  1   
 37  17  46  1   
 38  19  20  am  
 39  19  21  1   
 40  20  22  2   
 41  21  23  ar  
 42  21  24  ar  
 43  23  25  ar  
 44  23  47  1   
 45  24  26  ar  
 46  24  48  1   
 47  25  27  ar  
 48  25  49  1   
 49  26  27  ar  
 50  26  50  1   
 51  27  28  1   
 52  28  29  1   
 53  29  30  1   
 54  29  51  1   
 55  29  52  1   
 56  30  53  1   
 57  30  54  1   
 58  30  55  1   
@<TRIPOS>SUBSTRUCTURE
  1 ****  14 GROUP 4 **** **** 0

# MOE 2024.06 (io_trps.svl 2023.06)
