@<TRIPOS>MOLECULE
NONAME
42 43 1 0 0 
SMALL
USER_CHARGES


@<TRIPOS>ATOM
  1 O       -2.1620    -3.8660     0.5870 O.3   1 <1>  -0.3620 
  2 C       -3.4630    -3.6550     0.2650 C.ar  1 <1>   0.0830 
  3 C       -1.2710    -4.4790    -0.3200 C.3   1 <1>   0.1200 
  4 C       -4.0160    -3.9700    -0.9740 C.ar  1 <1>  -0.1500 
  5 C       -4.2640    -3.0910     1.2450 C.ar  1 <1>  -0.1500 
  6 C        0.1060    -4.5800     0.3480 C.3   1 <1>   0.2000 
  7 C       -5.3560    -3.7210    -1.2170 C.ar  1 <1>  -0.1500 
  8 C       -5.6030    -2.8430     1.0000 C.ar  1 <1>  -0.1500 
  9 O        0.4670    -3.3230     0.8370 O.3   1 <1>  -0.6800 
 10 C        1.2030    -5.0770    -0.6180 C.3   1 <1>   0.3430 
 11 C       -6.1490    -3.1580    -0.2320 C.ar  1 <1>  -0.1500 
 12 N        2.5500    -4.6510    -0.1350 N.4   1 <1>  -0.9590 
 13 C        3.5460    -4.4460    -1.2200 C.3   1 <1>   0.3430 
 14 C        3.0730    -5.4850     0.9920 C.3   1 <1>   0.3430 
 15 C        4.7020    -3.5770    -0.6880 C.3   1 <1>  -0.0800 
 16 C        4.5810    -5.2730     1.2030 C.3   1 <1>  -0.1600 
 17 C        5.0360    -3.8640     0.7940 C.3   1 <1>  -0.1600 
 18 C        4.3990    -2.0830    -0.8790 C.3   1 <1>  -0.2400 
 19 H       -1.2200    -3.8710    -1.2080 H     1 <1>   0.0800 
 20 H       -1.6520    -5.4550    -0.5620 H     1 <1>   0.0800 
 21 H       -3.4310    -4.4060    -1.7600 H     1 <1>   0.1500 
 22 H       -3.8380    -2.8480     2.2010 H     1 <1>   0.1500 
 23 H        0.0360    -5.2500     1.1890 H     1 <1>   0.0800 
 24 H       -5.7850    -3.9640    -2.1730 H     1 <1>   0.1500 
 25 H       -6.2200    -2.4050     1.7660 H     1 <1>   0.1500 
 26 H       -0.3290    -2.9110     1.2510 H     1 <1>   0.4000 
 27 H        1.0180    -4.6350    -1.5830 H     1 <1>   0.0800 
 28 H        1.1540    -6.1470    -0.7280 H     1 <1>   0.0800 
 29 H       -7.1910    -2.9650    -0.4240 H     1 <1>   0.1500 
 30 H        2.3650    -3.7130     0.2740 H     1 <1>   0.4500 
 31 H        3.0920    -3.9600    -2.0680 H     1 <1>   0.0800 
 32 H        3.9300    -5.4020    -1.5380 H     1 <1>   0.0800 
 33 H        2.8910    -6.5300     0.7980 H     1 <1>   0.0800 
 34 H        2.5480    -5.2160     1.8940 H     1 <1>   0.0800 
 35 H        5.5680    -3.8110    -1.2840 H     1 <1>   0.0800 
 36 H        5.1220    -6.0040     0.6280 H     1 <1>   0.0800 
 37 H        4.8180    -5.4500     2.2380 H     1 <1>   0.0800 
 38 H        4.5420    -3.1510     1.4330 H     1 <1>   0.0800 
 39 H        6.0960    -3.7560     0.9550 H     1 <1>   0.0800 
 40 H        3.5240    -1.7870    -0.3270 H     1 <1>   0.0800 
 41 H        4.2380    -1.8600    -1.9200 H     1 <1>   0.0800 
 42 H        5.2310    -1.4900    -0.5390 H     1 <1>   0.0800 
@<TRIPOS>BOND
  1   1   2  1   
  2   1   3  1   
  3   2   4  ar  
  4   2   5  ar  
  5   3   6  1   
  6   3  19  1   
  7   3  20  1   
  8   4   7  ar  
  9   4  21  1   
 10   5   8  ar  
 11   5  22  1   
 12   6   9  1   
 13   6  10  1   
 14   6  23  1   
 15   7  11  ar  
 16   7  24  1   
 17   8  11  ar  
 18   8  25  1   
 19   9  26  1   
 20  10  12  1   
 21  10  27  1   
 22  10  28  1   
 23  11  29  1   
 24  12  13  1   
 25  12  14  1   
 26  12  30  1   
 27  13  15  1   
 28  13  31  1   
 29  13  32  1   
 30  14  16  1   
 31  14  33  1   
 32  14  34  1   
 33  15  17  1   
 34  15  18  1   
 35  15  35  1   
 36  16  17  1   
 37  16  36  1   
 38  16  37  1   
 39  17  38  1   
 40  17  39  1   
 41  18  40  1   
 42  18  41  1   
 43  18  42  1   
@<TRIPOS>SUBSTRUCTURE
  1 ****   6 GROUP 4 **** **** 0

# MOE 2024.06 (io_trps.svl 2023.06)
