@<TRIPOS>MOLECULE
NONAME
41 44 1 0 0 
SMALL
USER_CHARGES


@<TRIPOS>ATOM
  1 S       -2.8890     0.7920    -0.3460 S.3   1 <1>  -0.3710 
  2 C       -3.5930    -0.7520    -0.8040 C.2   1 <1>   0.5300 
  3 C       -4.4810     1.3960     0.3250 C.3   1 <1>   0.1500 
  4 N       -4.7460    -0.9810    -0.3700 N.2   1 <1>  -0.6960 
  5 C       -2.7260    -1.6270    -1.6700 C.3   1 <1>  -0.1790 
  6 C       -5.3190     0.0710     0.4700 C.3   1 <1>   0.5260 
  7 C       -4.8820     2.5110    -0.6550 C.3   1 <1>  -0.2400 
  8 O       -5.0080    -0.4260     1.7050 O.3   1 <1>  -0.6800 
  9 C       -6.8970     0.1020     0.3500 C.3   1 <1>   0.0000 
 10 C       -7.5200     1.1460     1.3200 C.3   1 <1>  -0.1600 
 11 C       -7.3890     0.4120    -1.0950 C.3   1 <1>  -0.1600 
 12 C       -7.5140    -1.2850     0.7290 C.3   1 <1>  -0.1600 
 13 C       -9.0580     1.1660     1.2220 C.3   1 <1>  -0.0800 
 14 C       -8.9250     0.4320    -1.1870 C.3   1 <1>  -0.0800 
 15 C       -9.0510    -1.2830     0.6430 C.3   1 <1>  -0.0800 
 16 C       -9.4740     1.4980    -0.2220 C.3   1 <1>  -0.1600 
 17 C       -9.6080    -0.2180     1.6030 C.3   1 <1>  -0.1600 
 18 C       -9.4760    -0.9480    -0.7950 C.3   1 <1>  -0.1600 
 19 H       -4.2900     1.8200     1.2950 H     1 <1>   0.0800 
 20 H       -2.4960    -1.1140    -2.5850 H     1 <1>   0.0800 
 21 H       -3.2440    -2.5400    -1.8960 H     1 <1>   0.0800 
 22 H       -1.8140    -1.8560    -1.1520 H     1 <1>   0.0800 
 23 H       -4.9630     2.1230    -1.6550 H     1 <1>   0.0800 
 24 H       -4.1250     3.2750    -0.6530 H     1 <1>   0.0800 
 25 H       -5.8070     2.9720    -0.3730 H     1 <1>   0.0800 
 26 H       -5.0640    -1.3920     1.5950 H     1 <1>   0.4000 
 27 H       -7.1530     2.1300     1.1120 H     1 <1>   0.0800 
 28 H       -7.2370     0.9110     2.3320 H     1 <1>   0.0800 
 29 H       -7.0430     1.3650    -1.4310 H     1 <1>   0.0800 
 30 H       -7.0030    -0.3280    -1.7760 H     1 <1>   0.0800 
 31 H       -7.2420    -1.5580     1.7320 H     1 <1>   0.0800 
 32 H       -7.1320    -2.0480     0.0730 H     1 <1>   0.0800 
 33 H       -9.4530     1.9090     1.8940 H     1 <1>   0.0800 
 34 H       -9.2250     0.6660    -2.1950 H     1 <1>   0.0800 
 35 H       -9.4320    -2.2530     0.9160 H     1 <1>   0.0800 
 36 H       -9.1000     2.4680    -0.4960 H     1 <1>   0.0800 
 37 H      -10.5480     1.5310    -0.2910 H     1 <1>   0.0800 
 38 H       -9.3280    -0.4570     2.6150 H     1 <1>   0.0800 
 39 H      -10.6830    -0.2100     1.5550 H     1 <1>   0.0800 
 40 H       -9.1010    -1.6970    -1.4700 H     1 <1>   0.0800 
 41 H      -10.5500    -0.9470    -0.8680 H     1 <1>   0.0800 
@<TRIPOS>BOND
  1   1   2  1   
  2   1   3  1   
  3   2   4  2   
  4   2   5  1   
  5   3   6  1   
  6   3   7  1   
  7   3  19  1   
  8   4   6  1   
  9   5  20  1   
 10   5  21  1   
 11   5  22  1   
 12   6   8  1   
 13   6   9  1   
 14   7  23  1   
 15   7  24  1   
 16   7  25  1   
 17   8  26  1   
 18   9  10  1   
 19   9  11  1   
 20   9  12  1   
 21  10  13  1   
 22  10  27  1   
 23  10  28  1   
 24  11  14  1   
 25  11  29  1   
 26  11  30  1   
 27  12  15  1   
 28  12  31  1   
 29  12  32  1   
 30  13  16  1   
 31  13  17  1   
 32  13  33  1   
 33  14  16  1   
 34  14  18  1   
 35  14  34  1   
 36  15  17  1   
 37  15  18  1   
 38  15  35  1   
 39  16  36  1   
 40  16  37  1   
 41  17  38  1   
 42  17  39  1   
 43  18  40  1   
 44  18  41  1   
@<TRIPOS>SUBSTRUCTURE
  1 ****   9 GROUP 4 **** **** 0

# MOE 2024.06 (io_trps.svl 2023.06)
