@<TRIPOS>MOLECULE
NONAME
45 48 1 0 0 
SMALL
USER_CHARGES


@<TRIPOS>ATOM
  1 CL       0.3160    -0.7840     0.6060 Cl    1 <1>  -0.1770 
  2 C        1.5250     0.4710     0.3970 C.ar  1 <1>   0.1770 
  3 C        2.8780     0.1570     0.2260 C.ar  1 <1>   0.1000 
  4 C        1.0710     1.7770     0.4130 C.ar  1 <1>  -0.1500 
  5 N        3.3950    -1.1650     0.1920 N.pl3 1 <1>  -0.8380 
  6 C        3.7780     1.2250     0.0790 C.ar  1 <1>   0.1170 
  7 C        1.9710     2.8160     0.2590 C.ar  1 <1>  -0.1500 
  8 C        3.3630    -1.9300     1.4760 C.3   1 <1>   0.2090 
  9 C        2.9830    -2.0270    -0.9580 C.3   1 <1>   0.2090 
 10 N        5.1280     0.8750    -0.0790 N.am  1 <1>  -0.5470 
 11 C        3.3160     2.5360     0.0930 C.ar  1 <1>  -0.1500 
 12 C        4.1750    -3.2320     1.3440 C.3   1 <1>   0.1200 
 13 C        3.8110    -3.3250    -0.9790 C.3   1 <1>   0.1200 
 14 C        6.3120     1.5620    -0.1710 C.2   1 <1>   0.5440 
 15 O        3.7350    -3.9930     0.2510 O.3   1 <1>  -0.5600 
 16 O        6.3260     2.7730    -0.0650 O.2   1 <1>  -0.5700 
 17 C        7.5450     0.8250    -0.3730 C.ar  1 <1>   0.0860 
 18 C        8.7640     1.3340     0.0800 C.ar  1 <1>  -0.1500 
 19 C        7.5670    -0.4180    -1.0180 C.ar  1 <1>  -0.1500 
 20 C        9.9440     0.6340    -0.0870 C.ar  1 <1>   0.0830 
 21 C        8.7440    -1.1240    -1.1960 C.ar  1 <1>  -0.1500 
 22 O       11.0970     1.1650     0.3950 O.3   1 <1>  -0.3620 
 23 C        9.9380    -0.6000    -0.7370 C.ar  1 <1>   0.0830 
 24 C       12.2080     0.2950     0.5030 C.3   1 <1>   0.1200 
 25 O       11.0820    -1.2960    -0.9350 O.3   1 <1>  -0.3630 
 26 C       12.3020    -0.6070    -0.7360 C.3   1 <1>   0.1200 
 27 H        0.0230     1.9760     0.5460 H     1 <1>   0.1500 
 28 H        1.6310     3.8370     0.2680 H     1 <1>   0.1500 
 29 H        2.3480    -2.1750     1.7360 H     1 <1>   0.0800 
 30 H        3.7750    -1.3240     2.2640 H     1 <1>   0.0800 
 31 H        3.1270    -1.4890    -1.8790 H     1 <1>   0.0800 
 32 H        1.9410    -2.2820    -0.8780 H     1 <1>   0.0800 
 33 H        5.2010    -0.1460    -0.0570 H     1 <1>   0.3700 
 34 H        4.0050     3.3510    -0.0260 H     1 <1>   0.1500 
 35 H        4.0570    -3.8310     2.2290 H     1 <1>   0.0800 
 36 H        5.2190    -3.0110     1.2110 H     1 <1>   0.0800 
 37 H        4.8440    -3.1080    -1.1880 H     1 <1>   0.0800 
 38 H        3.4360    -3.9900    -1.7360 H     1 <1>   0.0800 
 39 H        8.7890     2.2890     0.5740 H     1 <1>   0.1500 
 40 H        6.6530    -0.8380    -1.3980 H     1 <1>   0.1500 
 41 H        8.7470    -2.0760    -1.6960 H     1 <1>   0.1500 
 42 H       12.0820    -0.3000     1.3900 H     1 <1>   0.0800 
 43 H       13.0920     0.8980     0.6050 H     1 <1>   0.0800 
 44 H       13.0810    -1.3380    -0.6190 H     1 <1>   0.0800 
 45 H       12.4990    -0.0160    -1.6130 H     1 <1>   0.0800 
@<TRIPOS>BOND
  1   1   2  1   
  2   2   3  ar  
  3   2   4  ar  
  4   3   5  1   
  5   3   6  ar  
  6   4   7  ar  
  7   4  27  1   
  8   5   8  1   
  9   5   9  1   
 10   6  10  1   
 11   6  11  ar  
 12   7  11  ar  
 13   7  28  1   
 14   8  12  1   
 15   8  29  1   
 16   8  30  1   
 17   9  13  1   
 18   9  31  1   
 19   9  32  1   
 20  10  14  am  
 21  10  33  1   
 22  11  34  1   
 23  12  15  1   
 24  12  35  1   
 25  12  36  1   
 26  13  15  1   
 27  13  37  1   
 28  13  38  1   
 29  14  16  2   
 30  14  17  1   
 31  17  18  ar  
 32  17  19  ar  
 33  18  20  ar  
 34  18  39  1   
 35  19  21  ar  
 36  19  40  1   
 37  20  22  1   
 38  20  23  ar  
 39  21  23  ar  
 40  21  41  1   
 41  22  24  1   
 42  23  25  1   
 43  24  26  1   
 44  24  42  1   
 45  24  43  1   
 46  25  26  1   
 47  26  44  1   
 48  26  45  1   
@<TRIPOS>SUBSTRUCTURE
  1 ****  10 GROUP 4 **** **** 0

# MOE 2024.06 (io_trps.svl 2023.06)
