@<TRIPOS>MOLECULE
NONAME
56 57 1 0 0 
SMALL
USER_CHARGES


@<TRIPOS>ATOM
  1 O        0.5200    -5.1570     0.0410 O.3   1 <1>  -0.3630 
  2 C       -0.6470    -4.4840    -0.1210 C.ar  1 <1>   0.0820 
  3 C        1.6090    -4.9620    -0.8370 C.3   1 <1>   0.1200 
  4 C       -1.6410    -4.7330     0.8120 C.ar  1 <1>  -0.1500 
  5 C       -0.8810    -3.5780    -1.1540 C.ar  1 <1>  -0.1500 
  6 C        2.7770    -5.8360    -0.3630 C.3   1 <1>   0.2000 
  7 C       -2.8670    -4.0830     0.7240 C.ar  1 <1>   0.0820 
  8 C       -2.1020    -2.9310    -1.2420 C.ar  1 <1>  -0.1500 
  9 O        2.9690    -5.6280     1.0070 O.3   1 <1>  -0.6800 
 10 C        4.0870    -5.5480    -1.1390 C.3   1 <1>   0.3430 
 11 O       -3.8870    -4.2730     1.5980 O.3   1 <1>  -0.3620 
 12 C       -3.0890    -3.1840    -0.3060 C.ar  1 <1>  -0.1500 
 13 N        5.2870    -5.5200    -0.2200 N.4   1 <1>  -0.9590 
 14 C       -3.7710    -5.1730     2.6770 C.3   1 <1>   0.0400 
 15 C        5.9750    -4.1840    -0.1540 C.3   1 <1>   0.5030 
 16 C        6.1140    -6.7780    -0.2320 C.3   1 <1>   0.5030 
 17 C        7.1040    -4.2090     0.8880 C.3   1 <1>  -0.1600 
 18 C        4.9580    -3.1340     0.3160 C.3   1 <1>  -0.2400 
 19 C        6.5100    -3.7310    -1.5220 C.3   1 <1>  -0.2400 
 20 C        7.2280    -6.6950     0.8210 C.3   1 <1>  -0.1600 
 21 C        5.2160    -7.9610     0.1530 C.3   1 <1>  -0.2400 
 22 C        6.7060    -7.0840    -1.6180 C.3   1 <1>  -0.2400 
 23 C        8.0240    -5.4060     0.7100 C.3   1 <1>   0.2000 
 24 O        8.9630    -5.3860     1.7130 O.3   1 <1>  -0.6800 
 25 H        1.8780    -3.9200    -0.8150 H     1 <1>   0.0800 
 26 H        1.3000    -5.2410    -1.8300 H     1 <1>   0.0800 
 27 H       -1.4360    -5.4360     1.5950 H     1 <1>   0.1500 
 28 H       -0.1390    -3.3600    -1.8960 H     1 <1>   0.1500 
 29 H        2.5040    -6.8690    -0.4970 H     1 <1>   0.0800 
 30 H       -2.2880    -2.2310    -2.0380 H     1 <1>   0.1500 
 31 H        2.0810    -5.6010     1.4380 H     1 <1>   0.4000 
 32 H        3.9850    -4.5990    -1.6330 H     1 <1>   0.0800 
 33 H        4.2090    -6.2880    -1.9100 H     1 <1>   0.0800 
 34 H       -4.0390    -2.6850    -0.3680 H     1 <1>   0.1500 
 35 H        4.8100    -5.5670     0.6980 H     1 <1>   0.4500 
 36 H       -4.6940    -5.1560     3.2270 H     1 <1>   0.0800 
 37 H       -2.9620    -4.8560     3.3110 H     1 <1>   0.0800 
 38 H       -3.5950    -6.1610     2.2890 H     1 <1>   0.0800 
 39 H        6.6760    -4.2380     1.8740 H     1 <1>   0.0800 
 40 H        7.6840    -3.3060     0.8100 H     1 <1>   0.0800 
 41 H        4.5000    -3.4260     1.2450 H     1 <1>   0.0800 
 42 H        4.1920    -2.9520    -0.4130 H     1 <1>   0.0800 
 43 H        5.4550    -2.1950     0.4860 H     1 <1>   0.0800 
 44 H        6.8420    -2.7100    -1.4540 H     1 <1>   0.0800 
 45 H        5.7590    -3.7670    -2.2870 H     1 <1>   0.0800 
 46 H        7.3610    -4.2960    -1.8390 H     1 <1>   0.0800 
 47 H        7.8960    -7.5310     0.7040 H     1 <1>   0.0800 
 48 H        6.7930    -6.7610     1.8030 H     1 <1>   0.0800 
 49 H        4.7070    -7.7760     1.0830 H     1 <1>   0.0800 
 50 H        5.8130    -8.8460     0.2840 H     1 <1>   0.0800 
 51 H        4.4950    -8.1840    -0.6110 H     1 <1>   0.0800 
 52 H        7.4750    -6.3970    -1.9000 H     1 <1>   0.0800 
 53 H        5.9580    -7.1080    -2.3870 H     1 <1>   0.0800 
 54 H        7.1680    -8.0550    -1.6000 H     1 <1>   0.0800 
 55 H        8.5600    -5.3530    -0.2230 H     1 <1>   0.0800 
 56 H        8.5530    -5.4290     2.5980 H     1 <1>   0.4000 
@<TRIPOS>BOND
  1   1   2  1   
  2   1   3  1   
  3   2   4  ar  
  4   2   5  ar  
  5   3   6  1   
  6   3  25  1   
  7   3  26  1   
  8   4   7  ar  
  9   4  27  1   
 10   5   8  ar  
 11   5  28  1   
 12   6   9  1   
 13   6  10  1   
 14   6  29  1   
 15   7  11  1   
 16   7  12  ar  
 17   8  12  ar  
 18   8  30  1   
 19   9  31  1   
 20  10  13  1   
 21  10  32  1   
 22  10  33  1   
 23  11  14  1   
 24  12  34  1   
 25  13  15  1   
 26  13  16  1   
 27  13  35  1   
 28  14  36  1   
 29  14  37  1   
 30  14  38  1   
 31  15  17  1   
 32  15  18  1   
 33  15  19  1   
 34  16  20  1   
 35  16  21  1   
 36  16  22  1   
 37  17  23  1   
 38  17  39  1   
 39  17  40  1   
 40  18  41  1   
 41  18  42  1   
 42  18  43  1   
 43  19  44  1   
 44  19  45  1   
 45  19  46  1   
 46  20  23  1   
 47  20  47  1   
 48  20  48  1   
 49  21  49  1   
 50  21  50  1   
 51  21  51  1   
 52  22  52  1   
 53  22  53  1   
 54  22  54  1   
 55  23  24  1   
 56  23  55  1   
 57  24  56  1   
@<TRIPOS>SUBSTRUCTURE
  1 ****   6 GROUP 4 **** **** 0

# MOE 2024.06 (io_trps.svl 2023.06)
