@<TRIPOS>MOLECULE
NONAME
50 52 1 0 0 
SMALL
USER_CHARGES


@<TRIPOS>ATOM
  1 CL       6.1670    -2.3970     3.3870 Cl    1 <1>  -0.1770 
  2 C        5.5160    -1.1470     2.3580 C.ar  1 <1>   0.1770 
  3 C        6.1090    -0.8970     1.1370 C.ar  1 <1>  -0.1500 
  4 C        4.4160    -0.4280     2.7860 C.ar  1 <1>  -0.1500 
  5 C        5.6110     0.1010     0.3020 C.ar  1 <1>   0.0860 
  6 C        3.9010     0.5610     1.9660 C.ar  1 <1>  -0.1500 
  7 C        6.2330     0.3730    -0.9800 C.2   1 <1>   0.5440 
  8 C        4.4930     0.8150     0.7400 C.ar  1 <1>  -0.1500 
  9 O        6.4310    -0.5510    -1.7460 O.2   1 <1>  -0.5700 
 10 N        6.6170     1.6460    -1.3530 N.am  1 <1>  -0.6600 
 11 C        6.8940     2.7410    -0.3840 C.3   1 <1>   0.1400 
 12 C        6.9900     1.9640    -2.7590 C.3   1 <1>   0.1400 
 13 C        8.3870     3.0810    -0.4220 C.3   1 <1>  -0.1600 
 14 C        8.4840     2.2840    -2.8260 C.3   1 <1>  -0.1600 
 15 C        8.8610     3.4160    -1.8500 C.3   1 <1>  -0.0190 
 16 C       10.3540     3.7280    -1.8870 C.2   1 <1>   0.5690 
 17 O       10.7130     4.8420    -2.1770 O.2   1 <1>  -0.5700 
 18 N       11.2420     2.7500    -1.5870 N.am  1 <1>  -0.7300 
 19 C       12.6980     2.9340    -1.5070 C.3   1 <1>   0.2840 
 20 C       13.2270     1.9910    -0.4420 C.ar  1 <1>  -0.1430 
 21 C       13.2740     2.3930     0.8840 C.ar  1 <1>  -0.1500 
 22 C       13.6580     0.7180    -0.7820 C.ar  1 <1>  -0.1500 
 23 C       13.7500     1.5370     1.8630 C.ar  1 <1>  -0.1500 
 24 C       14.1330    -0.1400     0.1940 C.ar  1 <1>  -0.1500 
 25 C       14.1840     0.2600     1.5190 C.ar  1 <1>   0.0830 
 26 O       14.6650    -0.6410     2.4110 O.3   1 <1>  -0.3630 
 27 C       14.7880    -0.3230     3.7800 C.3   1 <1>   0.0400 
 28 H        6.9580    -1.4780     0.8250 H     1 <1>   0.1500 
 29 H        3.9730    -0.6430     3.7420 H     1 <1>   0.1500 
 30 H        3.0390     1.1260     2.2810 H     1 <1>   0.1500 
 31 H        4.0840     1.5790     0.1010 H     1 <1>   0.1500 
 32 H        6.6240     2.4510     0.6160 H     1 <1>   0.0800 
 33 H        6.3120     3.6060    -0.6540 H     1 <1>   0.0800 
 34 H        6.4160     2.8120    -3.0920 H     1 <1>   0.0800 
 35 H        6.7650     1.1370    -3.4110 H     1 <1>   0.0800 
 36 H        8.9390     2.2420    -0.0360 H     1 <1>   0.0800 
 37 H        8.5750     3.9210     0.2240 H     1 <1>   0.0800 
 38 H        8.7400     2.5740    -3.8300 H     1 <1>   0.0800 
 39 H        9.0320     1.3880    -2.5940 H     1 <1>   0.0800 
 40 H        8.3450     4.3070    -2.1660 H     1 <1>   0.0800 
 41 H       10.9170     1.8240    -1.3060 H     1 <1>   0.3700 
 42 H       12.9300     3.9560    -1.2550 H     1 <1>   0.0800 
 43 H       13.1410     2.7090    -2.4620 H     1 <1>   0.0800 
 44 H       12.9360     3.3790     1.1580 H     1 <1>   0.1500 
 45 H       13.6260     0.3880    -1.8060 H     1 <1>   0.1500 
 46 H       13.7740     1.8800     2.8790 H     1 <1>   0.1500 
 47 H       14.4690    -1.1280    -0.0650 H     1 <1>   0.1500 
 48 H       15.1980    -1.1790     4.2850 H     1 <1>   0.0800 
 49 H       13.8130    -0.0980     4.1750 H     1 <1>   0.0800 
 50 H       15.4510     0.5170     3.8850 H     1 <1>   0.0800 
@<TRIPOS>BOND
  1   1   2  1   
  2   2   3  ar  
  3   2   4  ar  
  4   3   5  ar  
  5   3  28  1   
  6   4   6  ar  
  7   4  29  1   
  8   5   7  1   
  9   5   8  ar  
 10   6   8  ar  
 11   6  30  1   
 12   7   9  2   
 13   7  10  am  
 14   8  31  1   
 15  10  11  1   
 16  10  12  1   
 17  11  13  1   
 18  11  32  1   
 19  11  33  1   
 20  12  14  1   
 21  12  34  1   
 22  12  35  1   
 23  13  15  1   
 24  13  36  1   
 25  13  37  1   
 26  14  15  1   
 27  14  38  1   
 28  14  39  1   
 29  15  16  1   
 30  15  40  1   
 31  16  17  2   
 32  16  18  am  
 33  18  19  1   
 34  18  41  1   
 35  19  20  1   
 36  19  42  1   
 37  19  43  1   
 38  20  21  ar  
 39  20  22  ar  
 40  21  23  ar  
 41  21  44  1   
 42  22  24  ar  
 43  22  45  1   
 44  23  25  ar  
 45  23  46  1   
 46  24  25  ar  
 47  24  47  1   
 48  25  26  1   
 49  26  27  1   
 50  27  48  1   
 51  27  49  1   
 52  27  50  1   
@<TRIPOS>SUBSTRUCTURE
  1 ****  13 GROUP 4 **** **** 0

# MOE 2024.06 (io_trps.svl 2023.06)
