@<TRIPOS>MOLECULE
NONAME
49 51 1 0 0 
SMALL
USER_CHARGES


@<TRIPOS>ATOM
  1 S        0.9330    -2.8730     2.2460 S.2   1 <1>  -0.6770 
  2 P        0.2530    -2.0270     0.6320 P.3   1 <1>   1.2200 
  3 O       -0.4660    -0.6340     0.9370 O.3   1 <1>  -0.5510 
  4 O       -1.0400    -2.7880     0.0840 O.3   1 <1>  -0.5510 
  5 C        1.3210    -1.7900    -0.8180 C.3   1 <1>   0.4330 
  6 C       -1.8170    -0.6560     0.6450 C.3   1 <1>   0.2000 
  7 C       -2.2030    -2.1430     0.4590 C.3   1 <1>   0.2000 
  8 N        1.8410    -3.0210    -1.5380 N.pl3 1 <1>  -0.8690 
  9 C        2.4580    -0.7780    -0.6210 C.ar  1 <1>  -0.1430 
 10 C       -2.0210     0.1770    -0.6220 C.3   1 <1>  -0.2400 
 11 C       -2.7200    -2.7990     1.7420 C.3   1 <1>  -0.2400 
 12 C        2.9730    -3.6540    -1.0440 C.ar  1 <1>   0.1000 
 13 C        2.6300     0.2510    -1.5390 C.ar  1 <1>  -0.1500 
 14 C        3.3280    -0.8590     0.4600 C.ar  1 <1>  -0.1500 
 15 C        4.2380    -3.2720    -1.4730 C.ar  1 <1>  -0.1500 
 16 C        2.8620    -4.6870    -0.1220 C.ar  1 <1>  -0.1500 
 17 C        3.6360     1.1840    -1.3690 C.ar  1 <1>  -0.1500 
 18 C        4.3350     0.0730     0.6320 C.ar  1 <1>  -0.1500 
 19 C        5.3690    -3.8990    -0.9860 C.ar  1 <1>  -0.1500 
 20 C        3.9920    -5.3160     0.3690 C.ar  1 <1>  -0.1500 
 21 C        4.4930     1.1070    -0.2850 C.ar  1 <1>   0.0830 
 22 C        5.2480    -4.9240    -0.0630 C.ar  1 <1>  -0.1500 
 23 O        5.4500     2.0640    -0.1910 O.3   1 <1>  -0.3630 
 24 C        6.3630     2.0800     0.8800 C.3   1 <1>   0.1200 
 25 C        7.2910     3.2760     0.6920 C.3   1 <1>  -0.2400 
 26 H        0.6830    -1.3270    -1.5470 H     1 <1>   0.0800 
 27 H       -2.3520    -0.2110     1.4660 H     1 <1>   0.0800 
 28 H       -2.9310    -2.2660    -0.3240 H     1 <1>   0.0800 
 29 H        1.0730    -3.6860    -1.6800 H     1 <1>   0.4000 
 30 H       -1.5110    -0.2590    -1.4620 H     1 <1>   0.0800 
 31 H       -1.6610     1.1780    -0.4640 H     1 <1>   0.0800 
 32 H       -3.0700     0.2310    -0.8550 H     1 <1>   0.0800 
 33 H       -2.0250    -2.6730     2.5540 H     1 <1>   0.0800 
 34 H       -2.8830    -3.8500     1.5780 H     1 <1>   0.0800 
 35 H       -3.6550    -2.3540     2.0290 H     1 <1>   0.0800 
 36 H        1.9850     0.3330    -2.3960 H     1 <1>   0.1500 
 37 H        3.2420    -1.6600     1.1770 H     1 <1>   0.1500 
 38 H        4.3230    -2.4730    -2.1870 H     1 <1>   0.1500 
 39 H        1.8930    -4.9970     0.2230 H     1 <1>   0.1500 
 40 H        3.7670     1.9800    -2.0800 H     1 <1>   0.1500 
 41 H        4.9840    -0.0280     1.4810 H     1 <1>   0.1500 
 42 H        6.3420    -3.5890    -1.3250 H     1 <1>   0.1500 
 43 H        3.8940    -6.1100     1.0890 H     1 <1>   0.1500 
 44 H        6.1270    -5.4120     0.3200 H     1 <1>   0.1500 
 45 H        6.9200     1.1590     0.8670 H     1 <1>   0.0800 
 46 H        5.8080     2.1690     1.7990 H     1 <1>   0.0800 
 47 H        7.8260     3.1850    -0.2360 H     1 <1>   0.0800 
 48 H        8.0020     3.3160     1.4970 H     1 <1>   0.0800 
 49 H        6.7210     4.1880     0.6910 H     1 <1>   0.0800 
@<TRIPOS>BOND
  1   1   2  2   
  2   2   3  1   
  3   2   4  1   
  4   2   5  1   
  5   3   6  1   
  6   4   7  1   
  7   5   8  1   
  8   5   9  1   
  9   5  26  1   
 10   6   7  1   
 11   6  10  1   
 12   6  27  1   
 13   7  11  1   
 14   7  28  1   
 15   8  12  1   
 16   8  29  1   
 17   9  13  ar  
 18   9  14  ar  
 19  10  30  1   
 20  10  31  1   
 21  10  32  1   
 22  11  33  1   
 23  11  34  1   
 24  11  35  1   
 25  12  15  ar  
 26  12  16  ar  
 27  13  17  ar  
 28  13  36  1   
 29  14  18  ar  
 30  14  37  1   
 31  15  19  ar  
 32  15  38  1   
 33  16  20  ar  
 34  16  39  1   
 35  17  21  ar  
 36  17  40  1   
 37  18  21  ar  
 38  18  41  1   
 39  19  22  ar  
 40  19  42  1   
 41  20  22  ar  
 42  20  43  1   
 43  21  23  1   
 44  22  44  1   
 45  23  24  1   
 46  24  25  1   
 47  24  45  1   
 48  24  46  1   
 49  25  47  1   
 50  25  48  1   
 51  25  49  1   
@<TRIPOS>SUBSTRUCTURE
  1 ****   9 GROUP 4 **** **** 0

# MOE 2024.06 (io_trps.svl 2023.06)
