@<TRIPOS>MOLECULE
NONAME
35 36 1 0 0 
SMALL
USER_CHARGES


@<TRIPOS>ATOM
  1 O        1.3030    -0.1640     0.1050 O.2   1 <1>  -0.5700 
  2 C        1.9630     0.7910    -0.2510 C.2   1 <1>   0.6900 
  3 N        2.6560     0.7570    -1.4410 N.am  1 <1>  -0.4200 
  4 N        1.9840     1.9450     0.5020 N.am  1 <1>  -0.4200 
  5 C        3.5130     1.7740    -1.7990 C.2   1 <1>   0.5690 
  6 C        2.3950    -0.3660    -2.3910 C.3   1 <1>   0.0600 
  7 C        2.8230     2.9910     0.1850 C.2   1 <1>   0.5690 
  8 C        0.9960     2.0930     1.6130 C.3   1 <1>   0.0600 
  9 O        3.8680     1.9070    -2.9480 O.2   1 <1>  -0.5700 
 10 C        4.0500     2.7160    -0.7060 C.3   1 <1>   0.2660 
 11 O        2.6110     4.0990     0.6200 O.2   1 <1>  -0.5700 
 12 C        5.1550     1.9760     0.0850 C.ar  1 <1>  -0.1440 
 13 C        4.6590     4.0160    -1.3270 C.3   1 <1>  -0.1600 
 14 C        5.2430     2.0560     1.4730 C.ar  1 <1>  -0.1500 
 15 C        6.1060     1.2180    -0.5910 C.ar  1 <1>  -0.1500 
 16 C        5.4360     4.9350    -0.3630 C.3   1 <1>  -0.2400 
 17 C        6.2340     1.3790     2.1610 C.ar  1 <1>  -0.1500 
 18 C        7.0970     0.5410     0.0970 C.ar  1 <1>  -0.1500 
 19 C        7.1610     0.6180     1.4750 C.ar  1 <1>  -0.1500 
 20 H        1.4440    -0.2170    -2.8700 H     1 <1>   0.0800 
 21 H        2.3770    -1.3010    -1.8590 H     1 <1>   0.0800 
 22 H        3.1630    -0.4180    -3.1430 H     1 <1>   0.0800 
 23 H        0.9530     1.1850     2.1900 H     1 <1>   0.0800 
 24 H        0.0230     2.2950     1.2030 H     1 <1>   0.0800 
 25 H        1.2750     2.8990     2.2690 H     1 <1>   0.0800 
 26 H        3.8690     4.5830    -1.7880 H     1 <1>   0.0800 
 27 H        5.3450     3.7380    -2.1090 H     1 <1>   0.0800 
 28 H        4.5510     2.6500     2.0460 H     1 <1>   0.1500 
 29 H        6.0930     1.1460    -1.6660 H     1 <1>   0.1500 
 30 H        4.8170     5.2710     0.4490 H     1 <1>   0.0800 
 31 H        5.7860     5.8020    -0.8940 H     1 <1>   0.0800 
 32 H        6.2930     4.4270     0.0450 H     1 <1>   0.0800 
 33 H        6.2860     1.4480     3.2340 H     1 <1>   0.1500 
 34 H        7.8220    -0.0440    -0.4420 H     1 <1>   0.1500 
 35 H        7.9310     0.0910     2.0110 H     1 <1>   0.1500 
@<TRIPOS>BOND
  1   1   2  2   
  2   2   3  am  
  3   2   4  am  
  4   3   5  am  
  5   3   6  1   
  6   4   7  am  
  7   4   8  1   
  8   5   9  2   
  9   5  10  1   
 10   6  20  1   
 11   6  21  1   
 12   6  22  1   
 13   7  10  1   
 14   7  11  2   
 15   8  23  1   
 16   8  24  1   
 17   8  25  1   
 18  10  12  1   
 19  10  13  1   
 20  12  14  ar  
 21  12  15  ar  
 22  13  16  1   
 23  13  26  1   
 24  13  27  1   
 25  14  17  ar  
 26  14  28  1   
 27  15  18  ar  
 28  15  29  1   
 29  16  30  1   
 30  16  31  1   
 31  16  32  1   
 32  17  19  ar  
 33  17  33  1   
 34  18  19  ar  
 35  18  34  1   
 36  19  35  1   
@<TRIPOS>SUBSTRUCTURE
  1 ****  10 GROUP 4 **** **** 0

# MOE 2024.06 (io_trps.svl 2023.06)
