@<TRIPOS>MOLECULE
NONAME
50 52 1 0 0 
SMALL
USER_CHARGES


@<TRIPOS>ATOM
  1 O       -0.1350    -1.0150     0.1100 O.3   1 <1>  -0.3630 
  2 C       -1.3620    -1.3660    -0.3550 C.ar  1 <1>   0.0830 
  3 C        0.6340    -0.0010    -0.5000 C.3   1 <1>   0.0400 
  4 C       -1.9900    -2.4540     0.2440 C.ar  1 <1>  -0.1440 
  5 C       -1.9990    -0.6910    -1.3910 C.ar  1 <1>  -0.1500 
  6 C       -3.2430    -2.8500    -0.1930 C.ar  1 <1>  -0.1500 
  7 C       -1.3030    -3.2140     1.3710 C.3   1 <1>  -0.0960 
  8 C       -3.2510    -1.0910    -1.8190 C.ar  1 <1>  -0.1500 
  9 C       -3.8840    -2.1690    -1.2180 C.ar  1 <1>  -0.1440 
 10 C       -5.2670    -2.5920    -1.6680 C.3   1 <1>   0.4860 
 11 N       -6.2420    -2.2080    -0.6120 N.4   1 <1>  -0.9590 
 12 C       -7.6240    -2.7380    -0.8970 C.3   1 <1>   0.3430 
 13 C       -6.2680    -0.7130    -0.3880 C.3   1 <1>   0.3430 
 14 C       -8.6400    -2.3700     0.2060 C.3   1 <1>   0.2090 
 15 C       -7.2600    -0.2920     0.7170 C.3   1 <1>   0.2090 
 16 N       -8.6040    -0.9140     0.5240 N.pl3 1 <1>  -0.8380 
 17 C       -9.6270    -0.1170     0.0120 C.ar  1 <1>   0.1000 
 18 C      -10.6950     0.2790     0.8180 C.ar  1 <1>  -0.1430 
 19 C       -9.5980     0.2930    -1.3170 C.ar  1 <1>  -0.1500 
 20 C      -11.7040     1.0650     0.2880 C.ar  1 <1>  -0.1500 
 21 C      -10.7660    -0.1430     2.2790 C.3   1 <1>  -0.0970 
 22 C      -10.6070     1.0780    -1.8400 C.ar  1 <1>  -0.1500 
 23 C      -11.6640     1.4660    -1.0370 C.ar  1 <1>  -0.1500 
 24 H        1.5750     0.0600     0.0180 H     1 <1>   0.0800 
 25 H        0.1110     0.9350    -0.4150 H     1 <1>   0.0800 
 26 H        0.8020    -0.2600    -1.5300 H     1 <1>   0.0800 
 27 H       -1.5320     0.1470    -1.8740 H     1 <1>   0.1500 
 28 H       -3.7110    -3.7000     0.2740 H     1 <1>   0.1500 
 29 H       -0.3660    -3.6100     1.0210 H     1 <1>   0.0800 
 30 H       -1.9060    -4.0280     1.7270 H     1 <1>   0.0800 
 31 H       -1.1040    -2.5470     2.1920 H     1 <1>   0.0800 
 32 H       -3.7190    -0.5520    -2.6260 H     1 <1>   0.1500 
 33 H       -5.2800    -3.6590    -1.8180 H     1 <1>   0.0800 
 34 H       -5.5150    -2.1110    -2.6000 H     1 <1>   0.0800 
 35 H       -5.9090    -2.6230     0.2660 H     1 <1>   0.4500 
 36 H       -7.5950    -3.8100    -0.9980 H     1 <1>   0.0800 
 37 H       -7.9830    -2.3280    -1.8260 H     1 <1>   0.0800 
 38 H       -6.5540    -0.2170    -1.3000 H     1 <1>   0.0800 
 39 H       -5.2850    -0.3640    -0.1190 H     1 <1>   0.0800 
 40 H       -8.4280    -2.9290     1.1000 H     1 <1>   0.0800 
 41 H       -9.6320    -2.6390    -0.1180 H     1 <1>   0.0800 
 42 H       -7.3600     0.7810     0.7170 H     1 <1>   0.0800 
 43 H       -6.8760    -0.5810     1.6790 H     1 <1>   0.0800 
 44 H       -8.7860    -0.0020    -1.9490 H     1 <1>   0.1500 
 45 H      -12.5320     1.3740     0.9020 H     1 <1>   0.1500 
 46 H      -10.8180    -1.2140     2.3470 H     1 <1>   0.0800 
 47 H      -11.6300     0.2740     2.7640 H     1 <1>   0.0800 
 48 H       -9.8870     0.1950     2.7980 H     1 <1>   0.0800 
 49 H      -10.5780     1.3910    -2.8700 H     1 <1>   0.1500 
 50 H      -12.4530     2.0770    -1.4380 H     1 <1>   0.1500 
@<TRIPOS>BOND
  1   1   2  1   
  2   1   3  1   
  3   2   4  ar  
  4   2   5  ar  
  5   3  24  1   
  6   3  25  1   
  7   3  26  1   
  8   4   6  ar  
  9   4   7  1   
 10   5   8  ar  
 11   5  27  1   
 12   6   9  ar  
 13   6  28  1   
 14   7  29  1   
 15   7  30  1   
 16   7  31  1   
 17   8   9  ar  
 18   8  32  1   
 19   9  10  1   
 20  10  11  1   
 21  10  33  1   
 22  10  34  1   
 23  11  12  1   
 24  11  13  1   
 25  11  35  1   
 26  12  14  1   
 27  12  36  1   
 28  12  37  1   
 29  13  15  1   
 30  13  38  1   
 31  13  39  1   
 32  14  16  1   
 33  14  40  1   
 34  14  41  1   
 35  15  16  1   
 36  15  42  1   
 37  15  43  1   
 38  16  17  1   
 39  17  18  ar  
 40  17  19  ar  
 41  18  20  ar  
 42  18  21  1   
 43  19  22  ar  
 44  19  44  1   
 45  20  23  ar  
 46  20  45  1   
 47  21  46  1   
 48  21  47  1   
 49  21  48  1   
 50  22  23  ar  
 51  22  49  1   
 52  23  50  1   
@<TRIPOS>SUBSTRUCTURE
  1 ****  13 GROUP 4 **** **** 0

# MOE 2024.06 (io_trps.svl 2023.06)
