@<TRIPOS>MOLECULE
NONAME
46 47 1 0 0 
SMALL
USER_CHARGES


@<TRIPOS>ATOM
  1 S       -1.4990     0.5370     0.6430 S.o2  1 <1>   1.4470 
  2 O       -2.7570     1.2170     0.8710 O.2   1 <1>  -0.6500 
  3 O       -1.0760    -0.4740     1.5850 O.2   1 <1>  -0.6500 
  4 N       -1.6240    -0.2160    -0.8710 N.am  1 <1>  -0.8490 
  5 C       -0.1590     1.7390     0.4090 C.ar  1 <1>  -0.0090 
  6 C       -2.2700    -1.5630    -0.8060 C.3   1 <1>   0.2570 
  7 C       -2.1860     0.6580    -1.9060 C.3   1 <1>   0.1960 
  8 C       -0.3190     3.0760     0.7570 C.ar  1 <1>  -0.1500 
  9 C        1.0630     1.3480    -0.1260 C.ar  1 <1>  -0.1500 
 10 C       -3.8080    -1.6340    -0.7740 C.2   1 <1>   0.5690 
 11 C       -1.9310     0.0840    -3.2980 C.3   1 <1>  -0.2400 
 12 C        0.7020     3.9920     0.5740 C.ar  1 <1>  -0.1500 
 13 C        2.0900     2.2570    -0.3130 C.ar  1 <1>  -0.1500 
 14 O       -4.3500    -2.4580    -1.4720 O.2   1 <1>  -0.5700 
 15 N       -4.5300    -0.7880     0.0100 N.am  1 <1>  -0.7300 
 16 C        1.9090     3.5830     0.0370 C.ar  1 <1>  -0.1500 
 17 C       -5.9930    -0.7440     0.1150 C.3   1 <1>   0.2200 
 18 C       -6.4840     0.5750    -0.4900 C.3   1 <1>  -0.1600 
 19 C       -6.3810    -0.8570     1.5920 C.3   1 <1>  -0.1600 
 20 C       -8.0000     0.7410    -0.3040 C.3   1 <1>  -0.1600 
 21 C       -7.8960    -0.6940     1.7830 C.3   1 <1>  -0.1600 
 22 C       -8.3930     0.6250     1.1750 C.3   1 <1>  -0.1600 
 23 H       -1.9000    -2.1090     0.0430 H     1 <1>   0.0800 
 24 H       -1.9530    -2.1220    -1.6680 H     1 <1>   0.0800 
 25 H       -1.7080     1.6230    -1.8530 H     1 <1>   0.0800 
 26 H       -3.2420     0.8100    -1.7510 H     1 <1>   0.0800 
 27 H       -1.2540     3.4060     1.1780 H     1 <1>   0.1500 
 28 H        1.2110     0.3160    -0.3990 H     1 <1>   0.1500 
 29 H       -0.8860    -0.1360    -3.4250 H     1 <1>   0.0800 
 30 H       -2.2180     0.8080    -4.0400 H     1 <1>   0.0800 
 31 H       -2.5130    -0.8040    -3.4650 H     1 <1>   0.0800 
 32 H        0.5590     5.0230     0.8500 H     1 <1>   0.1500 
 33 H        3.0290     1.9330    -0.7280 H     1 <1>   0.1500 
 34 H       -4.0480    -0.0400     0.5280 H     1 <1>   0.3700 
 35 H        2.7060     4.2930    -0.1060 H     1 <1>   0.1500 
 36 H       -6.4240    -1.5680    -0.4300 H     1 <1>   0.0800 
 37 H       -6.2500     0.5920    -1.5400 H     1 <1>   0.0800 
 38 H       -5.9800     1.3980    -0.0130 H     1 <1>   0.0800 
 39 H       -5.8730    -0.0930     2.1560 H     1 <1>   0.0800 
 40 H       -6.0750    -1.8180     1.9670 H     1 <1>   0.0800 
 41 H       -8.5130    -0.0190    -0.8690 H     1 <1>   0.0800 
 42 H       -8.3070     1.6990    -0.6850 H     1 <1>   0.0800 
 43 H       -8.1320    -0.7200     2.8320 H     1 <1>   0.0800 
 44 H       -8.4040    -1.5180     1.3100 H     1 <1>   0.0800 
 45 H       -9.4630     0.6850     1.2690 H     1 <1>   0.0800 
 46 H       -7.9680     1.4500     1.7220 H     1 <1>   0.0800 
@<TRIPOS>BOND
  1   1   2  2   
  2   1   3  2   
  3   1   4  am  
  4   1   5  1   
  5   4   6  1   
  6   4   7  1   
  7   5   8  ar  
  8   5   9  ar  
  9   6  10  1   
 10   6  23  1   
 11   6  24  1   
 12   7  11  1   
 13   7  25  1   
 14   7  26  1   
 15   8  12  ar  
 16   8  27  1   
 17   9  13  ar  
 18   9  28  1   
 19  10  14  2   
 20  10  15  am  
 21  11  29  1   
 22  11  30  1   
 23  11  31  1   
 24  12  16  ar  
 25  12  32  1   
 26  13  16  ar  
 27  13  33  1   
 28  15  17  1   
 29  15  34  1   
 30  16  35  1   
 31  17  18  1   
 32  17  19  1   
 33  17  36  1   
 34  18  20  1   
 35  18  37  1   
 36  18  38  1   
 37  19  21  1   
 38  19  39  1   
 39  19  40  1   
 40  20  22  1   
 41  20  41  1   
 42  20  42  1   
 43  21  22  1   
 44  21  43  1   
 45  21  44  1   
 46  22  45  1   
 47  22  46  1   
@<TRIPOS>SUBSTRUCTURE
  1 ****   2 GROUP 4 **** **** 0

# MOE 2024.06 (io_trps.svl 2023.06)
