@<TRIPOS>MOLECULE
NONAME
36 38 1 0 0 
SMALL
USER_CHARGES


@<TRIPOS>ATOM
  1 BR      -0.0130     0.9060    -1.5270 Br    1 <1>  -0.1110 
  2 C        1.4150    -0.2810    -0.9840 C.ar  1 <1>   0.1110 
  3 C        1.1570    -1.5650    -0.5540 C.ar  1 <1>   0.3920 
  4 C        2.7110     0.1510    -1.0220 C.ar  1 <1>   0.1600 
  5 O       -0.1170    -2.0020    -0.5120 O.3   1 <1>  -0.3630 
  6 N        2.1320    -2.3700    -0.1830 N.ar  1 <1>  -0.6200 
  7 N        3.7000    -0.6360    -0.6560 N.ar  1 <1>  -0.6200 
  8 C       -0.4130    -3.3110    -0.0700 C.3   1 <1>   0.2630 
  9 C        3.3620    -1.8630    -0.2520 C.ar  1 <1>   0.7200 
 10 C       -1.9180    -3.5200    -0.1180 C.ar  1 <1>  -0.1440 
 11 N        4.3900    -2.6870     0.1410 N.pl3 1 <1>  -0.8380 
 12 C       -2.7520    -2.7690     0.6970 C.ar  1 <1>  -0.1500 
 13 C       -2.4730    -4.4640    -0.9710 C.ar  1 <1>  -0.1500 
 14 C        4.2020    -4.1020     0.5240 C.3   1 <1>   0.2090 
 15 C        5.8190    -2.3690    -0.0680 C.3   1 <1>   0.2090 
 16 C       -4.1220    -2.9610     0.6650 C.ar  1 <1>  -0.1500 
 17 C       -3.8440    -4.6560    -1.0040 C.ar  1 <1>  -0.1500 
 18 C        5.6080    -4.6060     0.8260 C.3   1 <1>  -0.1600 
 19 C        6.5260    -3.7190    -0.0120 C.3   1 <1>  -0.1600 
 20 C       -4.6690    -3.9050    -0.1850 C.ar  1 <1>  -0.1500 
 21 H        2.9400     1.1480    -1.3530 H     1 <1>   0.1500 
 22 H       -0.0520    -3.4190     0.9380 H     1 <1>   0.0800 
 23 H        0.0970    -4.0080    -0.7120 H     1 <1>   0.0800 
 24 H       -2.3330    -2.0290     1.3570 H     1 <1>   0.1500 
 25 H       -1.8430    -5.0520    -1.6140 H     1 <1>   0.1500 
 26 H        3.7760    -4.6390    -0.3060 H     1 <1>   0.0800 
 27 H        3.5570    -4.1840     1.3820 H     1 <1>   0.0800 
 28 H        6.1550    -1.7300     0.7310 H     1 <1>   0.0800 
 29 H        5.9790    -1.8810    -1.0140 H     1 <1>   0.0800 
 30 H       -4.7630    -2.3740     1.3000 H     1 <1>   0.1500 
 31 H       -4.2690    -5.3890    -1.6670 H     1 <1>   0.1500 
 32 H        5.7170    -5.6490     0.5930 H     1 <1>   0.0800 
 33 H        5.8120    -4.4550     1.8720 H     1 <1>   0.0800 
 34 H        7.5130    -3.6350     0.4070 H     1 <1>   0.0800 
 35 H        6.6000    -4.1110    -1.0110 H     1 <1>   0.0800 
 36 H       -5.7340    -4.0540    -0.2110 H     1 <1>   0.1500 
@<TRIPOS>BOND
  1   1   2  1   
  2   2   3  ar  
  3   2   4  ar  
  4   3   5  1   
  5   3   6  ar  
  6   4   7  ar  
  7   4  21  1   
  8   5   8  1   
  9   6   9  ar  
 10   7   9  ar  
 11   8  10  1   
 12   8  22  1   
 13   8  23  1   
 14   9  11  1   
 15  10  12  ar  
 16  10  13  ar  
 17  11  14  1   
 18  11  15  1   
 19  12  16  ar  
 20  12  24  1   
 21  13  17  ar  
 22  13  25  1   
 23  14  18  1   
 24  14  26  1   
 25  14  27  1   
 26  15  19  1   
 27  15  28  1   
 28  15  29  1   
 29  16  20  ar  
 30  16  30  1   
 31  17  20  ar  
 32  17  31  1   
 33  18  19  1   
 34  18  32  1   
 35  18  33  1   
 36  19  34  1   
 37  19  35  1   
 38  20  36  1   
@<TRIPOS>SUBSTRUCTURE
  1 ****   3 GROUP 4 **** **** 0

# MOE 2024.06 (io_trps.svl 2023.06)
