@<TRIPOS>MOLECULE
NONAME
31 32 1 0 0 
SMALL
USER_CHARGES


@<TRIPOS>ATOM
  1 O        0.0770     0.3660    -0.6960 O.2   1 <1>  -0.5700 
  2 C       -0.1010     1.5100    -0.3210 C.2   1 <1>   0.6900 
  3 N        0.9640     2.3710    -0.1890 N.am  1 <1>  -0.6600 
  4 N       -1.3540     1.9810    -0.0490 N.am  1 <1>  -0.5470 
  5 C        2.3040     2.0150    -0.7310 C.3   1 <1>   0.0600 
  6 C        0.9360     3.6130     0.6330 C.3   1 <1>   0.0600 
  7 C       -2.6010     1.3450     0.0240 C.ar  1 <1>   0.1170 
  8 C       -3.7510     2.1140    -0.1320 C.ar  1 <1>  -0.1500 
  9 C       -2.7400    -0.0220     0.2690 C.ar  1 <1>  -0.1500 
 10 C       -4.9960     1.5200    -0.0470 C.ar  1 <1>  -0.1430 
 11 C       -3.9900    -0.6120     0.3510 C.ar  1 <1>  -0.1500 
 12 C       -5.1150     0.1750     0.1910 C.ar  1 <1>  -0.1430 
 13 C       -6.3490     2.1720    -0.1880 C.3   1 <1>  -0.0170 
 14 C       -6.5610    -0.2500     0.2390 C.3   1 <1>  -0.0170 
 15 C       -7.3110     0.9760    -0.3090 C.3   1 <1>  -0.1600 
 16 H       -1.3780     2.9910     0.0070 H     1 <1>   0.3700 
 17 H        2.2190     1.2370    -1.4710 H     1 <1>   0.0800 
 18 H        2.9360     1.6650     0.0660 H     1 <1>   0.0800 
 19 H        2.7540     2.8760    -1.1930 H     1 <1>   0.0800 
 20 H        0.1230     3.5870     1.3380 H     1 <1>   0.0800 
 21 H        0.8270     4.4690    -0.0090 H     1 <1>   0.0800 
 22 H        1.8540     3.7040     1.1860 H     1 <1>   0.0800 
 23 H       -3.6750     3.1680    -0.3220 H     1 <1>   0.1500 
 24 H       -1.8650    -0.6310     0.3980 H     1 <1>   0.1500 
 25 H       -4.0820    -1.6670     0.5370 H     1 <1>   0.1500 
 26 H       -6.3950     2.8050    -1.0570 H     1 <1>   0.0800 
 27 H       -6.5640     2.7450     0.6960 H     1 <1>   0.0800 
 28 H       -6.8410    -0.4450     1.2600 H     1 <1>   0.0800 
 29 H       -6.7360    -1.1240    -0.3630 H     1 <1>   0.0800 
 30 H       -7.5260     0.8110    -1.3500 H     1 <1>   0.0800 
 31 H       -8.2330     1.1500     0.2170 H     1 <1>   0.0800 
@<TRIPOS>BOND
  1   1   2  2   
  2   2   3  am  
  3   2   4  am  
  4   3   5  1   
  5   3   6  1   
  6   4   7  1   
  7   4  16  1   
  8   5  17  1   
  9   5  18  1   
 10   5  19  1   
 11   6  20  1   
 12   6  21  1   
 13   6  22  1   
 14   7   8  ar  
 15   7   9  ar  
 16   8  10  ar  
 17   8  23  1   
 18   9  11  ar  
 19   9  24  1   
 20  10  12  ar  
 21  10  13  1   
 22  11  12  ar  
 23  11  25  1   
 24  12  14  1   
 25  13  15  1   
 26  13  26  1   
 27  13  27  1   
 28  14  15  1   
 29  14  28  1   
 30  14  29  1   
 31  15  30  1   
 32  15  31  1   
@<TRIPOS>SUBSTRUCTURE
  1 ****   7 GROUP 4 **** **** 0

# MOE 2024.06 (io_trps.svl 2023.06)
