@<TRIPOS>MOLECULE
NONAME
43 44 1 0 0 
SMALL
USER_CHARGES


@<TRIPOS>ATOM
  1 S       -0.1610     0.3400    -0.2880 S.3   1 <1>  -0.0800 
  2 C       -1.1420    -1.1070    -0.1480 C.2   1 <1>   0.1040 
  3 C        1.3160    -0.5940    -0.4370 C.2   1 <1>  -0.1400 
  4 N       -2.5090    -0.9910     0.0770 N.am  1 <1>  -0.4940 
  5 C       -0.3620    -2.2260    -0.2360 C.2   1 <1>  -0.0860 
  6 C        1.0430    -1.9130    -0.3880 C.2   1 <1>  -0.1810 
  7 C        2.5850     0.2230    -0.5850 C.3   1 <1>  -0.0600 
  8 C       -3.3840     0.0360    -0.1680 C.2   1 <1>   0.5690 
  9 C       -0.8920    -3.5620    -0.2060 C.2   1 <1>   0.7160 
 10 C        2.0830    -3.0210    -0.4850 C.3   1 <1>  -0.0590 
 11 O       -3.1010     1.0040    -0.8290 O.2   1 <1>  -0.5700 
 12 C       -4.7940    -0.1000     0.4150 C.3   1 <1>  -0.0190 
 13 O       -0.3860    -4.4720     0.4160 O.2   1 <1>  -0.5700 
 14 N       -2.0130    -3.8690    -0.8960 N.am  1 <1>  -0.8000 
 15 C       -5.5900    -1.2150    -0.2920 C.3   1 <1>  -0.1600 
 16 C       -5.5930     1.2220     0.3700 C.3   1 <1>  -0.1600 
 17 C       -7.0050    -1.3530     0.2790 C.3   1 <1>   0.1400 
 18 C       -7.0070     1.0560     0.9310 C.3   1 <1>   0.1400 
 19 N       -7.7000    -0.0410     0.2010 N.am  1 <1>  -0.6600 
 20 C       -8.8550     0.1010    -0.5270 C.2   1 <1>   0.5690 
 21 O       -9.3700    -0.8280    -1.1020 O.2   1 <1>  -0.5700 
 22 C       -9.5360     1.4440    -0.6420 C.3   1 <1>  -0.1790 
 23 H       -2.9380    -1.8190     0.4860 H     1 <1>   0.3700 
 24 H        2.5240     0.8300    -1.4700 H     1 <1>   0.0800 
 25 H        3.4500    -0.4080    -0.6590 H     1 <1>   0.0800 
 26 H        2.7020     0.8670     0.2680 H     1 <1>   0.0800 
 27 H        3.0630    -2.6260    -0.6750 H     1 <1>   0.0800 
 28 H        1.8320    -3.6960    -1.2830 H     1 <1>   0.0800 
 29 H        2.1160    -3.5740     0.4370 H     1 <1>   0.0800 
 30 H       -4.6820    -0.3710     1.4500 H     1 <1>   0.0800 
 31 H       -2.2610    -4.8560    -0.9660 H     1 <1>   0.3700 
 32 H       -2.3200    -3.2710    -1.6630 H     1 <1>   0.3700 
 33 H       -5.0850    -2.1590    -0.1910 H     1 <1>   0.0800 
 34 H       -5.6660    -0.9950    -1.3440 H     1 <1>   0.0800 
 35 H       -5.6640     1.5700    -0.6460 H     1 <1>   0.0800 
 36 H       -5.0720     1.9760     0.9340 H     1 <1>   0.0800 
 37 H       -6.9630    -1.6660     1.3080 H     1 <1>   0.0800 
 38 H       -7.5430    -2.1050    -0.2730 H     1 <1>   0.0800 
 39 H       -7.5380     1.9860     0.8410 H     1 <1>   0.0800 
 40 H       -6.9590     0.8030     1.9770 H     1 <1>   0.0800 
 41 H       -9.8340     1.7870     0.3300 H     1 <1>   0.0800 
 42 H      -10.4130     1.3530    -1.2580 H     1 <1>   0.0800 
 43 H       -8.8700     2.1530    -1.0960 H     1 <1>   0.0800 
@<TRIPOS>BOND
  1   1   2  1   
  2   1   3  1   
  3   2   4  1   
  4   2   5  2   
  5   3   6  2   
  6   3   7  1   
  7   4   8  am  
  8   4  23  1   
  9   5   6  1   
 10   5   9  1   
 11   6  10  1   
 12   7  24  1   
 13   7  25  1   
 14   7  26  1   
 15   8  11  2   
 16   8  12  1   
 17   9  13  2   
 18   9  14  am  
 19  10  27  1   
 20  10  28  1   
 21  10  29  1   
 22  12  15  1   
 23  12  16  1   
 24  12  30  1   
 25  14  31  1   
 26  14  32  1   
 27  15  17  1   
 28  15  33  1   
 29  15  34  1   
 30  16  18  1   
 31  16  35  1   
 32  16  36  1   
 33  17  19  1   
 34  17  37  1   
 35  17  38  1   
 36  18  19  1   
 37  18  39  1   
 38  18  40  1   
 39  19  20  am  
 40  20  21  2   
 41  20  22  1   
 42  22  41  1   
 43  22  42  1   
 44  22  43  1   
@<TRIPOS>SUBSTRUCTURE
  1 ****   4 GROUP 4 **** **** 0

# MOE 2024.06 (io_trps.svl 2023.06)
