@<TRIPOS>MOLECULE
NONAME
47 49 1 0 0 
SMALL
USER_CHARGES


@<TRIPOS>ATOM
  1 S        0.1660     0.4570    -0.1850 S.3   1 <1>  -0.3320 
  2 C        1.6570    -0.5320    -0.0980 C.ar  1 <1>   0.7220 
  3 C       -1.2060    -0.7700    -0.0600 C.3   1 <1>   0.0700 
  4 N        1.4590    -1.8660     0.0260 N.ar  1 <1>  -0.3100 
  5 N        2.7840     0.1240    -0.1630 N.ar  1 <1>  -0.5670 
  6 C       -2.5230     0.0040    -0.1580 C.3   1 <1>   0.3430 
  7 N        2.4840    -2.6650     0.0950 N.ar  1 <1>  -0.2560 
  8 C        3.8270    -0.7080    -0.0890 C.ar  1 <1>   0.1050 
  9 N       -3.7260    -0.8790     0.0000 N.4   1 <1>  -0.9590 
 10 C        3.6880    -2.0800     0.0370 C.ar  1 <1>   0.2560 
 11 N        5.1610    -0.3910    -0.1230 N.pl3 1 <1>   0.0480 
 12 C       -3.8590    -1.8620    -1.1130 C.3   1 <1>   0.3430 
 13 C       -4.9470    -0.0380     0.1370 C.3   1 <1>   0.3430 
 14 C        4.9960    -2.6310     0.0840 C.ar  1 <1>   0.0000 
 15 C        5.8840    -1.5650    -0.0180 C.ar  1 <1>  -0.1520 
 16 C        5.7310     0.9630    -0.2500 C.3   1 <1>   0.0160 
 17 C       -3.5700    -3.2530    -0.5650 C.3   1 <1>  -0.2400 
 18 C       -6.0760    -0.8670     0.7380 C.3   1 <1>  -0.2400 
 19 C        5.4820    -3.9340     0.2020 C.ar  1 <1>  -0.1500 
 20 C        7.2610    -1.7880    -0.0020 C.ar  1 <1>  -0.1500 
 21 C        6.8430    -4.1570     0.2180 C.ar  1 <1>  -0.1430 
 22 C        7.7280    -3.0790     0.1150 C.ar  1 <1>  -0.1500 
 23 C        7.4010    -5.5630     0.3450 C.3   1 <1>  -0.0970 
 24 H       -1.0990    -1.2640     0.8900 H     1 <1>   0.0800 
 25 H       -1.0790    -1.4620    -0.8730 H     1 <1>   0.0800 
 26 H       -2.5630     0.5090    -1.1100 H     1 <1>   0.0800 
 27 H       -2.5270     0.7550     0.6160 H     1 <1>   0.0800 
 28 H       -3.6300    -1.4110     0.8750 H     1 <1>   0.4500 
 29 H       -3.1720    -1.6270    -1.9110 H     1 <1>   0.0800 
 30 H       -4.8590    -1.8400    -1.5160 H     1 <1>   0.0800 
 31 H       -5.2420     0.3540    -0.8240 H     1 <1>   0.0800 
 32 H       -4.7440     0.7950     0.7920 H     1 <1>   0.0800 
 33 H        4.9390     1.6880    -0.3140 H     1 <1>   0.0800 
 34 H        6.3320     1.0130    -1.1390 H     1 <1>   0.0800 
 35 H        6.3380     1.1740     0.6110 H     1 <1>   0.0800 
 36 H       -2.5690    -3.3250    -0.1790 H     1 <1>   0.0800 
 37 H       -3.6690    -3.9720    -1.3590 H     1 <1>   0.0800 
 38 H       -4.2750    -3.5150     0.2050 H     1 <1>   0.0800 
 39 H       -6.3680    -1.6710     0.0870 H     1 <1>   0.0800 
 40 H       -6.9360    -0.2370     0.8830 H     1 <1>   0.0800 
 41 H       -5.7920    -1.2620     1.6980 H     1 <1>   0.0800 
 42 H        4.7790    -4.7440     0.2790 H     1 <1>   0.1500 
 43 H        7.9470    -0.9640    -0.0800 H     1 <1>   0.1500 
 44 H        8.7870    -3.2660     0.1290 H     1 <1>   0.1500 
 45 H        6.6090    -6.2860     0.4150 H     1 <1>   0.0800 
 46 H        8.0100    -5.6360     1.2280 H     1 <1>   0.0800 
 47 H        8.0040    -5.7970    -0.5140 H     1 <1>   0.0800 
@<TRIPOS>BOND
  1   1   2  1   
  2   1   3  1   
  3   2   4  ar  
  4   2   5  ar  
  5   3   6  1   
  6   3  24  1   
  7   3  25  1   
  8   4   7  ar  
  9   5   8  ar  
 10   6   9  1   
 11   6  26  1   
 12   6  27  1   
 13   7  10  ar  
 14   8  10  ar  
 15   8  11  1   
 16   9  12  1   
 17   9  13  1   
 18   9  28  1   
 19  10  14  1   
 20  11  15  1   
 21  11  16  1   
 22  12  17  1   
 23  12  29  1   
 24  12  30  1   
 25  13  18  1   
 26  13  31  1   
 27  13  32  1   
 28  14  15  ar  
 29  14  19  ar  
 30  15  20  ar  
 31  16  33  1   
 32  16  34  1   
 33  16  35  1   
 34  17  36  1   
 35  17  37  1   
 36  17  38  1   
 37  18  39  1   
 38  18  40  1   
 39  18  41  1   
 40  19  21  ar  
 41  19  42  1   
 42  20  22  ar  
 43  20  43  1   
 44  21  22  ar  
 45  21  23  1   
 46  22  44  1   
 47  23  45  1   
 48  23  46  1   
 49  23  47  1   
@<TRIPOS>SUBSTRUCTURE
  1 ****   4 GROUP 4 **** **** 0

# MOE 2024.06 (io_trps.svl 2023.06)
