@<TRIPOS>MOLECULE
NONAME
34 34 1 0 0 
SMALL
USER_CHARGES


@<TRIPOS>ATOM
  1 S       -0.1130    -0.0280    -0.6960 S.3   1 <1>  -0.3710 
  2 C        1.4650     0.7830    -0.8230 C.2   1 <1>   0.6410 
  3 C       -1.3120     1.2240    -0.0690 C.3   1 <1>   0.2080 
  4 N        2.4420     0.1120    -1.2960 N.2   1 <1>  -0.6610 
  5 N        1.5290     2.0760    -0.4040 N.pl3 1 <1>  -0.5500 
  6 C       -2.6640     0.5490     0.0420 C.2   1 <1>  -0.2880 
  7 C        3.6380     0.7610    -1.3840 C.2   1 <1>   0.7670 
  8 C        2.6990     2.7790    -0.4660 C.2   1 <1>  -0.0380 
  9 C       -3.3980     0.4690     1.1560 C.2   1 <1>  -0.3000 
 10 O        4.5840     0.1270    -1.8300 O.2   1 <1>  -0.5700 
 11 C        3.7810     2.1300    -0.9730 C.2   1 <1>  -0.1240 
 12 C        2.6340     4.2060     0.0550 C.3   1 <1>  -0.1020 
 13 C        5.1550     2.7870    -1.1280 C.3   1 <1>  -0.0220 
 14 C        6.0120     2.5540     0.1220 C.3   1 <1>  -0.1600 
 15 C        7.3840     3.2280    -0.0030 C.3   1 <1>  -0.1600 
 16 C        8.2300     2.9900     1.2500 C.3   1 <1>  -0.2400 
 17 H       -1.3400     2.0320    -0.7790 H     1 <1>   0.0800 
 18 H       -0.9630     1.5630     0.8900 H     1 <1>   0.0800 
 19 H        0.6870     2.5040    -0.0290 H     1 <1>   0.4000 
 20 H       -2.9850     0.1230    -0.8940 H     1 <1>   0.1500 
 21 H       -4.3560    -0.0210     1.2060 H     1 <1>   0.1500 
 22 H       -3.1100     0.8770     2.1100 H     1 <1>   0.1500 
 23 H        2.0440     4.8120    -0.6100 H     1 <1>   0.0800 
 24 H        3.6070     4.6490     0.1450 H     1 <1>   0.0800 
 25 H        2.1810     4.2210     1.0300 H     1 <1>   0.0800 
 26 H        5.0490     3.8410    -1.3070 H     1 <1>   0.0800 
 27 H        5.6600     2.3830    -1.9890 H     1 <1>   0.0800 
 28 H        6.1470     1.4940     0.2620 H     1 <1>   0.0800 
 29 H        5.4980     2.9400     0.9860 H     1 <1>   0.0800 
 30 H        7.2580     4.2880    -0.1490 H     1 <1>   0.0800 
 31 H        7.9030     2.8320    -0.8600 H     1 <1>   0.0800 
 32 H        7.7410     3.3960     2.1180 H     1 <1>   0.0800 
 33 H        9.1890     3.4650     1.1430 H     1 <1>   0.0800 
 34 H        8.3870     1.9360     1.4020 H     1 <1>   0.0800 
@<TRIPOS>BOND
  1   1   2  1   
  2   1   3  1   
  3   2   4  2   
  4   2   5  1   
  5   3   6  1   
  6   3  17  1   
  7   3  18  1   
  8   4   7  1   
  9   5   8  1   
 10   5  19  1   
 11   6   9  2   
 12   6  20  1   
 13   7  10  2   
 14   7  11  1   
 15   8  11  2   
 16   8  12  1   
 17   9  21  1   
 18   9  22  1   
 19  11  13  1   
 20  12  23  1   
 21  12  24  1   
 22  12  25  1   
 23  13  14  1   
 24  13  26  1   
 25  13  27  1   
 26  14  15  1   
 27  14  28  1   
 28  14  29  1   
 29  15  16  1   
 30  15  30  1   
 31  15  31  1   
 32  16  32  1   
 33  16  33  1   
 34  16  34  1   
@<TRIPOS>SUBSTRUCTURE
  1 ****   8 GROUP 4 **** **** 0

# MOE 2024.06 (io_trps.svl 2023.06)
