@<TRIPOS>MOLECULE
NONAME
41 42 1 0 0 
SMALL
USER_CHARGES


@<TRIPOS>ATOM
  1 CL       0.3130    -0.2450    -1.3150 Cl    1 <1>  -0.1770 
  2 C        1.6430     0.7990    -0.8810 C.ar  1 <1>   0.1770 
  3 C        1.4130     1.8850    -0.0590 C.ar  1 <1>  -0.1500 
  4 C        2.9080     0.5260    -1.3660 C.ar  1 <1>  -0.1500 
  5 C        2.4710     2.7100     0.2840 C.ar  1 <1>  -0.1500 
  6 C        3.9600     1.3550    -1.0190 C.ar  1 <1>  -0.1500 
  7 C        3.7570     2.4570    -0.1890 C.ar  1 <1>   0.1170 
  8 N        4.8360     3.2970     0.1690 N.am  1 <1>  -0.2370 
  9 C        6.0440     2.8670     0.6410 C.2   1 <1>   0.5690 
 10 C        4.8230     4.6680     0.1230 C.2   1 <1>   0.5690 
 11 O        6.3730     1.7300     0.8770 O.2   1 <1>  -0.5700 
 12 C        6.9870     4.0300     0.8850 C.3   1 <1>   0.2110 
 13 O        3.9120     5.3620    -0.2390 O.2   1 <1>  -0.5700 
 14 C        6.1220     5.2650     0.6120 C.3   1 <1>  -0.0990 
 15 S        8.4030     4.0200    -0.3280 S.3   1 <1>  -0.3610 
 16 C        9.5350     2.7370     0.1010 C.cat 1 <1>   0.8400 
 17 N        9.1230     1.7600     0.8720 N.pl3 1 <1>  -0.7940 
 18 N       10.7470     2.8150    -0.3980 N.pl3 1 <1>  -0.7940 
 19 C        9.8570     0.5960     1.4030 C.3   1 <1>   0.3290 
 20 C       11.3180     3.8650    -1.2700 C.3   1 <1>   0.3290 
 21 C        9.2750    -0.6600     0.7690 C.3   1 <1>  -0.2400 
 22 C       12.8030     3.9880    -0.9540 C.3   1 <1>  -0.2400 
 23 H        0.4200     2.0800     0.3030 H     1 <1>   0.1500 
 24 H        3.0600    -0.3260    -2.0060 H     1 <1>   0.1500 
 25 H        2.2900     3.5610     0.9190 H     1 <1>   0.1500 
 26 H        4.9430     1.1400    -1.3970 H     1 <1>   0.1500 
 27 H        7.3930     4.0230     1.8810 H     1 <1>   0.0800 
 28 H        5.9400     5.8190     1.5150 H     1 <1>   0.0800 
 29 H        6.5390     5.9130    -0.1370 H     1 <1>   0.0800 
 30 H        8.1160     1.6850     1.0790 H     1 <1>   0.4500 
 31 H       11.4070     2.0660    -0.2060 H     1 <1>   0.4500 
 32 H        9.7370     0.5540     2.4740 H     1 <1>   0.0800 
 33 H       10.9090     0.6670     1.1840 H     1 <1>   0.0800 
 34 H       10.8370     4.8150    -1.1010 H     1 <1>   0.0800 
 35 H       11.1840     3.5900    -2.3040 H     1 <1>   0.0800 
 36 H        8.2310    -0.7570     1.0110 H     1 <1>   0.0800 
 37 H        9.7880    -1.5270     1.1470 H     1 <1>   0.0800 
 38 H        9.3930    -0.6370    -0.2990 H     1 <1>   0.0800 
 39 H       12.9500     4.2650     0.0750 H     1 <1>   0.0800 
 40 H       13.2360     4.7550    -1.5710 H     1 <1>   0.0800 
 41 H       13.3170     3.0660    -1.1610 H     1 <1>   0.0800 
@<TRIPOS>BOND
  1   1   2  1   
  2   2   3  ar  
  3   2   4  ar  
  4   3   5  ar  
  5   3  23  1   
  6   4   6  ar  
  7   4  24  1   
  8   5   7  ar  
  9   5  25  1   
 10   6   7  ar  
 11   6  26  1   
 12   7   8  1   
 13   8   9  am  
 14   8  10  am  
 15   9  11  2   
 16   9  12  1   
 17  10  13  2   
 18  10  14  1   
 19  12  14  1   
 20  12  15  1   
 21  12  27  1   
 22  14  28  1   
 23  14  29  1   
 24  15  16  1   
 25  16  17  ar  
 26  16  18  ar  
 27  17  19  1   
 28  17  30  1   
 29  18  20  1   
 30  18  31  1   
 31  19  21  1   
 32  19  32  1   
 33  19  33  1   
 34  20  22  1   
 35  20  34  1   
 36  20  35  1   
 37  21  36  1   
 38  21  37  1   
 39  21  38  1   
 40  22  39  1   
 41  22  40  1   
 42  22  41  1   
@<TRIPOS>SUBSTRUCTURE
  1 ****   9 GROUP 4 **** **** 0

# MOE 2024.06 (io_trps.svl 2023.06)
