@<TRIPOS>MOLECULE
NONAME
28 28 1 0 0 
SMALL
USER_CHARGES


@<TRIPOS>ATOM
  1 I       -0.2680    -0.2750    -0.5590 I     1 <1>  -0.0810 
  2 C        1.4910     0.8960    -0.2850 C.ar  1 <1>   0.0810 
  3 C        2.6980     0.2500    -0.1030 C.ar  1 <1>  -0.1500 
  4 C        1.3800     2.2720    -0.2970 C.ar  1 <1>  -0.1500 
  5 C        3.8460     1.0080     0.0740 C.ar  1 <1>  -0.1440 
  6 C        2.5290     3.0200    -0.1170 C.ar  1 <1>  -0.1500 
  7 C        3.7690     2.4060     0.0670 C.ar  1 <1>   0.1170 
  8 C        5.1750     0.2860     0.2670 C.3   1 <1>  -0.0960 
  9 N        4.9380     3.1600     0.2640 N.am  1 <1>  -0.5470 
 10 C        5.2690     4.4330    -0.1070 C.2   1 <1>   0.5690 
 11 O        4.5400     5.1720    -0.7210 O.2   1 <1>  -0.5700 
 12 C        6.6490     4.9320     0.2770 C.3   1 <1>  -0.0990 
 13 C        7.7580     4.2870    -0.5710 C.3   1 <1>  -0.1600 
 14 C        9.1410     4.8070    -0.1680 C.3   1 <1>  -0.2400 
 15 H        2.7320    -0.8250    -0.1020 H     1 <1>   0.1500 
 16 H        0.4270     2.7490    -0.4410 H     1 <1>   0.1500 
 17 H        2.4550     4.0920    -0.1170 H     1 <1>   0.1500 
 18 H        5.0530    -0.7770     0.1650 H     1 <1>   0.0800 
 19 H        5.5650     0.4870     1.2490 H     1 <1>   0.0800 
 20 H        5.8830     0.6130    -0.4730 H     1 <1>   0.0800 
 21 H        5.6920     2.6400     0.7050 H     1 <1>   0.3700 
 22 H        6.8140     4.7310     1.3190 H     1 <1>   0.0800 
 23 H        6.6730     5.9990     0.1420 H     1 <1>   0.0800 
 24 H        7.5830     4.5110    -1.6100 H     1 <1>   0.0800 
 25 H        7.7350     3.2170    -0.4560 H     1 <1>   0.0800 
 26 H        9.1960     5.8730    -0.3040 H     1 <1>   0.0800 
 27 H        9.8990     4.3480    -0.7780 H     1 <1>   0.0800 
 28 H        9.3480     4.5780     0.8630 H     1 <1>   0.0800 
@<TRIPOS>BOND
  1   1   2  1   
  2   2   3  ar  
  3   2   4  ar  
  4   3   5  ar  
  5   3  15  1   
  6   4   6  ar  
  7   4  16  1   
  8   5   7  ar  
  9   5   8  1   
 10   6   7  ar  
 11   6  17  1   
 12   7   9  1   
 13   8  18  1   
 14   8  19  1   
 15   8  20  1   
 16   9  10  am  
 17   9  21  1   
 18  10  11  2   
 19  10  12  1   
 20  12  13  1   
 21  12  22  1   
 22  12  23  1   
 23  13  14  1   
 24  13  24  1   
 25  13  25  1   
 26  14  26  1   
 27  14  27  1   
 28  14  28  1   
@<TRIPOS>SUBSTRUCTURE
  1 ****   7 GROUP 4 **** **** 0

# MOE 2024.06 (io_trps.svl 2023.06)
