@<TRIPOS>MOLECULE
NONAME
45 47 1 0 0 
SMALL
USER_CHARGES


@<TRIPOS>ATOM
  1 O       -0.0640     2.1550    -1.7340 O.2   1 <1>  -0.5700 
  2 C       -0.5650     2.5290    -0.7000 C.2   1 <1>   0.5690 
  3 N        0.0320     3.5040     0.0350 N.am  1 <1>  -0.7300 
  4 C       -1.8710     1.8950    -0.1770 C.3   1 <1>   0.0610 
  5 C        1.2910     4.2080    -0.3340 C.3   1 <1>   0.2810 
  6 C       -2.4280     0.8320    -1.1610 C.3   1 <1>  -0.1600 
  7 C       -2.9610     2.9810     0.0180 C.3   1 <1>  -0.1600 
  8 C       -1.6210     1.1990     1.1850 C.3   1 <1>  -0.1600 
  9 C        2.4770     3.8400     0.5940 C.2   1 <1>   0.6590 
 10 C        0.9720     5.7080    -0.3390 C.3   1 <1>  -0.2400 
 11 C       -3.7280     0.2050    -0.6260 C.3   1 <1>  -0.0800 
 12 C       -4.2630     2.3640     0.5620 C.3   1 <1>  -0.0800 
 13 C       -2.9190     0.5760     1.7330 C.3   1 <1>  -0.0800 
 14 O        2.7700     4.5370     1.5320 O.2   1 <1>  -0.5700 
 15 O        3.1910     2.7400     0.3560 O.3   1 <1>  -0.4300 
 16 C       -4.7810     1.3120    -0.4350 C.3   1 <1>  -0.1600 
 17 C       -3.4430    -0.4660     0.7290 C.3   1 <1>  -0.1600 
 18 C       -3.9750     1.6830     1.9130 C.3   1 <1>  -0.1600 
 19 C        2.8050     1.6880    -0.4980 C.3   1 <1>   0.1200 
 20 C        3.9000     0.6270    -0.4560 C.3   1 <1>  -0.2400 
 21 H       -0.3750     3.7830     0.9290 H     1 <1>   0.3700 
 22 H        1.5660     3.9420    -1.3390 H     1 <1>   0.0800 
 23 H       -2.6160     1.2880    -2.1180 H     1 <1>   0.0800 
 24 H       -1.6940     0.0600    -1.3140 H     1 <1>   0.0800 
 25 H       -3.1580     3.4650    -0.9230 H     1 <1>   0.0800 
 26 H       -2.6190     3.7350     0.7050 H     1 <1>   0.0800 
 27 H       -1.2420     1.9060     1.9020 H     1 <1>   0.0800 
 28 H       -0.8760     0.4310     1.0650 H     1 <1>   0.0800 
 29 H        0.6810     6.0370     0.6430 H     1 <1>   0.0800 
 30 H        0.1820     5.9180    -1.0390 H     1 <1>   0.0800 
 31 H        1.8440     6.2620    -0.6350 H     1 <1>   0.0800 
 32 H       -4.0940    -0.5280    -1.3260 H     1 <1>   0.0800 
 33 H       -5.0050     3.1330     0.6940 H     1 <1>   0.0800 
 34 H       -2.7240     0.1020     2.6800 H     1 <1>   0.0800 
 35 H       -5.6980     0.8830    -0.0700 H     1 <1>   0.0800 
 36 H       -4.9940     1.7790    -1.3810 H     1 <1>   0.0800 
 37 H       -2.7170    -1.2500     0.6030 H     1 <1>   0.0800 
 38 H       -4.3440    -0.9160     1.1090 H     1 <1>   0.0800 
 39 H       -4.8820     1.2570     2.3060 H     1 <1>   0.0800 
 40 H       -3.6240     2.4120     2.6230 H     1 <1>   0.0800 
 41 H        2.6860     2.0660    -1.4990 H     1 <1>   0.0800 
 42 H        1.8740     1.2810    -0.1440 H     1 <1>   0.0800 
 43 H        4.8310     1.0410    -0.8000 H     1 <1>   0.0800 
 44 H        3.6330    -0.1950    -1.0940 H     1 <1>   0.0800 
 45 H        4.0190     0.2590     0.5480 H     1 <1>   0.0800 
@<TRIPOS>BOND
  1   1   2  2   
  2   2   3  am  
  3   2   4  1   
  4   3   5  1   
  5   3  21  1   
  6   4   6  1   
  7   4   7  1   
  8   4   8  1   
  9   5   9  1   
 10   5  10  1   
 11   5  22  1   
 12   6  11  1   
 13   6  23  1   
 14   6  24  1   
 15   7  12  1   
 16   7  25  1   
 17   7  26  1   
 18   8  13  1   
 19   8  27  1   
 20   8  28  1   
 21   9  14  2   
 22   9  15  1   
 23  10  29  1   
 24  10  30  1   
 25  10  31  1   
 26  11  16  1   
 27  11  17  1   
 28  11  32  1   
 29  12  16  1   
 30  12  18  1   
 31  12  33  1   
 32  13  17  1   
 33  13  18  1   
 34  13  34  1   
 35  15  19  1   
 36  16  35  1   
 37  16  36  1   
 38  17  37  1   
 39  17  38  1   
 40  18  39  1   
 41  18  40  1   
 42  19  20  1   
 43  19  41  1   
 44  19  42  1   
 45  20  43  1   
 46  20  44  1   
 47  20  45  1   
@<TRIPOS>SUBSTRUCTURE
  1 ****   2 GROUP 4 **** **** 0

# MOE 2024.06 (io_trps.svl 2023.06)
