@<TRIPOS>MOLECULE
NONAME
37 38 1 0 0 
SMALL
USER_CHARGES


@<TRIPOS>ATOM
  1 F       -2.0100     0.0680    -0.6360 F     1 <1>  -0.3400 
  2 C       -1.6630    -0.4010     0.5590 C.3   1 <1>   1.0200 
  3 F       -2.6640    -0.0590     1.3670 F     1 <1>  -0.3400 
  4 F       -0.6160     0.3190     0.9550 F     1 <1>  -0.3400 
  5 C       -1.4160    -1.9540     0.5690 C.3   1 <1>   0.6610 
  6 N       -1.0820    -2.5200     1.8990 N.am  1 <1>  -0.7300 
  7 N       -2.5850    -2.7710     0.1040 N.am  1 <1>  -0.7300 
  8 C       -0.0910    -2.1690    -0.1760 C.2   1 <1>   0.5690 
  9 C        0.1750    -3.0060     1.8680 C.2   1 <1>   0.6900 
 10 C       -2.5300    -4.0030    -0.4710 C.2   1 <1>   0.7150 
 11 O        0.1340    -1.8620    -1.3240 O.2   1 <1>  -0.5700 
 12 N        0.7930    -2.7610     0.6760 N.am  1 <1>  -0.4200 
 13 O        0.6630    -3.6150     2.7910 O.2   1 <1>  -0.5700 
 14 O       -1.5080    -4.6510    -0.3710 O.2   1 <1>  -0.5700 
 15 C       -3.6840    -4.5130    -1.1690 C.2   1 <1>   0.0550 
 16 C        2.1210    -3.2850     0.2970 C.3   1 <1>   0.1400 
 17 O       -4.7970    -3.7860    -1.2620 O.3   1 <1>  -0.2800 
 18 C       -3.8870    -5.6960    -1.8120 C.2   1 <1>  -0.1500 
 19 C        1.9790    -4.6940    -0.2850 C.3   1 <1>  -0.1600 
 20 C       -5.6910    -4.4680    -1.9410 C.2   1 <1>  -0.0100 
 21 C       -5.1890    -5.6650    -2.3130 C.2   1 <1>  -0.1500 
 22 C        3.3430    -5.2690    -0.6850 C.3   1 <1>  -0.1600 
 23 C        3.1950    -6.6780    -1.2650 C.3   1 <1>  -0.2400 
 24 H       -1.7900    -3.0540     2.3990 H     1 <1>   0.3700 
 25 H       -3.4490    -2.2490    -0.0560 H     1 <1>   0.3700 
 26 H        2.7530    -3.3080     1.1690 H     1 <1>   0.0800 
 27 H        2.5640    -2.6280    -0.4320 H     1 <1>   0.0800 
 28 H       -3.1870    -6.5060    -1.9230 H     1 <1>   0.1500 
 29 H        1.3400    -4.6580    -1.1510 H     1 <1>   0.0800 
 30 H        1.5220    -5.3370     0.4490 H     1 <1>   0.0800 
 31 H       -6.6600    -4.0340    -2.1180 H     1 <1>   0.1500 
 32 H       -5.6660    -6.4490    -2.8750 H     1 <1>   0.1500 
 33 H        3.9870    -5.3090     0.1780 H     1 <1>   0.0800 
 34 H        3.8050    -4.6310    -1.4190 H     1 <1>   0.0800 
 35 H        2.7530    -7.3390    -0.5400 H     1 <1>   0.0800 
 36 H        4.1590    -7.0670    -1.5410 H     1 <1>   0.0800 
 37 H        2.5700    -6.6590    -2.1410 H     1 <1>   0.0800 
@<TRIPOS>BOND
  1   1   2  1   
  2   2   3  1   
  3   2   4  1   
  4   2   5  1   
  5   5   6  1   
  6   5   7  1   
  7   5   8  1   
  8   6   9  am  
  9   6  24  1   
 10   7  10  am  
 11   7  25  1   
 12   8  11  2   
 13   8  12  am  
 14   9  12  am  
 15   9  13  2   
 16  10  14  2   
 17  10  15  1   
 18  12  16  1   
 19  15  17  1   
 20  15  18  2   
 21  16  19  1   
 22  16  26  1   
 23  16  27  1   
 24  17  20  1   
 25  18  21  1   
 26  18  28  1   
 27  19  22  1   
 28  19  29  1   
 29  19  30  1   
 30  20  21  2   
 31  20  31  1   
 32  21  32  1   
 33  22  23  1   
 34  22  33  1   
 35  22  34  1   
 36  23  35  1   
 37  23  36  1   
 38  23  37  1   
@<TRIPOS>SUBSTRUCTURE
  1 ****   5 GROUP 4 **** **** 0

# MOE 2024.06 (io_trps.svl 2023.06)
