@<TRIPOS>MOLECULE
NONAME
39 41 1 0 0 
SMALL
USER_CHARGES


@<TRIPOS>ATOM
  1 O        1.4060     0.8040    -0.5760 O.2   1 <1>  -0.5700 
  2 C        1.8690    -0.2890    -0.4530 C.2   1 <1>   0.4480 
  3 C        2.7700    -0.6820     0.7220 C.3   1 <1>   0.1220 
  4 C        1.5690    -1.3610    -1.5010 C.3   1 <1>  -0.0190 
  5 C        3.2730     0.5870     1.4450 C.2   1 <1>   0.6590 
  6 C        3.9750    -1.5280     0.2450 C.3   1 <1>  -0.1600 
  7 C        1.9710    -1.5820     1.6980 C.3   1 <1>  -0.1600 
  8 C        0.3140    -2.1880    -1.1590 C.3   1 <1>  -0.1600 
  9 C        2.7840    -2.2610    -1.8090 C.3   1 <1>  -0.1600 
 10 O        2.9100     0.8510     2.5610 O.2   1 <1>  -0.5700 
 11 O        4.2410     1.3220     0.8960 O.3   1 <1>  -0.4300 
 12 C        3.5190    -2.7740    -0.5470 C.3   1 <1>   0.1220 
 13 C        1.4860    -2.9130     1.0860 C.3   1 <1>  -0.0190 
 14 C        0.1870    -2.7300     0.2770 C.3   1 <1>  -0.1600 
 15 C        4.1660     1.9350    -0.3740 C.3   1 <1>   0.0400 
 16 C        2.5710    -3.6380     0.2880 C.2   1 <1>   0.4480 
 17 C        4.7430    -3.6220    -0.9180 C.2   1 <1>   0.6590 
 18 O        2.6350    -4.8300     0.3180 O.2   1 <1>  -0.5700 
 19 O        5.0140    -3.8950    -2.0610 O.2   1 <1>  -0.5700 
 20 O        5.5270    -4.0000     0.0880 O.3   1 <1>  -0.4300 
 21 C        6.6680    -4.8060    -0.1190 C.3   1 <1>   0.0400 
 22 H        1.3390    -0.8420    -2.4170 H     1 <1>   0.0800 
 23 H        4.5510    -1.8300     1.1050 H     1 <1>   0.0800 
 24 H        4.6270    -0.9390    -0.3760 H     1 <1>   0.0800 
 25 H        2.6010    -1.8140     2.5410 H     1 <1>   0.0800 
 26 H        1.1300    -1.0330     2.0900 H     1 <1>   0.0800 
 27 H        0.2450    -3.0140    -1.8470 H     1 <1>   0.0800 
 28 H       -0.5510    -1.5730    -1.3480 H     1 <1>   0.0800 
 29 H        3.4810    -1.6950    -2.4050 H     1 <1>   0.0800 
 30 H        2.4770    -3.0990    -2.4130 H     1 <1>   0.0800 
 31 H        1.2340    -3.5540     1.9140 H     1 <1>   0.0800 
 32 H       -0.3040    -3.6880     0.2180 H     1 <1>   0.0800 
 33 H       -0.4790    -2.0900     0.8310 H     1 <1>   0.0800 
 34 H        5.0460     2.5400    -0.5060 H     1 <1>   0.0800 
 35 H        3.2910     2.5610    -0.4050 H     1 <1>   0.0800 
 36 H        4.1210     1.1850    -1.1420 H     1 <1>   0.0800 
 37 H        7.3460    -4.2900    -0.7760 H     1 <1>   0.0800 
 38 H        6.3570    -5.7370    -0.5620 H     1 <1>   0.0800 
 39 H        7.1350    -4.9870     0.8320 H     1 <1>   0.0800 
@<TRIPOS>BOND
  1   1   2  2   
  2   2   3  1   
  3   2   4  1   
  4   3   5  1   
  5   3   6  1   
  6   3   7  1   
  7   4   8  1   
  8   4   9  1   
  9   4  22  1   
 10   5  10  2   
 11   5  11  1   
 12   6  12  1   
 13   6  23  1   
 14   6  24  1   
 15   7  13  1   
 16   7  25  1   
 17   7  26  1   
 18   8  14  1   
 19   8  27  1   
 20   8  28  1   
 21   9  12  1   
 22   9  29  1   
 23   9  30  1   
 24  11  15  1   
 25  12  16  1   
 26  12  17  1   
 27  13  14  1   
 28  13  16  1   
 29  13  31  1   
 30  14  32  1   
 31  14  33  1   
 32  15  34  1   
 33  15  35  1   
 34  15  36  1   
 35  16  18  2   
 36  17  19  2   
 37  17  20  1   
 38  20  21  1   
 39  21  37  1   
 40  21  38  1   
 41  21  39  1   
@<TRIPOS>SUBSTRUCTURE
  1 ****   6 GROUP 4 **** **** 0

# MOE 2024.06 (io_trps.svl 2023.06)
