@<TRIPOS>MOLECULE
NONAME
43 44 1 0 0 
SMALL
USER_CHARGES


@<TRIPOS>ATOM
  1 O        1.0070    -7.1220     0.5750 O.3   1 <1>  -0.3630 
  2 C        2.2900    -7.2950     0.1870 C.ar  1 <1>   0.0830 
  3 C        0.1330    -6.6250    -0.4070 C.3   1 <1>   0.1200 
  4 C        3.1990    -6.2480     0.3320 C.ar  1 <1>  -0.1440 
  5 C        2.6920    -8.5190    -0.3440 C.ar  1 <1>  -0.1440 
  6 C       -1.2230    -6.3760     0.2510 C.3   1 <1>  -0.1600 
  7 C        4.5050    -6.4260    -0.0910 C.ar  1 <1>  -0.1500 
  8 C        2.7860    -4.9200     0.9500 C.3   1 <1>  -0.0960 
  9 C        4.0040    -8.6750    -0.7600 C.ar  1 <1>  -0.1500 
 10 C        1.7240    -9.6870    -0.4690 C.3   1 <1>  -0.0970 
 11 C       -2.2430    -5.8740    -0.7740 C.3   1 <1>   0.1100 
 12 C        4.9060    -7.6330    -0.6380 C.ar  1 <1>  -0.1500 
 13 N       -3.4760    -5.4230    -0.1050 N.3   1 <1>  -0.8100 
 14 C       -4.2710    -4.5490    -0.9900 C.3   1 <1>   0.1100 
 15 C       -4.2840    -6.5420     0.4270 C.3   1 <1>   0.1100 
 16 C       -5.5140    -4.0010    -0.2610 C.3   1 <1>   0.3430 
 17 C       -5.5290    -6.0230     1.1730 C.3   1 <1>   0.3430 
 18 N       -6.3490    -5.1080     0.3120 N.4   1 <1>  -0.9060 
 19 H        0.0580    -7.3570    -1.1920 H     1 <1>   0.0800 
 20 H        0.5460    -5.7130    -0.8020 H     1 <1>   0.0800 
 21 H       -1.0990    -5.6350     1.0210 H     1 <1>   0.0800 
 22 H       -1.5560    -7.2980     0.6890 H     1 <1>   0.0800 
 23 H        5.2200    -5.6280     0.0050 H     1 <1>   0.1500 
 24 H        2.2650    -4.3230     0.2250 H     1 <1>   0.0800 
 25 H        3.6470    -4.3750     1.2930 H     1 <1>   0.0800 
 26 H        2.1400    -5.0890     1.7930 H     1 <1>   0.0800 
 27 H        4.3320    -9.6090    -1.1790 H     1 <1>   0.1500 
 28 H        1.1110    -9.5620    -1.3420 H     1 <1>   0.0800 
 29 H        1.0920    -9.7380     0.4000 H     1 <1>   0.0800 
 30 H        2.2580   -10.6160    -0.5500 H     1 <1>   0.0800 
 31 H       -2.4640    -6.6450    -1.4940 H     1 <1>   0.0800 
 32 H       -1.8040    -5.0410    -1.2990 H     1 <1>   0.0800 
 33 H        5.9230    -7.7620    -0.9650 H     1 <1>   0.1500 
 34 H       -4.5700    -5.0890    -1.8720 H     1 <1>   0.0800 
 35 H       -3.6630    -3.7160    -1.3020 H     1 <1>   0.0800 
 36 H       -3.6970    -7.1160     1.1220 H     1 <1>   0.0800 
 37 H       -4.5820    -7.1980    -0.3740 H     1 <1>   0.0800 
 38 H       -6.1000    -3.4110    -0.9480 H     1 <1>   0.0800 
 39 H       -5.1790    -3.3520     0.5320 H     1 <1>   0.0800 
 40 H       -5.1960    -5.4930     2.0510 H     1 <1>   0.0800 
 41 H       -6.1260    -6.8600     1.4980 H     1 <1>   0.0800 
 42 H       -6.7540    -5.6510    -0.4580 H     1 <1>   0.4500 
 43 H       -7.1240    -4.7150     0.8590 H     1 <1>   0.4500 
@<TRIPOS>BOND
  1   1   2  1   
  2   1   3  1   
  3   2   4  ar  
  4   2   5  ar  
  5   3   6  1   
  6   3  19  1   
  7   3  20  1   
  8   4   7  ar  
  9   4   8  1   
 10   5   9  ar  
 11   5  10  1   
 12   6  11  1   
 13   6  21  1   
 14   6  22  1   
 15   7  12  ar  
 16   7  23  1   
 17   8  24  1   
 18   8  25  1   
 19   8  26  1   
 20   9  12  ar  
 21   9  27  1   
 22  10  28  1   
 23  10  29  1   
 24  10  30  1   
 25  11  13  1   
 26  11  31  1   
 27  11  32  1   
 28  12  33  1   
 29  13  14  1   
 30  13  15  1   
 31  14  16  1   
 32  14  34  1   
 33  14  35  1   
 34  15  17  1   
 35  15  36  1   
 36  15  37  1   
 37  16  18  1   
 38  16  38  1   
 39  16  39  1   
 40  17  18  1   
 41  17  40  1   
 42  17  41  1   
 43  18  42  1   
 44  18  43  1   
@<TRIPOS>SUBSTRUCTURE
  1 ****   3 GROUP 4 **** **** 0

# MOE 2024.06 (io_trps.svl 2023.06)
