@<TRIPOS>MOLECULE
NONAME
44 45 1 0 0 
SMALL
USER_CHARGES


@<TRIPOS>ATOM
  1 O        1.3520     0.9520    -1.2440 O.3   1 <1>  -0.3630 
  2 C        0.5670     1.9320    -0.7200 C.ar  1 <1>   0.0830 
  3 C        0.8640     0.0870    -2.2500 C.3   1 <1>   0.0400 
  4 C        1.0310     2.5970     0.4130 C.ar  1 <1>  -0.1440 
  5 C       -0.6610     2.2900    -1.2720 C.ar  1 <1>  -0.1500 
  6 C        0.2650     3.6030     0.9820 C.ar  1 <1>  -0.1500 
  7 C        2.3700     2.2240     1.0270 C.3   1 <1>  -0.0160 
  8 C       -1.4150     3.2970    -0.6980 C.ar  1 <1>  -0.1500 
  9 C       -0.9530     3.9530     0.4280 C.ar  1 <1>  -0.1500 
 10 C        3.4850     2.6420     0.0700 C.3   1 <1>   0.3430 
 11 N        4.8060     2.1630     0.5610 N.4   1 <1>  -0.9060 
 12 C        5.9180     2.4810    -0.3550 C.3   1 <1>   0.4230 
 13 C        7.1320     1.6200     0.0310 C.3   1 <1>  -0.1600 
 14 C        6.2480     3.9770    -0.3000 C.3   1 <1>  -0.1600 
 15 C        8.4870     2.2690    -0.3260 C.3   1 <1>  -0.0800 
 16 C        7.3630     4.3340    -1.3020 C.3   1 <1>  -0.1600 
 17 C        8.3530     3.1810    -1.5540 C.3   1 <1>  -0.1600 
 18 C        9.5610     1.2000    -0.5530 C.3   1 <1>  -0.2400 
 19 H        1.6110    -0.6620    -2.4440 H     1 <1>   0.0800 
 20 H        0.6780     0.6560    -3.1430 H     1 <1>   0.0800 
 21 H       -0.0390    -0.3820    -1.9000 H     1 <1>   0.0800 
 22 H       -1.0490     1.8020    -2.1470 H     1 <1>   0.1500 
 23 H        0.6010     4.1260     1.8610 H     1 <1>   0.1500 
 24 H        2.3890     1.1600     1.1850 H     1 <1>   0.0800 
 25 H        2.4910     2.7160     1.9760 H     1 <1>   0.0800 
 26 H       -2.3650     3.5710    -1.1270 H     1 <1>   0.1500 
 27 H       -1.5450     4.7350     0.8730 H     1 <1>   0.1500 
 28 H        3.4820     3.7150    -0.0250 H     1 <1>   0.0800 
 29 H        3.2860     2.2210    -0.9030 H     1 <1>   0.0800 
 30 H        4.7640     1.1430     0.6710 H     1 <1>   0.4500 
 31 H        5.0120     2.5620     1.4830 H     1 <1>   0.4500 
 32 H        5.6370     2.2350    -1.3670 H     1 <1>   0.0800 
 33 H        7.0420     0.6820    -0.4890 H     1 <1>   0.0800 
 34 H        7.1410     1.4150     1.0870 H     1 <1>   0.0800 
 35 H        6.5860     4.2290     0.6910 H     1 <1>   0.0800 
 36 H        5.3860     4.5780    -0.5280 H     1 <1>   0.0800 
 37 H        8.8060     2.8820     0.5030 H     1 <1>   0.0800 
 38 H        7.9010     5.1890    -0.9270 H     1 <1>   0.0800 
 39 H        6.9300     4.6230    -2.2460 H     1 <1>   0.0800 
 40 H        8.0190     2.5960    -2.3950 H     1 <1>   0.0800 
 41 H        9.3130     3.5930    -1.8150 H     1 <1>   0.0800 
 42 H        9.3150     0.5780    -1.3960 H     1 <1>   0.0800 
 43 H        9.6610     0.5760     0.3180 H     1 <1>   0.0800 
 44 H       10.5140     1.6640    -0.7410 H     1 <1>   0.0800 
@<TRIPOS>BOND
  1   1   2  1   
  2   1   3  1   
  3   2   4  ar  
  4   2   5  ar  
  5   3  19  1   
  6   3  20  1   
  7   3  21  1   
  8   4   6  ar  
  9   4   7  1   
 10   5   8  ar  
 11   5  22  1   
 12   6   9  ar  
 13   6  23  1   
 14   7  10  1   
 15   7  24  1   
 16   7  25  1   
 17   8   9  ar  
 18   8  26  1   
 19   9  27  1   
 20  10  11  1   
 21  10  28  1   
 22  10  29  1   
 23  11  12  1   
 24  11  30  1   
 25  11  31  1   
 26  12  13  1   
 27  12  14  1   
 28  12  32  1   
 29  13  15  1   
 30  13  33  1   
 31  13  34  1   
 32  14  16  1   
 33  14  35  1   
 34  14  36  1   
 35  15  17  1   
 36  15  18  1   
 37  15  37  1   
 38  16  17  1   
 39  16  38  1   
 40  16  39  1   
 41  17  40  1   
 42  17  41  1   
 43  18  42  1   
 44  18  43  1   
 45  18  44  1   
@<TRIPOS>SUBSTRUCTURE
  1 ****  10 GROUP 4 **** **** 0

# MOE 2024.06 (io_trps.svl 2023.06)
