@<TRIPOS>MOLECULE
NONAME
49 50 1 0 0 
SMALL
USER_CHARGES


@<TRIPOS>ATOM
  1 S        0.3240     1.3050    -1.4950 S.o2  1 <1>   1.3330 
  2 O        0.8050     2.2090    -2.5120 O.2   1 <1>  -0.6500 
  3 O        1.1370     0.1920    -1.0730 O.2   1 <1>  -0.6500 
  4 N        0.0000     2.2780    -0.1060 N.am  1 <1>  -0.6930 
  5 C       -1.2740     0.6800    -1.9790 C.3   1 <1>  -0.1350 
  6 C       -1.2950     2.5570     0.3210 C.ar  1 <1>   0.1990 
  7 C        1.1370     3.0610     0.4700 C.3   1 <1>   0.2570 
  8 C       -1.8820     1.7760     1.3220 C.ar  1 <1>  -0.1440 
  9 C       -2.0280     3.6040    -0.2510 C.ar  1 <1>  -0.1430 
 10 C        2.1810     2.2350     1.2380 C.2   1 <1>   0.5690 
 11 C       -3.1790     2.0360     1.7290 C.ar  1 <1>  -0.1500 
 12 C       -1.1210     0.6390     1.9990 C.3   1 <1>  -0.0970 
 13 C       -3.3250     3.8450     0.1690 C.ar  1 <1>  -0.1500 
 14 C       -1.4380     4.4980    -1.3390 C.3   1 <1>  -0.0960 
 15 O        1.9510     2.0450     2.4130 O.2   1 <1>  -0.5700 
 16 N        3.3470     1.7750     0.6620 N.am  1 <1>  -0.6600 
 17 C       -3.9010     3.0650     1.1540 C.ar  1 <1>  -0.1500 
 18 C        4.2700     0.9080     1.4460 C.3   1 <1>   0.1400 
 19 C        3.7460     1.9780    -0.7580 C.3   1 <1>   0.1400 
 20 C        5.4100     1.7580     2.0140 C.3   1 <1>  -0.1600 
 21 C        5.0450     2.7860    -0.8700 C.3   1 <1>  -0.1600 
 22 C        6.5910     2.0160     1.0590 C.3   1 <1>  -0.1600 
 23 C        6.2920     1.9940    -0.4490 C.3   1 <1>  -0.1600 
 24 H       -1.1740     0.0490    -2.8400 H     1 <1>   0.0800 
 25 H       -1.9360     1.4870    -2.2210 H     1 <1>   0.0800 
 26 H       -1.7040     0.1060    -1.1820 H     1 <1>   0.0800 
 27 H        0.7330     3.7730     1.1660 H     1 <1>   0.0800 
 28 H        1.6090     3.6300    -0.3070 H     1 <1>   0.0800 
 29 H       -3.6350     1.4420     2.5010 H     1 <1>   0.1500 
 30 H       -0.5430     0.0780     1.2870 H     1 <1>   0.0800 
 31 H       -1.7960    -0.0380     2.4890 H     1 <1>   0.0800 
 32 H       -0.4510     1.0440     2.7370 H     1 <1>   0.0800 
 33 H       -3.9000     4.6440    -0.2650 H     1 <1>   0.1500 
 34 H       -1.2690     3.9320    -2.2360 H     1 <1>   0.0800 
 35 H       -0.5040     4.9160    -1.0130 H     1 <1>   0.0800 
 36 H       -2.1020     5.3100    -1.5740 H     1 <1>   0.0800 
 37 H       -4.9090     3.2600     1.4760 H     1 <1>   0.1500 
 38 H        4.6480     0.1100     0.8330 H     1 <1>   0.0800 
 39 H        3.7300     0.4550     2.2600 H     1 <1>   0.0800 
 40 H        2.9830     2.4970    -1.3010 H     1 <1>   0.0800 
 41 H        3.8640     1.0170    -1.2310 H     1 <1>   0.0800 
 42 H        5.7940     1.2620     2.8880 H     1 <1>   0.0800 
 43 H        5.0010     2.6960     2.3480 H     1 <1>   0.0800 
 44 H        4.9640     3.7020    -0.3130 H     1 <1>   0.0800 
 45 H        5.1610     3.0510    -1.9060 H     1 <1>   0.0800 
 46 H        7.3490     1.2750     1.2490 H     1 <1>   0.0800 
 47 H        7.0210     2.9700     1.3130 H     1 <1>   0.0800 
 48 H        7.1460     2.4090    -0.9560 H     1 <1>   0.0800 
 49 H        6.1990     0.9750    -0.7850 H     1 <1>   0.0800 
@<TRIPOS>BOND
  1   1   2  2   
  2   1   3  2   
  3   1   4  am  
  4   1   5  1   
  5   4   6  1   
  6   4   7  1   
  7   5  24  1   
  8   5  25  1   
  9   5  26  1   
 10   6   8  ar  
 11   6   9  ar  
 12   7  10  1   
 13   7  27  1   
 14   7  28  1   
 15   8  11  ar  
 16   8  12  1   
 17   9  13  ar  
 18   9  14  1   
 19  10  15  2   
 20  10  16  am  
 21  11  17  ar  
 22  11  29  1   
 23  12  30  1   
 24  12  31  1   
 25  12  32  1   
 26  13  17  ar  
 27  13  33  1   
 28  14  34  1   
 29  14  35  1   
 30  14  36  1   
 31  16  18  1   
 32  16  19  1   
 33  17  37  1   
 34  18  20  1   
 35  18  38  1   
 36  18  39  1   
 37  19  21  1   
 38  19  40  1   
 39  19  41  1   
 40  20  22  1   
 41  20  42  1   
 42  20  43  1   
 43  21  23  1   
 44  21  44  1   
 45  21  45  1   
 46  22  23  1   
 47  22  46  1   
 48  22  47  1   
 49  23  48  1   
 50  23  49  1   
@<TRIPOS>SUBSTRUCTURE
  1 ****   7 GROUP 4 **** **** 0

# MOE 2024.06 (io_trps.svl 2023.06)
