@<TRIPOS>MOLECULE
NONAME
51 52 1 0 0 
SMALL
USER_CHARGES


@<TRIPOS>ATOM
  1 CL       0.0180    -0.4010     0.0190 Cl    1 <1>  -0.1770 
  2 C        1.7580    -0.1810     0.0280 C.ar  1 <1>   0.1770 
  3 C        2.2790     1.1040    -0.0620 C.ar  1 <1>  -0.1440 
  4 C        2.5800    -1.2960     0.1240 C.ar  1 <1>  -0.1440 
  5 C        3.6560     1.2700    -0.0550 C.ar  1 <1>  -0.1500 
  6 C        1.3630     2.3150    -0.1660 C.3   1 <1>  -0.0960 
  7 C        3.9530    -1.1090     0.1290 C.ar  1 <1>  -0.1500 
  8 C        2.0000    -2.6990     0.2230 C.3   1 <1>  -0.0960 
  9 C        4.4970     0.1630     0.0390 C.ar  1 <1>   0.0820 
 10 O        5.8510     0.2440     0.0500 O.3   1 <1>  -0.3630 
 11 C        6.5180     1.4830    -0.1070 C.3   1 <1>   0.1200 
 12 C        8.0330     1.2460    -0.0790 C.3   1 <1>   0.2000 
 13 O        8.3450     0.5440     1.0790 O.3   1 <1>  -0.6800 
 14 C        8.8260     2.5740    -0.1560 C.3   1 <1>   0.1100 
 15 N       10.2750     2.4740     0.1560 N.3   1 <1>  -0.8100 
 16 C       10.9310     3.7900     0.1950 C.3   1 <1>   0.1100 
 17 C       11.0090     1.5030    -0.6770 C.3   1 <1>   0.1100 
 18 C       12.3930     3.6650     0.6730 C.3   1 <1>   0.3430 
 19 C       12.4690     1.3660    -0.2010 C.3   1 <1>   0.3430 
 20 N       13.1780     2.6940    -0.1700 N.4   1 <1>  -0.9590 
 21 C       14.5830     2.5150     0.3200 C.3   1 <1>   0.3430 
 22 C       15.4410     3.7780     0.1510 C.3   1 <1>   0.1200 
 23 O       16.7280     3.4700     0.5510 O.3   1 <1>  -0.6800 
 24 H        4.0570     2.2620    -0.1220 H     1 <1>   0.1500 
 25 H        0.7500     2.2370    -1.0460 H     1 <1>   0.0800 
 26 H        1.9280     3.2280    -0.2250 H     1 <1>   0.0800 
 27 H        0.7230     2.3660     0.6970 H     1 <1>   0.0800 
 28 H        4.6180    -1.9500     0.2030 H     1 <1>   0.1500 
 29 H        1.3790    -2.7790     1.0970 H     1 <1>   0.0800 
 30 H        2.7790    -3.4370     0.2910 H     1 <1>   0.0800 
 31 H        1.4040    -2.9120    -0.6470 H     1 <1>   0.0800 
 32 H        6.2270     2.1320     0.6990 H     1 <1>   0.0800 
 33 H        6.2230     1.9100    -1.0490 H     1 <1>   0.0800 
 34 H        8.2940     0.6240    -0.9170 H     1 <1>   0.0800 
 35 H        7.6490    -0.1310     1.2280 H     1 <1>   0.4000 
 36 H        8.3790     3.2600     0.5430 H     1 <1>   0.0800 
 37 H        8.7010     2.9920    -1.1400 H     1 <1>   0.0800 
 38 H       10.4000     4.4290     0.8810 H     1 <1>   0.0800 
 39 H       10.9010     4.2490    -0.7780 H     1 <1>   0.0800 
 40 H       10.9820     1.8020    -1.7110 H     1 <1>   0.0800 
 41 H       10.5450     0.5350    -0.5950 H     1 <1>   0.0800 
 42 H       12.3820     3.3280     1.6970 H     1 <1>   0.0800 
 43 H       12.8550     4.6380     0.6480 H     1 <1>   0.0800 
 44 H       12.9900     0.6840    -0.8520 H     1 <1>   0.0800 
 45 H       12.4580     0.9370     0.7880 H     1 <1>   0.0800 
 46 H       13.1950     3.0480    -1.1340 H     1 <1>   0.4500 
 47 H       15.0540     1.7190    -0.2330 H     1 <1>   0.0800 
 48 H       14.5700     2.2380     1.3620 H     1 <1>   0.0800 
 49 H       15.0850     4.5810     0.7730 H     1 <1>   0.0800 
 50 H       15.4790     4.0850    -0.8800 H     1 <1>   0.0800 
 51 H       17.3350     4.2360     0.4590 H     1 <1>   0.4000 
@<TRIPOS>BOND
  1   1   2  1   
  2   2   3  ar  
  3   2   4  ar  
  4   3   5  ar  
  5   3   6  1   
  6   4   7  ar  
  7   4   8  1   
  8   5   9  ar  
  9   5  24  1   
 10   6  25  1   
 11   6  26  1   
 12   6  27  1   
 13   7   9  ar  
 14   7  28  1   
 15   8  29  1   
 16   8  30  1   
 17   8  31  1   
 18   9  10  1   
 19  10  11  1   
 20  11  12  1   
 21  11  32  1   
 22  11  33  1   
 23  12  13  1   
 24  12  14  1   
 25  12  34  1   
 26  13  35  1   
 27  14  15  1   
 28  14  36  1   
 29  14  37  1   
 30  15  16  1   
 31  15  17  1   
 32  16  18  1   
 33  16  38  1   
 34  16  39  1   
 35  17  19  1   
 36  17  40  1   
 37  17  41  1   
 38  18  20  1   
 39  18  42  1   
 40  18  43  1   
 41  19  20  1   
 42  19  44  1   
 43  19  45  1   
 44  20  21  1   
 45  20  46  1   
 46  21  22  1   
 47  21  47  1   
 48  21  48  1   
 49  22  23  1   
 50  22  49  1   
 51  22  50  1   
 52  23  51  1   
@<TRIPOS>SUBSTRUCTURE
  1 ****  12 GROUP 4 **** **** 0

# MOE 2024.06 (io_trps.svl 2023.06)
