@<TRIPOS>MOLECULE
NONAME
37 38 1 0 0 
SMALL
USER_CHARGES


@<TRIPOS>ATOM
  1 F        0.2700     1.7980     2.0660 F     1 <1>  -0.1900 
  2 C        0.7760     2.3590     0.9940 C.ar  1 <1>   0.1900 
  3 C       -0.0870     2.9810     0.0870 C.ar  1 <1>   0.1170 
  4 C        2.1450     2.3020     0.8260 C.ar  1 <1>  -0.1500 
  5 N       -1.4720     2.9910     0.3430 N.am  1 <1>  -0.5470 
  6 C        0.4900     3.5760    -1.0360 C.ar  1 <1>  -0.1500 
  7 C        2.6620     2.9020    -0.3040 C.ar  1 <1>   0.1900 
  8 C       -2.5600     3.3700    -0.3820 C.2   1 <1>   0.6900 
  9 C        1.8620     3.5380    -1.2370 C.ar  1 <1>  -0.1500 
 10 F        3.9550     2.8700    -0.4990 F     1 <1>  -0.1900 
 11 O       -2.4710     3.7560    -1.5330 O.2   1 <1>  -0.5700 
 12 N       -3.7780     3.2580     0.2220 N.am  1 <1>  -0.6600 
 13 C       -4.3020     4.3520     1.0860 C.3   1 <1>   0.2200 
 14 C       -4.8290     2.4910    -0.5070 C.3   1 <1>   0.2200 
 15 C       -5.0170     5.3970     0.2110 C.3   1 <1>  -0.1600 
 16 C       -3.2260     4.9980     1.9630 C.3   1 <1>  -0.2400 
 17 C       -6.1390     3.2910    -0.6590 C.3   1 <1>  -0.1600 
 18 C       -5.0630     1.1730     0.2270 C.3   1 <1>  -0.2400 
 19 C       -5.8540     4.7750    -0.9250 C.3   1 <1>  -0.1600 
 20 H        2.7810     1.8150     1.5400 H     1 <1>   0.1500 
 21 H       -1.7470     2.5930     1.2390 H     1 <1>   0.3700 
 22 H       -0.1250     4.0750    -1.7620 H     1 <1>   0.1500 
 23 H        2.3050     3.9950    -2.1040 H     1 <1>   0.1500 
 24 H       -5.0300     3.9140     1.7490 H     1 <1>   0.0800 
 25 H       -4.4660     2.2670    -1.4980 H     1 <1>   0.0800 
 26 H       -4.2910     6.0630    -0.2210 H     1 <1>   0.0800 
 27 H       -5.6560     5.9870     0.8440 H     1 <1>   0.0800 
 28 H       -2.4810     5.4880     1.3610 H     1 <1>   0.0800 
 29 H       -2.7590     4.2570     2.5860 H     1 <1>   0.0800 
 30 H       -3.6760     5.7350     2.6020 H     1 <1>   0.0800 
 31 H       -6.7360     3.1960     0.2310 H     1 <1>   0.0800 
 32 H       -6.7090     2.8780    -1.4720 H     1 <1>   0.0800 
 33 H       -5.4120     1.3530     1.2270 H     1 <1>   0.0800 
 34 H       -4.1490     0.6090     0.2650 H     1 <1>   0.0800 
 35 H       -5.7990     0.5890    -0.2960 H     1 <1>   0.0800 
 36 H       -5.2970     4.8520    -1.8450 H     1 <1>   0.0800 
 37 H       -6.7730     5.3200    -1.0500 H     1 <1>   0.0800 
@<TRIPOS>BOND
  1   1   2  1   
  2   2   3  ar  
  3   2   4  ar  
  4   3   5  1   
  5   3   6  ar  
  6   4   7  ar  
  7   4  20  1   
  8   5   8  am  
  9   5  21  1   
 10   6   9  ar  
 11   6  22  1   
 12   7   9  ar  
 13   7  10  1   
 14   8  11  2   
 15   8  12  am  
 16   9  23  1   
 17  12  13  1   
 18  12  14  1   
 19  13  15  1   
 20  13  16  1   
 21  13  24  1   
 22  14  17  1   
 23  14  18  1   
 24  14  25  1   
 25  15  19  1   
 26  15  26  1   
 27  15  27  1   
 28  16  28  1   
 29  16  29  1   
 30  16  30  1   
 31  17  19  1   
 32  17  31  1   
 33  17  32  1   
 34  18  33  1   
 35  18  34  1   
 36  18  35  1   
 37  19  36  1   
 38  19  37  1   
@<TRIPOS>SUBSTRUCTURE
  1 ****   5 GROUP 4 **** **** 0

# MOE 2024.06 (io_trps.svl 2023.06)
