@<TRIPOS>MOLECULE
NONAME
23 23 1 0 0 
SMALL
USER_CHARGES


@<TRIPOS>ATOM
  1 F        0.1000    -0.1570    -0.6310 F     1 <1>  -0.3400 
  2 C        0.6380    -1.2250    -0.0550 C.3   1 <1>   1.1640 
  3 F        0.1360    -1.2790     1.1710 F     1 <1>  -0.3400 
  4 F        0.1570    -2.2790    -0.7010 F     1 <1>  -0.3400 
  5 C        2.1610    -1.2060    -0.0480 C.ar  1 <1>  -0.1440 
  6 C        2.8310    -2.2720     0.5300 C.ar  1 <1>   0.1600 
  7 C        2.9110    -0.1730    -0.5940 C.ar  1 <1>  -0.1500 
  8 N        4.1450    -2.3920     0.6110 N.ar  1 <1>  -0.6200 
  9 C        4.2780    -0.2880    -0.5180 C.ar  1 <1>  -0.1500 
 10 C        4.8470    -1.4030     0.0920 C.ar  1 <1>   0.4100 
 11 N        6.1950    -1.5700     0.2020 N.pl3 1 <1>  -0.8690 
 12 C        7.0640    -0.4720     0.6940 C.3   1 <1>   0.2090 
 13 C        8.0140    -0.0280    -0.4200 C.3   1 <1>   0.1200 
 14 O        8.7750     1.0430     0.0290 O.3   1 <1>  -0.6800 
 15 H        2.2570    -3.0800     0.9540 H     1 <1>   0.1500 
 16 H        2.4550     0.6840    -1.0620 H     1 <1>   0.1500 
 17 H        4.9170     0.4700    -0.9270 H     1 <1>   0.1500 
 18 H        6.3850    -2.4640     0.6630 H     1 <1>   0.4000 
 19 H        7.6370    -0.8240     1.5350 H     1 <1>   0.0800 
 20 H        6.4620     0.3620     1.0110 H     1 <1>   0.0800 
 21 H        7.4560     0.2920    -1.2820 H     1 <1>   0.0800 
 22 H        8.6780    -0.8310    -0.6870 H     1 <1>   0.0800 
 23 H        9.4040     1.3320    -0.6610 H     1 <1>   0.4000 
@<TRIPOS>BOND
  1   1   2  1   
  2   2   3  1   
  3   2   4  1   
  4   2   5  1   
  5   5   6  ar  
  6   5   7  ar  
  7   6   8  ar  
  8   6  15  1   
  9   7   9  ar  
 10   7  16  1   
 11   8  10  ar  
 12   9  10  ar  
 13   9  17  1   
 14  10  11  1   
 15  11  12  1   
 16  11  18  1   
 17  12  13  1   
 18  12  19  1   
 19  12  20  1   
 20  13  14  1   
 21  13  21  1   
 22  13  22  1   
 23  14  23  1   
@<TRIPOS>SUBSTRUCTURE
  1 ****   9 GROUP 4 **** **** 0

# MOE 2024.06 (io_trps.svl 2023.06)
