@<TRIPOS>MOLECULE
NONAME
50 52 1 0 0 
SMALL
USER_CHARGES


@<TRIPOS>ATOM
  1 O        0.1300     0.9580     0.8590 O.3   1 <1>  -0.3560 
  2 C        1.3440     1.5330     0.6830 C.ar  1 <1>   0.0910 
  3 C       -0.9260     1.1640    -0.0520 C.3   1 <1>   0.1280 
  4 C        1.6910     2.2950    -0.4300 C.ar  1 <1>  -0.1420 
  5 C        2.2730     1.3360     1.6910 C.ar  1 <1>  -0.1420 
  6 C       -2.1540     0.4160     0.4680 C.3   1 <1>  -0.1520 
  7 C        2.9600     2.8400    -0.5240 C.ar  1 <1>  -0.1420 
  8 C        3.5400     1.8830     1.5950 C.ar  1 <1>  -0.1420 
  9 C       -3.3560     0.5940    -0.4700 C.3   1 <1>  -0.1520 
 10 C        3.8940     2.6310     0.4810 C.ar  1 <1>   0.3180 
 11 C       -4.5810    -0.1570     0.0590 C.3   1 <1>  -0.2330 
 12 N        5.1840     3.1630     0.3620 N.pl3 1 <1>  -0.8250 
 13 C        6.2960     2.5140     0.1410 C.cat 1 <1>   1.2010 
 14 N        7.4160     3.1810     0.0880 N.pl3 1 <1>  -0.9140 
 15 N        6.3070     1.2310    -0.0310 N.pl3 1 <1>  -0.8410 
 16 C        8.5500     2.5850    -0.1330 C.cat 1 <1>   1.2010 
 17 C        7.4630     0.4320    -0.2860 C.3   1 <1>   0.6590 
 18 N        8.5950     1.3090    -0.3090 N.pl3 1 <1>  -0.8410 
 19 N        9.6230     3.2950    -0.1720 N.pl3 1 <1>  -0.9640 
 20 C        7.3670    -0.3310    -1.5980 C.3   1 <1>  -0.1520 
 21 C        7.6650    -0.6530     0.7610 C.3   1 <1>  -0.1520 
 22 C        8.3080    -1.5350    -1.4420 C.3   1 <1>  -0.1520 
 23 C        8.4980    -1.7410     0.0680 C.3   1 <1>  -0.1520 
 24 H       -0.6290     0.7810    -1.0130 H     1 <1>   0.0880 
 25 H       -1.1230     2.2200    -0.1130 H     1 <1>   0.0880 
 26 H        0.9880     2.4700    -1.2250 H     1 <1>   0.1580 
 27 H        1.9870     0.7540     2.5520 H     1 <1>   0.1580 
 28 H       -2.4040     0.7920     1.4460 H     1 <1>   0.0880 
 29 H       -1.9180    -0.6310     0.5530 H     1 <1>   0.0880 
 30 H        3.2170     3.4270    -1.3880 H     1 <1>   0.1580 
 31 H        4.2400     1.7300     2.3970 H     1 <1>   0.1580 
 32 H       -3.1100     0.2220    -1.4500 H     1 <1>   0.0880 
 33 H       -3.5960     1.6400    -0.5600 H     1 <1>   0.0880 
 34 H       -4.3740    -1.2100     0.1370 H     1 <1>   0.0880 
 35 H       -5.4140    -0.0220    -0.6090 H     1 <1>   0.0880 
 36 H       -4.8610     0.2130     1.0300 H     1 <1>   0.0880 
 37 H        5.2160     4.1760     0.4490 H     1 <1>   0.4560 
 38 H        7.4150     4.1740     0.2360 H     1 <1>   0.4560 
 39 H        5.4250     0.7230    -0.0010 H     1 <1>   0.4560 
 40 H        9.4730     0.8290    -0.4840 H     1 <1>   0.4560 
 41 H       10.5460     2.8950    -0.3400 H     1 <1>   0.4560 
 42 H        9.6550     4.3050    -0.0430 H     1 <1>   0.4560 
 43 H        7.6180     0.2710    -2.4540 H     1 <1>   0.0880 
 44 H        6.3660    -0.7080    -1.7210 H     1 <1>   0.0880 
 45 H        6.7120    -1.0820     1.0210 H     1 <1>   0.0880 
 46 H        8.1380    -0.2900     1.6570 H     1 <1>   0.0880 
 47 H        9.2580    -1.3360    -1.9090 H     1 <1>   0.0880 
 48 H        7.8860    -2.4130    -1.9040 H     1 <1>   0.0880 
 49 H        8.1710    -2.7240     0.3700 H     1 <1>   0.0880 
 50 H        9.5400    -1.6430     0.3250 H     1 <1>   0.0880 
@<TRIPOS>BOND
  1   1   2  1   
  2   1   3  1   
  3   2   4  ar  
  4   2   5  ar  
  5   3   6  1   
  6   3  24  1   
  7   3  25  1   
  8   4   7  ar  
  9   4  26  1   
 10   5   8  ar  
 11   5  27  1   
 12   6   9  1   
 13   6  28  1   
 14   6  29  1   
 15   7  10  ar  
 16   7  30  1   
 17   8  10  ar  
 18   8  31  1   
 19   9  11  1   
 20   9  32  1   
 21   9  33  1   
 22  10  12  1   
 23  11  34  1   
 24  11  35  1   
 25  11  36  1   
 26  12  13  ar  
 27  12  37  1   
 28  13  14  ar  
 29  13  15  ar  
 30  14  16  ar  
 31  14  38  1   
 32  15  17  1   
 33  15  39  1   
 34  16  18  ar  
 35  16  19  ar  
 36  17  18  1   
 37  17  20  1   
 38  17  21  1   
 39  18  40  1   
 40  19  41  1   
 41  19  42  1   
 42  20  22  1   
 43  20  43  1   
 44  20  44  1   
 45  21  23  1   
 46  21  45  1   
 47  21  46  1   
 48  22  23  1   
 49  22  47  1   
 50  22  48  1   
 51  23  49  1   
 52  23  50  1   
@<TRIPOS>SUBSTRUCTURE
  1 ****  10 GROUP 4 **** **** 0

# MOE 2024.06 (io_trps.svl 2023.06)
