@<TRIPOS>MOLECULE
NONAME
36 38 1 0 0 
SMALL
USER_CHARGES


@<TRIPOS>ATOM
  1 N       -0.6380    -0.1050    -0.1470 N.2   1 <1>  -0.5030 
  2 N       -0.4490     1.1620    -0.6260 N.pl3 1 <1>  -0.5690 
  3 C       -1.7540    -0.7100    -0.0160 C.2   1 <1>   0.3280 
  4 C       -1.7660    -2.1520     0.5070 C.3   1 <1>   0.0610 
  5 C       -3.1800    -0.2460    -0.3860 C.3   1 <1>   0.0610 
  6 C       -2.2200    -3.0410    -0.6620 C.3   1 <1>   0.3430 
  7 C       -2.7140    -2.2500     1.7130 C.3   1 <1>   0.1100 
  8 C       -0.3760    -2.6530     0.9680 C.3   1 <1>  -0.2400 
  9 C       -3.6130    -1.1360    -1.5630 C.3   1 <1>   0.3430 
 10 C       -4.1030    -0.4220     0.8370 C.3   1 <1>   0.1100 
 11 C       -3.3510     1.2210    -0.8460 C.3   1 <1>  -0.2400 
 12 N       -3.5020    -2.6210    -1.3340 N.4   1 <1>  -0.9590 
 13 N       -4.0640    -1.7750     1.4010 N.3   1 <1>  -0.8100 
 14 C       -4.7220    -3.1830    -0.6580 C.3   1 <1>   0.3430 
 15 C       -4.9790    -2.7640     0.8080 C.3   1 <1>   0.1100 
 16 H       -1.1620     1.8780    -0.4420 H     1 <1>   0.3110 
 17 H        0.5060     1.5440    -0.5680 H     1 <1>   0.3110 
 18 H       -2.3080    -4.0570    -0.3160 H     1 <1>   0.0800 
 19 H       -1.4310    -3.0190    -1.3960 H     1 <1>   0.0800 
 20 H       -2.7590    -3.2610     2.0810 H     1 <1>   0.0800 
 21 H       -2.3210    -1.6390     2.5100 H     1 <1>   0.0800 
 22 H        0.0010    -2.0300     1.7630 H     1 <1>   0.0800 
 23 H        0.3350    -2.6160     0.1600 H     1 <1>   0.0800 
 24 H       -0.4270    -3.6650     1.3300 H     1 <1>   0.0800 
 25 H       -2.9860    -0.8750    -2.4000 H     1 <1>   0.0800 
 26 H       -4.6270    -0.8890    -1.8330 H     1 <1>   0.0800 
 27 H       -5.1200    -0.1670     0.5870 H     1 <1>   0.0800 
 28 H       -3.7860     0.2640     1.6060 H     1 <1>   0.0800 
 29 H       -2.7860     1.4160    -1.7420 H     1 <1>   0.0800 
 30 H       -3.0280     1.8990    -0.0750 H     1 <1>   0.0800 
 31 H       -4.3840     1.4380    -1.0590 H     1 <1>   0.0800 
 32 H       -3.4840    -3.0500    -2.2700 H     1 <1>   0.4500 
 33 H       -4.6720    -4.2590    -0.6820 H     1 <1>   0.0800 
 34 H       -5.5930    -2.9100    -1.2300 H     1 <1>   0.0800 
 35 H       -5.9830    -2.3810     0.8750 H     1 <1>   0.0800 
 36 H       -4.9640    -3.6500     1.4190 H     1 <1>   0.0800 
@<TRIPOS>BOND
  1   1   2  1   
  2   1   3  2   
  3   2  16  1   
  4   2  17  1   
  5   3   4  1   
  6   3   5  1   
  7   4   6  1   
  8   4   7  1   
  9   4   8  1   
 10   5   9  1   
 11   5  10  1   
 12   5  11  1   
 13   6  12  1   
 14   6  18  1   
 15   6  19  1   
 16   7  13  1   
 17   7  20  1   
 18   7  21  1   
 19   8  22  1   
 20   8  23  1   
 21   8  24  1   
 22   9  12  1   
 23   9  25  1   
 24   9  26  1   
 25  10  13  1   
 26  10  27  1   
 27  10  28  1   
 28  11  29  1   
 29  11  30  1   
 30  11  31  1   
 31  12  14  1   
 32  12  32  1   
 33  13  15  1   
 34  14  15  1   
 35  14  33  1   
 36  14  34  1   
 37  15  35  1   
 38  15  36  1   
@<TRIPOS>SUBSTRUCTURE
  1 ****   3 GROUP 4 **** **** 0

# MOE 2024.06 (io_trps.svl 2023.06)
