@<TRIPOS>MOLECULE
NONAME
29 29 1 0 0 
SMALL
USER_CHARGES


@<TRIPOS>ATOM
  1 BR       0.0950    -0.4690    -1.9350 Br    1 <1>  -0.1110 
  2 C        1.3510     0.6720    -1.0140 C.ar  1 <1>   0.1110 
  3 C        1.0040     1.9840    -0.7240 C.ar  1 <1>   0.0820 
  4 C        2.5700     0.1210    -0.6690 C.ar  1 <1>  -0.1500 
  5 O       -0.2360     2.3990    -1.1160 O.3   1 <1>  -0.3630 
  6 C        1.9510     2.7830    -0.0630 C.ar  1 <1>   0.0830 
  7 C        3.4960     0.9060    -0.0030 C.ar  1 <1>  -0.1440 
  8 C       -0.9680     3.3230    -0.3410 C.3   1 <1>   0.3200 
  9 O        1.6630     4.0890     0.2030 O.3   1 <1>  -0.3620 
 10 C        3.1810     2.2250     0.2940 C.ar  1 <1>  -0.1500 
 11 C        4.8450     0.3340     0.3980 C.3   1 <1>   0.2640 
 12 C       -2.4180     3.1520    -0.6440 C.1   1 <1>  -0.2000 
 13 C        2.6550     5.0090     0.5960 C.3   1 <1>   0.1200 
 14 O        5.8210     1.0230    -0.2940 O.3   1 <1>  -0.6800 
 15 C       -3.5740     3.0120    -0.8880 C.1   1 <1>  -0.1770 
 16 C        2.0200     6.3950     0.6370 C.3   1 <1>  -0.2400 
 17 H        2.7770    -0.9040    -0.9210 H     1 <1>   0.1500 
 18 H       -0.6470     4.3150    -0.6020 H     1 <1>   0.0800 
 19 H       -0.7780     3.1290     0.7000 H     1 <1>   0.0800 
 20 H        3.9220     2.8070     0.8090 H     1 <1>   0.1500 
 21 H        4.9230    -0.7090     0.1440 H     1 <1>   0.0800 
 22 H        5.0250     0.4600     1.4520 H     1 <1>   0.0800 
 23 H        3.4560     4.9780    -0.1230 H     1 <1>   0.0800 
 24 H        3.0160     4.7290     1.5710 H     1 <1>   0.0800 
 25 H        5.5430     1.1190    -1.2250 H     1 <1>   0.4000 
 26 H       -4.6160     2.8770    -1.1150 H     1 <1>   0.1770 
 27 H        1.6470     6.6590    -0.3370 H     1 <1>   0.0800 
 28 H        2.7530     7.1230     0.9320 H     1 <1>   0.0800 
 29 H        1.2130     6.4120     1.3480 H     1 <1>   0.0800 
@<TRIPOS>BOND
  1   1   2  1   
  2   2   3  ar  
  3   2   4  ar  
  4   3   5  1   
  5   3   6  ar  
  6   4   7  ar  
  7   4  17  1   
  8   5   8  1   
  9   6   9  1   
 10   6  10  ar  
 11   7  10  ar  
 12   7  11  1   
 13   8  12  1   
 14   8  18  1   
 15   8  19  1   
 16   9  13  1   
 17  10  20  1   
 18  11  14  1   
 19  11  21  1   
 20  11  22  1   
 21  12  15  3   
 22  13  16  1   
 23  13  23  1   
 24  13  24  1   
 25  14  25  1   
 26  15  26  1   
 27  16  27  1   
 28  16  28  1   
 29  16  29  1   
@<TRIPOS>SUBSTRUCTURE
  1 ****   3 GROUP 4 **** **** 0

# MOE 2024.06 (io_trps.svl 2023.06)
