@<TRIPOS>MOLECULE
NONAME
31 34 1 0 0 
SMALL
USER_CHARGES


@<TRIPOS>ATOM
  1 S        0.3070     0.1990    -2.1420 S.3   1 <1>   0.1810 
  2 N        0.9150     0.9360    -0.7420 N.2   1 <1>  -0.2210 
  3 C       -1.1640     1.0950    -2.0720 C.2   1 <1>  -0.1100 
  4 N        0.0900     1.7670    -0.2790 N.2   1 <1>  -0.2270 
  5 C       -1.0910     1.8870    -0.9960 C.2   1 <1>   0.0460 
  6 C       -2.1500     2.8800    -0.4970 C.3   1 <1>   0.1810 
  7 C       -2.6040     2.5030     0.9320 C.3   1 <1>  -0.1600 
  8 C       -3.3980     2.8820    -1.4150 C.3   1 <1>  -0.1600 
  9 C       -1.5690     4.3130    -0.4690 C.3   1 <1>  -0.1600 
 10 C       -3.6560     3.5000     1.4550 C.3   1 <1>  -0.0800 
 11 C       -4.4550     3.8810    -0.9070 C.3   1 <1>  -0.0800 
 12 C       -2.6150     5.3190     0.0460 C.3   1 <1>  -0.0800 
 13 C       -4.8790     3.4850     0.5190 C.3   1 <1>  -0.1600 
 14 C       -3.0460     4.9150     1.4680 C.3   1 <1>  -0.1600 
 15 C       -3.8440     5.2940    -0.8820 C.3   1 <1>  -0.1600 
 16 H       -1.9010     0.9270    -2.8330 H     1 <1>   0.1500 
 17 H       -1.7570     2.5020     1.5960 H     1 <1>   0.0800 
 18 H       -3.0140     1.5080     0.9310 H     1 <1>   0.0800 
 19 H       -3.8290     1.8970    -1.4460 H     1 <1>   0.0800 
 20 H       -3.1120     3.1510    -2.4170 H     1 <1>   0.0800 
 21 H       -1.2490     4.5920    -1.4580 H     1 <1>   0.0800 
 22 H       -0.7040     4.3430     0.1700 H     1 <1>   0.0800 
 23 H       -3.9560     3.2240     2.4520 H     1 <1>   0.0800 
 24 H       -5.3130     3.8680    -1.5580 H     1 <1>   0.0800 
 25 H       -2.1910     6.3090     0.0620 H     1 <1>   0.0800 
 26 H       -5.6230     4.1720     0.8820 H     1 <1>   0.0800 
 27 H       -5.3190     2.5030     0.5110 H     1 <1>   0.0800 
 28 H       -2.1960     4.9390     2.1270 H     1 <1>   0.0800 
 29 H       -3.7690     5.6190     1.8440 H     1 <1>   0.0800 
 30 H       -4.5760     6.0010    -0.5350 H     1 <1>   0.0800 
 31 H       -3.5550     5.5860    -1.8770 H     1 <1>   0.0800 
@<TRIPOS>BOND
  1   1   2  1   
  2   1   3  1   
  3   2   4  2   
  4   3   5  2   
  5   3  16  1   
  6   4   5  1   
  7   5   6  1   
  8   6   7  1   
  9   6   8  1   
 10   6   9  1   
 11   7  10  1   
 12   7  17  1   
 13   7  18  1   
 14   8  11  1   
 15   8  19  1   
 16   8  20  1   
 17   9  12  1   
 18   9  21  1   
 19   9  22  1   
 20  10  13  1   
 21  10  14  1   
 22  10  23  1   
 23  11  13  1   
 24  11  15  1   
 25  11  24  1   
 26  12  14  1   
 27  12  15  1   
 28  12  25  1   
 29  13  26  1   
 30  13  27  1   
 31  14  28  1   
 32  14  29  1   
 33  15  30  1   
 34  15  31  1   
@<TRIPOS>SUBSTRUCTURE
  1 ****   6 GROUP 4 **** **** 0

# MOE 2024.06 (io_trps.svl 2023.06)
