@<TRIPOS>MOLECULE
NONAME
39 40 1 0 0 
SMALL
USER_CHARGES


@<TRIPOS>ATOM
  1 N        0.9880    -0.6320     0.7460 N.ar  1 <1>  -0.6200 
  2 C        1.5040    -0.9700    -0.4250 C.ar  1 <1>   0.1660 
  3 C       -0.1470    -1.2370     1.0680 C.ar  1 <1>   0.1600 
  4 C        0.9360    -1.8940    -1.2900 C.ar  1 <1>  -0.1500 
  5 C        2.7960    -0.2700    -0.7940 C.3   1 <1>  -0.0160 
  6 C       -0.7900    -2.1720     0.2760 C.ar  1 <1>  -0.1500 
  7 C       -0.2410    -2.5180    -0.9390 C.ar  1 <1>  -0.1500 
  8 C        3.7370    -0.2980     0.4130 C.3   1 <1>   0.3430 
  9 N        5.0480     0.3710     0.1380 N.4   1 <1>  -0.9590 
 10 C        6.0220     0.0590     1.2230 C.3   1 <1>   0.4860 
 11 C        4.9090     1.8530    -0.0420 C.3   1 <1>   0.2630 
 12 C        7.3990     0.5080     0.7750 C.ar  1 <1>  -0.1430 
 13 C        8.1010    -0.2250    -0.1710 C.ar  1 <1>  -0.1500 
 14 C        7.9660     1.6590     1.3020 C.ar  1 <1>  -0.1500 
 15 C        9.3500     0.1970    -0.5920 C.ar  1 <1>  -0.1500 
 16 C        9.2150     2.0770     0.8780 C.ar  1 <1>  -0.1500 
 17 C        9.9120     1.3500    -0.0710 C.ar  1 <1>  -0.1430 
 18 C       11.2820     1.8110    -0.5360 C.3   1 <1>  -0.0970 
 19 H       -0.5910    -0.9750     2.0140 H     1 <1>   0.1500 
 20 H        1.3970    -2.1280    -2.2330 H     1 <1>   0.1500 
 21 H        2.5530     0.7420    -1.0610 H     1 <1>   0.0800 
 22 H        3.2530    -0.7610    -1.6330 H     1 <1>   0.0800 
 23 H       -1.7100    -2.6210     0.6080 H     1 <1>   0.1500 
 24 H       -0.7130    -3.2410    -1.5840 H     1 <1>   0.1500 
 25 H        3.9020    -1.3280     0.6860 H     1 <1>   0.0800 
 26 H        3.2500     0.1840     1.2470 H     1 <1>   0.0800 
 27 H        5.4600    -0.0160    -0.7210 H     1 <1>   0.4500 
 28 H        6.0430    -1.0010     1.4130 H     1 <1>   0.0800 
 29 H        5.7450     0.5650     2.1340 H     1 <1>   0.0800 
 30 H        4.5010     2.3030     0.8490 H     1 <1>   0.0800 
 31 H        4.2560     2.0740    -0.8700 H     1 <1>   0.0800 
 32 H        5.8710     2.2970    -0.2430 H     1 <1>   0.0800 
 33 H        7.6960    -1.1310    -0.5880 H     1 <1>   0.1500 
 34 H        7.4520     2.2420     2.0470 H     1 <1>   0.1500 
 35 H        9.8890    -0.3770    -1.3270 H     1 <1>   0.1500 
 36 H        9.6480     2.9720     1.2910 H     1 <1>   0.1500 
 37 H       11.8890     0.9680    -0.8150 H     1 <1>   0.0800 
 38 H       11.7880     2.3430     0.2500 H     1 <1>   0.0800 
 39 H       11.1810     2.4610    -1.3860 H     1 <1>   0.0800 
@<TRIPOS>BOND
  1   1   2  ar  
  2   1   3  ar  
  3   2   4  ar  
  4   2   5  1   
  5   3   6  ar  
  6   3  19  1   
  7   4   7  ar  
  8   4  20  1   
  9   5   8  1   
 10   5  21  1   
 11   5  22  1   
 12   6   7  ar  
 13   6  23  1   
 14   7  24  1   
 15   8   9  1   
 16   8  25  1   
 17   8  26  1   
 18   9  10  1   
 19   9  11  1   
 20   9  27  1   
 21  10  12  1   
 22  10  28  1   
 23  10  29  1   
 24  11  30  1   
 25  11  31  1   
 26  11  32  1   
 27  12  13  ar  
 28  12  14  ar  
 29  13  15  ar  
 30  13  33  1   
 31  14  16  ar  
 32  14  34  1   
 33  15  17  ar  
 34  15  35  1   
 35  16  17  ar  
 36  16  36  1   
 37  17  18  1   
 38  18  37  1   
 39  18  38  1   
 40  18  39  1   
@<TRIPOS>SUBSTRUCTURE
  1 ****   9 GROUP 4 **** **** 0

# MOE 2024.06 (io_trps.svl 2023.06)
