@<TRIPOS>MOLECULE
NONAME
28 28 1 0 0 
SMALL
USER_CHARGES


@<TRIPOS>ATOM
  1 CL       1.3970     1.4250     2.1300 Cl    1 <1>  -0.1770 
  2 C        0.6850     2.3810     0.8490 C.ar  1 <1>   0.1770 
  3 C        1.3300     2.5620    -0.3780 C.ar  1 <1>   0.0860 
  4 C       -0.5530     2.9350     1.1190 C.ar  1 <1>  -0.1500 
  5 C        2.6340     2.0160    -0.7100 C.2   1 <1>   0.5440 
  6 C        0.6470     3.3260    -1.3270 C.ar  1 <1>  -0.1500 
  7 C       -1.2030     3.6930     0.1610 C.ar  1 <1>  -0.1430 
  8 O        2.8760     1.6740    -1.8510 O.2   1 <1>  -0.5700 
  9 N        3.6280     1.9030     0.2210 N.am  1 <1>  -0.7300 
 10 C       -0.5920     3.8830    -1.0670 C.ar  1 <1>  -0.1500 
 11 C       -2.5620     4.3090     0.4420 C.3   1 <1>  -0.0970 
 12 C        4.9870     1.3810    -0.0280 C.3   1 <1>   0.1400 
 13 C        5.9930     2.2130     0.7660 C.3   1 <1>  -0.1600 
 14 C        7.4250     1.7130     0.5460 C.3   1 <1>  -0.2400 
 15 H       -1.0040     2.7670     2.0810 H     1 <1>   0.1500 
 16 H        1.1030     3.4830    -2.2910 H     1 <1>   0.1500 
 17 H        3.3960     2.0650     1.2040 H     1 <1>   0.3700 
 18 H       -1.0820     4.4680    -1.8280 H     1 <1>   0.1500 
 19 H       -3.0250     3.8420     1.2920 H     1 <1>   0.0800 
 20 H       -3.2090     4.1820    -0.4080 H     1 <1>   0.0800 
 21 H       -2.4520     5.3600     0.6410 H     1 <1>   0.0800 
 22 H        5.2130     1.4340    -1.0810 H     1 <1>   0.0800 
 23 H        5.0300     0.3490     0.2780 H     1 <1>   0.0800 
 24 H        5.7590     2.1570     1.8140 H     1 <1>   0.0800 
 25 H        5.9280     3.2400     0.4510 H     1 <1>   0.0800 
 26 H        7.5220     0.6900     0.8670 H     1 <1>   0.0800 
 27 H        8.1160     2.3150     1.1100 H     1 <1>   0.0800 
 28 H        7.6890     1.7760    -0.4960 H     1 <1>   0.0800 
@<TRIPOS>BOND
  1   1   2  1   
  2   2   3  ar  
  3   2   4  ar  
  4   3   5  1   
  5   3   6  ar  
  6   4   7  ar  
  7   4  15  1   
  8   5   8  2   
  9   5   9  am  
 10   6  10  ar  
 11   6  16  1   
 12   7  10  ar  
 13   7  11  1   
 14   9  12  1   
 15   9  17  1   
 16  10  18  1   
 17  11  19  1   
 18  11  20  1   
 19  11  21  1   
 20  12  13  1   
 21  12  22  1   
 22  12  23  1   
 23  13  14  1   
 24  13  24  1   
 25  13  25  1   
 26  14  26  1   
 27  14  27  1   
 28  14  28  1   
@<TRIPOS>SUBSTRUCTURE
  1 ****   3 GROUP 4 **** **** 0

# MOE 2024.06 (io_trps.svl 2023.06)
