@<TRIPOS>MOLECULE
NONAME
38 39 1 0 0 
SMALL
USER_CHARGES


@<TRIPOS>ATOM
  1 CL      -0.8170     1.3210     2.1920 Cl    1 <1>  -0.1770 
  2 C       -0.4160     2.2340     0.7510 C.ar  1 <1>   0.1770 
  3 C       -1.4100     2.4630    -0.2010 C.ar  1 <1>   0.1170 
  4 C        0.8750     2.7010     0.6010 C.ar  1 <1>  -0.1500 
  5 N       -2.7030     1.9490     0.0310 N.am  1 <1>  -0.5470 
  6 C       -1.0500     3.1840    -1.3380 C.ar  1 <1>  -0.1500 
  7 C        1.2050     3.4210    -0.5340 C.ar  1 <1>  -0.1500 
  8 C       -3.9090     2.2300    -0.5600 C.2   1 <1>   0.5690 
  9 C        0.2410     3.6580    -1.5000 C.ar  1 <1>  -0.1500 
 10 O       -4.0460     3.0240    -1.4600 O.2   1 <1>  -0.5700 
 11 C       -5.1840     1.5350    -0.0500 C.3   1 <1>   0.4040 
 12 N       -6.4450     2.3220    -0.3300 N.4   1 <1>  -0.9590 
 13 C       -6.4840     3.6120     0.4350 C.3   1 <1>   0.3430 
 14 C       -7.6930     1.5300    -0.1830 C.3   1 <1>   0.3430 
 15 C       -7.8680     4.2920     0.3670 C.3   1 <1>  -0.0800 
 16 C       -8.8560     2.2880    -0.8360 C.3   1 <1>  -0.1600 
 17 C       -8.6870     3.8200    -0.8450 C.3   1 <1>  -0.1600 
 18 C       -7.7130     5.8190     0.3430 C.3   1 <1>  -0.2400 
 19 H        1.6110     2.5050     1.3600 H     1 <1>   0.1500 
 20 H       -2.7070     1.2960     0.8190 H     1 <1>   0.3700 
 21 H       -1.7670     3.3830    -2.1130 H     1 <1>   0.1500 
 22 H        2.2070     3.7930    -0.6680 H     1 <1>   0.1500 
 23 H        0.4980     4.2160    -2.3850 H     1 <1>   0.1500 
 24 H       -5.0920     1.3640     1.0080 H     1 <1>   0.0800 
 25 H       -5.2480     0.5790    -0.5410 H     1 <1>   0.0800 
 26 H       -6.3740     2.6090    -1.3210 H     1 <1>   0.4500 
 27 H       -5.7450     4.2810     0.0220 H     1 <1>   0.0800 
 28 H       -6.2330     3.4420     1.4690 H     1 <1>   0.0800 
 29 H       -7.9020     1.3850     0.8650 H     1 <1>   0.0800 
 30 H       -7.5890     0.5620    -0.6470 H     1 <1>   0.0800 
 31 H       -8.4090     4.0340     1.2620 H     1 <1>   0.0800 
 32 H       -9.7560     2.0330    -0.3020 H     1 <1>   0.0800 
 33 H       -8.9870     1.9410    -1.8460 H     1 <1>   0.0800 
 34 H       -8.1830     4.1170    -1.7500 H     1 <1>   0.0800 
 35 H       -9.6570     4.2900    -0.8490 H     1 <1>   0.0800 
 36 H       -7.1790     6.1380    -0.5360 H     1 <1>   0.0800 
 37 H       -7.1780     6.1600     1.2120 H     1 <1>   0.0800 
 38 H       -8.6800     6.2920     0.3420 H     1 <1>   0.0800 
@<TRIPOS>BOND
  1   1   2  1   
  2   2   3  ar  
  3   2   4  ar  
  4   3   5  1   
  5   3   6  ar  
  6   4   7  ar  
  7   4  19  1   
  8   5   8  am  
  9   5  20  1   
 10   6   9  ar  
 11   6  21  1   
 12   7   9  ar  
 13   7  22  1   
 14   8  10  2   
 15   8  11  1   
 16   9  23  1   
 17  11  12  1   
 18  11  24  1   
 19  11  25  1   
 20  12  13  1   
 21  12  14  1   
 22  12  26  1   
 23  13  15  1   
 24  13  27  1   
 25  13  28  1   
 26  14  16  1   
 27  14  29  1   
 28  14  30  1   
 29  15  17  1   
 30  15  18  1   
 31  15  31  1   
 32  16  17  1   
 33  16  32  1   
 34  16  33  1   
 35  17  34  1   
 36  17  35  1   
 37  18  36  1   
 38  18  37  1   
 39  18  38  1   
@<TRIPOS>SUBSTRUCTURE
  1 ****   8 GROUP 4 **** **** 0

# MOE 2024.06 (io_trps.svl 2023.06)
