@<TRIPOS>MOLECULE
NONAME
42 43 1 0 0 
SMALL
USER_CHARGES


@<TRIPOS>ATOM
  1 O       -0.0070     0.3860     0.4050 O.3   1 <1>  -0.3630 
  2 C       -1.3540     0.3360     0.2590 C.ar  1 <1>   0.0830 
  3 C        0.6820     1.6180     0.4350 C.3   1 <1>   0.1200 
  4 C       -1.9260    -0.9230     0.1790 C.ar  1 <1>  -0.1500 
  5 C       -2.1710     1.4600     0.1870 C.ar  1 <1>  -0.1500 
  6 C        2.1900     1.3630     0.5620 C.3   1 <1>   0.2000 
  7 C       -3.2930    -1.0650     0.0230 C.ar  1 <1>  -0.1500 
  8 C       -3.5390     1.3120     0.0310 C.ar  1 <1>  -0.1500 
  9 O        2.4760     0.9100     1.8450 O.3   1 <1>  -0.6800 
 10 C        3.0010     2.6340     0.2840 C.3   1 <1>   0.0960 
 11 C       -4.1140     0.0510    -0.0540 C.ar  1 <1>  -0.1430 
 12 N        4.4510     2.3720     0.4070 N.pl3 1 <1>   0.0480 
 13 C       -5.6210    -0.1240    -0.2250 C.3   1 <1>   0.0630 
 14 C        5.3060     1.8560    -0.5100 C.2   1 <1>   0.0070 
 15 C        5.2040     2.5710     1.5040 C.2   1 <1>  -0.3020 
 16 C       -6.1000     0.5060    -1.5370 C.3   1 <1>  -0.2400 
 17 C       -6.3800     0.4630     0.9690 C.3   1 <1>  -0.2400 
 18 N        6.5140     1.7200    -0.0720 N.2   1 <1>  -0.5650 
 19 C        4.9040     1.4670    -1.9190 C.3   1 <1>  -0.0600 
 20 C        6.4550     2.1710     1.1930 C.2   1 <1>   0.0770 
 21 H        0.3250     2.1950     1.2700 H     1 <1>   0.0800 
 22 H        0.4680     2.1300    -0.4870 H     1 <1>   0.0800 
 23 H       -1.2920    -1.7890     0.2400 H     1 <1>   0.1500 
 24 H       -1.7680     2.4510     0.2520 H     1 <1>   0.1500 
 25 H        2.4710     0.5940    -0.1360 H     1 <1>   0.0800 
 26 H       -3.7130    -2.0530    -0.0380 H     1 <1>   0.1500 
 27 H       -4.1580     2.1890    -0.0240 H     1 <1>   0.1500 
 28 H        3.4190     0.6530     1.9100 H     1 <1>   0.4000 
 29 H        2.7240     3.4050     0.9800 H     1 <1>   0.0800 
 30 H        2.7990     2.9880    -0.7090 H     1 <1>   0.0800 
 31 H       -5.8430    -1.1770    -0.2680 H     1 <1>   0.0800 
 32 H        4.8220     2.9760     2.4230 H     1 <1>   0.1500 
 33 H       -5.9480     1.5700    -1.5300 H     1 <1>   0.0800 
 34 H       -7.1460     0.3080    -1.6860 H     1 <1>   0.0800 
 35 H       -5.5520     0.0880    -2.3630 H     1 <1>   0.0800 
 36 H       -6.2340     1.5260     1.0310 H     1 <1>   0.0800 
 37 H       -6.0250     0.0160     1.8810 H     1 <1>   0.0800 
 38 H       -7.4320     0.2650     0.8770 H     1 <1>   0.0800 
 39 H        4.5040     2.3170    -2.4400 H     1 <1>   0.0800 
 40 H        4.1740     0.6800    -1.8950 H     1 <1>   0.0800 
 41 H        5.7680     1.1150    -2.4550 H     1 <1>   0.0800 
 42 H        7.3300     2.1830     1.8220 H     1 <1>   0.1500 
@<TRIPOS>BOND
  1   1   2  1   
  2   1   3  1   
  3   2   4  ar  
  4   2   5  ar  
  5   3   6  1   
  6   3  21  1   
  7   3  22  1   
  8   4   7  ar  
  9   4  23  1   
 10   5   8  ar  
 11   5  24  1   
 12   6   9  1   
 13   6  10  1   
 14   6  25  1   
 15   7  11  ar  
 16   7  26  1   
 17   8  11  ar  
 18   8  27  1   
 19   9  28  1   
 20  10  12  1   
 21  10  29  1   
 22  10  30  1   
 23  11  13  1   
 24  12  14  1   
 25  12  15  1   
 26  13  16  1   
 27  13  17  1   
 28  13  31  1   
 29  14  18  2   
 30  14  19  1   
 31  15  20  2   
 32  15  32  1   
 33  16  33  1   
 34  16  34  1   
 35  16  35  1   
 36  17  36  1   
 37  17  37  1   
 38  17  38  1   
 39  18  20  1   
 40  19  39  1   
 41  19  40  1   
 42  19  41  1   
 43  20  42  1   
@<TRIPOS>SUBSTRUCTURE
  1 ****   3 GROUP 4 **** **** 0

# MOE 2024.06 (io_trps.svl 2023.06)
