@<TRIPOS>MOLECULE
NONAME
37 39 1 0 0 
SMALL
USER_CHARGES


@<TRIPOS>ATOM
  1 S        0.4940    -0.3220    -0.7000 S.3   1 <1>  -0.0800 
  2 C       -0.8770    -1.2700    -1.2430 C.2   1 <1>  -0.1100 
  3 C        0.0440    -0.5500     0.9780 C.2   1 <1>  -0.1100 
  4 C       -1.6090    -1.6990    -0.1950 C.2   1 <1>  -0.1810 
  5 C       -1.0740    -1.2920     1.0750 C.2   1 <1>  -0.1500 
  6 C       -2.8700    -2.5320    -0.2930 C.3   1 <1>   0.5240 
  7 N       -4.0180    -1.6150    -0.5150 N.4   1 <1>  -0.9590 
  8 C       -4.2460    -0.6960     0.6650 C.3   1 <1>   0.3430 
  9 C       -5.2750    -2.3750    -0.8670 C.3   1 <1>   0.3430 
 10 C       -5.4590     0.2370     0.4680 C.3   1 <1>   0.2090 
 11 C       -6.4920    -1.4490    -1.0740 C.3   1 <1>   0.2090 
 12 N       -6.6700    -0.5510     0.1010 N.pl3 1 <1>  -0.8380 
 13 C       -7.8860     0.1170     0.1830 C.ar  1 <1>   0.1000 
 14 C       -8.2120     1.1460    -0.6940 C.ar  1 <1>  -0.1500 
 15 C       -8.8030    -0.2460     1.1600 C.ar  1 <1>  -0.1500 
 16 C       -9.4290     1.7970    -0.5950 C.ar  1 <1>  -0.1500 
 17 C      -10.0210     0.4020     1.2620 C.ar  1 <1>  -0.1500 
 18 C      -10.3350     1.4250     0.3840 C.ar  1 <1>  -0.1500 
 19 H       -0.9770    -1.3980    -2.3070 H     1 <1>   0.1500 
 20 H        0.6800    -0.1000     1.7220 H     1 <1>   0.1500 
 21 H       -1.5340    -1.5730     2.0080 H     1 <1>   0.1500 
 22 H       -3.0080    -3.1100     0.6070 H     1 <1>   0.0800 
 23 H       -2.7770    -3.2100    -1.1260 H     1 <1>   0.0800 
 24 H       -3.7640    -1.0170    -1.3100 H     1 <1>   0.4500 
 25 H       -3.3700    -0.0910     0.8350 H     1 <1>   0.0800 
 26 H       -4.4210    -1.2820     1.5510 H     1 <1>   0.0800 
 27 H       -5.5160    -3.0600    -0.0710 H     1 <1>   0.0800 
 28 H       -5.1200    -2.9510    -1.7640 H     1 <1>   0.0800 
 29 H       -5.2480     0.9590    -0.3010 H     1 <1>   0.0800 
 30 H       -5.6510     0.7740     1.3820 H     1 <1>   0.0800 
 31 H       -7.3800    -2.0450    -1.1990 H     1 <1>   0.0800 
 32 H       -6.3620    -0.8590    -1.9650 H     1 <1>   0.0800 
 33 H       -7.5150     1.4390    -1.4550 H     1 <1>   0.1500 
 34 H       -8.5560    -1.0390     1.8400 H     1 <1>   0.1500 
 35 H       -9.6740     2.5920    -1.2770 H     1 <1>   0.1500 
 36 H      -10.7240     0.1130     2.0230 H     1 <1>   0.1500 
 37 H      -11.2820     1.9310     0.4620 H     1 <1>   0.1500 
@<TRIPOS>BOND
  1   1   2  1   
  2   1   3  1   
  3   2   4  2   
  4   2  19  1   
  5   3   5  2   
  6   3  20  1   
  7   4   5  1   
  8   4   6  1   
  9   5  21  1   
 10   6   7  1   
 11   6  22  1   
 12   6  23  1   
 13   7   8  1   
 14   7   9  1   
 15   7  24  1   
 16   8  10  1   
 17   8  25  1   
 18   8  26  1   
 19   9  11  1   
 20   9  27  1   
 21   9  28  1   
 22  10  12  1   
 23  10  29  1   
 24  10  30  1   
 25  11  12  1   
 26  11  31  1   
 27  11  32  1   
 28  12  13  1   
 29  13  14  ar  
 30  13  15  ar  
 31  14  16  ar  
 32  14  33  1   
 33  15  17  ar  
 34  15  34  1   
 35  16  18  ar  
 36  16  35  1   
 37  17  18  ar  
 38  17  36  1   
 39  18  37  1   
@<TRIPOS>SUBSTRUCTURE
  1 ****  10 GROUP 4 **** **** 0

# MOE 2024.06 (io_trps.svl 2023.06)
