@<TRIPOS>MOLECULE
NONAME
54 56 1 0 0 
SMALL
USER_CHARGES


@<TRIPOS>ATOM
  1 O        0.8380    -2.8360    -1.9200 O.2   1 <1>  -0.5700 
  2 C        0.3410    -2.6750    -0.8170 C.2   1 <1>   0.5440 
  3 N        1.1430    -2.2570     0.2260 N.am  1 <1>  -0.6600 
  4 C       -1.0480    -3.0140    -0.6180 C.ar  1 <1>   0.0860 
  5 C        2.6080    -2.0390     0.0290 C.3   1 <1>   0.2200 
  6 C        0.6870    -2.2790     1.6460 C.3   1 <1>   0.1400 
  7 C       -1.4240    -4.3620    -0.6000 C.ar  1 <1>   0.1170 
  8 C       -2.0260    -2.0420    -0.4080 C.ar  1 <1>  -0.1500 
  9 C        3.4130    -2.4080     1.2950 C.3   1 <1>  -0.1600 
 10 C        2.8340    -0.5880    -0.4120 C.3   1 <1>  -0.1600 
 11 C        1.3630    -3.4410     2.3870 C.3   1 <1>  -0.1600 
 12 N       -0.4630    -5.3380    -0.8640 N.am  1 <1>  -0.5470 
 13 C       -2.7420    -4.7070    -0.3290 C.ar  1 <1>  -0.1500 
 14 C       -3.3380    -2.3950    -0.1560 C.ar  1 <1>  -0.1500 
 15 C        2.8370    -3.6500     1.9910 C.3   1 <1>  -0.1600 
 16 C        4.2810    -0.3420    -0.8360 C.3   1 <1>   0.1200 
 17 C        0.0240    -6.2810     0.0040 C.2   1 <1>   0.5440 
 18 C       -3.6950    -3.7330    -0.1090 C.ar  1 <1>  -0.1500 
 19 O        4.4010     0.9770    -1.2260 O.3   1 <1>  -0.6800 
 20 O       -0.6690    -6.6380     0.9360 O.2   1 <1>  -0.5700 
 21 C        1.3620    -6.8130    -0.1850 C.ar  1 <1>   0.0860 
 22 C        2.3370    -6.1350    -0.9260 C.ar  1 <1>  -0.1500 
 23 C        1.7350    -8.0320     0.3850 C.ar  1 <1>  -0.1500 
 24 C        3.6100    -6.6480    -1.0970 C.ar  1 <1>  -0.1500 
 25 C        3.0050    -8.5510     0.2210 C.ar  1 <1>  -0.1500 
 26 C        3.9530    -7.8670    -0.5220 C.ar  1 <1>   0.0820 
 27 O        5.1720    -8.4390    -0.6390 O.3   1 <1>  -0.3620 
 28 C        6.2070    -7.8410    -1.3870 C.3   1 <1>   0.0400 
 29 H        2.9390    -2.6920    -0.7620 H     1 <1>   0.0800 
 30 H       -0.3810    -2.3750     1.7240 H     1 <1>   0.0800 
 31 H        0.9630    -1.3460     2.1070 H     1 <1>   0.0800 
 32 H       -1.7440    -1.0040    -0.4380 H     1 <1>   0.1500 
 33 H        3.4090    -1.5820     1.9840 H     1 <1>   0.0800 
 34 H        4.4370    -2.5940     1.0240 H     1 <1>   0.0800 
 35 H        2.5780     0.0740     0.3950 H     1 <1>   0.0800 
 36 H        2.1920    -0.3860    -1.2510 H     1 <1>   0.0800 
 37 H        0.8130    -4.3470     2.2000 H     1 <1>   0.0800 
 38 H        1.2990    -3.2460     3.4430 H     1 <1>   0.0800 
 39 H        0.1820    -5.0770    -1.6150 H     1 <1>   0.3700 
 40 H       -3.0090    -5.7490    -0.2910 H     1 <1>   0.1500 
 41 H       -4.0840    -1.6350     0.0070 H     1 <1>   0.1500 
 42 H        3.4200    -3.8930     2.8620 H     1 <1>   0.0800 
 43 H        2.9020    -4.4840     1.3140 H     1 <1>   0.0800 
 44 H        4.5580    -0.9680    -1.6670 H     1 <1>   0.0800 
 45 H        4.9640    -0.5030    -0.0190 H     1 <1>   0.0800 
 46 H       -4.7140    -4.0130     0.0970 H     1 <1>   0.1500 
 47 H        3.7940     1.1730    -1.9660 H     1 <1>   0.4000 
 48 H        2.1110    -5.1820    -1.3710 H     1 <1>   0.1500 
 49 H        1.0120    -8.5770     0.9690 H     1 <1>   0.1500 
 50 H        4.3200    -6.0890    -1.6750 H     1 <1>   0.1500 
 51 H        3.2720    -9.4910     0.6680 H     1 <1>   0.1500 
 52 H        7.0670    -8.4850    -1.3400 H     1 <1>   0.0800 
 53 H        6.4420    -6.8840    -0.9560 H     1 <1>   0.0800 
 54 H        5.8850    -7.7370    -2.4080 H     1 <1>   0.0800 
@<TRIPOS>BOND
  1   1   2  2   
  2   2   3  am  
  3   2   4  1   
  4   3   5  1   
  5   3   6  1   
  6   4   7  ar  
  7   4   8  ar  
  8   5   9  1   
  9   5  10  1   
 10   5  29  1   
 11   6  11  1   
 12   6  30  1   
 13   6  31  1   
 14   7  12  1   
 15   7  13  ar  
 16   8  14  ar  
 17   8  32  1   
 18   9  15  1   
 19   9  33  1   
 20   9  34  1   
 21  10  16  1   
 22  10  35  1   
 23  10  36  1   
 24  11  15  1   
 25  11  37  1   
 26  11  38  1   
 27  12  17  am  
 28  12  39  1   
 29  13  18  ar  
 30  13  40  1   
 31  14  18  ar  
 32  14  41  1   
 33  15  42  1   
 34  15  43  1   
 35  16  19  1   
 36  16  44  1   
 37  16  45  1   
 38  17  20  2   
 39  17  21  1   
 40  18  46  1   
 41  19  47  1   
 42  21  22  ar  
 43  21  23  ar  
 44  22  24  ar  
 45  22  48  1   
 46  23  25  ar  
 47  23  49  1   
 48  24  26  ar  
 49  24  50  1   
 50  25  26  ar  
 51  25  51  1   
 52  26  27  1   
 53  27  28  1   
 54  28  52  1   
 55  28  53  1   
 56  28  54  1   
@<TRIPOS>SUBSTRUCTURE
  1 ****   2 GROUP 4 **** **** 0

# MOE 2024.06 (io_trps.svl 2023.06)
