@<TRIPOS>MOLECULE
NONAME
41 42 1 0 0 
SMALL
USER_CHARGES


@<TRIPOS>ATOM
  1 O       -0.7930    -1.1030    -1.1550 O.2   1 <1>  -0.5700 
  2 C        0.0160    -1.6760    -0.4720 C.2   1 <1>   0.6590 
  3 O        0.1170    -3.0010    -0.4990 O.3   1 <1>  -0.4300 
  4 C        0.9720    -0.9360     0.4440 C.3   1 <1>   0.0440 
  5 C       -0.4980    -3.7770    -1.5150 C.3   1 <1>   0.2000 
  6 C        2.4190    -1.2980     0.1350 C.ar  1 <1>  -0.1440 
  7 C       -2.0340    -3.7510    -1.3600 C.3   1 <1>   0.3430 
  8 C        0.0170    -5.2190    -1.3750 C.3   1 <1>  -0.1600 
  9 C        3.0130    -0.8290    -1.0270 C.ar  1 <1>  -0.1500 
 10 C        3.1490    -2.1030     0.9960 C.ar  1 <1>  -0.1500 
 11 N       -2.4790    -4.2110     0.0110 N.4   1 <1>  -0.9590 
 12 C       -0.8460    -6.0720    -0.4180 C.3   1 <1>  -0.1600 
 13 C        4.3200    -1.1670    -1.3250 C.ar  1 <1>  -0.1500 
 14 C        4.4580    -2.4420     0.6990 C.ar  1 <1>  -0.1500 
 15 C       -1.5640    -5.2260     0.6410 C.3   1 <1>   0.3430 
 16 C       -3.8930    -4.6900    -0.0270 C.3   1 <1>   0.2630 
 17 C        5.0510    -1.9740    -0.4700 C.ar  1 <1>   0.0830 
 18 O        6.3250    -2.2600    -0.8390 O.3   1 <1>  -0.3630 
 19 C        7.1680    -3.0420    -0.0220 C.3   1 <1>   0.0400 
 20 H        0.7350    -1.1770     1.4630 H     1 <1>   0.0800 
 21 H        0.8340     0.1220     0.3140 H     1 <1>   0.0800 
 22 H       -0.2010    -3.3660    -2.4670 H     1 <1>   0.0800 
 23 H       -2.4490    -4.4050    -2.1070 H     1 <1>   0.0800 
 24 H       -2.4020    -2.7570    -1.5580 H     1 <1>   0.0800 
 25 H        1.0410    -5.1970    -1.0410 H     1 <1>   0.0800 
 26 H        0.0130    -5.6900    -2.3440 H     1 <1>   0.0800 
 27 H        2.4650    -0.1990    -1.7070 H     1 <1>   0.1500 
 28 H        2.7080    -2.4740     1.9040 H     1 <1>   0.1500 
 29 H       -2.4410    -3.3760     0.6140 H     1 <1>   0.4500 
 30 H       -0.2170    -6.7950     0.0730 H     1 <1>   0.0800 
 31 H       -1.5820    -6.6230    -0.9780 H     1 <1>   0.0800 
 32 H        4.7850    -0.8070    -2.2250 H     1 <1>   0.1500 
 33 H        4.9980    -3.0670     1.3840 H     1 <1>   0.1500 
 34 H       -2.1190    -5.8640     1.3110 H     1 <1>   0.0800 
 35 H       -0.8130    -4.7110     1.2200 H     1 <1>   0.0800 
 36 H       -3.9740    -5.5660    -0.6500 H     1 <1>   0.0800 
 37 H       -4.5380    -3.9220    -0.4250 H     1 <1>   0.0800 
 38 H       -4.2310    -4.9400     0.9660 H     1 <1>   0.0800 
 39 H        8.1240    -3.1190    -0.5070 H     1 <1>   0.0800 
 40 H        6.7350    -4.0200     0.0920 H     1 <1>   0.0800 
 41 H        7.2790    -2.5550     0.9310 H     1 <1>   0.0800 
@<TRIPOS>BOND
  1   1   2  2   
  2   2   3  1   
  3   2   4  1   
  4   3   5  1   
  5   4   6  1   
  6   4  20  1   
  7   4  21  1   
  8   5   7  1   
  9   5   8  1   
 10   5  22  1   
 11   6   9  ar  
 12   6  10  ar  
 13   7  11  1   
 14   7  23  1   
 15   7  24  1   
 16   8  12  1   
 17   8  25  1   
 18   8  26  1   
 19   9  13  ar  
 20   9  27  1   
 21  10  14  ar  
 22  10  28  1   
 23  11  15  1   
 24  11  16  1   
 25  11  29  1   
 26  12  15  1   
 27  12  30  1   
 28  12  31  1   
 29  13  17  ar  
 30  13  32  1   
 31  14  17  ar  
 32  14  33  1   
 33  15  34  1   
 34  15  35  1   
 35  16  36  1   
 36  16  37  1   
 37  16  38  1   
 38  17  18  1   
 39  18  19  1   
 40  19  39  1   
 41  19  40  1   
 42  19  41  1   
@<TRIPOS>SUBSTRUCTURE
  1 ****   3 GROUP 4 **** **** 0

# MOE 2024.06 (io_trps.svl 2023.06)
