@<TRIPOS>MOLECULE
NONAME
38 40 1 0 0 
SMALL
USER_CHARGES


@<TRIPOS>ATOM
  1 O       -0.0380    -0.4140    -0.4690 O.2   1 <1>  -0.5640 
  2 N       -0.6580    -1.5040    -0.2020 N.2   1 <1>   1.5890 
  3 C        0.0390    -2.6790     0.0330 C.2   1 <1>  -0.0410 
  4 C       -2.0240    -1.4380    -0.1490 C.2   1 <1>  -0.1510 
  5 C        1.4720    -2.6090    -0.0900 C.ar  1 <1>   0.0280 
  6 C       -0.6900    -3.8110     0.3360 C.2   1 <1>  -0.0380 
  7 C       -2.7130    -2.5400     0.1160 C.2   1 <1>  -0.0380 
  8 C       -2.9220    -0.2380    -0.3660 C.3   1 <1>  -0.0220 
  9 C        2.2650    -2.1150     0.9450 C.ar  1 <1>  -0.1500 
 10 C        2.1040    -3.0150    -1.2640 C.ar  1 <1>  -0.1500 
 11 N       -2.0680    -3.7180     0.3330 N.pl3 1 <1>  -0.5080 
 12 C       -0.0940    -5.2010     0.6610 C.3   1 <1>   0.0580 
 13 C       -4.2010    -2.3260     0.1330 C.3   1 <1>  -0.0220 
 14 C       -4.3410    -0.8120    -0.1410 C.3   1 <1>  -0.1600 
 15 C        3.6370    -2.0230     0.8090 C.ar  1 <1>  -0.1500 
 16 C        3.4760    -2.9250    -1.4020 C.ar  1 <1>  -0.1500 
 17 O       -2.7940    -4.7320     0.4830 O.3   1 <1>  -0.6920 
 18 C        1.1910    -5.2050     1.5020 C.3   1 <1>  -0.2400 
 19 C        0.1000    -6.0170    -0.6210 C.3   1 <1>  -0.2400 
 20 C        4.2460    -2.4270    -0.3660 C.ar  1 <1>  -0.1500 
 21 H       -2.8210     0.1420    -1.3690 H     1 <1>   0.0800 
 22 H       -2.7100     0.5440     0.3430 H     1 <1>   0.0800 
 23 H        1.8120    -1.8050     1.8710 H     1 <1>   0.1500 
 24 H        1.5200    -3.4110    -2.0780 H     1 <1>   0.1500 
 25 H       -0.8130    -5.7300     1.2650 H     1 <1>   0.0800 
 26 H       -4.6010    -2.6080     1.0910 H     1 <1>   0.0800 
 27 H       -4.6600    -2.9240    -0.6360 H     1 <1>   0.0800 
 28 H       -4.9590    -0.6500    -1.0070 H     1 <1>   0.0800 
 29 H       -4.8040    -0.3350     0.7060 H     1 <1>   0.0800 
 30 H        4.2380    -1.6400     1.6160 H     1 <1>   0.1500 
 31 H        3.9510    -3.2450    -2.3150 H     1 <1>   0.1500 
 32 H        2.0510    -4.9380     0.9190 H     1 <1>   0.0800 
 33 H        1.3560    -6.1930     1.8920 H     1 <1>   0.0800 
 34 H        1.0890    -4.5310     2.3330 H     1 <1>   0.0800 
 35 H        0.8470    -5.5780    -1.2510 H     1 <1>   0.0800 
 36 H       -0.8340    -6.0540    -1.1550 H     1 <1>   0.0800 
 37 H        0.3900    -7.0230    -0.3790 H     1 <1>   0.0800 
 38 H        5.3150    -2.3570    -0.4730 H     1 <1>   0.1500 
@<TRIPOS>BOND
  1   1   2  2   
  2   2   3  1   
  3   2   4  1   
  4   3   5  1   
  5   3   6  2   
  6   4   7  2   
  7   4   8  1   
  8   5   9  ar  
  9   5  10  ar  
 10   6  11  1   
 11   6  12  1   
 12   7  11  1   
 13   7  13  1   
 14   8  14  1   
 15   8  21  1   
 16   8  22  1   
 17   9  15  ar  
 18   9  23  1   
 19  10  16  ar  
 20  10  24  1   
 21  11  17  1   
 22  12  18  1   
 23  12  19  1   
 24  12  25  1   
 25  13  14  1   
 26  13  26  1   
 27  13  27  1   
 28  14  28  1   
 29  14  29  1   
 30  15  20  ar  
 31  15  30  1   
 32  16  20  ar  
 33  16  31  1   
 34  18  32  1   
 35  18  33  1   
 36  18  34  1   
 37  19  35  1   
 38  19  36  1   
 39  19  37  1   
 40  20  38  1   
@<TRIPOS>SUBSTRUCTURE
  1 ****   3 GROUP 4 **** **** 0

# MOE 2024.06 (io_trps.svl 2023.06)
