@<TRIPOS>MOLECULE
NONAME
36 37 1 0 0 
SMALL
USER_CHARGES


@<TRIPOS>ATOM
  1 S        1.0240    -0.3750    -0.8200 S.3   1 <1>  -0.3320 
  2 C        0.4570    -1.9710    -0.1760 C.ar  1 <1>   0.1020 
  3 C       -0.4460     0.5330    -1.4770 C.3   1 <1>  -0.0100 
  4 C        1.3310    -2.7890     0.5590 C.ar  1 <1>   0.0860 
  5 C       -0.8550    -2.3550    -0.4210 C.ar  1 <1>  -0.1500 
  6 C        2.7230    -2.4830     0.8480 C.2   1 <1>   0.5440 
  7 C        0.8060    -3.9890     1.0460 C.ar  1 <1>  -0.1500 
  8 C       -1.3340    -3.5540     0.0710 C.ar  1 <1>  -0.1500 
  9 O        3.2020    -2.7860     1.9240 O.2   1 <1>  -0.5700 
 10 N        3.5360    -1.8990    -0.0800 N.am  1 <1>  -0.7300 
 11 C       -0.5010    -4.3710     0.8100 C.ar  1 <1>  -0.1500 
 12 C        4.9380    -1.5080     0.1210 C.3   1 <1>   0.2200 
 13 C        5.0050     0.0140     0.2880 C.3   1 <1>  -0.1600 
 14 C        5.7580    -1.9720    -1.0870 C.3   1 <1>  -0.1600 
 15 C        6.4580     0.5000     0.3870 C.3   1 <1>  -0.1600 
 16 C        7.2130    -1.4900    -0.9890 C.3   1 <1>  -0.1600 
 17 C        7.2830     0.0340    -0.8210 C.3   1 <1>  -0.1600 
 18 H       -0.1170     1.5160    -1.7630 H     1 <1>   0.0800 
 19 H       -1.1790     0.5910    -0.6940 H     1 <1>   0.0800 
 20 H       -0.8180    -0.0050    -2.3300 H     1 <1>   0.0800 
 21 H       -1.5210    -1.7400    -0.9920 H     1 <1>   0.1500 
 22 H        1.4450    -4.6340     1.6250 H     1 <1>   0.1500 
 23 H       -2.3520    -3.8510    -0.1170 H     1 <1>   0.1500 
 24 H        3.0860    -1.4750    -0.8940 H     1 <1>   0.3700 
 25 H       -0.8680    -5.3050     1.2010 H     1 <1>   0.1500 
 26 H        5.3250    -1.9780     1.0110 H     1 <1>   0.0800 
 27 H        4.4730     0.2930     1.1800 H     1 <1>   0.0800 
 28 H        4.5320     0.4890    -0.5540 H     1 <1>   0.0800 
 29 H        5.3200    -1.5820    -1.9890 H     1 <1>   0.0800 
 30 H        5.7400    -3.0460    -1.1340 H     1 <1>   0.0800 
 31 H        6.9000     0.1140     1.2900 H     1 <1>   0.0800 
 32 H        6.4760     1.5750     0.4450 H     1 <1>   0.0800 
 33 H        7.7500    -1.7810    -1.8750 H     1 <1>   0.0800 
 34 H        7.6870    -1.9630    -0.1460 H     1 <1>   0.0800 
 35 H        8.3090     0.3360    -0.6940 H     1 <1>   0.0800 
 36 H        6.9080     0.5080    -1.7120 H     1 <1>   0.0800 
@<TRIPOS>BOND
  1   1   2  1   
  2   1   3  1   
  3   2   4  ar  
  4   2   5  ar  
  5   3  18  1   
  6   3  19  1   
  7   3  20  1   
  8   4   6  1   
  9   4   7  ar  
 10   5   8  ar  
 11   5  21  1   
 12   6   9  2   
 13   6  10  am  
 14   7  11  ar  
 15   7  22  1   
 16   8  11  ar  
 17   8  23  1   
 18  10  12  1   
 19  10  24  1   
 20  11  25  1   
 21  12  13  1   
 22  12  14  1   
 23  12  26  1   
 24  13  15  1   
 25  13  27  1   
 26  13  28  1   
 27  14  16  1   
 28  14  29  1   
 29  14  30  1   
 30  15  17  1   
 31  15  31  1   
 32  15  32  1   
 33  16  17  1   
 34  16  33  1   
 35  16  34  1   
 36  17  35  1   
 37  17  36  1   
@<TRIPOS>SUBSTRUCTURE
  1 ****  10 GROUP 4 **** **** 0

# MOE 2024.06 (io_trps.svl 2023.06)
