@<TRIPOS>MOLECULE
NONAME
40 42 1 0 0 
SMALL
USER_CHARGES


@<TRIPOS>ATOM
  1 O        0.6050     0.1150    -0.2790 O.2   1 <1>  -0.5700 
  2 C        1.6290     0.7690    -0.1870 C.2   1 <1>   0.6900 
  3 N        1.5670     2.1130     0.1620 N.am  1 <1>  -0.4200 
  4 N        2.8610     0.1650    -0.4260 N.am  1 <1>  -0.4240 
  5 C        2.7250     2.8630     0.3490 C.2   1 <1>   0.7160 
  6 C        0.2360     2.7530     0.3890 C.3   1 <1>   0.0600 
  7 C        4.0250     0.9130    -0.2540 C.2   1 <1>  -0.0880 
  8 C        2.9370    -1.2690    -0.8160 C.3   1 <1>   0.0600 
  9 O        2.6260     4.0300     0.7020 O.2   1 <1>  -0.5700 
 10 C        3.9950     2.2200     0.1210 C.2   1 <1>   0.1410 
 11 N        5.3110     0.5710    -0.3870 N.pl3 1 <1>   0.0330 
 12 N        5.2690     2.6930     0.2190 N.2   1 <1>  -0.5650 
 13 C        6.0390     1.6870    -0.0930 C.2   1 <1>   0.1330 
 14 C        7.4850     1.7060    -0.1180 C.ar  1 <1>   0.0530 
 15 C        8.2320     0.8070    -0.8810 C.ar  1 <1>  -0.1500 
 16 C        8.1930     2.6400     0.6350 C.ar  1 <1>  -0.1500 
 17 C        9.6150     0.8330    -0.8770 C.ar  1 <1>  -0.1500 
 18 C        9.5750     2.6690     0.6420 C.ar  1 <1>  -0.1500 
 19 C       10.3040     1.7630    -0.1130 C.ar  1 <1>  -0.1430 
 20 C       11.8300     1.8060    -0.0940 C.3   1 <1>   0.0630 
 21 C       12.3850     2.1100    -1.4890 C.3   1 <1>  -0.2400 
 22 C       12.4090     0.4960     0.4480 C.3   1 <1>  -0.2400 
 23 H       -0.5270     2.2610    -0.1900 H     1 <1>   0.0800 
 24 H        0.2620     3.7880     0.0970 H     1 <1>   0.0800 
 25 H       -0.0190     2.6880     1.4320 H     1 <1>   0.0800 
 26 H        2.0300    -1.5730    -1.3100 H     1 <1>   0.0800 
 27 H        3.0720    -1.8730     0.0640 H     1 <1>   0.0800 
 28 H        3.7570    -1.4280    -1.4920 H     1 <1>   0.0800 
 29 H        5.6960    -0.3440    -0.6250 H     1 <1>   0.2700 
 30 H        7.7360     0.0810    -1.4970 H     1 <1>   0.1500 
 31 H        7.6450     3.3540     1.2250 H     1 <1>   0.1500 
 32 H       10.1580     0.1240    -1.4760 H     1 <1>   0.1500 
 33 H       10.0800     3.4070     1.2400 H     1 <1>   0.1500 
 34 H       12.1450     2.6000     0.5630 H     1 <1>   0.0800 
 35 H       12.1440     1.3220    -2.1790 H     1 <1>   0.0800 
 36 H       13.4550     2.2170    -1.4500 H     1 <1>   0.0800 
 37 H       11.9630     3.0290    -1.8570 H     1 <1>   0.0800 
 38 H       12.1680    -0.3280    -0.1990 H     1 <1>   0.0800 
 39 H       12.0030     0.2950     1.4240 H     1 <1>   0.0800 
 40 H       13.4780     0.5670     0.5310 H     1 <1>   0.0800 
@<TRIPOS>BOND
  1   1   2  2   
  2   2   3  am  
  3   2   4  am  
  4   3   5  am  
  5   3   6  1   
  6   4   7  1   
  7   4   8  1   
  8   5   9  2   
  9   5  10  1   
 10   6  23  1   
 11   6  24  1   
 12   6  25  1   
 13   7  10  2   
 14   7  11  1   
 15   8  26  1   
 16   8  27  1   
 17   8  28  1   
 18  10  12  1   
 19  11  13  1   
 20  11  29  1   
 21  12  13  2   
 22  13  14  1   
 23  14  15  ar  
 24  14  16  ar  
 25  15  17  ar  
 26  15  30  1   
 27  16  18  ar  
 28  16  31  1   
 29  17  19  ar  
 30  17  32  1   
 31  18  19  ar  
 32  18  33  1   
 33  19  20  1   
 34  20  21  1   
 35  20  22  1   
 36  20  34  1   
 37  21  35  1   
 38  21  36  1   
 39  21  37  1   
 40  22  38  1   
 41  22  39  1   
 42  22  40  1   
@<TRIPOS>SUBSTRUCTURE
  1 ****  13 GROUP 4 **** **** 0

# MOE 2024.06 (io_trps.svl 2023.06)
