@<TRIPOS>MOLECULE
NONAME
41 41 1 0 0 
SMALL
USER_CHARGES


@<TRIPOS>ATOM
  1 S       -0.1280     0.4310     0.2340 S.3   1 <1>  -0.4600 
  2 C        1.3080    -0.6380     0.5390 C.3   1 <1>   0.0700 
  3 C       -1.5200    -0.7290     0.1770 C.3   1 <1>   0.0700 
  4 C        2.5600     0.2460     0.5730 C.3   1 <1>   0.2000 
  5 C       -2.7900     0.0810    -0.0840 C.3   1 <1>  -0.1600 
  6 O        2.6160     0.9830    -0.6100 O.3   1 <1>  -0.6800 
  7 C        3.8660    -0.5650     0.7190 C.3   1 <1>   0.3430 
  8 C       -4.0240    -0.8280    -0.1470 C.3   1 <1>  -0.1600 
  9 N        5.0260     0.2180     0.1950 N.4   1 <1>  -0.9590 
 10 C       -5.2930    -0.0140    -0.4080 C.3   1 <1>  -0.2400 
 11 C        6.1270    -0.6480    -0.3080 C.3   1 <1>   0.3430 
 12 C        5.4960     1.2620     1.1490 C.3   1 <1>   0.3430 
 13 C        7.1790     0.2130    -1.0110 C.3   1 <1>  -0.1600 
 14 C        6.5380     2.1500     0.4670 C.3   1 <1>  -0.1600 
 15 C        7.7040     1.3300    -0.0990 C.3   1 <1>  -0.1600 
 16 H        1.3510    -1.3610    -0.2570 H     1 <1>   0.0800 
 17 H        1.1450    -1.1340     1.4800 H     1 <1>   0.0800 
 18 H       -1.5630    -1.2360     1.1250 H     1 <1>   0.0800 
 19 H       -1.3300    -1.4300    -0.6170 H     1 <1>   0.0800 
 20 H        2.4730     0.9460     1.3870 H     1 <1>   0.0800 
 21 H       -2.6870     0.6110    -1.0150 H     1 <1>   0.0800 
 22 H       -2.9160     0.8040     0.7040 H     1 <1>   0.0800 
 23 H        1.7110     1.3380    -0.7920 H     1 <1>   0.4000 
 24 H        3.7590    -1.4680     0.1410 H     1 <1>   0.0800 
 25 H        4.0230    -0.8460     1.7470 H     1 <1>   0.0800 
 26 H       -4.1310    -1.3600     0.7840 H     1 <1>   0.0800 
 27 H       -3.9010    -1.5530    -0.9340 H     1 <1>   0.0800 
 28 H        4.6170     0.7290    -0.6120 H     1 <1>   0.4500 
 29 H       -5.4490     0.7040     0.3780 H     1 <1>   0.0800 
 30 H       -6.1480    -0.6660    -0.4490 H     1 <1>   0.0800 
 31 H       -5.2190     0.5100    -1.3450 H     1 <1>   0.0800 
 32 H        5.7380    -1.3750    -1.0040 H     1 <1>   0.0800 
 33 H        6.5840    -1.1730     0.5150 H     1 <1>   0.0800 
 34 H        5.9330     0.7950     2.0170 H     1 <1>   0.0800 
 35 H        4.6650     1.8710     1.4690 H     1 <1>   0.0800 
 36 H        6.7510     0.6390    -1.9020 H     1 <1>   0.0800 
 37 H        7.9990    -0.4130    -1.3160 H     1 <1>   0.0800 
 38 H        6.9150     2.8620     1.1800 H     1 <1>   0.0800 
 39 H        6.0640     2.7080    -0.3230 H     1 <1>   0.0800 
 40 H        8.3680     1.9720    -0.6540 H     1 <1>   0.0800 
 41 H        8.2680     0.8980     0.7120 H     1 <1>   0.0800 
@<TRIPOS>BOND
  1   1   2  1   
  2   1   3  1   
  3   2   4  1   
  4   2  16  1   
  5   2  17  1   
  6   3   5  1   
  7   3  18  1   
  8   3  19  1   
  9   4   6  1   
 10   4   7  1   
 11   4  20  1   
 12   5   8  1   
 13   5  21  1   
 14   5  22  1   
 15   6  23  1   
 16   7   9  1   
 17   7  24  1   
 18   7  25  1   
 19   8  10  1   
 20   8  26  1   
 21   8  27  1   
 22   9  11  1   
 23   9  12  1   
 24   9  28  1   
 25  10  29  1   
 26  10  30  1   
 27  10  31  1   
 28  11  13  1   
 29  11  32  1   
 30  11  33  1   
 31  12  14  1   
 32  12  34  1   
 33  12  35  1   
 34  13  15  1   
 35  13  36  1   
 36  13  37  1   
 37  14  15  1   
 38  14  38  1   
 39  14  39  1   
 40  15  40  1   
 41  15  41  1   
@<TRIPOS>SUBSTRUCTURE
  1 ****   4 GROUP 4 **** **** 0

# MOE 2024.06 (io_trps.svl 2023.06)
