@<TRIPOS>MOLECULE
NONAME
44 44 1 0 0 
SMALL
USER_CHARGES


@<TRIPOS>ATOM
  1 S        0.1970     1.1430     1.3160 S.o2  1 <1>   1.4970 
  2 O        0.2030     0.6350     2.6740 O.2   1 <1>  -0.6500 
  3 O        0.3390     2.5690     1.1020 O.2   1 <1>  -0.6500 
  4 N        1.4340     0.3830     0.4880 N.2   1 <1>  -0.6380 
  5 C       -1.2840     0.5430     0.4520 C.ar  1 <1>  -0.0090 
  6 C        2.5870     0.6440     0.9150 C.2   1 <1>   0.4400 
  7 C       -1.9260    -0.6250     0.8510 C.ar  1 <1>  -0.1500 
  8 C       -1.7960     1.2200    -0.6500 C.ar  1 <1>  -0.1500 
  9 N        3.7370     0.1200     0.3760 N.pl3 1 <1>  -0.7880 
 10 C       -3.0420    -1.0970     0.1820 C.ar  1 <1>  -0.1500 
 11 C       -2.9120     0.7560    -1.3250 C.ar  1 <1>  -0.1500 
 12 C        5.0600     0.4540     0.9550 C.3   1 <1>   0.2090 
 13 C        3.7150    -0.8120    -0.7830 C.3   1 <1>   0.2090 
 14 C       -3.5370    -0.4050    -0.9080 C.ar  1 <1>  -0.1500 
 15 C        5.6680     1.6340     0.1950 C.3   1 <1>  -0.1600 
 16 C        3.6510    -2.2560    -0.2800 C.3   1 <1>  -0.1600 
 17 C        7.0360     2.0240     0.7700 C.3   1 <1>  -0.1600 
 18 C        3.6110    -3.2530    -1.4450 C.3   1 <1>  -0.1600 
 19 C        7.6390     3.2040     0.0030 C.3   1 <1>  -0.2400 
 20 C        3.5460    -4.6940    -0.9320 C.3   1 <1>  -0.2400 
 21 H        2.7270     1.3130     1.7500 H     1 <1>   0.0600 
 22 H       -1.5460    -1.1720     1.6980 H     1 <1>   0.1500 
 23 H       -1.3140     2.1240    -0.9840 H     1 <1>   0.1500 
 24 H       -3.5250    -2.0020     0.5100 H     1 <1>   0.1500 
 25 H       -3.2930     1.2970    -2.1740 H     1 <1>   0.1500 
 26 H        4.9420     0.7120     1.9940 H     1 <1>   0.0800 
 27 H        5.7090    -0.4030     0.8950 H     1 <1>   0.0800 
 28 H        2.8570    -0.6040    -1.4010 H     1 <1>   0.0800 
 29 H        4.5970    -0.6670    -1.3840 H     1 <1>   0.0800 
 30 H       -4.4050    -0.7690    -1.4300 H     1 <1>   0.1500 
 31 H        5.7800     1.3710    -0.8420 H     1 <1>   0.0800 
 32 H        5.0000     2.4750     0.2630 H     1 <1>   0.0800 
 33 H        4.5100    -2.4580     0.3350 H     1 <1>   0.0800 
 34 H        2.7650    -2.3730     0.3200 H     1 <1>   0.0800 
 35 H        6.9310     2.2950     1.8070 H     1 <1>   0.0800 
 36 H        7.7080     1.1840     0.7100 H     1 <1>   0.0800 
 37 H        2.7470    -3.0570    -2.0580 H     1 <1>   0.0800 
 38 H        4.4900    -3.1340    -2.0560 H     1 <1>   0.0800 
 39 H        6.9950     4.0630     0.0670 H     1 <1>   0.0800 
 40 H        7.7750     2.9500    -1.0340 H     1 <1>   0.0800 
 41 H        8.5970     3.4630     0.4180 H     1 <1>   0.0800 
 42 H        2.6630    -4.8410    -0.3360 H     1 <1>   0.0800 
 43 H        4.4100    -4.9210    -0.3330 H     1 <1>   0.0800 
 44 H        3.5150    -5.3790    -1.7620 H     1 <1>   0.0800 
@<TRIPOS>BOND
  1   1   2  2   
  2   1   3  2   
  3   1   4  1   
  4   1   5  1   
  5   4   6  2   
  6   5   7  ar  
  7   5   8  ar  
  8   6   9  1   
  9   6  21  1   
 10   7  10  ar  
 11   7  22  1   
 12   8  11  ar  
 13   8  23  1   
 14   9  12  1   
 15   9  13  1   
 16  10  14  ar  
 17  10  24  1   
 18  11  14  ar  
 19  11  25  1   
 20  12  15  1   
 21  12  26  1   
 22  12  27  1   
 23  13  16  1   
 24  13  28  1   
 25  13  29  1   
 26  14  30  1   
 27  15  17  1   
 28  15  31  1   
 29  15  32  1   
 30  16  18  1   
 31  16  33  1   
 32  16  34  1   
 33  17  19  1   
 34  17  35  1   
 35  17  36  1   
 36  18  20  1   
 37  18  37  1   
 38  18  38  1   
 39  19  39  1   
 40  19  40  1   
 41  19  41  1   
 42  20  42  1   
 43  20  43  1   
 44  20  44  1   
@<TRIPOS>SUBSTRUCTURE
  1 ****   4 GROUP 4 **** **** 0

# MOE 2024.06 (io_trps.svl 2023.06)
