@<TRIPOS>MOLECULE
NONAME
51 53 1 0 0 
SMALL
USER_CHARGES


@<TRIPOS>ATOM
  1 CL      -0.2480    -1.5010    -0.1460 Cl    1 <1>  -0.1770 
  2 C       -1.9220    -0.9900    -0.0610 C.ar  1 <1>   0.1770 
  3 C       -2.7740    -1.5260     0.8980 C.ar  1 <1>   0.0830 
  4 C       -2.3580    -0.0470    -0.9700 C.ar  1 <1>  -0.1500 
  5 O       -2.2700    -2.4530     1.7610 O.3   1 <1>  -0.3630 
  6 C       -4.0960    -1.0920     0.9310 C.ar  1 <1>  -0.1500 
  7 C       -3.6810     0.3800    -0.9300 C.ar  1 <1>   0.0830 
  8 C       -3.0790    -3.0530     2.7490 C.3   1 <1>   0.0400 
  9 C       -4.5610    -0.1440     0.0250 C.ar  1 <1>   0.1170 
 10 O       -4.1850     1.3110    -1.7980 O.3   1 <1>  -0.3630 
 11 N       -5.8870     0.3300     0.0140 N.am  1 <1>  -0.5470 
 12 C       -3.3820     1.8640    -2.8190 C.3   1 <1>   0.0400 
 13 C       -7.0140     0.0040     0.7150 C.2   1 <1>   0.5690 
 14 O       -7.0400    -0.8350     1.5820 O.2   1 <1>  -0.5700 
 15 C       -8.2930     0.7650     0.3930 C.3   1 <1>  -0.0190 
 16 C       -9.5680     0.0560     0.8780 C.3   1 <1>   0.1400 
 17 C       -8.5320     1.0280    -1.1070 C.3   1 <1>  -0.0990 
 18 N      -10.5830     0.4340    -0.1210 N.am  1 <1>  -0.6600 
 19 C      -10.0280     0.9770    -1.2310 C.2   1 <1>   0.5690 
 20 C      -12.0120     0.1310     0.1330 C.3   1 <1>   0.2200 
 21 O      -10.6010     1.3790    -2.2130 O.2   1 <1>  -0.5700 
 22 C      -12.5440    -0.8760    -0.8940 C.3   1 <1>  -0.1600 
 23 C      -12.8440     1.4200     0.1410 C.3   1 <1>  -0.1600 
 24 C      -14.0280    -1.1840    -0.6440 C.3   1 <1>  -0.1600 
 25 C      -14.3280     1.1150     0.3920 C.3   1 <1>  -0.1600 
 26 C      -14.8660     0.1030    -0.6300 C.3   1 <1>  -0.1600 
 27 H       -1.6520     0.3290    -1.6840 H     1 <1>   0.1500 
 28 H       -4.7700    -1.4870     1.6620 H     1 <1>   0.1500 
 29 H       -2.4720    -3.7490     3.3000 H     1 <1>   0.0800 
 30 H       -3.8890    -3.5740     2.2710 H     1 <1>   0.0800 
 31 H       -3.4490    -2.2890     3.4100 H     1 <1>   0.0800 
 32 H       -6.0050     1.0520    -0.7000 H     1 <1>   0.3700 
 33 H       -3.9840     2.5530    -3.3840 H     1 <1>   0.0800 
 34 H       -3.0360     1.0720    -3.4610 H     1 <1>   0.0800 
 35 H       -2.5550     2.3860    -2.3710 H     1 <1>   0.0800 
 36 H       -8.2440     1.7110     0.9010 H     1 <1>   0.0800 
 37 H       -9.8480     0.3860     1.8640 H     1 <1>   0.0800 
 38 H       -9.4510    -1.0160     0.8700 H     1 <1>   0.0800 
 39 H       -8.1200     0.2460    -1.7190 H     1 <1>   0.0800 
 40 H       -8.1570     1.9850    -1.4180 H     1 <1>   0.0800 
 41 H      -12.0930    -0.3190     1.1080 H     1 <1>   0.0800 
 42 H      -11.9730    -1.7850    -0.8360 H     1 <1>   0.0800 
 43 H      -12.4380    -0.4700    -1.8850 H     1 <1>   0.0800 
 44 H      -12.7490     1.9150    -0.8100 H     1 <1>   0.0800 
 45 H      -12.4780     2.0800     0.9060 H     1 <1>   0.0800 
 46 H      -14.1350    -1.6890     0.3010 H     1 <1>   0.0800 
 47 H      -14.3930    -1.8420    -1.4130 H     1 <1>   0.0800 
 48 H      -14.8980     2.0260     0.3300 H     1 <1>   0.0800 
 49 H      -14.4490     0.7170     1.3850 H     1 <1>   0.0800 
 50 H      -15.8900    -0.1350    -0.4000 H     1 <1>   0.0800 
 51 H      -14.8440     0.5480    -1.6110 H     1 <1>   0.0800 
@<TRIPOS>BOND
  1   1   2  1   
  2   2   3  ar  
  3   2   4  ar  
  4   3   5  1   
  5   3   6  ar  
  6   4   7  ar  
  7   4  27  1   
  8   5   8  1   
  9   6   9  ar  
 10   6  28  1   
 11   7   9  ar  
 12   7  10  1   
 13   8  29  1   
 14   8  30  1   
 15   8  31  1   
 16   9  11  1   
 17  10  12  1   
 18  11  13  am  
 19  11  32  1   
 20  12  33  1   
 21  12  34  1   
 22  12  35  1   
 23  13  14  2   
 24  13  15  1   
 25  15  16  1   
 26  15  17  1   
 27  15  36  1   
 28  16  18  1   
 29  16  37  1   
 30  16  38  1   
 31  17  19  1   
 32  17  39  1   
 33  17  40  1   
 34  18  19  am  
 35  18  20  1   
 36  19  21  2   
 37  20  22  1   
 38  20  23  1   
 39  20  41  1   
 40  22  24  1   
 41  22  42  1   
 42  22  43  1   
 43  23  25  1   
 44  23  44  1   
 45  23  45  1   
 46  24  26  1   
 47  24  46  1   
 48  24  47  1   
 49  25  26  1   
 50  25  48  1   
 51  25  49  1   
 52  26  50  1   
 53  26  51  1   
@<TRIPOS>SUBSTRUCTURE
  1 ****  13 GROUP 4 **** **** 0

# MOE 2024.06 (io_trps.svl 2023.06)
