@<TRIPOS>MOLECULE
NONAME
45 46 1 0 0 
SMALL
USER_CHARGES


@<TRIPOS>ATOM
  1 CL       0.1380    -0.1820    -1.3000 Cl    1 <1>  -0.1770 
  2 C        1.6250    -0.8300    -0.6600 C.ar  1 <1>   0.1770 
  3 C        2.3270    -0.1090     0.2870 C.ar  1 <1>  -0.1500 
  4 C        2.0810    -2.0550    -1.1090 C.ar  1 <1>  -0.1500 
  5 C        3.5090    -0.6240     0.7920 C.ar  1 <1>  -0.1500 
  6 C        3.2630    -2.5660    -0.6010 C.ar  1 <1>  -0.1500 
  7 C        3.9840    -1.8520     0.3480 C.ar  1 <1>  -0.1430 
  8 C        5.2860    -2.4080     0.8910 C.3   1 <1>  -0.0160 
  9 C        6.4310    -1.9490    -0.0110 C.3   1 <1>   0.3430 
 10 N        7.7370    -2.4760     0.4800 N.4   1 <1>  -0.9060 
 11 C        8.8940    -2.0930    -0.3580 C.3   1 <1>   0.4230 
 12 C       10.0930    -2.9410     0.0830 C.3   1 <1>  -0.1600 
 13 C        9.1580    -0.5870    -0.2160 C.3   1 <1>  -0.1600 
 14 C       11.3860    -2.4910    -0.6030 C.3   1 <1>   0.1400 
 15 C       10.4680    -0.1900    -0.8970 C.3   1 <1>   0.1400 
 16 N       11.5490    -1.0410    -0.3520 N.am  1 <1>  -0.6600 
 17 C       12.3590    -0.5680     0.6520 C.2   1 <1>   0.7800 
 18 O       12.0750     0.4160     1.2990 O.2   1 <1>  -0.5700 
 19 O       13.4570    -1.2410     0.9750 O.3   1 <1>  -0.4300 
 20 C       14.4990    -1.3490     0.0350 C.3   1 <1>   0.1200 
 21 C       15.5510    -2.2950     0.6050 C.3   1 <1>  -0.2400 
 22 H        1.9460     0.8390     0.6220 H     1 <1>   0.1500 
 23 H        1.5110    -2.5960    -1.8440 H     1 <1>   0.1500 
 24 H        4.0450    -0.0570     1.5340 H     1 <1>   0.1500 
 25 H        3.6060    -3.5240    -0.9530 H     1 <1>   0.1500 
 26 H        5.2320    -3.4820     0.9130 H     1 <1>   0.0800 
 27 H        5.4350    -2.0510     1.8960 H     1 <1>   0.0800 
 28 H        6.4490    -0.8710    -0.0280 H     1 <1>   0.0800 
 29 H        6.2470    -2.2960    -1.0150 H     1 <1>   0.0800 
 30 H        7.6950    -3.5000     0.5340 H     1 <1>   0.4500 
 31 H        7.9140    -2.1360     1.4340 H     1 <1>   0.4500 
 32 H        8.6860    -2.3130    -1.3940 H     1 <1>   0.0800 
 33 H        9.9240    -3.9750    -0.1580 H     1 <1>   0.0800 
 34 H       10.2410    -2.8580     1.1460 H     1 <1>   0.0800 
 35 H        9.2310    -0.3120     0.8220 H     1 <1>   0.0800 
 36 H        8.3650    -0.0180    -0.6660 H     1 <1>   0.0800 
 37 H       11.3430    -2.6680    -1.6650 H     1 <1>   0.0800 
 38 H       12.2200    -3.0430    -0.2030 H     1 <1>   0.0800 
 39 H       10.6830     0.8510    -0.7100 H     1 <1>   0.0800 
 40 H       10.4060    -0.3290    -1.9630 H     1 <1>   0.0800 
 41 H       14.9110    -0.3670    -0.1220 H     1 <1>   0.0800 
 42 H       14.1060    -1.7280    -0.8930 H     1 <1>   0.0800 
 43 H       15.9310    -1.9050     1.5330 H     1 <1>   0.0800 
 44 H       16.3690    -2.3890    -0.0860 H     1 <1>   0.0800 
 45 H       15.1270    -3.2680     0.7720 H     1 <1>   0.0800 
@<TRIPOS>BOND
  1   1   2  1   
  2   2   3  ar  
  3   2   4  ar  
  4   3   5  ar  
  5   3  22  1   
  6   4   6  ar  
  7   4  23  1   
  8   5   7  ar  
  9   5  24  1   
 10   6   7  ar  
 11   6  25  1   
 12   7   8  1   
 13   8   9  1   
 14   8  26  1   
 15   8  27  1   
 16   9  10  1   
 17   9  28  1   
 18   9  29  1   
 19  10  11  1   
 20  10  30  1   
 21  10  31  1   
 22  11  12  1   
 23  11  13  1   
 24  11  32  1   
 25  12  14  1   
 26  12  33  1   
 27  12  34  1   
 28  13  15  1   
 29  13  35  1   
 30  13  36  1   
 31  14  16  1   
 32  14  37  1   
 33  14  38  1   
 34  15  16  1   
 35  15  39  1   
 36  15  40  1   
 37  16  17  am  
 38  17  18  2   
 39  17  19  1   
 40  19  20  1   
 41  20  21  1   
 42  20  41  1   
 43  20  42  1   
 44  21  43  1   
 45  21  44  1   
 46  21  45  1   
@<TRIPOS>SUBSTRUCTURE
  1 ****  10 GROUP 4 **** **** 0

# MOE 2024.06 (io_trps.svl 2023.06)
