@<TRIPOS>MOLECULE
NONAME
36 37 1 0 0 
SMALL
USER_CHARGES


@<TRIPOS>ATOM
  1 O        0.1880    -0.2510     0.2460 O.3   1 <1>  -0.3630 
  2 C       -1.0480    -0.8120     0.2020 C.ar  1 <1>   0.0830 
  3 C        1.3290    -0.9640    -0.1610 C.3   1 <1>   0.1200 
  4 C       -2.0990    -0.0340     0.6570 C.ar  1 <1>  -0.1500 
  5 C       -1.3020    -2.1000    -0.2670 C.ar  1 <1>  -0.1500 
  6 C        2.5330    -0.0370     0.0300 C.3   1 <1>   0.3430 
  7 C       -3.3910    -0.5280     0.6480 C.ar  1 <1>  -0.1500 
  8 C       -2.5950    -2.5940    -0.2760 C.ar  1 <1>  -0.1500 
  9 N        3.8290    -0.6790    -0.3670 N.4   1 <1>  -0.9590 
 10 C       -3.6490    -1.8080     0.1840 C.ar  1 <1>   0.0830 
 11 C        4.2350    -1.8190     0.4950 C.3   1 <1>   0.3430 
 12 C        4.9630     0.2770    -0.3230 C.3   1 <1>   0.3430 
 13 O       -4.9440    -2.2160     0.2100 O.3   1 <1>  -0.3630 
 14 C        5.7320    -1.9630     0.2550 C.3   1 <1>  -0.1600 
 15 C        6.2020    -0.6080    -0.2820 C.3   1 <1>  -0.1600 
 16 C       -5.3160    -3.4990    -0.2420 C.3   1 <1>   0.0400 
 17 H        1.2060    -1.2270    -1.1970 H     1 <1>   0.0800 
 18 H        1.4080    -1.8410     0.4560 H     1 <1>   0.0800 
 19 H       -1.9070     0.9600     1.0180 H     1 <1>   0.1500 
 20 H       -0.5160    -2.7340    -0.6300 H     1 <1>   0.1500 
 21 H        2.5810     0.2590     1.0650 H     1 <1>   0.0800 
 22 H        2.3750     0.8460    -0.5670 H     1 <1>   0.0800 
 23 H       -4.2080     0.0740     1.0010 H     1 <1>   0.1500 
 24 H       -2.7670    -3.5880    -0.6410 H     1 <1>   0.1500 
 25 H        3.7650    -1.0220    -1.3360 H     1 <1>   0.4500 
 26 H        3.7030    -2.7240     0.2450 H     1 <1>   0.0800 
 27 H        4.0610    -1.5750     1.5310 H     1 <1>   0.0800 
 28 H        4.9120     0.8640     0.5810 H     1 <1>   0.0800 
 29 H        4.9690     0.9340    -1.1780 H     1 <1>   0.0800 
 30 H        5.9140    -2.7380    -0.4700 H     1 <1>   0.0800 
 31 H        6.2340    -2.2270     1.1690 H     1 <1>   0.0800 
 32 H        6.9570    -0.1680     0.3470 H     1 <1>   0.0800 
 33 H        6.6060    -0.7160    -1.2740 H     1 <1>   0.0800 
 34 H       -6.3800    -3.5970    -0.1280 H     1 <1>   0.0800 
 35 H       -4.8150    -4.2390     0.3570 H     1 <1>   0.0800 
 36 H       -5.0490    -3.5950    -1.2800 H     1 <1>   0.0800 
@<TRIPOS>BOND
  1   1   2  1   
  2   1   3  1   
  3   2   4  ar  
  4   2   5  ar  
  5   3   6  1   
  6   3  17  1   
  7   3  18  1   
  8   4   7  ar  
  9   4  19  1   
 10   5   8  ar  
 11   5  20  1   
 12   6   9  1   
 13   6  21  1   
 14   6  22  1   
 15   7  10  ar  
 16   7  23  1   
 17   8  10  ar  
 18   8  24  1   
 19   9  11  1   
 20   9  12  1   
 21   9  25  1   
 22  10  13  1   
 23  11  14  1   
 24  11  26  1   
 25  11  27  1   
 26  12  15  1   
 27  12  28  1   
 28  12  29  1   
 29  13  16  1   
 30  14  15  1   
 31  14  30  1   
 32  14  31  1   
 33  15  32  1   
 34  15  33  1   
 35  16  34  1   
 36  16  35  1   
 37  16  36  1   
@<TRIPOS>SUBSTRUCTURE
  1 ****   1 GROUP 4 **** **** 0

# MOE 2024.06 (io_trps.svl 2023.06)
