@<TRIPOS>MOLECULE
NONAME
42 43 1 0 0 
SMALL
USER_CHARGES


@<TRIPOS>ATOM
  1 CL       1.5900    -1.1530     1.6910 Cl    1 <1>  -0.1770 
  2 C        0.9150    -2.5350     0.8580 C.ar  1 <1>   0.1770 
  3 C        1.4030    -2.8750    -0.3910 C.ar  1 <1>  -0.1440 
  4 C       -0.0790    -3.2670     1.4760 C.ar  1 <1>  -0.1500 
  5 C        0.8680    -3.9830    -1.0260 C.ar  1 <1>  -0.1500 
  6 C        2.4930    -2.0560    -1.0420 C.3   1 <1>   0.4870 
  7 C       -0.6150    -4.3840     0.8410 C.ar  1 <1>   0.0820 
  8 C       -0.1310    -4.7400    -0.4330 C.ar  1 <1>   0.0820 
  9 N        3.7630    -2.4000    -0.3750 N.4   1 <1>  -0.9060 
 10 O       -1.5840    -5.1320     1.4440 O.3   1 <1>  -0.3620 
 11 O       -0.5380    -5.7920    -1.1980 O.3   1 <1>  -0.3620 
 12 C        4.9350    -1.6500    -0.8590 C.3   1 <1>   0.4860 
 13 C       -2.1230    -4.8110     2.7090 C.3   1 <1>   0.0400 
 14 C       -1.7230    -6.5160    -0.9550 C.3   1 <1>   0.1200 
 15 C        6.0990    -2.0980    -0.0090 C.ar  1 <1>  -0.1440 
 16 C       -1.9710    -7.4300    -2.1510 C.3   1 <1>  -0.2400 
 17 C        6.3630    -1.4680     1.2000 C.ar  1 <1>  -0.1500 
 18 C        6.9040    -3.1500    -0.4230 C.ar  1 <1>  -0.1500 
 19 C        7.4170    -1.8920     1.9880 C.ar  1 <1>  -0.1500 
 20 C        7.9580    -3.5720     0.3680 C.ar  1 <1>  -0.1500 
 21 C        8.2140    -2.9440     1.5740 C.ar  1 <1>  -0.1500 
 22 H       -0.4100    -2.9480     2.4460 H     1 <1>   0.1500 
 23 H        1.2110    -4.2870    -2.0010 H     1 <1>   0.1500 
 24 H        2.2770    -1.0060    -0.9250 H     1 <1>   0.0800 
 25 H        2.5450    -2.2850    -2.0950 H     1 <1>   0.0800 
 26 H        3.9470    -3.4060    -0.4580 H     1 <1>   0.4500 
 27 H        3.6660    -2.2250     0.6340 H     1 <1>   0.4500 
 28 H        4.7830    -0.5890    -0.7430 H     1 <1>   0.0800 
 29 H        5.1280    -1.8690    -1.8970 H     1 <1>   0.0800 
 30 H       -2.8720    -5.5450     2.9470 H     1 <1>   0.0800 
 31 H       -1.3390    -4.8410     3.4440 H     1 <1>   0.0800 
 32 H       -2.5750    -3.8360     2.6610 H     1 <1>   0.0800 
 33 H       -1.5910    -7.0950    -0.0570 H     1 <1>   0.0800 
 34 H       -2.5330    -5.8180    -0.8330 H     1 <1>   0.0800 
 35 H       -1.1510    -8.1140    -2.2700 H     1 <1>   0.0800 
 36 H       -2.0880    -6.8460    -3.0450 H     1 <1>   0.0800 
 37 H       -2.8700    -7.9970    -1.9920 H     1 <1>   0.0800 
 38 H        5.7610    -0.6430     1.5440 H     1 <1>   0.1500 
 39 H        6.7300    -3.6540    -1.3590 H     1 <1>   0.1500 
 40 H        7.6250    -1.4040     2.9260 H     1 <1>   0.1500 
 41 H        8.5850    -4.3870     0.0490 H     1 <1>   0.1500 
 42 H        9.0350    -3.2720     2.1890 H     1 <1>   0.1500 
@<TRIPOS>BOND
  1   1   2  1   
  2   2   3  ar  
  3   2   4  ar  
  4   3   5  ar  
  5   3   6  1   
  6   4   7  ar  
  7   4  22  1   
  8   5   8  ar  
  9   5  23  1   
 10   6   9  1   
 11   6  24  1   
 12   6  25  1   
 13   7   8  ar  
 14   7  10  1   
 15   8  11  1   
 16   9  12  1   
 17   9  26  1   
 18   9  27  1   
 19  10  13  1   
 20  11  14  1   
 21  12  15  1   
 22  12  28  1   
 23  12  29  1   
 24  13  30  1   
 25  13  31  1   
 26  13  32  1   
 27  14  16  1   
 28  14  33  1   
 29  14  34  1   
 30  15  17  ar  
 31  15  18  ar  
 32  16  35  1   
 33  16  36  1   
 34  16  37  1   
 35  17  19  ar  
 36  17  38  1   
 37  18  20  ar  
 38  18  39  1   
 39  19  21  ar  
 40  19  40  1   
 41  20  21  ar  
 42  20  41  1   
 43  21  42  1   
@<TRIPOS>SUBSTRUCTURE
  1 ****   3 GROUP 4 **** **** 0

# MOE 2024.06 (io_trps.svl 2023.06)
