@<TRIPOS>MOLECULE
NONAME
46 47 1 0 0 
SMALL
USER_CHARGES


@<TRIPOS>ATOM
  1 S       -0.3340    -0.1370     0.8950 S.o2  1 <1>   1.4470 
  2 O       -0.8490    -0.0210     2.2400 O.2   1 <1>  -0.6500 
  3 O       -0.2620    -1.4260     0.2470 O.2   1 <1>  -0.6500 
  4 N       -1.3170     0.7690    -0.1150 N.am  1 <1>  -0.9140 
  5 C        1.2740     0.6970     0.7740 C.ar  1 <1>  -0.0090 
  6 C       -2.6950     0.8930     0.3110 C.3   1 <1>   0.2760 
  7 C        2.4470    -0.0270     0.6260 C.ar  1 <1>  -0.1500 
  8 C        1.3730     2.0790     0.8420 C.ar  1 <1>  -0.1500 
  9 C       -3.4530    -0.4150     0.0910 C.3   1 <1>  -0.1600 
 10 C       -3.3870     1.8400    -0.6610 C.3   1 <1>  -0.1600 
 11 C        3.7020     0.5750     0.5340 C.ar  1 <1>   0.0860 
 12 C        2.6010     2.7100     0.7570 C.ar  1 <1>  -0.1500 
 13 C       -3.7790    -0.4630    -1.4050 C.3   1 <1>  -0.1600 
 14 C       -3.7530     0.9930    -1.8870 C.3   1 <1>  -0.1600 
 15 C        3.7610     1.9720     0.6010 C.ar  1 <1>  -0.1430 
 16 C        4.8780    -0.2590     0.3650 C.2   1 <1>   0.5440 
 17 C        5.0940     2.7050     0.5070 C.3   1 <1>  -0.0970 
 18 O        5.8020    -0.1940     1.1500 O.2   1 <1>  -0.5700 
 19 N        4.9310    -1.1280    -0.6930 N.am  1 <1>  -0.7300 
 20 C        6.0070    -2.0640    -1.0720 C.3   1 <1>   0.2200 
 21 C        6.2240    -3.0980     0.0310 C.3   1 <1>  -0.2400 
 22 C        7.2830    -1.2950    -1.4030 C.3   1 <1>  -0.2400 
 23 H       -1.3460     0.2300    -0.9770 H     1 <1>   0.4200 
 24 H       -2.7580     1.2530     1.3260 H     1 <1>   0.0800 
 25 H        2.3920    -1.1020     0.5870 H     1 <1>   0.1500 
 26 H        0.4790     2.6680     0.9640 H     1 <1>   0.1500 
 27 H       -4.3760    -0.3590     0.6420 H     1 <1>   0.0800 
 28 H       -2.9220    -1.2870     0.4290 H     1 <1>   0.0800 
 29 H       -2.7760     2.6900    -0.9110 H     1 <1>   0.0800 
 30 H       -4.2930     2.1950    -0.2020 H     1 <1>   0.0800 
 31 H        2.6430     3.7840     0.8140 H     1 <1>   0.1500 
 32 H       -4.7410    -0.9180    -1.5740 H     1 <1>   0.0800 
 33 H       -3.0300    -1.0350    -1.9270 H     1 <1>   0.0800 
 34 H       -3.0040     1.1100    -2.6520 H     1 <1>   0.0800 
 35 H       -4.7070     1.2920    -2.2880 H     1 <1>   0.0800 
 36 H        5.6480     2.3660    -0.3500 H     1 <1>   0.0800 
 37 H        5.6790     2.5120     1.3900 H     1 <1>   0.0800 
 38 H        4.9510     3.7670     0.4190 H     1 <1>   0.0800 
 39 H        4.1520    -1.1100    -1.3500 H     1 <1>   0.3700 
 40 H        5.6900    -2.5860    -1.9600 H     1 <1>   0.0800 
 41 H        6.5940    -2.6300     0.9260 H     1 <1>   0.0800 
 42 H        6.9470    -3.8260    -0.2890 H     1 <1>   0.0800 
 43 H        5.3030    -3.6050     0.2510 H     1 <1>   0.0800 
 44 H        7.6680    -0.8000    -0.5300 H     1 <1>   0.0800 
 45 H        7.0890    -0.5650    -2.1670 H     1 <1>   0.0800 
 46 H        8.0350    -1.9730    -1.7630 H     1 <1>   0.0800 
@<TRIPOS>BOND
  1   1   2  2   
  2   1   3  2   
  3   1   4  am  
  4   1   5  1   
  5   4   6  1   
  6   4  23  1   
  7   5   7  ar  
  8   5   8  ar  
  9   6   9  1   
 10   6  10  1   
 11   6  24  1   
 12   7  11  ar  
 13   7  25  1   
 14   8  12  ar  
 15   8  26  1   
 16   9  13  1   
 17   9  27  1   
 18   9  28  1   
 19  10  14  1   
 20  10  29  1   
 21  10  30  1   
 22  11  15  ar  
 23  11  16  1   
 24  12  15  ar  
 25  12  31  1   
 26  13  14  1   
 27  13  32  1   
 28  13  33  1   
 29  14  34  1   
 30  14  35  1   
 31  15  17  1   
 32  16  18  2   
 33  16  19  am  
 34  17  36  1   
 35  17  37  1   
 36  17  38  1   
 37  19  20  1   
 38  19  39  1   
 39  20  21  1   
 40  20  22  1   
 41  20  40  1   
 42  21  41  1   
 43  21  42  1   
 44  21  43  1   
 45  22  44  1   
 46  22  45  1   
 47  22  46  1   
@<TRIPOS>SUBSTRUCTURE
  1 ****   5 GROUP 4 **** **** 0

# MOE 2024.06 (io_trps.svl 2023.06)
