@<TRIPOS>MOLECULE
NONAME
38 39 1 0 0 
SMALL
USER_CHARGES


@<TRIPOS>ATOM
  1 O       -0.1550     2.4000     2.9500 O.2   1 <1>  -0.5700 
  2 C       -0.1540     3.0280     1.9200 C.2   1 <1>   0.5690 
  3 N        0.9930     3.3680     1.2880 N.am  1 <1>  -0.7300 
  4 C       -1.4750     3.4530     1.3100 C.3   1 <1>  -0.0990 
  5 C        2.3320     2.9050     1.6820 C.3   1 <1>   0.2840 
  6 C       -2.1230     2.3530     0.4460 C.3   1 <1>  -0.0800 
  7 C        3.1140     2.6220     0.4130 C.ar  1 <1>  -0.1440 
  8 C       -1.2510     1.9840    -0.7710 C.3   1 <1>  -0.1600 
  9 C       -3.5220     2.8010    -0.0140 C.3   1 <1>  -0.1600 
 10 C        4.0370     3.5380    -0.0680 C.ar  1 <1>  -0.1500 
 11 C        2.9020     1.4410    -0.2820 C.ar  1 <1>  -0.1500 
 12 C       -1.9280     0.9270    -1.6520 C.3   1 <1>  -0.1600 
 13 C       -4.1970     1.7390    -0.8920 C.3   1 <1>  -0.1600 
 14 C        4.7410     3.2750    -1.2310 C.ar  1 <1>  -0.1500 
 15 C        3.6050     1.1770    -1.4450 C.ar  1 <1>  -0.1500 
 16 C       -3.3220     1.3830    -2.0990 C.3   1 <1>  -0.1600 
 17 C        4.5250     2.0950    -1.9190 C.ar  1 <1>  -0.1500 
 18 H        0.9630     3.8260     0.3770 H     1 <1>   0.3700 
 19 H       -1.3280     4.3420     0.7250 H     1 <1>   0.0800 
 20 H       -2.1380     3.7030     2.1180 H     1 <1>   0.0800 
 21 H        2.2560     2.0120     2.2800 H     1 <1>   0.0800 
 22 H        2.8170     3.6670     2.2660 H     1 <1>   0.0800 
 23 H       -2.2360     1.4730     1.0590 H     1 <1>   0.0800 
 24 H       -0.3030     1.5960    -0.4420 H     1 <1>   0.0800 
 25 H       -1.0630     2.8650    -1.3610 H     1 <1>   0.0800 
 26 H       -3.4430     3.7180    -0.5720 H     1 <1>   0.0800 
 27 H       -4.1430     2.9900     0.8460 H     1 <1>   0.0800 
 28 H        4.2120     4.4600     0.4580 H     1 <1>   0.1500 
 29 H        2.1850     0.7240     0.0820 H     1 <1>   0.1500 
 30 H       -2.0160     0.0070    -1.0990 H     1 <1>   0.0800 
 31 H       -1.3170     0.7340    -2.5170 H     1 <1>   0.0800 
 32 H       -5.1500     2.1040    -1.2320 H     1 <1>   0.0800 
 33 H       -4.3730     0.8520    -0.3060 H     1 <1>   0.0800 
 34 H        5.4580     3.9890    -1.6000 H     1 <1>   0.1500 
 35 H        3.4360     0.2590    -1.9790 H     1 <1>   0.1500 
 36 H       -3.7930     0.5990    -2.6680 H     1 <1>   0.0800 
 37 H       -3.2280     2.2440    -2.7390 H     1 <1>   0.0800 
 38 H        5.0730     1.8900    -2.8230 H     1 <1>   0.1500 
@<TRIPOS>BOND
  1   1   2  2   
  2   2   3  am  
  3   2   4  1   
  4   3   5  1   
  5   3  18  1   
  6   4   6  1   
  7   4  19  1   
  8   4  20  1   
  9   5   7  1   
 10   5  21  1   
 11   5  22  1   
 12   6   8  1   
 13   6   9  1   
 14   6  23  1   
 15   7  10  ar  
 16   7  11  ar  
 17   8  12  1   
 18   8  24  1   
 19   8  25  1   
 20   9  13  1   
 21   9  26  1   
 22   9  27  1   
 23  10  14  ar  
 24  10  28  1   
 25  11  15  ar  
 26  11  29  1   
 27  12  16  1   
 28  12  30  1   
 29  12  31  1   
 30  13  16  1   
 31  13  32  1   
 32  13  33  1   
 33  14  17  ar  
 34  14  34  1   
 35  15  17  ar  
 36  15  35  1   
 37  16  36  1   
 38  16  37  1   
 39  17  38  1   
@<TRIPOS>SUBSTRUCTURE
  1 ****   3 GROUP 4 **** **** 0

# MOE 2024.06 (io_trps.svl 2023.06)
