@<TRIPOS>MOLECULE
NONAME
36 37 1 0 0 
SMALL
USER_CHARGES


@<TRIPOS>ATOM
  1 CL      -0.0990     0.7060     0.6360 Cl    1 <1>  -0.1770 
  2 C        1.5660     1.1570     0.3920 C.ar  1 <1>   0.1770 
  3 C        1.9050     1.9620    -0.6770 C.ar  1 <1>  -0.1500 
  4 C        2.5300     0.7020     1.2710 C.ar  1 <1>  -0.1500 
  5 C        3.2290     2.3180    -0.8630 C.ar  1 <1>  -0.1500 
  6 C        3.8530     1.0630     1.0760 C.ar  1 <1>  -0.1500 
  7 C        4.2340     1.8860     0.0080 C.ar  1 <1>   0.0860 
  8 C        5.6150     2.2830    -0.2030 C.2   1 <1>   0.5440 
  9 O        6.0130     2.5470    -1.3180 O.2   1 <1>  -0.5700 
 10 N        6.4570     2.3870     0.8740 N.am  1 <1>  -0.4900 
 11 C        7.7640     2.7470     0.9750 C.2   1 <1>   0.6900 
 12 O        8.0410     3.3960     1.9630 O.2   1 <1>  -0.5700 
 13 N        8.7450     2.3830     0.0840 N.am  1 <1>  -0.6600 
 14 C        8.6350     1.2180    -0.8360 C.3   1 <1>   0.1400 
 15 C        9.9840     3.2000    -0.0180 C.3   1 <1>   0.1400 
 16 C        9.7550     0.1910    -0.6230 C.3   1 <1>  -0.1600 
 17 C       11.1260     2.5250     0.7470 C.3   1 <1>  -0.1600 
 18 C       11.1310     0.6770    -1.1030 C.3   1 <1>  -0.1600 
 19 C       11.9210     1.4820    -0.0580 C.3   1 <1>  -0.1600 
 20 H        1.1410     2.3020    -1.3530 H     1 <1>   0.1500 
 21 H        2.2420     0.0710     2.0930 H     1 <1>   0.1500 
 22 H        3.4970     2.9440    -1.6990 H     1 <1>   0.1500 
 23 H        4.5950     0.6900     1.7600 H     1 <1>   0.1500 
 24 H        6.0020     2.5320     1.7660 H     1 <1>   0.3700 
 25 H        8.6380     1.5710    -1.8530 H     1 <1>   0.0800 
 26 H        7.7000     0.7140    -0.6730 H     1 <1>   0.0800 
 27 H        9.8010     4.1690     0.4140 H     1 <1>   0.0800 
 28 H       10.2460     3.3520    -1.0510 H     1 <1>   0.0800 
 29 H        9.4970    -0.6790    -1.2000 H     1 <1>   0.0800 
 30 H        9.7910    -0.1110     0.4090 H     1 <1>   0.0800 
 31 H       10.7220     2.0720     1.6360 H     1 <1>   0.0800 
 32 H       11.8120     3.2860     1.0720 H     1 <1>   0.0800 
 33 H       11.0100     1.2650    -1.9970 H     1 <1>   0.0800 
 34 H       11.7250    -0.1800    -1.3730 H     1 <1>   0.0800 
 35 H       12.3720     0.7980     0.6400 H     1 <1>   0.0800 
 36 H       12.7260     1.9820    -0.5690 H     1 <1>   0.0800 
@<TRIPOS>BOND
  1   1   2  1   
  2   2   3  ar  
  3   2   4  ar  
  4   3   5  ar  
  5   3  20  1   
  6   4   6  ar  
  7   4  21  1   
  8   5   7  ar  
  9   5  22  1   
 10   6   7  ar  
 11   6  23  1   
 12   7   8  1   
 13   8   9  2   
 14   8  10  am  
 15  10  11  am  
 16  10  24  1   
 17  11  12  2   
 18  11  13  am  
 19  13  14  1   
 20  13  15  1   
 21  14  16  1   
 22  14  25  1   
 23  14  26  1   
 24  15  17  1   
 25  15  27  1   
 26  15  28  1   
 27  16  18  1   
 28  16  29  1   
 29  16  30  1   
 30  17  19  1   
 31  17  31  1   
 32  17  32  1   
 33  18  19  1   
 34  18  33  1   
 35  18  34  1   
 36  19  35  1   
 37  19  36  1   
@<TRIPOS>SUBSTRUCTURE
  1 ****  10 GROUP 4 **** **** 0

# MOE 2024.06 (io_trps.svl 2023.06)
