@<TRIPOS>MOLECULE
NONAME
44 46 1 0 0 
SMALL
USER_CHARGES


@<TRIPOS>ATOM
  1 BR      -0.1360     0.4120    -0.9150 Br    1 <1>  -0.1110 
  2 C       -1.7590    -0.5290    -0.4920 C.ar  1 <1>   0.1110 
  3 C       -2.3170    -1.3570    -1.4450 C.ar  1 <1>  -0.1500 
  4 C       -2.3250    -0.3540     0.7560 C.ar  1 <1>  -0.1500 
  5 C       -3.4870    -2.0310    -1.1370 C.ar  1 <1>  -0.1500 
  6 C       -3.4950    -1.0310     1.0550 C.ar  1 <1>  -0.1500 
  7 C       -4.0830    -1.8650     0.1090 C.ar  1 <1>  -0.1430 
  8 C       -5.3750    -2.5910     0.4380 C.3   1 <1>   0.4870 
  9 N       -6.4930    -1.9220    -0.2780 N.4   1 <1>  -0.9590 
 10 C       -6.6720    -0.4900     0.1820 C.3   1 <1>   0.3430 
 11 C       -7.7800    -2.7030    -0.1510 C.3   1 <1>   0.3430 
 12 C       -7.8490     0.2190    -0.5190 C.3   1 <1>   0.2090 
 13 C       -8.9690    -2.0130    -0.8520 C.3   1 <1>   0.2090 
 14 N       -9.0870    -0.6000    -0.3960 N.pl3 1 <1>  -0.8380 
 15 C      -10.3360     0.0080    -0.5000 C.ar  1 <1>   0.1000 
 16 C      -11.3500    -0.3610     0.3730 C.ar  1 <1>  -0.1500 
 17 C      -10.6060     0.9770    -1.4610 C.ar  1 <1>  -0.1500 
 18 C      -12.6060     0.2120     0.2980 C.ar  1 <1>   0.0830 
 19 C      -11.8570     1.5610    -1.5430 C.ar  1 <1>  -0.1500 
 20 O      -13.5280    -0.2210     1.1950 O.3   1 <1>  -0.3630 
 21 C      -12.8610     1.1820    -0.6680 C.ar  1 <1>  -0.1500 
 22 C      -14.8310     0.3180     1.2210 C.3   1 <1>   0.0400 
 23 H       -1.8380    -1.4720    -2.4030 H     1 <1>   0.1500 
 24 H       -1.8530     0.2960     1.4730 H     1 <1>   0.1500 
 25 H       -3.9150    -2.6840    -1.8790 H     1 <1>   0.1500 
 26 H       -3.9320    -0.9000     2.0310 H     1 <1>   0.1500 
 27 H       -5.5490    -2.5710     1.5020 H     1 <1>   0.0800 
 28 H       -5.2930    -3.6190     0.1250 H     1 <1>   0.0800 
 29 H       -6.2350    -1.8810    -1.2710 H     1 <1>   0.4500 
 30 H       -5.7700     0.0710     0.0010 H     1 <1>   0.0800 
 31 H       -6.8620    -0.4750     1.2430 H     1 <1>   0.0800 
 32 H       -8.0320    -2.8110     0.8910 H     1 <1>   0.0800 
 33 H       -7.6560    -3.6900    -0.5650 H     1 <1>   0.0800 
 34 H       -7.6170     0.3750    -1.5580 H     1 <1>   0.0800 
 35 H       -8.0120     1.1810    -0.0630 H     1 <1>   0.0800 
 36 H       -9.8790    -2.5430    -0.6230 H     1 <1>   0.0800 
 37 H       -8.8350    -2.0350    -1.9200 H     1 <1>   0.0800 
 38 H      -11.1620    -1.1000     1.1260 H     1 <1>   0.1500 
 39 H       -9.8410     1.2740    -2.1520 H     1 <1>   0.1500 
 40 H      -12.0540     2.3090    -2.2910 H     1 <1>   0.1500 
 41 H      -13.8240     1.6490    -0.7530 H     1 <1>   0.1500 
 42 H      -15.3760    -0.1640     2.0120 H     1 <1>   0.0800 
 43 H      -15.3080     0.1240     0.2770 H     1 <1>   0.0800 
 44 H      -14.7670     1.3750     1.4130 H     1 <1>   0.0800 
@<TRIPOS>BOND
  1   1   2  1   
  2   2   3  ar  
  3   2   4  ar  
  4   3   5  ar  
  5   3  23  1   
  6   4   6  ar  
  7   4  24  1   
  8   5   7  ar  
  9   5  25  1   
 10   6   7  ar  
 11   6  26  1   
 12   7   8  1   
 13   8   9  1   
 14   8  27  1   
 15   8  28  1   
 16   9  10  1   
 17   9  11  1   
 18   9  29  1   
 19  10  12  1   
 20  10  30  1   
 21  10  31  1   
 22  11  13  1   
 23  11  32  1   
 24  11  33  1   
 25  12  14  1   
 26  12  34  1   
 27  12  35  1   
 28  13  14  1   
 29  13  36  1   
 30  13  37  1   
 31  14  15  1   
 32  15  16  ar  
 33  15  17  ar  
 34  16  18  ar  
 35  16  38  1   
 36  17  19  ar  
 37  17  39  1   
 38  18  20  1   
 39  18  21  ar  
 40  19  21  ar  
 41  19  40  1   
 42  20  22  1   
 43  21  41  1   
 44  22  42  1   
 45  22  43  1   
 46  22  44  1   
@<TRIPOS>SUBSTRUCTURE
  1 ****  12 GROUP 4 **** **** 0

# MOE 2024.06 (io_trps.svl 2023.06)
