@<TRIPOS>MOLECULE
NONAME
37 39 1 0 0 
SMALL
USER_CHARGES


@<TRIPOS>ATOM
  1 S        4.8260    -6.5720     0.4320 S.3   1 <1>  -0.0800 
  2 C        6.3080    -5.6220     0.3350 C.ar  1 <1>   0.2970 
  3 C        3.8500    -5.2190    -0.1490 C.2   1 <1>  -0.1400 
  4 N        7.4950    -6.1010     0.6380 N.ar  1 <1>  -0.5670 
  5 C        6.0310    -4.3500    -0.0970 C.ar  1 <1>   0.0000 
  6 C        4.6330    -4.1480    -0.3790 C.2   1 <1>  -0.1500 
  7 C        2.3620    -5.4810    -0.2920 C.3   1 <1>   0.0200 
  8 C        8.4550    -5.2110     0.4770 C.ar  1 <1>   0.4770 
  9 C        7.1380    -3.5060    -0.1960 C.ar  1 <1>   0.4100 
 10 C        1.6050    -4.2510    -0.8010 C.3   1 <1>  -0.2400 
 11 N        8.3530    -3.9520     0.0760 N.ar  1 <1>  -0.6200 
 12 C        9.8570    -5.6750     0.7880 C.3   1 <1>  -0.0960 
 13 N        7.0140    -2.1820    -0.5660 N.pl3 1 <1>  -0.8380 
 14 C        8.0530    -1.5270    -1.4080 C.3   1 <1>   0.2090 
 15 C        6.1720    -1.2570     0.2350 C.3   1 <1>   0.2090 
 16 C        8.9400    -0.6230    -0.5460 C.3   1 <1>  -0.1600 
 17 C        7.0600    -0.3580     1.1020 C.3   1 <1>  -0.1600 
 18 C        8.1130     0.3830     0.2660 C.3   1 <1>  -0.1600 
 19 H        4.3010    -3.1960    -0.7500 H     1 <1>   0.1500 
 20 H        1.9650    -5.7740     0.6650 H     1 <1>   0.0800 
 21 H        2.2160    -6.2980    -0.9770 H     1 <1>   0.0800 
 22 H        1.7250    -3.4310    -0.1150 H     1 <1>   0.0800 
 23 H        0.5570    -4.4750    -0.8900 H     1 <1>   0.0800 
 24 H        1.9780    -3.9590    -1.7660 H     1 <1>   0.0800 
 25 H        9.8510    -6.6850     1.1550 H     1 <1>   0.0800 
 26 H       10.2880    -5.0340     1.5340 H     1 <1>   0.0800 
 27 H       10.4530    -5.6280    -0.1030 H     1 <1>   0.0800 
 28 H        7.5650    -0.9430    -2.1690 H     1 <1>   0.0800 
 29 H        8.6560    -2.2740    -1.8960 H     1 <1>   0.0800 
 30 H        5.5080    -1.8160     0.8720 H     1 <1>   0.0800 
 31 H        5.5780    -0.6560    -0.4320 H     1 <1>   0.0800 
 32 H        9.6330    -0.0990    -1.1790 H     1 <1>   0.0800 
 33 H        9.5110    -1.2450     0.1220 H     1 <1>   0.0800 
 34 H        7.5510    -0.9720     1.8370 H     1 <1>   0.0800 
 35 H        6.4450     0.3520     1.6240 H     1 <1>   0.0800 
 36 H        7.6230     1.0690    -0.4040 H     1 <1>   0.0800 
 37 H        8.7600     0.9490     0.9130 H     1 <1>   0.0800 
@<TRIPOS>BOND
  1   1   2  1   
  2   1   3  1   
  3   2   4  ar  
  4   2   5  ar  
  5   3   6  2   
  6   3   7  1   
  7   4   8  ar  
  8   5   6  1   
  9   5   9  ar  
 10   6  19  1   
 11   7  10  1   
 12   7  20  1   
 13   7  21  1   
 14   8  11  ar  
 15   8  12  1   
 16   9  11  ar  
 17   9  13  1   
 18  10  22  1   
 19  10  23  1   
 20  10  24  1   
 21  12  25  1   
 22  12  26  1   
 23  12  27  1   
 24  13  14  1   
 25  13  15  1   
 26  14  16  1   
 27  14  28  1   
 28  14  29  1   
 29  15  17  1   
 30  15  30  1   
 31  15  31  1   
 32  16  18  1   
 33  16  32  1   
 34  16  33  1   
 35  17  18  1   
 36  17  34  1   
 37  17  35  1   
 38  18  36  1   
 39  18  37  1   
@<TRIPOS>SUBSTRUCTURE
  1 ****   9 GROUP 4 **** **** 0

# MOE 2024.06 (io_trps.svl 2023.06)
