@<TRIPOS>MOLECULE
NONAME
43 44 1 0 0 
SMALL
USER_CHARGES


@<TRIPOS>ATOM
  1 O        0.1310    -0.0640     0.9360 O.2   1 <1>  -0.5700 
  2 C       -0.0730    -1.2030     0.5890 C.2   1 <1>   0.5690 
  3 N       -1.3080    -1.7010     0.2690 N.am  1 <1>  -0.5470 
  4 C        1.1560    -2.1220     0.4850 C.3   1 <1>   0.4040 
  5 C       -2.5890    -1.1180     0.2170 C.ar  1 <1>   0.1170 
  6 N        2.4460    -1.3650     0.2620 N.4   1 <1>  -0.9590 
  7 C       -3.6470    -1.9370    -0.1930 C.ar  1 <1>   0.0830 
  8 C       -2.8540     0.2060     0.5440 C.ar  1 <1>  -0.1500 
  9 C        2.4720    -0.7020    -1.0760 C.3   1 <1>   0.3430 
 10 C        3.6570    -2.1910     0.5260 C.3   1 <1>   0.3430 
 11 O       -3.3400    -3.2360    -0.5040 O.3   1 <1>  -0.3630 
 12 C       -4.9380    -1.4240    -0.2690 C.ar  1 <1>  -0.1500 
 13 C       -4.1370     0.7190     0.4670 C.ar  1 <1>   0.0830 
 14 C        3.7070     0.1940    -1.1810 C.3   1 <1>  -0.1600 
 15 C        4.9070    -1.3140     0.4440 C.3   1 <1>  -0.1600 
 16 C       -4.3500    -4.1420    -0.8990 C.3   1 <1>   0.0400 
 17 C       -5.1830    -0.1020     0.0580 C.ar  1 <1>  -0.1500 
 18 O       -4.2920     2.0250     0.8060 O.3   1 <1>  -0.3620 
 19 C        5.0020    -0.5790    -0.9000 C.3   1 <1>  -0.1600 
 20 C       -5.5590     2.6440     0.7760 C.3   1 <1>   0.0400 
 21 H       -1.3790    -2.6880     0.0050 H     1 <1>   0.3700 
 22 H        1.0030    -2.8220    -0.3180 H     1 <1>   0.0800 
 23 H        1.2230    -2.6740     1.4060 H     1 <1>   0.0800 
 24 H        2.4220    -0.5870     0.9450 H     1 <1>   0.4500 
 25 H       -2.0740     0.8680     0.8650 H     1 <1>   0.1500 
 26 H        1.5860    -0.1010    -1.2090 H     1 <1>   0.0800 
 27 H        2.5010    -1.4470    -1.8550 H     1 <1>   0.0800 
 28 H        3.7260    -2.9810    -0.2050 H     1 <1>   0.0800 
 29 H        3.5970    -2.6370     1.5070 H     1 <1>   0.0800 
 30 H       -5.7670    -2.0300    -0.5810 H     1 <1>   0.1500 
 31 H        3.6090     1.0130    -0.4880 H     1 <1>   0.0800 
 32 H        3.7500     0.6170    -2.1700 H     1 <1>   0.0800 
 33 H        5.7800    -1.9300     0.5740 H     1 <1>   0.0800 
 34 H        4.8960    -0.6010     1.2500 H     1 <1>   0.0800 
 35 H       -3.8930    -5.0990    -1.0820 H     1 <1>   0.0800 
 36 H       -4.8120    -3.7820    -1.8020 H     1 <1>   0.0800 
 37 H       -5.0720    -4.2310    -0.1060 H     1 <1>   0.0800 
 38 H       -6.1890     0.2680    -0.0100 H     1 <1>   0.1500 
 39 H        5.8380     0.1010    -0.8880 H     1 <1>   0.0800 
 40 H        5.1730    -1.2930    -1.6900 H     1 <1>   0.0800 
 41 H       -5.4380     3.6670     1.0850 H     1 <1>   0.0800 
 42 H       -6.2150     2.1320     1.4580 H     1 <1>   0.0800 
 43 H       -5.9420     2.6100    -0.2290 H     1 <1>   0.0800 
@<TRIPOS>BOND
  1   1   2  2   
  2   2   3  am  
  3   2   4  1   
  4   3   5  1   
  5   3  21  1   
  6   4   6  1   
  7   4  22  1   
  8   4  23  1   
  9   5   7  ar  
 10   5   8  ar  
 11   6   9  1   
 12   6  10  1   
 13   6  24  1   
 14   7  11  1   
 15   7  12  ar  
 16   8  13  ar  
 17   8  25  1   
 18   9  14  1   
 19   9  26  1   
 20   9  27  1   
 21  10  15  1   
 22  10  28  1   
 23  10  29  1   
 24  11  16  1   
 25  12  17  ar  
 26  12  30  1   
 27  13  17  ar  
 28  13  18  1   
 29  14  19  1   
 30  14  31  1   
 31  14  32  1   
 32  15  19  1   
 33  15  33  1   
 34  15  34  1   
 35  16  35  1   
 36  16  36  1   
 37  16  37  1   
 38  17  38  1   
 39  18  20  1   
 40  19  39  1   
 41  19  40  1   
 42  20  41  1   
 43  20  42  1   
 44  20  43  1   
@<TRIPOS>SUBSTRUCTURE
  1 ****   3 GROUP 4 **** **** 0

# MOE 2024.06 (io_trps.svl 2023.06)
