@<TRIPOS>MOLECULE
NONAME
47 49 1 0 0 
SMALL
USER_CHARGES


@<TRIPOS>ATOM
  1 O        7.4250    -5.5430     0.1780 O.3   1 <1>  -0.3630 
  2 C        8.7790    -5.4460     0.2220 C.ar  1 <1>   0.0830 
  3 C        6.7490    -6.7750     0.1810 C.3   1 <1>   0.1200 
  4 C        9.3370    -4.1650     0.1360 C.ar  1 <1>   0.0000 
  5 C        9.6040    -6.5620     0.3420 C.ar  1 <1>  -0.1500 
  6 C        5.2570    -6.4800     0.0410 C.3   1 <1>  -0.1600 
  7 C        8.5210    -2.9770     0.0140 C.ar  1 <1>   0.0000 
  8 C       10.7230    -4.0440     0.1690 C.ar  1 <1>  -0.1500 
  9 C       10.9780    -6.4150     0.3740 C.ar  1 <1>  -0.1500 
 10 C        4.4280    -7.7650     0.1190 C.3   1 <1>   0.1100 
 11 C        7.7120    -2.5500     1.0630 C.ar  1 <1>  -0.1500 
 12 C        8.5280    -2.2220    -1.1550 C.ar  1 <1>  -0.1500 
 13 C       11.5390    -5.1530     0.2860 C.ar  1 <1>  -0.1500 
 14 N        3.0260    -7.5080    -0.2570 N.3   1 <1>  -0.8100 
 15 C        6.9390    -1.4080     0.9520 C.ar  1 <1>  -0.1500 
 16 C        7.7570    -1.0790    -1.2730 C.ar  1 <1>  -0.1500 
 17 C        2.2920    -6.7100     0.7500 C.3   1 <1>   0.1100 
 18 C        2.3230    -8.7650    -0.5760 C.3   1 <1>   0.1100 
 19 C        6.9610    -0.6690    -0.2180 C.ar  1 <1>  -0.1500 
 20 C        0.8540    -6.4110     0.2830 C.3   1 <1>   0.3430 
 21 C        0.8850    -8.4930    -1.0620 C.3   1 <1>   0.3430 
 22 N        0.1160    -7.6680    -0.0730 N.4   1 <1>  -0.9060 
 23 H        6.9610    -7.2730     1.1110 H     1 <1>   0.0800 
 24 H        7.1040    -7.3600    -0.6510 H     1 <1>   0.0800 
 25 H        9.1980    -7.5520     0.4130 H     1 <1>   0.1500 
 26 H        5.0890    -6.0050    -0.9090 H     1 <1>   0.0800 
 27 H        4.9760    -5.8080     0.8310 H     1 <1>   0.0800 
 28 H       11.1610    -3.0640     0.1040 H     1 <1>   0.1500 
 29 H       11.6130    -7.2790     0.4660 H     1 <1>   0.1500 
 30 H        4.4810    -8.1860     1.1100 H     1 <1>   0.0800 
 31 H        4.8500    -8.4760    -0.5720 H     1 <1>   0.0800 
 32 H        7.6920    -3.1270     1.9690 H     1 <1>   0.1500 
 33 H        9.1410    -2.5410    -1.9780 H     1 <1>   0.1500 
 34 H       12.6090    -5.0360     0.3100 H     1 <1>   0.1500 
 35 H        6.3210    -1.0950     1.7750 H     1 <1>   0.1500 
 36 H        7.7740    -0.5100    -2.1860 H     1 <1>   0.1500 
 37 H        2.7910    -5.7690     0.9020 H     1 <1>   0.0800 
 38 H        2.2740    -7.2300     1.6930 H     1 <1>   0.0800 
 39 H        2.3030    -9.4080     0.2880 H     1 <1>   0.0800 
 40 H        2.8550    -9.2800    -1.3580 H     1 <1>   0.0800 
 41 H        6.3610     0.2190    -0.3070 H     1 <1>   0.1500 
 42 H        0.9100    -5.7680    -0.5800 H     1 <1>   0.0800 
 43 H        0.3290    -5.8790     1.0600 H     1 <1>   0.0800 
 44 H        0.3820    -9.4310    -1.2340 H     1 <1>   0.0800 
 45 H        0.9420    -7.9690    -2.0030 H     1 <1>   0.0800 
 46 H       -0.8090    -7.4350    -0.4540 H     1 <1>   0.4500 
 47 H       -0.0270    -8.2210     0.7800 H     1 <1>   0.4500 
@<TRIPOS>BOND
  1   1   2  1   
  2   1   3  1   
  3   2   4  ar  
  4   2   5  ar  
  5   3   6  1   
  6   3  23  1   
  7   3  24  1   
  8   4   7  1   
  9   4   8  ar  
 10   5   9  ar  
 11   5  25  1   
 12   6  10  1   
 13   6  26  1   
 14   6  27  1   
 15   7  11  ar  
 16   7  12  ar  
 17   8  13  ar  
 18   8  28  1   
 19   9  13  ar  
 20   9  29  1   
 21  10  14  1   
 22  10  30  1   
 23  10  31  1   
 24  11  15  ar  
 25  11  32  1   
 26  12  16  ar  
 27  12  33  1   
 28  13  34  1   
 29  14  17  1   
 30  14  18  1   
 31  15  19  ar  
 32  15  35  1   
 33  16  19  ar  
 34  16  36  1   
 35  17  20  1   
 36  17  37  1   
 37  17  38  1   
 38  18  21  1   
 39  18  39  1   
 40  18  40  1   
 41  19  41  1   
 42  20  22  1   
 43  20  42  1   
 44  20  43  1   
 45  21  22  1   
 46  21  44  1   
 47  21  45  1   
 48  22  46  1   
 49  22  47  1   
@<TRIPOS>SUBSTRUCTURE
  1 ****   1 GROUP 4 **** **** 0

# MOE 2024.06 (io_trps.svl 2023.06)
