@<TRIPOS>MOLECULE
NONAME
34 36 1 0 0 
SMALL
USER_CHARGES


@<TRIPOS>ATOM
  1 O        0.1360     1.5940    -2.7280 O.2   1 <1>  -0.5700 
  2 C        0.5230     2.2450    -1.7970 C.2   1 <1>   0.5690 
  3 N        1.8140     2.5430    -1.4770 N.am  1 <1>  -0.4900 
  4 C       -0.3130     2.8150    -0.6970 C.3   1 <1>  -0.0190 
  5 C        1.8770     3.4640    -0.4700 C.2   1 <1>   0.5690 
  6 C       -1.7270     3.2490    -0.3170 C.3   1 <1>   0.4180 
  7 C        0.5010     4.0600    -0.3490 C.3   1 <1>  -0.0190 
  8 O        2.8540     3.7840     0.1480 O.2   1 <1>  -0.5700 
  9 O       -1.3520     3.6850     0.9700 O.3   1 <1>  -0.5600 
 10 C       -2.1280     4.6190    -0.8590 C.2   1 <1>  -0.2880 
 11 C       -2.8180     2.1320    -0.3150 C.3   1 <1>   0.4800 
 12 C       -0.4550     4.7160     0.6710 C.3   1 <1>   0.3380 
 13 C       -1.4000     5.5170    -0.2000 C.2   1 <1>  -0.2880 
 14 O       -3.9300     2.4840     0.4790 O.3   1 <1>  -0.4300 
 15 O       -2.3200     0.9370     0.2470 O.3   1 <1>  -0.4300 
 16 C       -4.9680     3.0970    -0.0540 C.2   1 <1>   0.6590 
 17 C       -2.8870    -0.2210    -0.0340 C.2   1 <1>   0.6590 
 18 O       -5.0180     3.3940    -1.2180 O.2   1 <1>  -0.5700 
 19 C       -6.0960     3.4100     0.8920 C.3   1 <1>  -0.1790 
 20 O       -3.8080    -0.3260    -0.7970 O.2   1 <1>  -0.5700 
 21 C       -2.2990    -1.4190     0.6640 C.3   1 <1>  -0.1790 
 22 H        2.6270     2.1200    -1.9170 H     1 <1>   0.3700 
 23 H       -0.1090     2.0710     0.0610 H     1 <1>   0.0800 
 24 H        0.5170     4.7370    -1.1890 H     1 <1>   0.0800 
 25 H       -2.8840     4.7220    -1.6200 H     1 <1>   0.1500 
 26 H       -3.1390     1.9290    -1.3240 H     1 <1>   0.0800 
 27 H       -0.0570     5.1860     1.5540 H     1 <1>   0.0800 
 28 H       -1.3640     6.5930    -0.2330 H     1 <1>   0.1500 
 29 H       -6.4800     2.4970     1.3050 H     1 <1>   0.0800 
 30 H       -6.8820     3.9190     0.3660 H     1 <1>   0.0800 
 31 H       -5.7340     4.0370     1.6850 H     1 <1>   0.0800 
 32 H       -1.2700    -1.5320     0.3800 H     1 <1>   0.0800 
 33 H       -2.8420    -2.3040     0.3860 H     1 <1>   0.0800 
 34 H       -2.3650    -1.2830     1.7270 H     1 <1>   0.0800 
@<TRIPOS>BOND
  1   1   2  2   
  2   2   3  am  
  3   2   4  1   
  4   3   5  am  
  5   3  22  1   
  6   4   6  1   
  7   4   7  1   
  8   4  23  1   
  9   5   7  1   
 10   5   8  2   
 11   6   9  1   
 12   6  10  1   
 13   6  11  1   
 14   7  12  1   
 15   7  24  1   
 16   9  12  1   
 17  10  13  2   
 18  10  25  1   
 19  11  14  1   
 20  11  15  1   
 21  11  26  1   
 22  12  13  1   
 23  12  27  1   
 24  13  28  1   
 25  14  16  1   
 26  15  17  1   
 27  16  18  2   
 28  16  19  1   
 29  17  20  2   
 30  17  21  1   
 31  19  29  1   
 32  19  30  1   
 33  19  31  1   
 34  21  32  1   
 35  21  33  1   
 36  21  34  1   
@<TRIPOS>SUBSTRUCTURE
  1 ****   6 GROUP 4 **** **** 0

# MOE 2024.06 (io_trps.svl 2023.06)
