@<TRIPOS>MOLECULE
NONAME
48 49 1 0 0 
SMALL
USER_CHARGES


@<TRIPOS>ATOM
  1 S        0.3430     0.0490     1.3230 S.o2  1 <1>   1.4470 
  2 O       -1.0030    -0.2710     1.7470 O.2   1 <1>  -0.6500 
  3 O        1.4190     0.0210     2.2880 O.2   1 <1>  -0.6500 
  4 N        0.7300    -1.0510     0.0870 N.am  1 <1>  -0.8490 
  5 C        0.3670     1.6470     0.4670 C.ar  1 <1>  -0.0090 
  6 C        1.2530    -2.3270     0.6540 C.3   1 <1>   0.2570 
  7 C       -0.3920    -1.3140    -0.8220 C.3   1 <1>   0.1160 
  8 C       -0.7990     2.2230    -0.0210 C.ar  1 <1>  -0.1500 
  9 C        1.5620     2.3190     0.2540 C.ar  1 <1>  -0.1500 
 10 C        2.7570    -2.3260     0.9600 C.2   1 <1>   0.5690 
 11 C       -0.7930     3.4320    -0.7100 C.ar  1 <1>   0.0830 
 12 C        1.5930     3.5150    -0.4390 C.ar  1 <1>  -0.1500 
 13 O        3.1990    -3.1560     1.7180 O.2   1 <1>  -0.5700 
 14 N        3.5530    -1.4220     0.3310 N.am  1 <1>  -0.7300 
 15 O       -1.9630     3.9750    -1.1490 O.3   1 <1>  -0.3630 
 16 C        0.4330     4.0810    -0.9370 C.ar  1 <1>   0.0830 
 17 C        4.9930    -1.2350     0.5530 C.3   1 <1>   0.2200 
 18 C       -3.1830     3.7230    -0.4830 C.3   1 <1>   0.0400 
 19 O        0.6250     5.2500    -1.6130 O.3   1 <1>  -0.3630 
 20 C        5.2520     0.2340     0.8620 C.3   1 <1>  -0.1600 
 21 C        5.7280    -1.4560    -0.7620 C.3   1 <1>  -0.1600 
 22 C       -0.3400     5.8030    -2.4770 C.3   1 <1>   0.0400 
 23 C        5.3260     0.9460    -0.4960 C.3   1 <1>  -0.1600 
 24 C        5.5840    -0.1460    -1.5420 C.3   1 <1>  -0.1600 
 25 H        1.0950    -3.1260    -0.0470 H     1 <1>   0.0800 
 26 H        0.7180    -2.5790     1.5540 H     1 <1>   0.0800 
 27 H       -0.7500    -0.3910    -1.2460 H     1 <1>   0.0800 
 28 H       -1.2020    -1.7940    -0.2970 H     1 <1>   0.0800 
 29 H       -0.0720    -1.9510    -1.6290 H     1 <1>   0.0800 
 30 H       -1.7210     1.6990     0.1480 H     1 <1>   0.1500 
 31 H        2.4780     1.9010     0.6370 H     1 <1>   0.1500 
 32 H        2.5290     4.0210    -0.5990 H     1 <1>   0.1500 
 33 H        3.1080    -0.7390    -0.2820 H     1 <1>   0.3700 
 34 H        5.3440    -1.8880     1.3360 H     1 <1>   0.0800 
 35 H       -3.9110     4.4280    -0.8420 H     1 <1>   0.0800 
 36 H       -3.0390     3.8530     0.5750 H     1 <1>   0.0800 
 37 H       -3.5070     2.7230    -0.7080 H     1 <1>   0.0800 
 38 H        6.2090     0.3110     1.3470 H     1 <1>   0.0800 
 39 H        4.5040     0.6470     1.5160 H     1 <1>   0.0800 
 40 H        5.3500    -2.3080    -1.3010 H     1 <1>   0.0800 
 41 H        6.7690    -1.6220    -0.5450 H     1 <1>   0.0800 
 42 H        0.1240     6.5960    -3.0350 H     1 <1>   0.0800 
 43 H       -1.1480     6.1990    -1.8880 H     1 <1>   0.0800 
 44 H       -0.6910     5.0380    -3.1470 H     1 <1>   0.0800 
 45 H        6.1140     1.6800    -0.4960 H     1 <1>   0.0800 
 46 H        4.3950     1.4400    -0.7120 H     1 <1>   0.0800 
 47 H        4.7410    -0.2120    -2.2090 H     1 <1>   0.0800 
 48 H        6.4680     0.0600    -2.1210 H     1 <1>   0.0800 
@<TRIPOS>BOND
  1   1   2  2   
  2   1   3  2   
  3   1   4  am  
  4   1   5  1   
  5   4   6  1   
  6   4   7  1   
  7   5   8  ar  
  8   5   9  ar  
  9   6  10  1   
 10   6  25  1   
 11   6  26  1   
 12   7  27  1   
 13   7  28  1   
 14   7  29  1   
 15   8  11  ar  
 16   8  30  1   
 17   9  12  ar  
 18   9  31  1   
 19  10  13  2   
 20  10  14  am  
 21  11  15  1   
 22  11  16  ar  
 23  12  16  ar  
 24  12  32  1   
 25  14  17  1   
 26  14  33  1   
 27  15  18  1   
 28  16  19  1   
 29  17  20  1   
 30  17  21  1   
 31  17  34  1   
 32  18  35  1   
 33  18  36  1   
 34  18  37  1   
 35  19  22  1   
 36  20  23  1   
 37  20  38  1   
 38  20  39  1   
 39  21  24  1   
 40  21  40  1   
 41  21  41  1   
 42  22  42  1   
 43  22  43  1   
 44  22  44  1   
 45  23  24  1   
 46  23  45  1   
 47  23  46  1   
 48  24  47  1   
 49  24  48  1   
@<TRIPOS>SUBSTRUCTURE
  1 ****   9 GROUP 4 **** **** 0

# MOE 2024.06 (io_trps.svl 2023.06)
