@<TRIPOS>MOLECULE
NONAME
34 35 1 0 0 
SMALL
USER_CHARGES


@<TRIPOS>ATOM
  1 O        0.0090     0.2800    -0.6810 O.3   1 <1>  -0.5600 
  2 C        1.3210    -0.1590    -0.5240 C.3   1 <1>   0.3410 
  3 C       -0.0260     1.6640    -0.8460 C.3   1 <1>   0.3440 
  4 C        2.1220     1.0750    -0.1080 C.2   1 <1>   0.3280 
  5 C        1.7770    -0.7350    -1.8680 C.3   1 <1>  -0.2400 
  6 C        1.2980    -1.2340     0.5640 C.3   1 <1>  -0.2400 
  7 C       -1.3630     2.2380    -0.3880 C.ar  1 <1>  -0.1440 
  8 C        1.1420     2.2100    -0.0400 C.3   1 <1>  -0.0990 
  9 N        3.3700     1.1200     0.1090 N.2   1 <1>  -0.5130 
 10 C       -1.8570     3.3870    -0.9900 C.ar  1 <1>  -0.1500 
 11 C       -2.0950     1.6450     0.6320 C.ar  1 <1>  -0.1500 
 12 O        3.9500     2.2520     0.4750 O.3   1 <1>  -0.3370 
 13 C       -3.0590     3.9330    -0.5770 C.ar  1 <1>  -0.1500 
 14 C       -3.2990     2.1880     1.0470 C.ar  1 <1>  -0.1500 
 15 C       -3.7880     3.3420     0.4420 C.ar  1 <1>   0.0820 
 16 O       -4.9540     3.9410     0.7860 O.3   1 <1>  -0.3620 
 17 C       -5.7950     3.3910     1.7760 C.3   1 <1>   0.0400 
 18 H        0.1230     1.8580    -1.8960 H     1 <1>   0.0800 
 19 H        2.7830    -1.1040    -1.7800 H     1 <1>   0.0800 
 20 H        1.7630     0.0240    -2.6280 H     1 <1>   0.0800 
 21 H        1.1370    -1.5470    -2.1610 H     1 <1>   0.0800 
 22 H        0.9330    -0.8190     1.4860 H     1 <1>   0.0800 
 23 H        2.2930    -1.6050     0.7290 H     1 <1>   0.0800 
 24 H        0.6680    -2.0520     0.2660 H     1 <1>   0.0800 
 25 H        1.5200     3.1160    -0.4750 H     1 <1>   0.0800 
 26 H        0.8450     2.3790     0.9780 H     1 <1>   0.0800 
 27 H       -1.3100     3.8650    -1.7840 H     1 <1>   0.1500 
 28 H       -1.7290     0.7500     1.1050 H     1 <1>   0.1500 
 29 H        3.3620     2.9700     0.7810 H     1 <1>   0.4000 
 30 H       -3.4430     4.8220    -1.0420 H     1 <1>   0.1500 
 31 H       -3.8370     1.7010     1.8370 H     1 <1>   0.1500 
 32 H       -6.6620     4.0200     1.8640 H     1 <1>   0.0800 
 33 H       -5.2640     3.3680     2.7110 H     1 <1>   0.0800 
 34 H       -6.0900     2.4020     1.4740 H     1 <1>   0.0800 
@<TRIPOS>BOND
  1   1   2  1   
  2   1   3  1   
  3   2   4  1   
  4   2   5  1   
  5   2   6  1   
  6   3   7  1   
  7   3   8  1   
  8   3  18  1   
  9   4   8  1   
 10   4   9  2   
 11   5  19  1   
 12   5  20  1   
 13   5  21  1   
 14   6  22  1   
 15   6  23  1   
 16   6  24  1   
 17   7  10  ar  
 18   7  11  ar  
 19   8  25  1   
 20   8  26  1   
 21   9  12  1   
 22  10  13  ar  
 23  10  27  1   
 24  11  14  ar  
 25  11  28  1   
 26  12  29  1   
 27  13  15  ar  
 28  13  30  1   
 29  14  15  ar  
 30  14  31  1   
 31  15  16  1   
 32  16  17  1   
 33  17  32  1   
 34  17  33  1   
 35  17  34  1   
@<TRIPOS>SUBSTRUCTURE
  1 ****   7 GROUP 4 **** **** 0

# MOE 2024.06 (io_trps.svl 2023.06)
