@<TRIPOS>MOLECULE
NONAME
41 43 1 0 0 
SMALL
USER_CHARGES


@<TRIPOS>ATOM
  1 F       -1.6900     0.9000    -2.3490 F     1 <1>  -0.3400 
  2 C       -2.8440     0.2440    -2.3590 C.3   1 <1>   1.1640 
  3 F       -2.6550    -0.8460    -3.0910 F     1 <1>  -0.3400 
  4 F       -3.7000     1.0030    -3.0320 F     1 <1>  -0.3400 
  5 C       -3.3720    -0.0940    -0.9540 C.ar  1 <1>  -0.1440 
  6 C       -4.6910    -0.5070    -0.7900 C.ar  1 <1>  -0.1500 
  7 C       -2.5620     0.0000     0.1730 C.ar  1 <1>  -0.1500 
  8 C       -5.1990    -0.8070     0.4660 C.ar  1 <1>  -0.1440 
  9 C       -3.0590    -0.3090     1.4270 C.ar  1 <1>  -0.1500 
 10 C       -4.3730    -0.7110     1.5750 C.ar  1 <1>  -0.1500 
 11 C       -6.6480    -1.2320     0.6180 C.3   1 <1>   0.4870 
 12 N       -7.4460    -0.0780     1.1140 N.4   1 <1>  -0.9590 
 13 C       -8.8820    -0.4880     1.3660 C.3   1 <1>   0.3430 
 14 C       -7.3560     1.1070     0.1700 C.3   1 <1>   0.3430 
 15 C       -9.7850     0.6990     1.7610 C.3   1 <1>   0.2090 
 16 C       -8.2730     2.2790     0.5760 C.3   1 <1>   0.2090 
 17 N       -9.6660     1.7790     0.7410 N.pl3 1 <1>  -0.8380 
 18 C      -10.4880     1.7850    -0.3620 C.ar  1 <1>   0.7200 
 19 N      -11.0880     0.6360    -0.6700 N.ar  1 <1>  -0.6200 
 20 N      -10.5620     2.9240    -1.0380 N.ar  1 <1>  -0.6200 
 21 C      -11.8740     0.6670    -1.7210 C.ar  1 <1>   0.1600 
 22 C      -11.3540     2.9240    -2.0830 C.ar  1 <1>   0.1600 
 23 C      -12.0470     1.8040    -2.4720 C.ar  1 <1>  -0.1500 
 24 H       -5.3220    -0.5940    -1.6610 H     1 <1>   0.1500 
 25 H       -1.5320     0.3100     0.0860 H     1 <1>   0.1500 
 26 H       -2.4140    -0.2370     2.2880 H     1 <1>   0.1500 
 27 H       -4.7320    -0.9500     2.5620 H     1 <1>   0.1500 
 28 H       -6.7080    -2.0520     1.3150 H     1 <1>   0.0800 
 29 H       -7.0320    -1.5660    -0.3320 H     1 <1>   0.0800 
 30 H       -7.0310     0.2210     2.0040 H     1 <1>   0.4500 
 31 H       -8.9230    -1.2340     2.1420 H     1 <1>   0.0800 
 32 H       -9.2950    -0.9220     0.4690 H     1 <1>   0.0800 
 33 H       -7.6420     0.7970    -0.8220 H     1 <1>   0.0800 
 34 H       -6.3390     1.4610     0.1220 H     1 <1>   0.0800 
 35 H       -9.4990     1.0820     2.7250 H     1 <1>   0.0800 
 36 H      -10.8090     0.3710     1.8360 H     1 <1>   0.0800 
 37 H       -8.2280     3.0460    -0.1790 H     1 <1>   0.0800 
 38 H       -7.9350     2.7160     1.4990 H     1 <1>   0.0800 
 39 H      -12.3950    -0.2360    -1.9940 H     1 <1>   0.1500 
 40 H      -11.4530     3.8400    -2.6430 H     1 <1>   0.1500 
 41 H      -12.6950     1.8170    -3.3280 H     1 <1>   0.1500 
@<TRIPOS>BOND
  1   1   2  1   
  2   2   3  1   
  3   2   4  1   
  4   2   5  1   
  5   5   6  ar  
  6   5   7  ar  
  7   6   8  ar  
  8   6  24  1   
  9   7   9  ar  
 10   7  25  1   
 11   8  10  ar  
 12   8  11  1   
 13   9  10  ar  
 14   9  26  1   
 15  10  27  1   
 16  11  12  1   
 17  11  28  1   
 18  11  29  1   
 19  12  13  1   
 20  12  14  1   
 21  12  30  1   
 22  13  15  1   
 23  13  31  1   
 24  13  32  1   
 25  14  16  1   
 26  14  33  1   
 27  14  34  1   
 28  15  17  1   
 29  15  35  1   
 30  15  36  1   
 31  16  17  1   
 32  16  37  1   
 33  16  38  1   
 34  17  18  1   
 35  18  19  ar  
 36  18  20  ar  
 37  19  21  ar  
 38  20  22  ar  
 39  21  23  ar  
 40  21  39  1   
 41  22  23  ar  
 42  22  40  1   
 43  23  41  1   
@<TRIPOS>SUBSTRUCTURE
  1 ****  14 GROUP 4 **** **** 0

# MOE 2024.06 (io_trps.svl 2023.06)
