@<TRIPOS>MOLECULE
NONAME
37 38 1 0 0 
SMALL
USER_CHARGES


@<TRIPOS>ATOM
  1 O       -1.3900     0.2950     1.8010 O.2   1 <1>  -0.5700 
  2 C       -1.4280     1.0180     0.8330 C.2   1 <1>   0.5690 
  3 N       -2.1100     0.7160    -0.3050 N.am  1 <1>  -0.7300 
  4 C       -0.6780     2.3590     0.8840 C.3   1 <1>   0.2610 
  5 C       -2.9990    -0.4130    -0.6400 C.3   1 <1>   0.3640 
  6 O       -0.9220     3.1580    -0.2470 O.3   1 <1>  -0.5600 
  7 C        0.8400     2.2180     0.9060 C.3   1 <1>  -0.1600 
  8 C       -4.4330    -0.0730    -0.2480 C.ar  1 <1>  -0.1440 
  9 C       -2.5330    -1.7390    -0.0380 C.3   1 <1>  -0.2400 
 10 C        0.0830     4.1100    -0.3810 C.3   1 <1>   0.1200 
 11 C        1.3250     3.5210     0.2870 C.3   1 <1>  -0.1600 
 12 C       -5.4200    -0.0070    -1.2210 C.ar  1 <1>  -0.1500 
 13 C       -4.7780     0.1760     1.0730 C.ar  1 <1>  -0.1500 
 14 C       -6.7300     0.3010    -0.8910 C.ar  1 <1>   0.0830 
 15 C       -6.0840     0.4840     1.4140 C.ar  1 <1>  -0.1500 
 16 O       -7.6220     0.3420    -1.9130 O.3   1 <1>  -0.3630 
 17 C       -7.0610     0.5480     0.4370 C.ar  1 <1>  -0.1500 
 18 C       -8.9750     0.6670    -1.6880 C.3   1 <1>   0.0400 
 19 H       -2.1470     1.4840    -0.9810 H     1 <1>   0.3700 
 20 H       -1.0100     2.9120     1.7440 H     1 <1>   0.0800 
 21 H       -2.9620    -0.5290    -1.7090 H     1 <1>   0.0800 
 22 H        1.1290     1.3820     0.2930 H     1 <1>   0.0800 
 23 H        1.2060     2.0660     1.9060 H     1 <1>   0.0800 
 24 H       -2.6470    -1.7420     1.0300 H     1 <1>   0.0800 
 25 H       -1.5030    -1.9180    -0.2890 H     1 <1>   0.0800 
 26 H       -3.1300    -2.5390    -0.4350 H     1 <1>   0.0800 
 27 H       -0.2380     5.0100     0.1170 H     1 <1>   0.0800 
 28 H        0.2370     4.3040    -1.4280 H     1 <1>   0.0800 
 29 H        2.1050     3.3470    -0.4320 H     1 <1>   0.0800 
 30 H        1.6880     4.1990     1.0400 H     1 <1>   0.0800 
 31 H       -5.1870    -0.1940    -2.2540 H     1 <1>   0.1500 
 32 H       -4.0260     0.1300     1.8430 H     1 <1>   0.1500 
 33 H       -6.3340     0.6750     2.4430 H     1 <1>   0.1500 
 34 H       -8.0650     0.7890     0.7280 H     1 <1>   0.1500 
 35 H       -9.4850     0.6450    -2.6350 H     1 <1>   0.0800 
 36 H       -9.0310     1.6540    -1.2650 H     1 <1>   0.0800 
 37 H       -9.4030    -0.0640    -1.0250 H     1 <1>   0.0800 
@<TRIPOS>BOND
  1   1   2  2   
  2   2   3  am  
  3   2   4  1   
  4   3   5  1   
  5   3  19  1   
  6   4   6  1   
  7   4   7  1   
  8   4  20  1   
  9   5   8  1   
 10   5   9  1   
 11   5  21  1   
 12   6  10  1   
 13   7  11  1   
 14   7  22  1   
 15   7  23  1   
 16   8  12  ar  
 17   8  13  ar  
 18   9  24  1   
 19   9  25  1   
 20   9  26  1   
 21  10  11  1   
 22  10  27  1   
 23  10  28  1   
 24  11  29  1   
 25  11  30  1   
 26  12  14  ar  
 27  12  31  1   
 28  13  15  ar  
 29  13  32  1   
 30  14  16  1   
 31  14  17  ar  
 32  15  17  ar  
 33  15  33  1   
 34  16  18  1   
 35  17  34  1   
 36  18  35  1   
 37  18  36  1   
 38  18  37  1   
@<TRIPOS>SUBSTRUCTURE
  1 ****   3 GROUP 4 **** **** 0

# MOE 2024.06 (io_trps.svl 2023.06)
