@<TRIPOS>MOLECULE
NONAME
44 47 1 0 0 
SMALL
USER_CHARGES


@<TRIPOS>ATOM
  1 O        0.1940     0.9670     1.3300 O.2   1 <1>  -0.5700 
  2 C        0.2180     1.8600     0.5150 C.2   1 <1>   0.5690 
  3 N       -0.8030     2.1340    -0.3390 N.am  1 <1>  -0.4930 
  4 C        1.4620     2.7560     0.4370 C.3   1 <1>   0.2610 
  5 C       -2.0650     1.5840    -0.5200 C.2   1 <1>   0.3520 
  6 O        1.2750     3.8480    -0.4250 O.3   1 <1>  -0.5600 
  7 C        2.6930     2.0560    -0.1260 C.3   1 <1>  -0.1600 
  8 N       -2.9750     2.3260    -1.0410 N.2   1 <1>  -0.7070 
  9 C       -2.5120     0.2650    -0.2290 C.ar  1 <1>   0.0000 
 10 C        2.5070     4.3520    -0.8330 C.3   1 <1>   0.1200 
 11 C        3.5020     3.1970    -0.7250 C.3   1 <1>  -0.1600 
 12 N       -4.0860     1.5390    -1.0930 N.pl3 1 <1>   0.3140 
 13 C       -3.8510     0.2800    -0.6160 C.ar  1 <1>   0.1050 
 14 C       -1.9950    -0.9120     0.2670 C.ar  1 <1>  -0.1500 
 15 C       -5.3710     2.0390    -1.6220 C.3   1 <1>   0.0960 
 16 N       -4.7090    -0.7270    -0.5430 N.ar  1 <1>  -0.5670 
 17 C       -2.8460    -2.0090     0.3740 C.ar  1 <1>   0.0000 
 18 C       -6.2130     2.6780    -0.5110 C.3   1 <1>  -0.2400 
 19 C       -4.2000    -1.8660    -0.0440 C.ar  1 <1>   0.3100 
 20 C       -2.4160    -3.2580     0.8820 C.ar  1 <1>  -0.1500 
 21 C       -5.0440    -2.9890     0.0730 C.ar  1 <1>  -0.1500 
 22 C       -3.2640    -4.3240     0.9790 C.ar  1 <1>  -0.1430 
 23 C       -4.6000    -4.1820     0.5660 C.ar  1 <1>  -0.1500 
 24 C       -2.8070    -5.6650     1.5230 C.3   1 <1>  -0.0970 
 25 H       -0.6780     3.0020    -0.8620 H     1 <1>   0.3700 
 26 H        1.6740     3.1500     1.4150 H     1 <1>   0.0800 
 27 H        2.3930     1.3670    -0.8970 H     1 <1>   0.0800 
 28 H        3.2270     1.5200     0.6380 H     1 <1>   0.0800 
 29 H        2.7740     5.1620    -0.1750 H     1 <1>   0.0800 
 30 H        2.4110     4.7140    -1.8430 H     1 <1>   0.0800 
 31 H        3.8990     2.9360    -1.6900 H     1 <1>   0.0800 
 32 H        4.3140     3.4800    -0.0780 H     1 <1>   0.0800 
 33 H       -0.9670    -0.9940     0.5630 H     1 <1>   0.1500 
 34 H       -5.9030     1.2150    -2.0640 H     1 <1>   0.0800 
 35 H       -5.1600     2.7620    -2.3880 H     1 <1>   0.0800 
 36 H       -6.4360     1.9500     0.2500 H     1 <1>   0.0800 
 37 H       -7.1380     3.0430    -0.9180 H     1 <1>   0.0800 
 38 H       -5.6810     3.5030    -0.0710 H     1 <1>   0.0800 
 39 H       -1.3900    -3.3410     1.1930 H     1 <1>   0.1500 
 40 H       -6.0630    -2.8680    -0.2450 H     1 <1>   0.1500 
 41 H       -5.2640    -5.0250     0.6460 H     1 <1>   0.1500 
 42 H       -1.7690    -5.6310     1.8020 H     1 <1>   0.0800 
 43 H       -2.9360    -6.4270     0.7760 H     1 <1>   0.0800 
 44 H       -3.3860    -5.9250     2.3910 H     1 <1>   0.0800 
@<TRIPOS>BOND
  1   1   2  2   
  2   2   3  am  
  3   2   4  1   
  4   3   5  1   
  5   3  25  1   
  6   4   6  1   
  7   4   7  1   
  8   4  26  1   
  9   5   8  2   
 10   5   9  1   
 11   6  10  1   
 12   7  11  1   
 13   7  27  1   
 14   7  28  1   
 15   8  12  1   
 16   9  13  ar  
 17   9  14  ar  
 18  10  11  1   
 19  10  29  1   
 20  10  30  1   
 21  11  31  1   
 22  11  32  1   
 23  12  13  1   
 24  12  15  1   
 25  13  16  ar  
 26  14  17  ar  
 27  14  33  1   
 28  15  18  1   
 29  15  34  1   
 30  15  35  1   
 31  16  19  ar  
 32  17  19  ar  
 33  17  20  ar  
 34  18  36  1   
 35  18  37  1   
 36  18  38  1   
 37  19  21  ar  
 38  20  22  ar  
 39  20  39  1   
 40  21  23  ar  
 41  21  40  1   
 42  22  23  ar  
 43  22  24  1   
 44  23  41  1   
 45  24  42  1   
 46  24  43  1   
 47  24  44  1   
@<TRIPOS>SUBSTRUCTURE
  1 ****   9 GROUP 4 **** **** 0

# MOE 2024.06 (io_trps.svl 2023.06)
