@<TRIPOS>MOLECULE
NONAME
40 42 1 0 0 
SMALL
USER_CHARGES


@<TRIPOS>ATOM
  1 CL      -0.4860    -1.6710     2.6490 Cl    1 <1>  -0.1770 
  2 C       -1.5180    -1.6600     1.2290 C.ar  1 <1>   0.1770 
  3 C       -1.1230    -2.3110     0.0530 C.ar  1 <1>   0.1000 
  4 C       -2.7220    -0.9890     1.3200 C.ar  1 <1>  -0.1500 
  5 N        0.0830    -3.0080    -0.1020 N.pl3 1 <1>  -0.8380 
  6 C       -1.9920    -2.2590    -1.0300 C.ar  1 <1>  -0.1500 
  7 C       -3.5690    -0.9530     0.2250 C.ar  1 <1>  -0.1500 
  8 C        0.2060    -4.2840     0.6650 C.3   1 <1>   0.2090 
  9 C        1.3220    -2.1740    -0.1330 C.3   1 <1>   0.2090 
 10 C       -3.2000    -1.5890    -0.9490 C.ar  1 <1>  -0.1500 
 11 C        1.4370    -5.0920     0.2020 C.3   1 <1>   0.3430 
 12 C        2.5390    -3.0060    -0.5850 C.3   1 <1>   0.3430 
 13 N        2.7050    -4.2740     0.2220 N.4   1 <1>  -0.9590 
 14 C        3.8810    -5.0660    -0.2250 C.3   1 <1>   0.4860 
 15 C        5.1360    -4.2420    -0.0010 C.ar  1 <1>  -0.1430 
 16 C        5.6340    -4.0630     1.2870 C.ar  1 <1>  -0.1500 
 17 C        5.7900    -3.6630    -1.0840 C.ar  1 <1>  -0.1500 
 18 C        6.7700    -3.3000     1.4950 C.ar  1 <1>  -0.1500 
 19 C        6.9270    -2.8980    -0.8850 C.ar  1 <1>  -0.1500 
 20 C        7.3950    -2.7290     0.4030 C.ar  1 <1>   0.1900 
 21 F        8.4640    -2.0060     0.5960 F     1 <1>  -0.1900 
 22 H       -2.9960    -0.4990     2.2370 H     1 <1>   0.1500 
 23 H       -1.7130    -2.7500    -1.9440 H     1 <1>   0.1500 
 24 H       -4.5100    -0.4320     0.2850 H     1 <1>   0.1500 
 25 H       -0.6840    -4.8720     0.5160 H     1 <1>   0.0800 
 26 H        0.2880    -4.0750     1.7170 H     1 <1>   0.0800 
 27 H        1.5130    -1.7590     0.8410 H     1 <1>   0.0800 
 28 H        1.1780    -1.3530    -0.8160 H     1 <1>   0.0800 
 29 H       -3.8580    -1.5620    -1.8010 H     1 <1>   0.1500 
 30 H        1.2470    -5.4390    -0.8000 H     1 <1>   0.0800 
 31 H        1.5450    -5.9560     0.8370 H     1 <1>   0.0800 
 32 H        3.4250    -2.3980    -0.5010 H     1 <1>   0.0800 
 33 H        2.4060    -3.2550    -1.6250 H     1 <1>   0.0800 
 34 H        2.8850    -3.9820     1.1900 H     1 <1>   0.4500 
 35 H        3.7870    -5.3180    -1.2690 H     1 <1>   0.0800 
 36 H        3.9520    -5.9800     0.3410 H     1 <1>   0.0800 
 37 H        5.1540    -4.5150     2.1390 H     1 <1>   0.1500 
 38 H        5.4290    -3.8000    -2.0910 H     1 <1>   0.1500 
 39 H        7.1740    -3.1480     2.4810 H     1 <1>   0.1500 
 40 H        7.4490    -2.4400    -1.7070 H     1 <1>   0.1500 
@<TRIPOS>BOND
  1   1   2  1   
  2   2   3  ar  
  3   2   4  ar  
  4   3   5  1   
  5   3   6  ar  
  6   4   7  ar  
  7   4  22  1   
  8   5   8  1   
  9   5   9  1   
 10   6  10  ar  
 11   6  23  1   
 12   7  10  ar  
 13   7  24  1   
 14   8  11  1   
 15   8  25  1   
 16   8  26  1   
 17   9  12  1   
 18   9  27  1   
 19   9  28  1   
 20  10  29  1   
 21  11  13  1   
 22  11  30  1   
 23  11  31  1   
 24  12  13  1   
 25  12  32  1   
 26  12  33  1   
 27  13  14  1   
 28  13  34  1   
 29  14  15  1   
 30  14  35  1   
 31  14  36  1   
 32  15  16  ar  
 33  15  17  ar  
 34  16  18  ar  
 35  16  37  1   
 36  17  19  ar  
 37  17  38  1   
 38  18  20  ar  
 39  18  39  1   
 40  19  20  ar  
 41  19  40  1   
 42  20  21  1   
@<TRIPOS>SUBSTRUCTURE
  1 ****  12 GROUP 4 **** **** 0

# MOE 2024.06 (io_trps.svl 2023.06)
