@<TRIPOS>MOLECULE
NONAME
39 40 1 0 0 
SMALL
USER_CHARGES


@<TRIPOS>ATOM
  1 CL      -0.1720    -1.4840    -2.5010 Cl    1 <1>  -0.1770 
  2 C       -1.3920    -1.4760    -1.2450 C.ar  1 <1>   0.1770 
  3 C       -1.8630    -0.2730    -0.7300 C.ar  1 <1>   0.0820 
  4 C       -1.8570    -2.6860    -0.7670 C.ar  1 <1>  -0.1500 
  5 O       -1.4080     0.9110    -1.2020 O.3   1 <1>  -0.3630 
  6 C       -2.8230    -0.2960     0.2710 C.ar  1 <1>  -0.1500 
  7 C       -2.8080    -2.7060     0.2430 C.ar  1 <1>  -0.1430 
  8 C       -0.5550     1.6620    -0.3720 C.3   1 <1>   0.1200 
  9 C       -3.2870    -1.5090     0.7550 C.ar  1 <1>  -0.1500 
 10 C       -3.3320    -4.0270     0.7790 C.3   1 <1>  -0.0960 
 11 C        0.8700     1.1310    -0.5490 C.3   1 <1>  -0.1600 
 12 C        1.8720     1.9440     0.2650 C.3   1 <1>   0.3430 
 13 N        3.2620     1.5140    -0.0500 N.4   1 <1>  -0.9590 
 14 C        3.5780     0.0870     0.3150 C.3   1 <1>   0.3430 
 15 C        4.2980     2.4380     0.5230 C.3   1 <1>   0.3430 
 16 C        5.0420    -0.2750    -0.0270 C.3   1 <1>   0.1200 
 17 C        5.7330     1.9650     0.1900 C.3   1 <1>   0.1200 
 18 O        5.7150     0.8110    -0.6050 O.3   1 <1>  -0.5600 
 19 H       -1.4770    -3.6000    -1.1850 H     1 <1>   0.1500 
 20 H       -3.2120     0.6260     0.6630 H     1 <1>   0.1500 
 21 H       -0.8930     1.5820     0.6470 H     1 <1>   0.0800 
 22 H       -0.6250     2.6880    -0.6910 H     1 <1>   0.0800 
 23 H       -4.0330    -1.5180     1.5320 H     1 <1>   0.1500 
 24 H       -2.6310    -4.8200     0.5900 H     1 <1>   0.0800 
 25 H       -4.2650    -4.2690     0.3020 H     1 <1>   0.0800 
 26 H       -3.4920    -3.9620     1.8410 H     1 <1>   0.0800 
 27 H        1.1230     1.1870    -1.5930 H     1 <1>   0.0800 
 28 H        0.8900     0.1060    -0.2280 H     1 <1>   0.0800 
 29 H        1.6750     1.8210     1.3190 H     1 <1>   0.0800 
 30 H        1.7560     2.9880     0.0190 H     1 <1>   0.0800 
 31 H        3.4070     1.5570    -1.0720 H     1 <1>   0.4500 
 32 H        2.9250    -0.5850    -0.2170 H     1 <1>   0.0800 
 33 H        3.4160    -0.0690     1.3690 H     1 <1>   0.0800 
 34 H        4.1910     2.4940     1.5940 H     1 <1>   0.0800 
 35 H        4.1610     3.4330     0.1320 H     1 <1>   0.0800 
 36 H        5.0660    -1.0880    -0.7320 H     1 <1>   0.0800 
 37 H        5.5760    -0.5820     0.8560 H     1 <1>   0.0800 
 38 H        6.2850     1.7550     1.0900 H     1 <1>   0.0800 
 39 H        6.2590     2.7300    -0.3540 H     1 <1>   0.0800 
@<TRIPOS>BOND
  1   1   2  1   
  2   2   3  ar  
  3   2   4  ar  
  4   3   5  1   
  5   3   6  ar  
  6   4   7  ar  
  7   4  19  1   
  8   5   8  1   
  9   6   9  ar  
 10   6  20  1   
 11   7   9  ar  
 12   7  10  1   
 13   8  11  1   
 14   8  21  1   
 15   8  22  1   
 16   9  23  1   
 17  10  24  1   
 18  10  25  1   
 19  10  26  1   
 20  11  12  1   
 21  11  27  1   
 22  11  28  1   
 23  12  13  1   
 24  12  29  1   
 25  12  30  1   
 26  13  14  1   
 27  13  15  1   
 28  13  31  1   
 29  14  16  1   
 30  14  32  1   
 31  14  33  1   
 32  15  17  1   
 33  15  34  1   
 34  15  35  1   
 35  16  18  1   
 36  16  36  1   
 37  16  37  1   
 38  17  18  1   
 39  17  38  1   
 40  17  39  1   
@<TRIPOS>SUBSTRUCTURE
  1 ****  11 GROUP 4 **** **** 0

# MOE 2024.06 (io_trps.svl 2023.06)
