@<TRIPOS>MOLECULE
NONAME
35 36 1 0 0 
SMALL
USER_CHARGES


@<TRIPOS>ATOM
  1 CL      -0.6110    -0.7240    -0.1920 Cl    1 <1>  -0.1770 
  2 C       -1.9840     0.3250    -0.4680 C.ar  1 <1>   0.1770 
  3 C       -1.9010     1.3900    -1.3480 C.ar  1 <1>   0.1900 
  4 C       -3.1640     0.0780     0.2080 C.ar  1 <1>  -0.1500 
  5 F       -0.7840     1.6270    -1.9900 F     1 <1>  -0.1900 
  6 C       -2.9820     2.2230    -1.5670 C.ar  1 <1>  -0.1500 
  7 C       -4.2700     0.8990     0.0040 C.ar  1 <1>   0.1170 
  8 C       -4.1620     1.9710    -0.8850 C.ar  1 <1>  -0.1500 
  9 N       -5.4490     0.6300     0.7140 N.am  1 <1>  -0.5470 
 10 C       -6.7490     0.8770     0.3880 C.2   1 <1>   0.6900 
 11 O       -7.0610     1.3000    -0.7060 O.2   1 <1>  -0.5700 
 12 N       -7.6840     0.6160     1.3350 N.am  1 <1>  -0.7300 
 13 C       -9.1570     0.7960     1.2140 C.3   1 <1>   0.2200 
 14 C       -9.7510     0.2020    -0.0870 C.3   1 <1>   0.2000 
 15 C       -9.4740     2.2840     1.3730 C.3   1 <1>  -0.2400 
 16 O      -11.1420     0.1770    -0.0050 O.3   1 <1>  -0.5600 
 17 C       -9.3790    -1.2510    -0.3640 C.3   1 <1>  -0.1600 
 18 C      -11.6470    -0.7060    -0.9510 C.3   1 <1>   0.1200 
 19 C      -10.5820    -1.7860    -1.1260 C.3   1 <1>  -0.1600 
 20 H       -3.2160    -0.7530     0.8850 H     1 <1>   0.1500 
 21 H       -2.9010     3.0460    -2.2540 H     1 <1>   0.1500 
 22 H       -5.0080     2.6160    -1.0470 H     1 <1>   0.1500 
 23 H       -5.3420     0.0490     1.5390 H     1 <1>   0.3700 
 24 H       -7.3680     0.5050     2.2950 H     1 <1>   0.3700 
 25 H       -9.6120     0.2630     2.0310 H     1 <1>   0.0800 
 26 H       -9.4970     0.8200    -0.9310 H     1 <1>   0.0800 
 27 H       -9.0450     2.8450     0.5630 H     1 <1>   0.0800 
 28 H       -9.0940     2.6530     2.3070 H     1 <1>   0.0800 
 29 H      -10.5400     2.4300     1.3570 H     1 <1>   0.0800 
 30 H       -9.2590    -1.7820     0.5630 H     1 <1>   0.0800 
 31 H       -8.4670    -1.3150    -0.9320 H     1 <1>   0.0800 
 32 H      -11.8020    -0.1600    -1.8660 H     1 <1>   0.0800 
 33 H      -12.5810    -1.1020    -0.5930 H     1 <1>   0.0800 
 34 H      -10.9170    -2.7230    -0.7180 H     1 <1>   0.0800 
 35 H      -10.3600    -1.9150    -2.1710 H     1 <1>   0.0800 
@<TRIPOS>BOND
  1   1   2  1   
  2   2   3  ar  
  3   2   4  ar  
  4   3   5  1   
  5   3   6  ar  
  6   4   7  ar  
  7   4  20  1   
  8   6   8  ar  
  9   6  21  1   
 10   7   8  ar  
 11   7   9  1   
 12   8  22  1   
 13   9  10  am  
 14   9  23  1   
 15  10  11  2   
 16  10  12  am  
 17  12  13  1   
 18  12  24  1   
 19  13  14  1   
 20  13  15  1   
 21  13  25  1   
 22  14  16  1   
 23  14  17  1   
 24  14  26  1   
 25  15  27  1   
 26  15  28  1   
 27  15  29  1   
 28  16  18  1   
 29  17  19  1   
 30  17  30  1   
 31  17  31  1   
 32  18  19  1   
 33  18  32  1   
 34  18  33  1   
 35  19  34  1   
 36  19  35  1   
@<TRIPOS>SUBSTRUCTURE
  1 ****  10 GROUP 4 **** **** 0

# MOE 2024.06 (io_trps.svl 2023.06)
