@<TRIPOS>MOLECULE
NONAME
43 44 1 0 0 
SMALL
USER_CHARGES


@<TRIPOS>ATOM
  1 O       -1.2090     7.0330    -0.0710 O.3   1 <1>  -0.3630 
  2 C       -2.4350     6.5990    -0.4560 C.ar  1 <1>   0.0830 
  3 C       -0.0360     6.3660    -0.4780 C.3   1 <1>   0.1200 
  4 C       -3.5260     7.2830     0.0550 C.ar  1 <1>  -0.1500 
  5 C       -2.6420     5.5260    -1.3180 C.ar  1 <1>  -0.1500 
  6 C        1.1580     7.1000     0.1360 C.3   1 <1>   0.1100 
  7 C       -4.8220     6.9150    -0.2740 C.ar  1 <1>  -0.1440 
  8 C       -3.9310     5.1520    -1.6520 C.ar  1 <1>  -0.1500 
  9 N        2.4430     6.4530    -0.2130 N.3   1 <1>  -0.8100 
 10 C       -5.0130     5.8410    -1.1330 C.ar  1 <1>  -0.1500 
 11 C       -6.0030     7.6890     0.3070 C.3   1 <1>   0.0630 
 12 C        2.6810     5.2240     0.5740 C.3   1 <1>   0.1100 
 13 C        3.5600     7.4100    -0.0750 C.3   1 <1>   0.1100 
 14 C       -6.8830     6.7780     1.1690 C.3   1 <1>  -0.2400 
 15 C       -6.8250     8.3480    -0.8050 C.3   1 <1>  -0.2400 
 16 C        4.0130     4.5530     0.1800 C.3   1 <1>   0.3430 
 17 C        4.9030     6.7710    -0.4820 C.3   1 <1>   0.3430 
 18 N        5.1650     5.5080     0.2850 N.4   1 <1>  -0.9060 
 19 H        0.0170     6.3990    -1.5520 H     1 <1>   0.0800 
 20 H       -0.0960     5.3530    -0.1270 H     1 <1>   0.0800 
 21 H       -3.3460     8.1100     0.7170 H     1 <1>   0.1500 
 22 H       -1.8230     4.9750    -1.7370 H     1 <1>   0.1500 
 23 H        1.0440     7.1470     1.2060 H     1 <1>   0.0800 
 24 H        1.1450     8.1060    -0.2500 H     1 <1>   0.0800 
 25 H       -4.0960     4.3230    -2.3180 H     1 <1>   0.1500 
 26 H       -6.0080     5.5370    -1.4040 H     1 <1>   0.1500 
 27 H       -5.6230     8.4720     0.9410 H     1 <1>   0.0800 
 28 H        1.8840     4.5220     0.3970 H     1 <1>   0.0800 
 29 H        2.6870     5.4540     1.6270 H     1 <1>   0.0800 
 30 H        3.6170     7.7670     0.9400 H     1 <1>   0.0800 
 31 H        3.3780     8.2590    -0.7130 H     1 <1>   0.0800 
 32 H       -7.3310     6.0030     0.5740 H     1 <1>   0.0800 
 33 H       -7.6650     7.3490     1.6360 H     1 <1>   0.0800 
 34 H       -6.2880     6.3190     1.9380 H     1 <1>   0.0800 
 35 H       -7.2720     7.6070    -1.4430 H     1 <1>   0.0800 
 36 H       -6.1890     8.9760    -1.4040 H     1 <1>   0.0800 
 37 H       -7.6060     8.9540    -0.3820 H     1 <1>   0.0800 
 38 H        3.9250     4.2030    -0.8360 H     1 <1>   0.0800 
 39 H        4.1830     3.6970     0.8120 H     1 <1>   0.0800 
 40 H        5.7000     7.4780    -0.3180 H     1 <1>   0.0800 
 41 H        4.8650     6.5530    -1.5370 H     1 <1>   0.0800 
 42 H        6.0250     5.0620    -0.0580 H     1 <1>   0.4500 
 43 H        5.3100     5.7460     1.2730 H     1 <1>   0.4500 
@<TRIPOS>BOND
  1   1   2  1   
  2   1   3  1   
  3   2   4  ar  
  4   2   5  ar  
  5   3   6  1   
  6   3  19  1   
  7   3  20  1   
  8   4   7  ar  
  9   4  21  1   
 10   5   8  ar  
 11   5  22  1   
 12   6   9  1   
 13   6  23  1   
 14   6  24  1   
 15   7  10  ar  
 16   7  11  1   
 17   8  10  ar  
 18   8  25  1   
 19   9  12  1   
 20   9  13  1   
 21  10  26  1   
 22  11  14  1   
 23  11  15  1   
 24  11  27  1   
 25  12  16  1   
 26  12  28  1   
 27  12  29  1   
 28  13  17  1   
 29  13  30  1   
 30  13  31  1   
 31  14  32  1   
 32  14  33  1   
 33  14  34  1   
 34  15  35  1   
 35  15  36  1   
 36  15  37  1   
 37  16  18  1   
 38  16  38  1   
 39  16  39  1   
 40  17  18  1   
 41  17  40  1   
 42  17  41  1   
 43  18  42  1   
 44  18  43  1   
@<TRIPOS>SUBSTRUCTURE
  1 ****   1 GROUP 4 **** **** 0

# MOE 2024.06 (io_trps.svl 2023.06)
