@<TRIPOS>MOLECULE
NONAME
52 55 1 0 0 
SMALL
USER_CHARGES


@<TRIPOS>ATOM
  1 O       -1.7210     2.5060     1.1760 O.2   1 <1>  -0.5700 
  2 C       -1.0350     2.6730     0.1800 C.2   1 <1>   0.4690 
  3 C        0.2470     3.3240     0.2170 C.ar  1 <1>   0.0860 
  4 C       -1.5170     2.2560    -1.0980 C.2   1 <1>  -0.1240 
  5 C        0.9160     3.5520    -0.9920 C.ar  1 <1>   0.0830 
  6 C        0.8610     3.7500     1.3970 C.ar  1 <1>  -0.1500 
  7 C       -0.7990     2.5160    -2.2130 C.2   1 <1>  -0.0730 
  8 C       -2.8400     1.5120    -1.1330 C.3   1 <1>   0.4810 
  9 O        0.3700     3.1580    -2.1640 O.3   1 <1>  -0.1590 
 10 C        2.1500     4.1860    -1.0120 C.ar  1 <1>  -0.1500 
 11 C        2.0900     4.3810     1.3800 C.ar  1 <1>  -0.1440 
 12 N       -3.9060     2.3310    -0.5010 N.4   1 <1>  -0.9590 
 13 C        2.7330     4.5980     0.1690 C.ar  1 <1>  -0.1500 
 14 C        2.7500     4.8410     2.6680 C.3   1 <1>  -0.0970 
 15 C       -5.1610     1.5410    -0.2390 C.3   1 <1>   0.3430 
 16 C       -4.2000     3.6110    -1.2460 C.3   1 <1>   0.3430 
 17 C       -6.2550     2.3860     0.4440 C.3   1 <1>   0.2090 
 18 C       -5.2950     4.4510    -0.5610 C.3   1 <1>   0.2090 
 19 N       -6.5230     3.6330    -0.3300 N.pl3 1 <1>  -0.8380 
 20 C       -7.6340     4.3660     0.1140 C.ar  1 <1>   0.1000 
 21 C       -7.7040     5.0080     1.3650 C.ar  1 <1>   0.0830 
 22 C       -8.7220     4.4530    -0.7430 C.ar  1 <1>  -0.1500 
 23 O       -6.6240     4.9160     2.2050 O.3   1 <1>  -0.3630 
 24 C       -8.8540     5.7110     1.7130 C.ar  1 <1>  -0.1500 
 25 C       -9.8600     5.1540    -0.3890 C.ar  1 <1>  -0.1500 
 26 C       -6.6290     5.5320     3.4750 C.3   1 <1>   0.0400 
 27 C       -9.9260     5.7830     0.8390 C.ar  1 <1>  -0.1500 
 28 H        0.3580     3.5790     2.3340 H     1 <1>   0.1500 
 29 H       -1.0860     2.2350    -3.2130 H     1 <1>   0.1500 
 30 H       -2.7270     0.5890    -0.5880 H     1 <1>   0.0800 
 31 H       -3.1070     1.2760    -2.1500 H     1 <1>   0.0800 
 32 H        2.6490     4.3520    -1.9510 H     1 <1>   0.1500 
 33 H       -3.5130     2.5990     0.4250 H     1 <1>   0.4500 
 34 H        3.6920     5.0890     0.1500 H     1 <1>   0.1500 
 35 H        2.1280     4.6290     3.5190 H     1 <1>   0.0800 
 36 H        2.9290     5.9000     2.6310 H     1 <1>   0.0800 
 37 H        3.6900     4.3340     2.7980 H     1 <1>   0.0800 
 38 H       -4.9370     0.6920     0.3860 H     1 <1>   0.0800 
 39 H       -5.5590     1.1740    -1.1700 H     1 <1>   0.0800 
 40 H       -4.5340     3.3800    -2.2440 H     1 <1>   0.0800 
 41 H       -3.3050     4.2050    -1.3240 H     1 <1>   0.0800 
 42 H       -5.9470     2.6310     1.4450 H     1 <1>   0.0800 
 43 H       -7.1640     1.8120     0.5110 H     1 <1>   0.0800 
 44 H       -5.5450     5.2930    -1.1840 H     1 <1>   0.0800 
 45 H       -4.9240     4.8320     0.3740 H     1 <1>   0.0800 
 46 H       -8.6700     3.9640    -1.6970 H     1 <1>   0.1500 
 47 H       -8.9440     6.2130     2.6560 H     1 <1>   0.1500 
 48 H      -10.6920     5.2080    -1.0690 H     1 <1>   0.1500 
 49 H       -5.6870     5.3270     3.9510 H     1 <1>   0.0800 
 50 H       -7.4310     5.1200     4.0610 H     1 <1>   0.0800 
 51 H       -6.7490     6.5940     3.3490 H     1 <1>   0.0800 
 52 H      -10.8120     6.3290     1.1160 H     1 <1>   0.1500 
@<TRIPOS>BOND
  1   1   2  2   
  2   2   3  1   
  3   2   4  1   
  4   3   5  ar  
  5   3   6  ar  
  6   4   7  2   
  7   4   8  1   
  8   5   9  1   
  9   5  10  ar  
 10   6  11  ar  
 11   6  28  1   
 12   7   9  1   
 13   7  29  1   
 14   8  12  1   
 15   8  30  1   
 16   8  31  1   
 17  10  13  ar  
 18  10  32  1   
 19  11  13  ar  
 20  11  14  1   
 21  12  15  1   
 22  12  16  1   
 23  12  33  1   
 24  13  34  1   
 25  14  35  1   
 26  14  36  1   
 27  14  37  1   
 28  15  17  1   
 29  15  38  1   
 30  15  39  1   
 31  16  18  1   
 32  16  40  1   
 33  16  41  1   
 34  17  19  1   
 35  17  42  1   
 36  17  43  1   
 37  18  19  1   
 38  18  44  1   
 39  18  45  1   
 40  19  20  1   
 41  20  21  ar  
 42  20  22  ar  
 43  21  23  1   
 44  21  24  ar  
 45  22  25  ar  
 46  22  46  1   
 47  23  26  1   
 48  24  27  ar  
 49  24  47  1   
 50  25  27  ar  
 51  25  48  1   
 52  26  49  1   
 53  26  50  1   
 54  26  51  1   
 55  27  52  1   
@<TRIPOS>SUBSTRUCTURE
  1 ****  16 GROUP 4 **** **** 0

# MOE 2024.06 (io_trps.svl 2023.06)
