@<TRIPOS>MOLECULE
NONAME
43 45 1 0 0 
SMALL
USER_CHARGES


@<TRIPOS>ATOM
  1 CL      -0.2570    -2.7630     2.7560 Cl    1 <1>  -0.1770 
  2 C       -1.3580    -2.2400     1.4930 C.ar  1 <1>   0.1770 
  3 C       -1.0510    -2.4570     0.1430 C.ar  1 <1>   0.1000 
  4 C       -2.5250    -1.6130     1.8820 C.ar  1 <1>  -0.1500 
  5 N        0.1140    -3.0850    -0.3160 N.pl3 1 <1>  -0.8380 
  6 C       -1.9700    -2.0150    -0.8010 C.ar  1 <1>  -0.1500 
  7 C       -3.4240    -1.1830     0.9200 C.ar  1 <1>  -0.1500 
  8 C        0.2240    -4.5500    -0.0390 C.3   1 <1>   0.2090 
  9 C        1.3850    -2.3190    -0.1400 C.3   1 <1>   0.2090 
 10 C       -3.1430    -1.3860    -0.4200 C.ar  1 <1>  -0.1500 
 11 C        1.3920    -5.1780    -0.8280 C.3   1 <1>   0.3430 
 12 C        2.5400    -2.9730    -0.9260 C.3   1 <1>   0.3430 
 13 N        2.6900    -4.4440    -0.6140 N.4   1 <1>  -0.9590 
 14 C        3.8120    -5.0550    -1.3750 C.3   1 <1>   0.4860 
 15 C        5.0950    -4.3610    -0.9680 C.ar  1 <1>  -0.1430 
 16 C        5.6540    -4.6000     0.2800 C.ar  1 <1>  -0.1500 
 17 C        5.7140    -3.4740    -1.8360 C.ar  1 <1>  -0.1500 
 18 C        6.8130    -3.9470     0.6670 C.ar  1 <1>  -0.1430 
 19 C        6.8700    -2.8200    -1.4520 C.ar  1 <1>  -0.1500 
 20 C        7.4150    -3.0540    -0.2030 C.ar  1 <1>  -0.1500 
 21 C        7.4270    -4.2030     2.0330 C.3   1 <1>  -0.0970 
 22 H       -2.7310    -1.4620     2.9270 H     1 <1>   0.1500 
 23 H       -1.7590    -2.1680    -1.8440 H     1 <1>   0.1500 
 24 H       -4.3370    -0.6930     1.2130 H     1 <1>   0.1500 
 25 H       -0.6980    -5.0310    -0.3210 H     1 <1>   0.0800 
 26 H        0.3710    -4.7150     1.0130 H     1 <1>   0.0800 
 27 H        1.6450    -2.2700     0.9030 H     1 <1>   0.0800 
 28 H        1.2420    -1.3110    -0.4900 H     1 <1>   0.0800 
 29 H       -3.8410    -1.0520    -1.1700 H     1 <1>   0.1500 
 30 H        1.1340    -5.1570    -1.8740 H     1 <1>   0.0800 
 31 H        1.4970    -6.2090    -0.5330 H     1 <1>   0.0800 
 32 H        3.4550    -2.4520    -0.6940 H     1 <1>   0.0800 
 33 H        2.3440    -2.8440    -1.9770 H     1 <1>   0.0800 
 34 H        2.9400    -4.5030     0.3810 H     1 <1>   0.4500 
 35 H        3.6520    -4.9420    -2.4350 H     1 <1>   0.0800 
 36 H        3.8890    -6.1060    -1.1490 H     1 <1>   0.0800 
 37 H        5.1990    -5.2960     0.9630 H     1 <1>   0.1500 
 38 H        5.3110    -3.2800    -2.8160 H     1 <1>   0.1500 
 39 H        7.3530    -2.1300    -2.1230 H     1 <1>   0.1500 
 40 H        8.3160    -2.5400     0.0880 H     1 <1>   0.1500 
 41 H        7.1560    -5.1780     2.3980 H     1 <1>   0.0800 
 42 H        7.0850    -3.4620     2.7330 H     1 <1>   0.0800 
 43 H        8.5000    -4.1530     1.9750 H     1 <1>   0.0800 
@<TRIPOS>BOND
  1   1   2  1   
  2   2   3  ar  
  3   2   4  ar  
  4   3   5  1   
  5   3   6  ar  
  6   4   7  ar  
  7   4  22  1   
  8   5   8  1   
  9   5   9  1   
 10   6  10  ar  
 11   6  23  1   
 12   7  10  ar  
 13   7  24  1   
 14   8  11  1   
 15   8  25  1   
 16   8  26  1   
 17   9  12  1   
 18   9  27  1   
 19   9  28  1   
 20  10  29  1   
 21  11  13  1   
 22  11  30  1   
 23  11  31  1   
 24  12  13  1   
 25  12  32  1   
 26  12  33  1   
 27  13  14  1   
 28  13  34  1   
 29  14  15  1   
 30  14  35  1   
 31  14  36  1   
 32  15  16  ar  
 33  15  17  ar  
 34  16  18  ar  
 35  16  37  1   
 36  17  19  ar  
 37  17  38  1   
 38  18  20  ar  
 39  18  21  1   
 40  19  20  ar  
 41  19  39  1   
 42  20  40  1   
 43  21  41  1   
 44  21  42  1   
 45  21  43  1   
@<TRIPOS>SUBSTRUCTURE
  1 ****  12 GROUP 4 **** **** 0

# MOE 2024.06 (io_trps.svl 2023.06)
