@<TRIPOS>MOLECULE
NONAME
47 48 1 0 0 
SMALL
USER_CHARGES


@<TRIPOS>ATOM
  1 O        3.6900    -0.3600     0.7550 O.3   1 <1>  -0.6800 
  2 C        4.0410    -1.5630     0.1720 C.3   1 <1>   0.4240 
  3 C        5.5780    -1.5990     0.2440 C.ar  1 <1>  -0.1440 
  4 C        3.4950    -1.5640    -1.2690 C.3   1 <1>  -0.0800 
  5 C        3.3180    -2.6560     0.9730 C.3   1 <1>  -0.1600 
  6 C        6.3070    -0.6040    -0.4030 C.ar  1 <1>  -0.1500 
  7 C        6.2890    -2.5740     0.9420 C.ar  1 <1>  -0.1500 
  8 C        1.9760    -1.3190    -1.2800 C.3   1 <1>   0.3430 
  9 C        3.8500    -2.8430    -2.0600 C.3   1 <1>  -0.2400 
 10 C        1.8230    -2.8290     0.6350 C.3   1 <1>   0.4230 
 11 C        7.6900    -0.5890    -0.3700 C.ar  1 <1>  -0.1500 
 12 C        7.6730    -2.5600     0.9760 C.ar  1 <1>  -0.1500 
 13 N        1.2800    -1.5570     0.0410 N.4   1 <1>  -0.9590 
 14 C        1.1340    -3.3560     1.8950 C.3   1 <1>  -0.2400 
 15 C        8.3760    -1.5690     0.3190 C.ar  1 <1>  -0.1500 
 16 C       -0.1970    -1.2680    -0.0480 C.3   1 <1>   0.5030 
 17 C       -0.4320     0.0290    -0.8440 C.3   1 <1>  -0.2400 
 18 C       -0.9300    -2.4070    -0.7630 C.3   1 <1>  -0.2400 
 19 C       -0.7920    -1.0100     1.3430 C.3   1 <1>  -0.2400 
 20 H        4.4870    -0.0250     1.2210 H     1 <1>   0.4000 
 21 H        3.9440    -0.7490    -1.8060 H     1 <1>   0.0800 
 22 H        3.4640    -2.4670     2.0230 H     1 <1>   0.0800 
 23 H        3.7710    -3.6070     0.7660 H     1 <1>   0.0800 
 24 H        5.8090     0.1820    -0.9440 H     1 <1>   0.1500 
 25 H        5.8000    -3.3640     1.4800 H     1 <1>   0.1500 
 26 H        1.5270    -1.9320    -2.0440 H     1 <1>   0.0800 
 27 H        1.8340    -0.2910    -1.5650 H     1 <1>   0.0800 
 28 H        3.3930    -3.7220    -1.6430 H     1 <1>   0.0800 
 29 H        4.9180    -2.9910    -2.0710 H     1 <1>   0.0800 
 30 H        3.5270    -2.7500    -3.0830 H     1 <1>   0.0800 
 31 H        1.7410    -3.5970    -0.1180 H     1 <1>   0.0800 
 32 H        8.2350     0.1880    -0.8800 H     1 <1>   0.1500 
 33 H        8.2070    -3.3220     1.5180 H     1 <1>   0.1500 
 34 H        1.6720    -0.8210     0.6520 H     1 <1>   0.4500 
 35 H        1.0950    -2.6030     2.6620 H     1 <1>   0.0800 
 36 H        1.6920    -4.1890     2.2850 H     1 <1>   0.0800 
 37 H        0.1540    -3.7340     1.6840 H     1 <1>   0.0800 
 38 H        9.4520    -1.5600     0.3460 H     1 <1>   0.1500 
 39 H       -0.2090    -0.0840    -1.8890 H     1 <1>   0.0800 
 40 H        0.1460     0.8400    -0.4340 H     1 <1>   0.0800 
 41 H       -1.4680     0.3140    -0.7960 H     1 <1>   0.0800 
 42 H       -0.5570    -2.5430    -1.7610 H     1 <1>   0.0800 
 43 H       -1.9770    -2.1720    -0.8360 H     1 <1>   0.0800 
 44 H       -0.8490    -3.3350    -0.2330 H     1 <1>   0.0800 
 45 H       -0.1460    -0.3800     1.9270 H     1 <1>   0.0800 
 46 H       -1.0010    -1.9120     1.8800 H     1 <1>   0.0800 
 47 H       -1.7410    -0.5120     1.2580 H     1 <1>   0.0800 
@<TRIPOS>BOND
  1   1   2  1   
  2   1  20  1   
  3   2   3  1   
  4   2   4  1   
  5   2   5  1   
  6   3   6  ar  
  7   3   7  ar  
  8   4   8  1   
  9   4   9  1   
 10   4  21  1   
 11   5  10  1   
 12   5  22  1   
 13   5  23  1   
 14   6  11  ar  
 15   6  24  1   
 16   7  12  ar  
 17   7  25  1   
 18   8  13  1   
 19   8  26  1   
 20   8  27  1   
 21   9  28  1   
 22   9  29  1   
 23   9  30  1   
 24  10  13  1   
 25  10  14  1   
 26  10  31  1   
 27  11  15  ar  
 28  11  32  1   
 29  12  15  ar  
 30  12  33  1   
 31  13  16  1   
 32  13  34  1   
 33  14  35  1   
 34  14  36  1   
 35  14  37  1   
 36  15  38  1   
 37  16  17  1   
 38  16  18  1   
 39  16  19  1   
 40  17  39  1   
 41  17  40  1   
 42  17  41  1   
 43  18  42  1   
 44  18  43  1   
 45  18  44  1   
 46  19  45  1   
 47  19  46  1   
 48  19  47  1   
@<TRIPOS>SUBSTRUCTURE
  1 ****   2 GROUP 4 **** **** 0

# MOE 2024.06 (io_trps.svl 2023.06)
