@<TRIPOS>MOLECULE
NONAME
50 52 1 0 0 
SMALL
USER_CHARGES


@<TRIPOS>ATOM
  1 O       -0.4600     0.8100     1.3350 O.2   1 <1>  -0.5700 
  2 C       -0.9370     1.9210     1.4720 C.2   1 <1>   0.5440 
  3 N       -2.3090     2.0250     1.4350 N.am  1 <1>  -0.6600 
  4 C       -0.0800     3.0890     1.5920 C.ar  1 <1>   0.0860 
  5 C       -2.9530     2.9260     0.4360 C.3   1 <1>   0.1400 
  6 C       -3.1370     0.8300     1.7740 C.3   1 <1>   0.1400 
  7 C        1.1850     3.1090     1.0080 C.ar  1 <1>  -0.1500 
  8 C       -0.4890     4.2300     2.2830 C.ar  1 <1>  -0.1500 
  9 C       -3.2970     2.1320    -0.8440 C.3   1 <1>   0.3430 
 10 C       -3.4420     0.0300     0.4950 C.3   1 <1>   0.3430 
 11 C        2.0130     4.2190     1.0740 C.ar  1 <1>   0.1170 
 12 C        0.3220     5.3470     2.3630 C.ar  1 <1>  -0.1500 
 13 N       -4.1040     0.8880    -0.5590 N.4   1 <1>  -0.9590 
 14 N        3.2760     4.1640     0.4690 N.am  1 <1>  -0.5470 
 15 C        1.5640     5.3420     1.7590 C.ar  1 <1>  -0.1500 
 16 C       -4.3250     0.1000    -1.8100 C.3   1 <1>   0.2630 
 17 C        4.0380     5.1650    -0.0890 C.2   1 <1>   0.5440 
 18 O        3.5550     6.2680    -0.2580 O.2   1 <1>  -0.5700 
 19 C        5.3990     4.8830    -0.5040 C.ar  1 <1>   0.0860 
 20 C        6.1990     3.9510     0.1640 C.ar  1 <1>  -0.1500 
 21 C        5.9640     5.5390    -1.5990 C.ar  1 <1>  -0.1500 
 22 C        7.4900     3.6740    -0.2490 C.ar  1 <1>  -0.1500 
 23 C        7.2530     5.2680    -2.0170 C.ar  1 <1>  -0.1500 
 24 C        8.0260     4.3330    -1.3510 C.ar  1 <1>   0.0830 
 25 O        9.2750     4.1210    -1.8220 O.3   1 <1>  -0.3630 
 26 C       10.1610     3.2120    -1.2070 C.3   1 <1>   0.0400 
 27 H       -2.2890     3.7350     0.1800 H     1 <1>   0.0800 
 28 H       -3.8450     3.3540     0.8590 H     1 <1>   0.0800 
 29 H       -4.0500     1.1420     2.2490 H     1 <1>   0.0800 
 30 H       -2.6040     0.2030     2.4690 H     1 <1>   0.0800 
 31 H        1.5250     2.2330     0.4850 H     1 <1>   0.1500 
 32 H       -1.4490     4.2430     2.7680 H     1 <1>   0.1500 
 33 H       -2.3720     1.8550    -1.3220 H     1 <1>   0.0800 
 34 H       -3.8370     2.7730    -1.5220 H     1 <1>   0.0800 
 35 H       -4.0740    -0.8070     0.7420 H     1 <1>   0.0800 
 36 H       -2.5090    -0.3580     0.1160 H     1 <1>   0.0800 
 37 H       -0.0080     6.2230     2.8970 H     1 <1>   0.1500 
 38 H       -5.0180     1.1830    -0.1870 H     1 <1>   0.4500 
 39 H        3.6610     3.2280     0.3560 H     1 <1>   0.3700 
 40 H        2.1900     6.2140     1.8240 H     1 <1>   0.1500 
 41 H       -3.3810    -0.2270    -2.2170 H     1 <1>   0.0800 
 42 H       -4.8290     0.7020    -2.5490 H     1 <1>   0.0800 
 43 H       -4.9300    -0.7680    -1.6040 H     1 <1>   0.0800 
 44 H        5.8110     3.4410     1.0280 H     1 <1>   0.1500 
 45 H        5.3780     6.2730    -2.1260 H     1 <1>   0.1500 
 46 H        8.0650     2.9490     0.2960 H     1 <1>   0.1500 
 47 H        7.6710     5.7820    -2.8650 H     1 <1>   0.1500 
 48 H       11.0860     3.2250    -1.7550 H     1 <1>   0.0800 
 49 H        9.7300     2.2270    -1.2420 H     1 <1>   0.0800 
 50 H       10.3330     3.5240    -0.1920 H     1 <1>   0.0800 
@<TRIPOS>BOND
  1   1   2  2   
  2   2   3  am  
  3   2   4  1   
  4   3   5  1   
  5   3   6  1   
  6   4   7  ar  
  7   4   8  ar  
  8   5   9  1   
  9   5  27  1   
 10   5  28  1   
 11   6  10  1   
 12   6  29  1   
 13   6  30  1   
 14   7  11  ar  
 15   7  31  1   
 16   8  12  ar  
 17   8  32  1   
 18   9  13  1   
 19   9  33  1   
 20   9  34  1   
 21  10  13  1   
 22  10  35  1   
 23  10  36  1   
 24  11  14  1   
 25  11  15  ar  
 26  12  15  ar  
 27  12  37  1   
 28  13  16  1   
 29  13  38  1   
 30  14  17  am  
 31  14  39  1   
 32  15  40  1   
 33  16  41  1   
 34  16  42  1   
 35  16  43  1   
 36  17  18  2   
 37  17  19  1   
 38  19  20  ar  
 39  19  21  ar  
 40  20  22  ar  
 41  20  44  1   
 42  21  23  ar  
 43  21  45  1   
 44  22  24  ar  
 45  22  46  1   
 46  23  24  ar  
 47  23  47  1   
 48  24  25  1   
 49  25  26  1   
 50  26  48  1   
 51  26  49  1   
 52  26  50  1   
@<TRIPOS>SUBSTRUCTURE
  1 ****   7 GROUP 4 **** **** 0

# MOE 2024.06 (io_trps.svl 2023.06)
