@<TRIPOS>MOLECULE
NONAME
32 32 1 0 0 
SMALL
USER_CHARGES


@<TRIPOS>ATOM
  1 F       -1.8930     1.2190     1.6280 F     1 <1>  -0.1900 
  2 C       -1.0510     2.0170     1.0240 C.ar  1 <1>   0.1900 
  3 C       -1.3440     2.4470    -0.2610 C.ar  1 <1>  -0.1440 
  4 C        0.0870     2.4090     1.7010 C.ar  1 <1>  -0.1500 
  5 C       -0.4470     3.3070    -0.8810 C.ar  1 <1>  -0.1500 
  6 C       -2.6060     1.9850    -0.9610 C.3   1 <1>   0.4870 
  7 C        0.9690     3.2680     1.0690 C.ar  1 <1>  -0.1500 
  8 C        0.7000     3.7140    -0.2160 C.ar  1 <1>  -0.1500 
  9 N       -3.7910     2.4860    -0.2100 N.4   1 <1>  -0.9590 
 10 C       -5.0390     1.8060    -0.6870 C.3   1 <1>   0.3430 
 11 C       -3.8660     3.9870    -0.2950 C.3   1 <1>   0.3430 
 12 C       -5.8850     1.2700     0.4770 C.3   1 <1>   0.1200 
 13 C       -4.9230     4.6020     0.6340 C.3   1 <1>   0.1200 
 14 O       -7.0580     0.7710    -0.0570 O.3   1 <1>  -0.6800 
 15 O       -4.8600     5.9750     0.4840 O.3   1 <1>  -0.6800 
 16 H        0.2800     2.0520     2.6980 H     1 <1>   0.1500 
 17 H       -0.6220     3.6690    -1.8810 H     1 <1>   0.1500 
 18 H       -2.6130     0.9070    -0.9840 H     1 <1>   0.0800 
 19 H       -2.6230     2.3480    -1.9760 H     1 <1>   0.0800 
 20 H        1.8650     3.5900     1.5750 H     1 <1>   0.1500 
 21 H        1.3940     4.3810    -0.7000 H     1 <1>   0.1500 
 22 H       -3.6050     2.2230     0.7690 H     1 <1>   0.4500 
 23 H       -4.7850     0.9710    -1.3190 H     1 <1>   0.0800 
 24 H       -5.6330     2.4940    -1.2650 H     1 <1>   0.0800 
 25 H       -4.0870     4.2810    -1.3080 H     1 <1>   0.0800 
 26 H       -2.9110     4.4090    -0.0250 H     1 <1>   0.0800 
 27 H       -6.1450     2.0500     1.1720 H     1 <1>   0.0800 
 28 H       -5.3790     0.4670     0.9850 H     1 <1>   0.0800 
 29 H       -4.7160     4.3690     1.6640 H     1 <1>   0.0800 
 30 H       -5.9170     4.2880     0.3640 H     1 <1>   0.0800 
 31 H       -7.6340     0.3730     0.6310 H     1 <1>   0.4000 
 32 H       -5.5030     6.4370     1.0650 H     1 <1>   0.4000 
@<TRIPOS>BOND
  1   1   2  1   
  2   2   3  ar  
  3   2   4  ar  
  4   3   5  ar  
  5   3   6  1   
  6   4   7  ar  
  7   4  16  1   
  8   5   8  ar  
  9   5  17  1   
 10   6   9  1   
 11   6  18  1   
 12   6  19  1   
 13   7   8  ar  
 14   7  20  1   
 15   8  21  1   
 16   9  10  1   
 17   9  11  1   
 18   9  22  1   
 19  10  12  1   
 20  10  23  1   
 21  10  24  1   
 22  11  13  1   
 23  11  25  1   
 24  11  26  1   
 25  12  14  1   
 26  12  27  1   
 27  12  28  1   
 28  13  15  1   
 29  13  29  1   
 30  13  30  1   
 31  14  31  1   
 32  15  32  1   
@<TRIPOS>SUBSTRUCTURE
  1 ****   9 GROUP 4 **** **** 0

# MOE 2024.06 (io_trps.svl 2023.06)
