@<TRIPOS>MOLECULE
NONAME
55 57 1 0 0 
SMALL
USER_CHARGES


@<TRIPOS>ATOM
  1 O        0.2130     1.1690     1.6310 O.2   1 <1>  -0.5700 
  2 C        0.1400     1.8940     0.6560 C.2   1 <1>   0.5440 
  3 N        1.2820     2.1500    -0.0800 N.am  1 <1>  -0.6600 
  4 C       -1.1450     2.4690     0.3080 C.ar  1 <1>   0.0860 
  5 C        1.3980     3.2670    -1.0590 C.3   1 <1>   0.1400 
  6 C        2.5540     1.4190     0.1800 C.3   1 <1>   0.1400 
  7 C       -1.8560     3.2390     1.2280 C.ar  1 <1>  -0.1500 
  8 C       -1.7180     2.2720    -0.9490 C.ar  1 <1>  -0.1500 
  9 C        2.4650     4.2570    -0.5850 C.3   1 <1>  -0.1600 
 10 C        3.6240     2.4000     0.6660 C.3   1 <1>  -0.1600 
 11 C       -3.0760     3.8060     0.9070 C.ar  1 <1>  -0.1500 
 12 C       -2.9370     2.8350    -1.2770 C.ar  1 <1>  -0.1500 
 13 C        3.8170     3.5630    -0.3240 C.3   1 <1>  -0.0190 
 14 C       -3.6250     3.6090    -0.3570 C.ar  1 <1>   0.0830 
 15 C        4.8940     4.5290     0.1740 C.2   1 <1>   0.5690 
 16 O       -4.8080     4.1280    -0.7550 O.3   1 <1>  -0.3630 
 17 O        4.5710     5.4980     0.8180 O.2   1 <1>  -0.5700 
 18 N        6.1890     4.2270    -0.1420 N.am  1 <1>  -0.5470 
 19 C       -5.6080     4.9020     0.1120 C.3   1 <1>   0.0400 
 20 C        7.4270     4.8400     0.1290 C.ar  1 <1>   0.1170 
 21 C        8.5800     4.2280    -0.3780 C.ar  1 <1>   0.0830 
 22 C        7.5550     6.0090     0.8700 C.ar  1 <1>  -0.1500 
 23 O        8.4070     3.0760    -1.1020 O.3   1 <1>  -0.3630 
 24 C        9.8300     4.7890    -0.1400 C.ar  1 <1>  -0.1500 
 25 C        8.8060     6.5680     1.1070 C.ar  1 <1>   0.0830 
 26 C        9.5130     2.4000    -1.6620 C.3   1 <1>   0.0400 
 27 C        9.9370     5.9530     0.5990 C.ar  1 <1>  -0.1500 
 28 O        9.0020     7.7080     1.8220 O.3   1 <1>  -0.3620 
 29 C        7.9110     8.4080     2.3800 C.3   1 <1>   0.0400 
 30 H        0.4630     3.7880    -1.1660 H     1 <1>   0.0800 
 31 H        1.6690     2.8640    -2.0200 H     1 <1>   0.0800 
 32 H        2.8750     0.9440    -0.7310 H     1 <1>   0.0800 
 33 H        2.4100     0.6480     0.9180 H     1 <1>   0.0800 
 34 H       -1.4350     3.3870     2.2070 H     1 <1>   0.1500 
 35 H       -1.1980     1.6660    -1.6690 H     1 <1>   0.1500 
 36 H        2.1160     4.7290     0.3180 H     1 <1>   0.0800 
 37 H        2.5910     5.0270    -1.3250 H     1 <1>   0.0800 
 38 H        4.5510     1.8720     0.8000 H     1 <1>   0.0800 
 39 H        3.3270     2.7860     1.6270 H     1 <1>   0.0800 
 40 H       -3.5840     4.3930     1.6490 H     1 <1>   0.1500 
 41 H       -3.3680     2.6780    -2.2500 H     1 <1>   0.1500 
 42 H        4.1560     3.1550    -1.2590 H     1 <1>   0.0800 
 43 H        6.3220     3.3740    -0.6870 H     1 <1>   0.3700 
 44 H       -6.4960     5.1890    -0.4220 H     1 <1>   0.0800 
 45 H       -5.0580     5.7780     0.4050 H     1 <1>   0.0800 
 46 H       -5.8720     4.3070     0.9680 H     1 <1>   0.0800 
 47 H        6.6760     6.4760     1.2590 H     1 <1>   0.1500 
 48 H       10.7310     4.3440    -0.5160 H     1 <1>   0.1500 
 49 H        9.1470     1.5350    -2.1860 H     1 <1>   0.0800 
 50 H       10.1730     2.0930    -0.8700 H     1 <1>   0.0800 
 51 H       10.0140     3.0580    -2.3500 H     1 <1>   0.0800 
 52 H       10.8990     6.3950     0.7880 H     1 <1>   0.1500 
 53 H        8.2950     9.2690     2.8970 H     1 <1>   0.0800 
 54 H        7.3990     7.7640     3.0720 H     1 <1>   0.0800 
 55 H        7.2540     8.7200     1.5870 H     1 <1>   0.0800 
@<TRIPOS>BOND
  1   1   2  2   
  2   2   3  am  
  3   2   4  1   
  4   3   5  1   
  5   3   6  1   
  6   4   7  ar  
  7   4   8  ar  
  8   5   9  1   
  9   5  30  1   
 10   5  31  1   
 11   6  10  1   
 12   6  32  1   
 13   6  33  1   
 14   7  11  ar  
 15   7  34  1   
 16   8  12  ar  
 17   8  35  1   
 18   9  13  1   
 19   9  36  1   
 20   9  37  1   
 21  10  13  1   
 22  10  38  1   
 23  10  39  1   
 24  11  14  ar  
 25  11  40  1   
 26  12  14  ar  
 27  12  41  1   
 28  13  15  1   
 29  13  42  1   
 30  14  16  1   
 31  15  17  2   
 32  15  18  am  
 33  16  19  1   
 34  18  20  1   
 35  18  43  1   
 36  19  44  1   
 37  19  45  1   
 38  19  46  1   
 39  20  21  ar  
 40  20  22  ar  
 41  21  23  1   
 42  21  24  ar  
 43  22  25  ar  
 44  22  47  1   
 45  23  26  1   
 46  24  27  ar  
 47  24  48  1   
 48  25  27  ar  
 49  25  28  1   
 50  26  49  1   
 51  26  50  1   
 52  26  51  1   
 53  27  52  1   
 54  28  29  1   
 55  29  53  1   
 56  29  54  1   
 57  29  55  1   
@<TRIPOS>SUBSTRUCTURE
  1 ****  13 GROUP 4 **** **** 0

# MOE 2024.06 (io_trps.svl 2023.06)
