@<TRIPOS>MOLECULE
NONAME
48 50 1 0 0 
SMALL
USER_CHARGES


@<TRIPOS>ATOM
  1 O        1.2420     0.6370    -1.0130 O.2   1 <1>  -0.5700 
  2 C        1.1940     1.5490    -0.2130 C.2   1 <1>   0.5440 
  3 N        1.9220     1.4450     0.9410 N.am  1 <1>  -0.7300 
  4 C        0.3920     2.7230    -0.4710 C.ar  1 <1>   0.0860 
  5 C        2.7470     0.2690     1.3440 C.3   1 <1>   0.1400 
  6 C        0.9220     4.0210    -0.3580 C.ar  1 <1>   0.1170 
  7 C       -0.9470     2.5780    -0.8370 C.ar  1 <1>  -0.1500 
  8 C        3.9800     0.0780     0.4450 C.3   1 <1>   0.2000 
  9 N        2.2830     4.2040    -0.0650 N.am  1 <1>  -0.5470 
 10 C        0.0880     5.1140    -0.5800 C.ar  1 <1>  -0.1500 
 11 C       -1.7590     3.6720    -1.0580 C.ar  1 <1>  -0.1500 
 12 O        4.8570    -0.8110     1.0530 O.3   1 <1>  -0.5600 
 13 C        4.8210     1.3320     0.2200 C.3   1 <1>  -0.1600 
 14 C        2.9370     5.1950     0.6310 C.2   1 <1>   0.5440 
 15 C       -1.2390     4.9470    -0.9230 C.ar  1 <1>  -0.1500 
 16 C        6.1220    -0.6690     0.4970 C.3   1 <1>   0.1200 
 17 C        6.2450     0.8050     0.1240 C.3   1 <1>  -0.1600 
 18 O        2.2990     6.0570     1.1990 O.2   1 <1>  -0.5700 
 19 C        4.3840     5.1530     0.7290 C.ar  1 <1>   0.0860 
 20 C        5.1750     4.6490    -0.3040 C.ar  1 <1>  -0.1500 
 21 C        5.0390     5.6010     1.8760 C.ar  1 <1>  -0.1500 
 22 C        6.5510     4.5550    -0.1890 C.ar  1 <1>   0.0820 
 23 C        6.4140     5.5250     2.0000 C.ar  1 <1>  -0.1500 
 24 O        7.2120     4.0190    -1.2440 O.3   1 <1>  -0.3620 
 25 C        7.1750     4.9970     0.9730 C.ar  1 <1>  -0.1500 
 26 C        8.6190     3.9110    -1.2510 C.3   1 <1>   0.0400 
 27 H        1.7890     2.1590     1.6620 H     1 <1>   0.3700 
 28 H        2.1410    -0.6200     1.2950 H     1 <1>   0.0800 
 29 H        3.0740     0.4080     2.3590 H     1 <1>   0.0800 
 30 H       -1.3490     1.5840    -0.9440 H     1 <1>   0.1500 
 31 H        3.6860    -0.3520    -0.4980 H     1 <1>   0.0800 
 32 H        2.8730     3.4010    -0.2910 H     1 <1>   0.3700 
 33 H        0.4830     6.1100    -0.4890 H     1 <1>   0.1500 
 34 H       -2.7910     3.5370    -1.3340 H     1 <1>   0.1500 
 35 H        4.7300     1.9970     1.0610 H     1 <1>   0.0800 
 36 H        4.5150     1.8370    -0.6770 H     1 <1>   0.0800 
 37 H       -1.8660     5.8060    -1.0890 H     1 <1>   0.1500 
 38 H        6.1720    -1.2970    -0.3770 H     1 <1>   0.0800 
 39 H        6.8580    -0.9760     1.2190 H     1 <1>   0.0800 
 40 H        6.8900     1.3180     0.8150 H     1 <1>   0.0800 
 41 H        6.6410     0.9100    -0.8710 H     1 <1>   0.0800 
 42 H        4.7230     4.3230    -1.2220 H     1 <1>   0.1500 
 43 H        4.4540     6.0140     2.6810 H     1 <1>   0.1500 
 44 H        6.8930     5.8760     2.8990 H     1 <1>   0.1500 
 45 H        8.2410     4.9420     1.0930 H     1 <1>   0.1500 
 46 H        8.9160     3.4760    -2.1880 H     1 <1>   0.0800 
 47 H        8.9250     3.2750    -0.4390 H     1 <1>   0.0800 
 48 H        9.0450     4.8940    -1.1540 H     1 <1>   0.0800 
@<TRIPOS>BOND
  1   1   2  2   
  2   2   3  am  
  3   2   4  1   
  4   3   5  1   
  5   3  27  1   
  6   4   6  ar  
  7   4   7  ar  
  8   5   8  1   
  9   5  28  1   
 10   5  29  1   
 11   6   9  1   
 12   6  10  ar  
 13   7  11  ar  
 14   7  30  1   
 15   8  12  1   
 16   8  13  1   
 17   8  31  1   
 18   9  14  am  
 19   9  32  1   
 20  10  15  ar  
 21  10  33  1   
 22  11  15  ar  
 23  11  34  1   
 24  12  16  1   
 25  13  17  1   
 26  13  35  1   
 27  13  36  1   
 28  14  18  2   
 29  14  19  1   
 30  15  37  1   
 31  16  17  1   
 32  16  38  1   
 33  16  39  1   
 34  17  40  1   
 35  17  41  1   
 36  19  20  ar  
 37  19  21  ar  
 38  20  22  ar  
 39  20  42  1   
 40  21  23  ar  
 41  21  43  1   
 42  22  24  1   
 43  22  25  ar  
 44  23  25  ar  
 45  23  44  1   
 46  24  26  1   
 47  25  45  1   
 48  26  46  1   
 49  26  47  1   
 50  26  48  1   
@<TRIPOS>SUBSTRUCTURE
  1 ****   9 GROUP 4 **** **** 0

# MOE 2024.06 (io_trps.svl 2023.06)
