@<TRIPOS>MOLECULE
NONAME
53 55 1 0 0 
SMALL
USER_CHARGES


@<TRIPOS>ATOM
  1 S       -0.3090     0.1050     0.0130 S.o2  1 <1>   1.4470 
  2 O       -1.1390     0.5450    -1.0840 O.2   1 <1>  -0.6500 
  3 O       -0.7070     0.3740     1.3770 O.2   1 <1>  -0.6500 
  4 N        1.1610     0.9360    -0.1750 N.am  1 <1>  -0.8490 
  5 C        0.1670    -1.6310    -0.2020 C.ar  1 <1>  -0.0090 
  6 C        0.9130     2.3860    -0.3450 C.3   1 <1>   0.1960 
  7 C        2.0900     0.7080     0.9540 C.3   1 <1>   0.1960 
  8 C        0.0950    -2.5370     0.8520 C.ar  1 <1>  -0.1500 
  9 C        0.6390    -2.0940    -1.4250 C.ar  1 <1>  -0.1500 
 10 C        2.2150     3.2220    -0.4230 C.3   1 <1>   0.3430 
 11 C        3.4520     1.4180     0.7470 C.3   1 <1>   0.3430 
 12 C        0.4890    -3.8550     0.6990 C.ar  1 <1>  -0.1500 
 13 C        1.0350    -3.4100    -1.5880 C.ar  1 <1>  -0.1500 
 14 N        3.4380     2.3470    -0.4430 N.4   1 <1>  -0.9590 
 15 C        0.9660    -4.2990    -0.5290 C.ar  1 <1>   0.0830 
 16 C        4.7010     3.0970    -0.6920 C.3   1 <1>   0.4230 
 17 O        1.3760    -5.5670    -0.7680 O.3   1 <1>  -0.3620 
 18 C        5.7490     2.1160    -1.2350 C.3   1 <1>  -0.1600 
 19 C        5.1440     3.8720     0.5620 C.3   1 <1>  -0.1600 
 20 C        1.2780    -6.5720     0.2170 C.3   1 <1>   0.0400 
 21 C        7.0920     2.7620    -1.6140 C.3   1 <1>  -0.1600 
 22 C        6.1370     4.9910     0.2120 C.3   1 <1>  -0.1600 
 23 C        7.9200     3.1630    -0.3860 C.3   1 <1>  -0.1600 
 24 C        7.6110     4.5580     0.1800 C.3   1 <1>  -0.1600 
 25 H        0.3080     2.7550     0.4690 H     1 <1>   0.0800 
 26 H        0.3520     2.5470    -1.2510 H     1 <1>   0.0800 
 27 H        2.2670    -0.3470     1.0760 H     1 <1>   0.0800 
 28 H        1.6500     1.0660     1.8710 H     1 <1>   0.0800 
 29 H       -0.2780    -2.2080     1.8090 H     1 <1>   0.1500 
 30 H        0.6930    -1.4190    -2.2620 H     1 <1>   0.1500 
 31 H        2.2530     3.8840     0.4260 H     1 <1>   0.0800 
 32 H        2.1830     3.8340    -1.3100 H     1 <1>   0.0800 
 33 H        4.2130     0.6680     0.6110 H     1 <1>   0.0800 
 34 H        3.6950     1.9650     1.6420 H     1 <1>   0.0800 
 35 H        0.4150    -4.5190     1.5400 H     1 <1>   0.1500 
 36 H        1.3970    -3.7600    -2.5390 H     1 <1>   0.1500 
 37 H        3.2820     1.7230    -1.2490 H     1 <1>   0.4500 
 38 H        4.5100     3.8200    -1.4690 H     1 <1>   0.0800 
 39 H        5.3520     1.6600    -2.1250 H     1 <1>   0.0800 
 40 H        5.9380     1.3340    -0.5220 H     1 <1>   0.0800 
 41 H        5.5790     3.2170     1.2960 H     1 <1>   0.0800 
 42 H        4.2880     4.3470     1.0050 H     1 <1>   0.0800 
 43 H        1.6360    -7.4920    -0.2090 H     1 <1>   0.0800 
 44 H        0.2470    -6.6800     0.5050 H     1 <1>   0.0800 
 45 H        1.8890    -6.2980     1.0590 H     1 <1>   0.0800 
 46 H        6.9510     3.6050    -2.2700 H     1 <1>   0.0800 
 47 H        7.6620     2.0300    -2.1640 H     1 <1>   0.0800 
 48 H        6.0490     5.7770     0.9430 H     1 <1>   0.0800 
 49 H        5.8750     5.4270    -0.7380 H     1 <1>   0.0800 
 50 H        8.9620     3.1520    -0.6600 H     1 <1>   0.0800 
 51 H        7.8060     2.4250     0.3890 H     1 <1>   0.0800 
 52 H        8.0060     4.6000     1.1810 H     1 <1>   0.0800 
 53 H        8.1570     5.2900    -0.3930 H     1 <1>   0.0800 
@<TRIPOS>BOND
  1   1   2  2   
  2   1   3  2   
  3   1   4  am  
  4   1   5  1   
  5   4   6  1   
  6   4   7  1   
  7   5   8  ar  
  8   5   9  ar  
  9   6  10  1   
 10   6  25  1   
 11   6  26  1   
 12   7  11  1   
 13   7  27  1   
 14   7  28  1   
 15   8  12  ar  
 16   8  29  1   
 17   9  13  ar  
 18   9  30  1   
 19  10  14  1   
 20  10  31  1   
 21  10  32  1   
 22  11  14  1   
 23  11  33  1   
 24  11  34  1   
 25  12  15  ar  
 26  12  35  1   
 27  13  15  ar  
 28  13  36  1   
 29  14  16  1   
 30  14  37  1   
 31  15  17  1   
 32  16  18  1   
 33  16  19  1   
 34  16  38  1   
 35  17  20  1   
 36  18  21  1   
 37  18  39  1   
 38  18  40  1   
 39  19  22  1   
 40  19  41  1   
 41  19  42  1   
 42  20  43  1   
 43  20  44  1   
 44  20  45  1   
 45  21  23  1   
 46  21  46  1   
 47  21  47  1   
 48  22  24  1   
 49  22  48  1   
 50  22  49  1   
 51  23  24  1   
 52  23  50  1   
 53  23  51  1   
 54  24  52  1   
 55  24  53  1   
@<TRIPOS>SUBSTRUCTURE
  1 ****   7 GROUP 4 **** **** 0

# MOE 2024.06 (io_trps.svl 2023.06)
