@<TRIPOS>MOLECULE
NONAME
35 36 1 0 0 
SMALL
USER_CHARGES


@<TRIPOS>ATOM
  1 O        0.1940     0.0900    -0.7420 O.2   1 <1>  -0.5700 
  2 C        0.0070     0.8840     0.1470 C.2   1 <1>   0.6300 
  3 N        1.0010     1.5820     0.7570 N.am  1 <1>  -0.7300 
  4 C       -1.4110     1.1220     0.6280 C.3   1 <1>  -0.1000 
  5 C        2.4490     1.5430     0.4750 C.3   1 <1>   0.2200 
  6 C       -2.4270     1.6700    -0.3290 C.3   1 <1>  -0.0680 
  7 C       -1.9700     2.5010     0.8310 C.3   1 <1>  -0.2000 
  8 C        2.7160     1.9830    -0.9730 C.3   1 <1>  -0.1600 
  9 C        2.9910     0.1500     0.8000 C.3   1 <1>  -0.2400 
 10 C       -3.8160     1.0600    -0.3520 C.ar  1 <1>  -0.0320 
 11 C        4.2030     2.2340    -1.2640 C.3   1 <1>  -0.2400 
 12 C       -4.9350     1.8350    -0.0940 C.ar  1 <1>  -0.1500 
 13 C       -3.9710    -0.2870    -0.6400 C.ar  1 <1>  -0.1500 
 14 C       -6.1980     1.2670    -0.1160 C.ar  1 <1>  -0.1500 
 15 C       -5.2320    -0.8570    -0.6630 C.ar  1 <1>  -0.1500 
 16 C       -6.3470    -0.0790    -0.4000 C.ar  1 <1>  -0.1500 
 17 H        0.7330     2.2160     1.5080 H     1 <1>   0.3700 
 18 H       -1.7370     0.3440     1.2930 H     1 <1>   0.1000 
 19 H        2.9260     2.2510     1.1330 H     1 <1>   0.0800 
 20 H       -2.0800     1.9410    -1.3120 H     1 <1>   0.1000 
 21 H       -1.3600     3.3610     0.6200 H     1 <1>   0.1000 
 22 H       -2.6470     2.6620     1.6520 H     1 <1>   0.1000 
 23 H        2.1760     2.8940    -1.1630 H     1 <1>   0.0800 
 24 H        2.3500     1.2320    -1.6530 H     1 <1>   0.0800 
 25 H        2.6020    -0.5770     0.1100 H     1 <1>   0.0800 
 26 H        2.7160    -0.1300     1.8010 H     1 <1>   0.0800 
 27 H        4.0630     0.1410     0.7320 H     1 <1>   0.0800 
 28 H        4.6040     2.9650    -0.5850 H     1 <1>   0.0800 
 29 H        4.3190     2.6020    -2.2680 H     1 <1>   0.0800 
 30 H        4.7700     1.3240    -1.1750 H     1 <1>   0.0800 
 31 H       -4.8230     2.8810     0.1240 H     1 <1>   0.1500 
 32 H       -3.1030    -0.8900    -0.8480 H     1 <1>   0.1500 
 33 H       -7.0640     1.8730     0.0860 H     1 <1>   0.1500 
 34 H       -5.3440    -1.9030    -0.8860 H     1 <1>   0.1500 
 35 H       -7.3270    -0.5220    -0.4170 H     1 <1>   0.1500 
@<TRIPOS>BOND
  1   1   2  2   
  2   2   3  am  
  3   2   4  1   
  4   3   5  1   
  5   3  17  1   
  6   4   6  1   
  7   4   7  1   
  8   4  18  1   
  9   5   8  1   
 10   5   9  1   
 11   5  19  1   
 12   6   7  1   
 13   6  10  1   
 14   6  20  1   
 15   7  21  1   
 16   7  22  1   
 17   8  11  1   
 18   8  23  1   
 19   8  24  1   
 20   9  25  1   
 21   9  26  1   
 22   9  27  1   
 23  10  12  ar  
 24  10  13  ar  
 25  11  28  1   
 26  11  29  1   
 27  11  30  1   
 28  12  14  ar  
 29  12  31  1   
 30  13  15  ar  
 31  13  32  1   
 32  14  16  ar  
 33  14  33  1   
 34  15  16  ar  
 35  15  34  1   
 36  16  35  1   
@<TRIPOS>SUBSTRUCTURE
  1 ****   4 GROUP 4 **** **** 0

# MOE 2024.06 (io_trps.svl 2023.06)
