@<TRIPOS>MOLECULE
NONAME
55 58 1 0 0 
SMALL
USER_CHARGES


@<TRIPOS>ATOM
  1 O       -1.5350     0.0980     2.3830 O.2   1 <1>  -0.5700 
  2 C       -0.9340    -0.7630     1.7920 C.2   1 <1>   0.6590 
  3 O       -1.5250    -1.5100     0.8750 O.3   1 <1>  -0.4300 
  4 C        0.5560    -1.0100     1.9970 C.3   1 <1>  -0.0990 
  5 C       -2.8010    -1.2050     0.3530 C.3   1 <1>   0.3440 
  6 C        1.3430    -1.1650     0.6700 C.3   1 <1>  -0.2660 
  7 C       -3.5220    -2.5190     0.0490 C.ar  1 <1>  -0.1440 
  8 C       -2.7020    -0.2840    -0.9040 C.3   1 <1>   0.4230 
  9 C        0.8420    -0.2040    -0.3780 C.2   1 <1>   0.9060 
 10 C       -3.0370    -3.4790    -0.8750 C.ar  1 <1>   0.0000 
 11 C       -4.7060    -2.7910     0.6740 C.ar  1 <1>  -0.1500 
 12 N       -1.9620     1.0120    -0.7190 N.4   1 <1>  -0.9590 
 13 C       -4.1040     0.0610    -1.4770 C.3   1 <1>  -0.1600 
 14 O        0.6860     0.9800    -0.0760 O.co2 1 <1>  -0.9000 
 15 O        0.3730    -0.6300    -1.4340 O.co2 1 <1>  -0.9000 
 16 C       -3.8450    -4.6160    -1.1230 C.ar  1 <1>   0.3100 
 17 C       -1.8040    -3.3900    -1.5650 C.ar  1 <1>  -0.1500 
 18 C       -5.4130    -3.9610     0.3740 C.ar  1 <1>   0.1600 
 19 C       -2.6920     1.9950     0.1300 C.3   1 <1>   0.3430 
 20 C       -1.6770     1.5940    -2.0570 C.3   1 <1>   0.3430 
 21 C       -4.2030     1.5570    -1.8550 C.3   1 <1>  -0.0800 
 22 N       -5.0240    -4.8400    -0.4920 N.ar  1 <1>  -0.6200 
 23 C       -3.4170    -5.5670    -2.0640 C.ar  1 <1>  -0.1500 
 24 C       -1.4140    -4.3350    -2.4720 C.ar  1 <1>  -0.1500 
 25 C       -4.0290     2.3860    -0.5550 C.3   1 <1>   0.0580 
 26 C       -3.0090     1.8560    -2.7890 C.3   1 <1>  -0.1600 
 27 C       -2.2310    -5.4360    -2.7330 C.ar  1 <1>  -0.1500 
 28 C       -4.1550     3.8790    -0.8560 C.2   1 <1>  -0.2880 
 29 C       -3.2210     4.8310    -0.7430 C.2   1 <1>  -0.3000 
 30 H        0.6880    -1.8840     2.6060 H     1 <1>   0.0800 
 31 H        0.9510    -0.1650     2.5320 H     1 <1>   0.0800 
 32 H       -3.3600    -0.6890     1.1120 H     1 <1>   0.0800 
 33 H        1.2190    -2.1610     0.2870 H     1 <1>   0.0800 
 34 H        2.3890    -0.9870     0.8280 H     1 <1>   0.0800 
 35 H       -2.1720    -0.8430    -1.6560 H     1 <1>   0.0800 
 36 H       -5.1320    -2.1270     1.4040 H     1 <1>   0.1500 
 37 H       -0.9980     0.8350    -0.3350 H     1 <1>   0.4500 
 38 H       -4.8770    -0.1780    -0.7680 H     1 <1>   0.0800 
 39 H       -4.2780    -0.5540    -2.3430 H     1 <1>   0.0800 
 40 H       -1.1360    -2.5710    -1.3760 H     1 <1>   0.1500 
 41 H       -6.3410    -4.1390     0.8910 H     1 <1>   0.1500 
 42 H       -2.0720     2.8600     0.2800 H     1 <1>   0.0800 
 43 H       -2.8860     1.5650     1.0980 H     1 <1>   0.0800 
 44 H       -1.0600     0.9110    -2.6210 H     1 <1>   0.0800 
 45 H       -1.1270     2.5130    -1.9360 H     1 <1>   0.0800 
 46 H       -5.1420     1.7750    -2.3360 H     1 <1>   0.0800 
 47 H       -4.0590    -6.4110    -2.2410 H     1 <1>   0.1500 
 48 H       -0.4730    -4.2400    -2.9880 H     1 <1>   0.1500 
 49 H       -4.8220     2.1380     0.1300 H     1 <1>   0.0800 
 50 H       -3.0550     1.2350    -3.6660 H     1 <1>   0.0800 
 51 H       -3.0310     2.8780    -3.1240 H     1 <1>   0.0800 
 52 H       -1.9140    -6.1720    -3.4520 H     1 <1>   0.1500 
 53 H       -5.1460     4.1250    -1.2010 H     1 <1>   0.1500 
 54 H       -3.4070     5.8660    -0.9800 H     1 <1>   0.1500 
 55 H       -2.2050     4.6930    -0.4160 H     1 <1>   0.1500 
@<TRIPOS>BOND
  1   1   2  2   
  2   2   3  1   
  3   2   4  1   
  4   3   5  1   
  5   4   6  1   
  6   4  30  1   
  7   4  31  1   
  8   5   7  1   
  9   5   8  1   
 10   5  32  1   
 11   6   9  1   
 12   6  33  1   
 13   6  34  1   
 14   7  10  ar  
 15   7  11  ar  
 16   8  12  1   
 17   8  13  1   
 18   8  35  1   
 19   9  14  ar  
 20   9  15  ar  
 21  10  16  ar  
 22  10  17  ar  
 23  11  18  ar  
 24  11  36  1   
 25  12  19  1   
 26  12  20  1   
 27  12  37  1   
 28  13  21  1   
 29  13  38  1   
 30  13  39  1   
 31  16  22  ar  
 32  16  23  ar  
 33  17  24  ar  
 34  17  40  1   
 35  18  22  ar  
 36  18  41  1   
 37  19  25  1   
 38  19  42  1   
 39  19  43  1   
 40  20  26  1   
 41  20  44  1   
 42  20  45  1   
 43  21  25  1   
 44  21  26  1   
 45  21  46  1   
 46  23  27  ar  
 47  23  47  1   
 48  24  27  ar  
 49  24  48  1   
 50  25  28  1   
 51  25  49  1   
 52  26  50  1   
 53  26  51  1   
 54  27  52  1   
 55  28  29  2   
 56  28  53  1   
 57  29  54  1   
 58  29  55  1   
@<TRIPOS>SUBSTRUCTURE
  1 ****   8 GROUP 4 **** **** 0

# MOE 2024.06 (io_trps.svl 2023.06)
