@<TRIPOS>MOLECULE
NONAME
41 42 1 0 0 
SMALL
USER_CHARGES


@<TRIPOS>ATOM
  1 O        0.1180    -2.4370    -1.8670 O.2   1 <1>  -0.5700 
  2 C        0.1120    -2.3160    -0.6700 C.2   1 <1>   0.6590 
  3 O       -0.9070    -1.7910    -0.0070 O.3   1 <1>  -0.4300 
  4 C        1.3000    -2.7650     0.1760 C.3   1 <1>  -0.0190 
  5 C       -2.0610    -1.3360    -0.6760 C.3   1 <1>   0.1200 
  6 C        2.5350    -1.8890    -0.1040 C.3   1 <1>  -0.1600 
  7 C        1.6320    -4.2490    -0.0750 C.3   1 <1>  -0.1600 
  8 C       -3.0300    -0.7930     0.3700 C.3   1 <1>  -0.2400 
  9 C        3.7720    -2.3790     0.6460 C.3   1 <1>   0.3430 
 10 C        2.8850    -4.6920     0.6770 C.3   1 <1>   0.3430 
 11 N        4.0260    -3.8110     0.3070 N.4   1 <1>  -0.9590 
 12 C        5.3040    -4.2980     0.8980 C.3   1 <1>   0.4860 
 13 C        6.4510    -3.5020     0.3070 C.ar  1 <1>  -0.1440 
 14 C        7.0900    -2.5330     1.0710 C.ar  1 <1>  -0.1500 
 15 C        6.8700    -3.7310    -0.9990 C.ar  1 <1>  -0.1500 
 16 C        8.1250    -1.7920     0.5310 C.ar  1 <1>  -0.1500 
 17 C        7.9060    -2.9910    -1.5400 C.ar  1 <1>  -0.1500 
 18 C        8.5280    -2.0210    -0.7720 C.ar  1 <1>   0.0820 
 19 O        9.5310    -1.2910    -1.2790 O.3   1 <1>  -0.5330 
 20 H        1.0260    -2.6490     1.2100 H     1 <1>   0.0800 
 21 H       -2.4950    -2.1630    -1.2130 H     1 <1>   0.0800 
 22 H       -1.7730    -0.5660    -1.3720 H     1 <1>   0.0800 
 23 H        2.3260    -0.8740     0.1900 H     1 <1>   0.0800 
 24 H        2.7450    -1.8750    -1.1610 H     1 <1>   0.0800 
 25 H        1.7740    -4.4220    -1.1290 H     1 <1>   0.0800 
 26 H        0.8010    -4.8570     0.2370 H     1 <1>   0.0800 
 27 H       -3.3040    -1.5690     1.0620 H     1 <1>   0.0800 
 28 H       -3.9220    -0.4380    -0.1140 H     1 <1>   0.0800 
 29 H       -2.5820     0.0270     0.9030 H     1 <1>   0.0800 
 30 H        3.6180    -2.2740     1.7080 H     1 <1>   0.0800 
 31 H        4.6200    -1.7730     0.3640 H     1 <1>   0.0800 
 32 H        3.1090    -5.7170     0.4240 H     1 <1>   0.0800 
 33 H        2.7070    -4.6360     1.7390 H     1 <1>   0.0800 
 34 H        4.1470    -3.8490    -0.7130 H     1 <1>   0.4500 
 35 H        5.4450    -5.3420     0.6680 H     1 <1>   0.0800 
 36 H        5.2890    -4.1830     1.9690 H     1 <1>   0.0800 
 37 H        6.7970    -2.3430     2.0900 H     1 <1>   0.1500 
 38 H        6.4020    -4.4870    -1.6070 H     1 <1>   0.1500 
 39 H        8.6300    -1.0380     1.1100 H     1 <1>   0.1500 
 40 H        8.2280    -3.1700    -2.5500 H     1 <1>   0.1500 
 41 H        9.7740    -1.5340    -2.1900 H     1 <1>   0.4500 
@<TRIPOS>BOND
  1   1   2  2   
  2   2   3  1   
  3   2   4  1   
  4   3   5  1   
  5   4   6  1   
  6   4   7  1   
  7   4  20  1   
  8   5   8  1   
  9   5  21  1   
 10   5  22  1   
 11   6   9  1   
 12   6  23  1   
 13   6  24  1   
 14   7  10  1   
 15   7  25  1   
 16   7  26  1   
 17   8  27  1   
 18   8  28  1   
 19   8  29  1   
 20   9  11  1   
 21   9  30  1   
 22   9  31  1   
 23  10  11  1   
 24  10  32  1   
 25  10  33  1   
 26  11  12  1   
 27  11  34  1   
 28  12  13  1   
 29  12  35  1   
 30  12  36  1   
 31  13  14  ar  
 32  13  15  ar  
 33  14  16  ar  
 34  14  37  1   
 35  15  17  ar  
 36  15  38  1   
 37  16  18  ar  
 38  16  39  1   
 39  17  18  ar  
 40  17  40  1   
 41  18  19  1   
 42  19  41  1   
@<TRIPOS>SUBSTRUCTURE
  1 ****   9 GROUP 4 **** **** 0

# MOE 2024.06 (io_trps.svl 2023.06)
