@<TRIPOS>MOLECULE
NONAME
45 48 1 0 0 
SMALL
USER_CHARGES


@<TRIPOS>ATOM
  1 N       -0.0140    -0.3160    -0.9550 N.pl3 1 <1>   0.0330 
  2 C       -0.7270    -1.3910    -0.4960 C.ar  1 <1>  -0.1520 
  3 C        1.3160    -0.5790    -0.7800 C.2   1 <1>  -0.3020 
  4 C        0.1700    -2.3440    -0.0250 C.ar  1 <1>   0.0000 
  5 C       -2.1050    -1.6140    -0.4530 C.ar  1 <1>  -0.1500 
  6 C        1.4630    -1.8040    -0.2160 C.2   1 <1>  -0.1810 
  7 C       -0.3180    -3.5460     0.5010 C.ar  1 <1>  -0.1500 
  8 C       -2.5700    -2.8000     0.0660 C.ar  1 <1>  -0.1500 
  9 C        2.7210    -2.5500     0.1760 C.3   1 <1>   0.0210 
 10 C       -1.6760    -3.7660     0.5430 C.ar  1 <1>  -0.1500 
 11 C        3.9620    -1.7140    -0.1270 C.3   1 <1>   0.3430 
 12 N        5.2070    -2.4420     0.2590 N.4   1 <1>  -0.9060 
 13 C        6.4480    -1.6840    -0.0400 C.3   1 <1>   0.4230 
 14 C        7.6540    -2.6270     0.0190 C.3   1 <1>  -0.0170 
 15 C        6.6230    -0.5420     0.9650 C.3   1 <1>  -0.1600 
 16 C        8.9660    -1.8670    -0.0890 C.ar  1 <1>  -0.1430 
 17 C        7.8250     0.3230     0.5680 C.3   1 <1>  -0.0170 
 18 C        9.0430    -0.5040     0.1780 C.ar  1 <1>  -0.1430 
 19 C       10.1100    -2.5630    -0.4500 C.ar  1 <1>  -0.1500 
 20 C       10.2650     0.1420     0.0750 C.ar  1 <1>  -0.1500 
 21 C       11.3250    -1.9100    -0.5500 C.ar  1 <1>  -0.1500 
 22 C       11.4030    -0.5560    -0.2870 C.ar  1 <1>  -0.1500 
 23 H       -0.4310     0.5310    -1.3590 H     1 <1>   0.2700 
 24 H        2.0550     0.1440    -1.0770 H     1 <1>   0.1500 
 25 H       -2.7850    -0.8670    -0.8220 H     1 <1>   0.1500 
 26 H        0.3680    -4.2860     0.8660 H     1 <1>   0.1500 
 27 H       -3.6260    -2.9970     0.1110 H     1 <1>   0.1500 
 28 H        2.7530    -3.4730    -0.3750 H     1 <1>   0.0800 
 29 H        2.6710    -2.7680     1.2290 H     1 <1>   0.0800 
 30 H       -2.0660    -4.6850     0.9450 H     1 <1>   0.1500 
 31 H        3.8910    -0.7840     0.4160 H     1 <1>   0.0800 
 32 H        3.9790    -1.4860    -1.1810 H     1 <1>   0.0800 
 33 H        5.2390    -3.3350    -0.2470 H     1 <1>   0.4500 
 34 H        5.1890    -2.6610     1.2620 H     1 <1>   0.4500 
 35 H        6.3920    -1.2690    -1.0350 H     1 <1>   0.0800 
 36 H        7.5950    -3.3340    -0.7890 H     1 <1>   0.0800 
 37 H        7.6630    -3.1630     0.9510 H     1 <1>   0.0800 
 38 H        6.8020    -0.9440     1.9480 H     1 <1>   0.0800 
 39 H        5.7550     0.0900     1.0020 H     1 <1>   0.0800 
 40 H        8.0810     0.9750     1.3860 H     1 <1>   0.0800 
 41 H        7.5610     0.9450    -0.2710 H     1 <1>   0.0800 
 42 H       10.0700    -3.6180    -0.6550 H     1 <1>   0.1500 
 43 H       10.3430     1.1970     0.2760 H     1 <1>   0.1500 
 44 H       12.2100    -2.4550    -0.8310 H     1 <1>   0.1500 
 45 H       12.3480    -0.0460    -0.3630 H     1 <1>   0.1500 
@<TRIPOS>BOND
  1   1   2  1   
  2   1   3  1   
  3   1  23  1   
  4   2   4  ar  
  5   2   5  ar  
  6   3   6  2   
  7   3  24  1   
  8   4   6  1   
  9   4   7  ar  
 10   5   8  ar  
 11   5  25  1   
 12   6   9  1   
 13   7  10  ar  
 14   7  26  1   
 15   8  10  ar  
 16   8  27  1   
 17   9  11  1   
 18   9  28  1   
 19   9  29  1   
 20  10  30  1   
 21  11  12  1   
 22  11  31  1   
 23  11  32  1   
 24  12  13  1   
 25  12  33  1   
 26  12  34  1   
 27  13  14  1   
 28  13  15  1   
 29  13  35  1   
 30  14  16  1   
 31  14  36  1   
 32  14  37  1   
 33  15  17  1   
 34  15  38  1   
 35  15  39  1   
 36  16  18  ar  
 37  16  19  ar  
 38  17  18  1   
 39  17  40  1   
 40  17  41  1   
 41  18  20  ar  
 42  19  21  ar  
 43  19  42  1   
 44  20  22  ar  
 45  20  43  1   
 46  21  22  ar  
 47  21  44  1   
 48  22  45  1   
@<TRIPOS>SUBSTRUCTURE
  1 ****  11 GROUP 4 **** **** 0

# MOE 2024.06 (io_trps.svl 2023.06)
