@<TRIPOS>MOLECULE
NONAME
36 37 1 0 0 
SMALL
USER_CHARGES


@<TRIPOS>ATOM
  1 O       -1.1930     0.5310     0.0310 O.2   1 <1>  -0.5700 
  2 C       -1.2830     1.5640    -0.6050 C.2   1 <1>   0.7160 
  3 N       -2.4440     1.7610    -1.3190 N.am  1 <1>  -0.6600 
  4 C       -0.2540     2.5780    -0.5590 C.2   1 <1>  -0.0860 
  5 C       -3.2440     0.5760    -1.7490 C.3   1 <1>   0.1400 
  6 C       -3.2740     2.9690    -1.0500 C.3   1 <1>   0.1400 
  7 C        0.6990     2.8320     0.3830 C.2   1 <1>  -0.0400 
  8 C       -0.0240     3.5590    -1.5500 C.2   1 <1>  -0.1500 
  9 C       -4.2920     0.2370    -0.6730 C.3   1 <1>   0.3430 
 10 C       -4.3540     2.6450     0.0050 C.3   1 <1>   0.3430 
 11 O        1.4360     3.8610     0.0420 O.3   1 <1>  -0.2800 
 12 C        1.0270     2.1480     1.6960 C.3   1 <1>  -0.0600 
 13 C        1.0130     4.3030    -1.1200 C.2   1 <1>  -0.0100 
 14 N       -5.1660     1.4220    -0.3480 N.4   1 <1>  -0.9590 
 15 C       -6.1390     1.0790     0.7110 C.3   1 <1>   0.4810 
 16 C       -7.2350     2.1170     0.6590 C.2   1 <1>  -0.2880 
 17 C       -8.4520     1.9270     0.1380 C.2   1 <1>  -0.3000 
 18 H       -2.5930    -0.2700    -1.8950 H     1 <1>   0.0800 
 19 H       -3.7250     0.7840    -2.6880 H     1 <1>   0.0800 
 20 H       -3.7370     3.2990    -1.9640 H     1 <1>   0.0800 
 21 H       -2.6570     3.7740    -0.6860 H     1 <1>   0.0800 
 22 H       -0.5790     3.6600    -2.4650 H     1 <1>   0.1500 
 23 H       -3.7660    -0.0840     0.2130 H     1 <1>   0.0800 
 24 H       -4.8960    -0.5870    -1.0170 H     1 <1>   0.0800 
 25 H       -5.0040     3.4980     0.1140 H     1 <1>   0.0800 
 26 H       -3.8610     2.4860     0.9510 H     1 <1>   0.0800 
 27 H        0.3540     1.3350     1.8920 H     1 <1>   0.0800 
 28 H        0.9600     2.8570     2.5000 H     1 <1>   0.0800 
 29 H        2.0300     1.7630     1.6580 H     1 <1>   0.0800 
 30 H        1.5110     5.1460    -1.5660 H     1 <1>   0.1500 
 31 H       -5.7300     1.6470    -1.1780 H     1 <1>   0.4500 
 32 H       -5.6710     1.0570     1.6820 H     1 <1>   0.0800 
 33 H       -6.5670     0.1090     0.5120 H     1 <1>   0.0800 
 34 H       -6.9500     3.0570     1.1020 H     1 <1>   0.1500 
 35 H       -9.2210     2.6830     0.1190 H     1 <1>   0.1500 
 36 H       -8.8010     1.0100    -0.3100 H     1 <1>   0.1500 
@<TRIPOS>BOND
  1   1   2  2   
  2   2   3  am  
  3   2   4  1   
  4   3   5  1   
  5   3   6  1   
  6   4   7  2   
  7   4   8  1   
  8   5   9  1   
  9   5  18  1   
 10   5  19  1   
 11   6  10  1   
 12   6  20  1   
 13   6  21  1   
 14   7  11  1   
 15   7  12  1   
 16   8  13  2   
 17   8  22  1   
 18   9  14  1   
 19   9  23  1   
 20   9  24  1   
 21  10  14  1   
 22  10  25  1   
 23  10  26  1   
 24  11  13  1   
 25  12  27  1   
 26  12  28  1   
 27  12  29  1   
 28  13  30  1   
 29  14  15  1   
 30  14  31  1   
 31  15  16  1   
 32  15  32  1   
 33  15  33  1   
 34  16  17  2   
 35  16  34  1   
 36  17  35  1   
 37  17  36  1   
@<TRIPOS>SUBSTRUCTURE
  1 ****   3 GROUP 4 **** **** 0

# MOE 2024.06 (io_trps.svl 2023.06)
