@<TRIPOS>MOLECULE
NONAME
37 37 1 0 0 
SMALL
USER_CHARGES


@<TRIPOS>ATOM
  1 O        0.5930     0.1770    -0.7330 O.3   1 <1>  -0.5600 
  2 C        1.5400    -0.6670    -0.1760 C.3   1 <1>   0.1200 
  3 C       -0.7150    -0.3030    -0.6780 C.3   1 <1>   0.0400 
  4 C        2.8970     0.0250    -0.3280 C.3   1 <1>   0.3430 
  5 N        4.0090    -0.7980     0.2380 N.4   1 <1>  -0.9060 
  6 C        5.3260    -0.1410     0.1000 C.3   1 <1>   0.4230 
  7 C        6.4230    -1.1800     0.3560 C.3   1 <1>  -0.1600 
  8 C        5.4120     1.0700     1.0470 C.3   1 <1>  -0.1600 
  9 C        7.6980    -0.9130    -0.4630 C.3   1 <1>  -0.1600 
 10 C        5.5710     2.3820     0.2670 C.3   1 <1>  -0.1600 
 11 C        8.3520     0.4610    -0.2400 C.3   1 <1>  -0.1600 
 12 C        7.0190     2.6850    -0.1530 C.3   1 <1>  -0.1600 
 13 C        7.7090     1.6220    -1.0290 C.3   1 <1>  -0.1600 
 14 H        1.5180    -1.6010    -0.7120 H     1 <1>   0.0800 
 15 H        1.2940    -0.8140     0.8620 H     1 <1>   0.0800 
 16 H       -1.3600     0.4270    -1.1350 H     1 <1>   0.0800 
 17 H       -1.0040    -0.4430     0.3500 H     1 <1>   0.0800 
 18 H       -0.7810    -1.2300    -1.2210 H     1 <1>   0.0800 
 19 H        2.8530     0.9770     0.1750 H     1 <1>   0.0800 
 20 H        3.0750     0.2040    -1.3760 H     1 <1>   0.0800 
 21 H        4.0490    -1.7000    -0.2480 H     1 <1>   0.4500 
 22 H        3.8470    -0.9880     1.2330 H     1 <1>   0.4500 
 23 H        5.4290     0.2000    -0.9180 H     1 <1>   0.0800 
 24 H        6.0780    -2.1590     0.0750 H     1 <1>   0.0800 
 25 H        6.6730    -1.2160     1.4030 H     1 <1>   0.0800 
 26 H        6.2420     0.9780     1.7260 H     1 <1>   0.0800 
 27 H        4.5300     1.1410     1.6580 H     1 <1>   0.0800 
 28 H        7.4980    -1.0470    -1.5130 H     1 <1>   0.0800 
 29 H        8.4200    -1.6660    -0.1920 H     1 <1>   0.0800 
 30 H        5.2460     3.1930     0.8980 H     1 <1>   0.0800 
 31 H        4.9330     2.3880    -0.6000 H     1 <1>   0.0800 
 32 H        9.3710     0.3770    -0.5840 H     1 <1>   0.0800 
 33 H        8.4160     0.6840     0.8110 H     1 <1>   0.0800 
 34 H        7.6180     2.8750     0.7210 H     1 <1>   0.0800 
 35 H        7.0010     3.6060    -0.7110 H     1 <1>   0.0800 
 36 H        7.0440     1.2690    -1.7980 H     1 <1>   0.0800 
 37 H        8.5100     2.1270    -1.5440 H     1 <1>   0.0800 
@<TRIPOS>BOND
  1   1   2  1   
  2   1   3  1   
  3   2   4  1   
  4   2  14  1   
  5   2  15  1   
  6   3  16  1   
  7   3  17  1   
  8   3  18  1   
  9   4   5  1   
 10   4  19  1   
 11   4  20  1   
 12   5   6  1   
 13   5  21  1   
 14   5  22  1   
 15   6   7  1   
 16   6   8  1   
 17   6  23  1   
 18   7   9  1   
 19   7  24  1   
 20   7  25  1   
 21   8  10  1   
 22   8  26  1   
 23   8  27  1   
 24   9  11  1   
 25   9  28  1   
 26   9  29  1   
 27  10  12  1   
 28  10  30  1   
 29  10  31  1   
 30  11  13  1   
 31  11  32  1   
 32  11  33  1   
 33  12  13  1   
 34  12  34  1   
 35  12  35  1   
 36  13  36  1   
 37  13  37  1   
@<TRIPOS>SUBSTRUCTURE
  1 ****   6 GROUP 4 **** **** 0

# MOE 2024.06 (io_trps.svl 2023.06)
