@<TRIPOS>MOLECULE
NONAME
42 45 1 0 0 
SMALL
USER_CHARGES


@<TRIPOS>ATOM
  1 O        0.9940     0.1290     0.6400 O.co2 1 <1>  -0.9000 
  2 C        1.9560     0.5430     1.2900 C.2   1 <1>   0.9060 
  3 O        1.8300     1.3550     2.2170 O.co2 1 <1>  -0.9000 
  4 C        3.3610     0.0240     1.0020 C.3   1 <1>  -0.1860 
  5 C        4.1430     0.6990    -0.3350 C.3   1 <1>  -0.0190 
  6 C        3.4270    -1.6090     0.8560 C.3   1 <1>  -0.0800 
  7 C        3.4580     1.9130    -1.0100 C.2   1 <1>   0.5690 
  8 C        4.5440    -0.5530    -1.3330 C.3   1 <1>  -0.0800 
  9 C        4.0080    -1.0820    -0.2250 C.3   1 <1>  -0.1600 
 10 C        3.8670    -2.8350    -0.1300 C.3   1 <1>  -0.1600 
 11 O        3.0330     1.7780    -2.1360 O.2   1 <1>  -0.5700 
 12 N        3.4270     3.1500    -0.3870 N.am  1 <1>  -0.4770 
 13 C        4.6720    -2.1770    -1.4360 C.3   1 <1>  -0.1600 
 14 C        2.7280     4.2920    -0.8130 C.ar  1 <1>   0.1170 
 15 C        3.8700     3.4070     1.0130 C.3   1 <1>   0.2200 
 16 C        2.4210     5.1210     0.2450 C.ar  1 <1>  -0.1440 
 17 C        2.3530     4.6700    -2.0970 C.ar  1 <1>  -0.1500 
 18 C        2.9150     4.4990     1.5260 C.3   1 <1>  -0.0170 
 19 C        5.3210     3.9040     0.9900 C.3   1 <1>  -0.2400 
 20 C        1.7530     6.3170     0.0660 C.ar  1 <1>  -0.1500 
 21 C        1.6840     5.8670    -2.2940 C.ar  1 <1>  -0.1500 
 22 C        1.3850     6.6900    -1.2170 C.ar  1 <1>  -0.1500 
 23 H        3.9300     0.2950     1.8760 H     1 <1>   0.0800 
 24 H        5.0790     1.0950     0.0220 H     1 <1>   0.0800 
 25 H        3.9860    -1.8620     1.7460 H     1 <1>   0.0800 
 26 H        3.9440    -0.3700    -2.2120 H     1 <1>   0.0800 
 27 H        2.9540    -1.0520    -0.7470 H     1 <1>   0.0800 
 28 H        5.0510    -1.0910     0.3160 H     1 <1>   0.0800 
 29 H        2.9850    -3.3600    -0.4650 H     1 <1>   0.0800 
 30 H        4.4940    -3.5450     0.3860 H     1 <1>   0.0800 
 31 H        5.7110    -2.4700    -1.4210 H     1 <1>   0.0800 
 32 H        4.2450    -2.5380    -2.3580 H     1 <1>   0.0800 
 33 H        3.7950     2.5370     1.6310 H     1 <1>   0.0800 
 34 H        2.5840     4.0330    -2.9300 H     1 <1>   0.1500 
 35 H        3.4020     5.2050     2.1720 H     1 <1>   0.0800 
 36 H        2.0930     4.0370     2.0460 H     1 <1>   0.0800 
 37 H        5.4000     4.8000     0.4000 H     1 <1>   0.0800 
 38 H        5.9690     3.1540     0.5790 H     1 <1>   0.0800 
 39 H        5.6460     4.1210     1.9910 H     1 <1>   0.0800 
 40 H        1.5210     6.9420     0.9090 H     1 <1>   0.1500 
 41 H        1.3930     6.1550    -3.2890 H     1 <1>   0.1500 
 42 H        0.8620     7.6160    -1.3780 H     1 <1>   0.1500 
@<TRIPOS>BOND
  1   1   2  ar  
  2   2   3  ar  
  3   2   4  1   
  4   4   5  1   
  5   4   6  1   
  6   4  23  1   
  7   5   7  1   
  8   5   8  1   
  9   5  24  1   
 10   6   9  1   
 11   6  10  1   
 12   6  25  1   
 13   7  11  2   
 14   7  12  am  
 15   8   9  1   
 16   8  13  1   
 17   8  26  1   
 18   9  27  1   
 19   9  28  1   
 20  10  13  1   
 21  10  29  1   
 22  10  30  1   
 23  12  14  1   
 24  12  15  1   
 25  13  31  1   
 26  13  32  1   
 27  14  16  ar  
 28  14  17  ar  
 29  15  18  1   
 30  15  19  1   
 31  15  33  1   
 32  16  18  1   
 33  16  20  ar  
 34  17  21  ar  
 35  17  34  1   
 36  18  35  1   
 37  18  36  1   
 38  19  37  1   
 39  19  38  1   
 40  19  39  1   
 41  20  22  ar  
 42  20  40  1   
 43  21  22  ar  
 44  21  41  1   
 45  22  42  1   
@<TRIPOS>SUBSTRUCTURE
  1 ****   7 GROUP 4 **** **** 0

# MOE 2024.06 (io_trps.svl 2023.06)
