@<TRIPOS>MOLECULE
NONAME
48 50 1 0 0 
SMALL
USER_CHARGES


@<TRIPOS>ATOM
  1 S       -0.0180    -0.4530     1.6850 S.o2  1 <1>   1.4470 
  2 O       -0.6060    -1.6300     2.2890 O.2   1 <1>  -0.6500 
  3 O        0.4270     0.6170     2.5530 O.2   1 <1>  -0.6500 
  4 N       -1.1800     0.2250     0.6530 N.am  1 <1>  -0.8490 
  5 C        1.3260    -0.9420     0.5510 C.ar  1 <1>  -0.0090 
  6 C       -0.7300     1.5000     0.0830 C.3   1 <1>   0.1960 
  7 C       -2.4660     0.3830     1.3370 C.3   1 <1>   0.1960 
  8 C        1.2020    -1.9680    -0.3910 C.ar  1 <1>  -0.1440 
  9 C        2.5330    -0.2540     0.6010 C.ar  1 <1>  -0.1500 
 10 C       -1.7360     1.9960    -0.9600 C.3   1 <1>  -0.1600 
 11 C       -3.5400     0.8490     0.3480 C.3   1 <1>  -0.1600 
 12 C        2.2610    -2.2700    -1.2320 C.ar  1 <1>  -0.1500 
 13 C       -0.0820    -2.7780    -0.5310 C.3   1 <1>  -0.0970 
 14 C        3.6110    -0.5400    -0.2330 C.ar  1 <1>   0.0860 
 15 C       -3.1350     2.1510    -0.3530 C.3   1 <1>  -0.1600 
 16 C        3.4450    -1.5670    -1.1580 C.ar  1 <1>  -0.1500 
 17 C        4.8460     0.2130    -0.1360 C.2   1 <1>   0.5440 
 18 O        4.8140     1.4020     0.1060 O.2   1 <1>  -0.5700 
 19 N        6.0470    -0.4390    -0.2950 N.am  1 <1>  -0.5470 
 20 C        7.3640     0.0430    -0.3600 C.ar  1 <1>   0.1170 
 21 C        8.4050    -0.8280    -0.0680 C.ar  1 <1>  -0.1500 
 22 C        7.6790     1.3500    -0.7260 C.ar  1 <1>  -0.1500 
 23 C        9.7180    -0.4030    -0.1350 C.ar  1 <1>   0.0820 
 24 C        8.9940     1.7770    -0.7910 C.ar  1 <1>  -0.1500 
 25 O       10.7020    -1.2690     0.1540 O.3   1 <1>  -0.5330 
 26 C       10.0230     0.9000    -0.4950 C.ar  1 <1>  -0.1500 
 27 H        0.2270     1.3710    -0.3940 H     1 <1>   0.0800 
 28 H       -0.6210     2.2360     0.8630 H     1 <1>   0.0800 
 29 H       -2.3670     1.0940     2.1420 H     1 <1>   0.0800 
 30 H       -2.7740    -0.5600     1.7590 H     1 <1>   0.0800 
 31 H        2.6520     0.5450     1.3160 H     1 <1>   0.1500 
 32 H       -1.7670     1.2930    -1.7740 H     1 <1>   0.0800 
 33 H       -1.4060     2.9410    -1.3540 H     1 <1>   0.0800 
 34 H       -4.4680     0.9930     0.8720 H     1 <1>   0.0800 
 35 H       -3.6930     0.0740    -0.3830 H     1 <1>   0.0800 
 36 H        2.1650    -3.0590    -1.9600 H     1 <1>   0.1500 
 37 H       -0.9250    -2.1280    -0.6830 H     1 <1>   0.0800 
 38 H       -0.2500    -3.3640     0.3550 H     1 <1>   0.0800 
 39 H       -0.0290    -3.4490    -1.3690 H     1 <1>   0.0800 
 40 H       -3.8470     2.3930    -1.1220 H     1 <1>   0.0800 
 41 H       -3.1270     2.9550     0.3640 H     1 <1>   0.0800 
 42 H        4.2450    -1.8120    -1.8350 H     1 <1>   0.1500 
 43 H        5.9760    -1.4540    -0.2810 H     1 <1>   0.3700 
 44 H        8.2060    -1.8430     0.2180 H     1 <1>   0.1500 
 45 H        6.8930     2.0430    -0.9650 H     1 <1>   0.1500 
 46 H        9.2130     2.7920    -1.0730 H     1 <1>   0.1500 
 47 H       11.5880    -0.8720     0.0910 H     1 <1>   0.4500 
 48 H       11.0430     1.2330    -0.5460 H     1 <1>   0.1500 
@<TRIPOS>BOND
  1   1   2  2   
  2   1   3  2   
  3   1   4  am  
  4   1   5  1   
  5   4   6  1   
  6   4   7  1   
  7   5   8  ar  
  8   5   9  ar  
  9   6  10  1   
 10   6  27  1   
 11   6  28  1   
 12   7  11  1   
 13   7  29  1   
 14   7  30  1   
 15   8  12  ar  
 16   8  13  1   
 17   9  14  ar  
 18   9  31  1   
 19  10  15  1   
 20  10  32  1   
 21  10  33  1   
 22  11  15  1   
 23  11  34  1   
 24  11  35  1   
 25  12  16  ar  
 26  12  36  1   
 27  13  37  1   
 28  13  38  1   
 29  13  39  1   
 30  14  16  ar  
 31  14  17  1   
 32  15  40  1   
 33  15  41  1   
 34  16  42  1   
 35  17  18  2   
 36  17  19  am  
 37  19  20  1   
 38  19  43  1   
 39  20  21  ar  
 40  20  22  ar  
 41  21  23  ar  
 42  21  44  1   
 43  22  24  ar  
 44  22  45  1   
 45  23  25  1   
 46  23  26  ar  
 47  24  26  ar  
 48  24  46  1   
 49  25  47  1   
 50  26  48  1   
@<TRIPOS>SUBSTRUCTURE
  1 ****   9 GROUP 4 **** **** 0

# MOE 2024.06 (io_trps.svl 2023.06)
