@<TRIPOS>MOLECULE
NONAME
27 27 1 0 0 
SMALL
USER_CHARGES


@<TRIPOS>ATOM
  1 S       -0.1240    -0.0870     0.2020 S.3   1 <1>  -0.3710 
  2 C       -1.5770     0.8140    -0.3450 C.2   1 <1>   0.6510 
  3 C        1.2910     1.0540    -0.1340 C.3   1 <1>   0.1500 
  4 N       -1.3950     1.9720    -0.8580 N.2   1 <1>  -0.6210 
  5 N       -2.7880     0.1750    -0.1670 N.am  1 <1>  -0.4200 
  6 C        2.5340     0.1730    -0.3260 C.3   1 <1>  -0.1600 
  7 C        1.3920     2.0130     1.0560 C.3   1 <1>  -0.2400 
  8 C       -2.4990     2.6620    -1.2740 C.2   1 <1>   0.0210 
  9 C       -3.9220     0.8600    -0.5850 C.2   1 <1>   0.6160 
 10 C       -2.8830    -1.1800     0.4450 C.3   1 <1>   0.0600 
 11 C        3.7820     0.9710    -0.7300 C.3   1 <1>  -0.2400 
 12 O       -2.3200     3.7780    -1.7650 O.3   1 <1>  -0.8500 
 13 C       -3.7600     2.1150    -1.1420 C.2   1 <1>  -0.1360 
 14 O       -5.0380     0.3270    -0.4450 O.2   1 <1>  -0.5700 
 15 H        1.0670     1.5890    -1.0420 H     1 <1>   0.0800 
 16 H        2.3220    -0.5440    -1.1000 H     1 <1>   0.0800 
 17 H        2.7320    -0.3690     0.5820 H     1 <1>   0.0800 
 18 H        1.5960     1.4730     1.9620 H     1 <1>   0.0800 
 19 H        0.4650     2.5480     1.1660 H     1 <1>   0.0800 
 20 H        2.1690     2.7350     0.8900 H     1 <1>   0.0800 
 21 H       -2.3270    -1.8820    -0.1500 H     1 <1>   0.0800 
 22 H       -3.9040    -1.5130     0.5020 H     1 <1>   0.0800 
 23 H       -2.4760    -1.1540     1.4400 H     1 <1>   0.0800 
 24 H        3.5830     1.5480    -1.6160 H     1 <1>   0.0800 
 25 H        4.5970     0.2990    -0.9330 H     1 <1>   0.0800 
 26 H        4.0820     1.6380     0.0590 H     1 <1>   0.0800 
 27 H       -4.6070     2.6740    -1.4750 H     1 <1>   0.1500 
@<TRIPOS>BOND
  1   1   2  1   
  2   1   3  1   
  3   2   4  2   
  4   2   5  1   
  5   3   6  1   
  6   3   7  1   
  7   3  15  1   
  8   4   8  1   
  9   5   9  am  
 10   5  10  1   
 11   6  11  1   
 12   6  16  1   
 13   6  17  1   
 14   7  18  1   
 15   7  19  1   
 16   7  20  1   
 17   8  12  1   
 18   8  13  2   
 19   9  13  1   
 20   9  14  2   
 21  10  21  1   
 22  10  22  1   
 23  10  23  1   
 24  11  24  1   
 25  11  25  1   
 26  11  26  1   
 27  13  27  1   
@<TRIPOS>SUBSTRUCTURE
  1 ****   2 GROUP 4 **** **** 0

# MOE 2024.06 (io_trps.svl 2023.06)
