@<TRIPOS>MOLECULE
NONAME
44 45 1 0 0 
SMALL
USER_CHARGES


@<TRIPOS>ATOM
  1 O        0.3600     0.5190     2.2580 O.2   1 <1>  -0.5700 
  2 C        1.1730     0.7710     1.3970 C.2   1 <1>   0.7800 
  3 O        2.2470    -0.0130     1.3010 O.3   1 <1>  -0.4300 
  4 N        1.0570     1.8260     0.5370 N.am  1 <1>  -0.5470 
  5 C        3.2770     0.1780     0.3500 C.3   1 <1>   0.1200 
  6 C        0.0990     2.8320     0.3710 C.ar  1 <1>   0.1170 
  7 C        4.3430    -0.9140     0.5250 C.3   1 <1>  -0.0800 
  8 C        0.4770     4.0360    -0.2470 C.ar  1 <1>   0.0860 
  9 C       -1.2200     2.6580     0.7810 C.ar  1 <1>  -0.1500 
 10 C        5.5070    -0.6730    -0.4440 C.3   1 <1>  -0.2400 
 11 C        3.7620    -2.3170     0.2980 C.3   1 <1>  -0.2400 
 12 C        1.8520     4.2740    -0.6480 C.2   1 <1>   0.5440 
 13 C       -0.5020     5.0090    -0.4590 C.ar  1 <1>  -0.1500 
 14 C       -2.1660     3.6420     0.5770 C.ar  1 <1>  -0.1500 
 15 O        2.4760     3.4020    -1.2340 O.2   1 <1>  -0.5700 
 16 N        2.5010     5.4530    -0.3500 N.am  1 <1>  -0.6600 
 17 C       -1.8070     4.8220    -0.0510 C.ar  1 <1>  -0.1500 
 18 C        3.8060     5.8260    -0.9770 C.3   1 <1>   0.1400 
 19 C        2.1590     6.3070     0.8280 C.3   1 <1>   0.1400 
 20 C        4.9050     5.9400     0.0910 C.3   1 <1>   0.1200 
 21 C        3.3540     6.4020     1.7920 C.3   1 <1>   0.1200 
 22 O        4.5080     6.8100     1.1140 O.3   1 <1>  -0.5600 
 23 H        1.8670     1.9470    -0.0790 H     1 <1>   0.3700 
 24 H        3.7110     1.1510     0.5100 H     1 <1>   0.0800 
 25 H        2.8470     0.1270    -0.6360 H     1 <1>   0.0800 
 26 H        4.7240    -0.8530     1.5310 H     1 <1>   0.0800 
 27 H       -1.5170     1.7410     1.2590 H     1 <1>   0.1500 
 28 H        5.1690    -0.7250    -1.4650 H     1 <1>   0.0800 
 29 H        6.2720    -1.4150    -0.2980 H     1 <1>   0.0800 
 30 H        5.9420     0.2960    -0.2740 H     1 <1>   0.0800 
 31 H        3.3560    -2.4060    -0.6940 H     1 <1>   0.0800 
 32 H        2.9770    -2.5160     1.0070 H     1 <1>   0.0800 
 33 H        4.5250    -3.0640     0.4270 H     1 <1>   0.0800 
 34 H       -0.2290     5.9260    -0.9530 H     1 <1>   0.1500 
 35 H       -3.1820     3.4900     0.9010 H     1 <1>   0.1500 
 36 H       -2.5470     5.5860    -0.2200 H     1 <1>   0.1500 
 37 H        3.7000     6.7740    -1.4740 H     1 <1>   0.0800 
 38 H        4.0980     5.1010    -1.7160 H     1 <1>   0.0800 
 39 H        1.3170     5.9040     1.3620 H     1 <1>   0.0800 
 40 H        1.8990     7.2940     0.4880 H     1 <1>   0.0800 
 41 H        5.8070     6.3320    -0.3430 H     1 <1>   0.0800 
 42 H        5.1170     4.9750     0.5190 H     1 <1>   0.0800 
 43 H        3.5450     5.4490     2.2540 H     1 <1>   0.0800 
 44 H        3.1540     7.1250     2.5630 H     1 <1>   0.0800 
@<TRIPOS>BOND
  1   1   2  2   
  2   2   3  1   
  3   2   4  am  
  4   3   5  1   
  5   4   6  1   
  6   4  23  1   
  7   5   7  1   
  8   5  24  1   
  9   5  25  1   
 10   6   8  ar  
 11   6   9  ar  
 12   7  10  1   
 13   7  11  1   
 14   7  26  1   
 15   8  12  1   
 16   8  13  ar  
 17   9  14  ar  
 18   9  27  1   
 19  10  28  1   
 20  10  29  1   
 21  10  30  1   
 22  11  31  1   
 23  11  32  1   
 24  11  33  1   
 25  12  15  2   
 26  12  16  am  
 27  13  17  ar  
 28  13  34  1   
 29  14  17  ar  
 30  14  35  1   
 31  16  18  1   
 32  16  19  1   
 33  17  36  1   
 34  18  20  1   
 35  18  37  1   
 36  18  38  1   
 37  19  21  1   
 38  19  39  1   
 39  19  40  1   
 40  20  22  1   
 41  20  41  1   
 42  20  42  1   
 43  21  22  1   
 44  21  43  1   
 45  21  44  1   
@<TRIPOS>SUBSTRUCTURE
  1 ****   4 GROUP 4 **** **** 0

# MOE 2024.06 (io_trps.svl 2023.06)
