@<TRIPOS>MOLECULE
NONAME
54 56 1 0 0 
SMALL
USER_CHARGES


@<TRIPOS>ATOM
  1 O       -1.6090    -0.7530    -1.4810 O.2   1 <1>  -0.5700 
  2 C       -0.5660    -1.2450    -1.0880 C.2   1 <1>   0.5440 
  3 N        0.5880    -0.4970    -1.1880 N.am  1 <1>  -0.6600 
  4 C       -0.5720    -2.5730    -0.5110 C.ar  1 <1>   0.0860 
  5 C        0.6460     0.7640    -1.9850 C.3   1 <1>   0.1400 
  6 C        1.8230    -0.7350    -0.3830 C.3   1 <1>   0.1400 
  7 C       -1.4180    -2.8910     0.5630 C.ar  1 <1>   0.1170 
  8 C        0.2730    -3.5650    -1.0130 C.ar  1 <1>  -0.1500 
  9 C        1.9680     0.8490    -2.7660 C.3   1 <1>   0.1200 
 10 C        3.0760    -0.5760    -1.2610 C.3   1 <1>   0.1200 
 11 N       -2.3090    -1.9180     1.0380 N.am  1 <1>  -0.5470 
 12 C       -1.3670    -4.1690     1.1130 C.ar  1 <1>  -0.1500 
 13 C        0.3110    -4.8290    -0.4590 C.ar  1 <1>  -0.1500 
 14 O        3.0650     0.6610    -1.9150 O.3   1 <1>  -0.5600 
 15 C       -2.9950    -1.7580     2.2130 C.2   1 <1>   0.5690 
 16 C       -0.5110    -5.1290     0.6130 C.ar  1 <1>  -0.1500 
 17 O       -2.9060    -2.5240     3.1440 O.2   1 <1>  -0.5700 
 18 C       -3.9000    -0.5260     2.3640 C.3   1 <1>   0.2610 
 19 O       -4.3400    -0.0500     1.0960 O.3   1 <1>  -0.3630 
 20 C       -3.1610     0.6260     3.0690 C.3   1 <1>  -0.1600 
 21 C       -5.0980    -0.8180     0.2740 C.ar  1 <1>   0.0820 
 22 C       -4.0410     1.8670     3.2880 C.3   1 <1>  -0.2400 
 23 C       -5.0310    -0.5370    -1.0800 C.ar  1 <1>  -0.1500 
 24 C       -5.9050    -1.8610     0.7180 C.ar  1 <1>  -0.1500 
 25 C       -5.7570    -1.2870    -1.9870 C.ar  1 <1>  -0.1500 
 26 C       -6.6290    -2.6090    -0.1930 C.ar  1 <1>  -0.1500 
 27 C       -6.5610    -2.3270    -1.5480 C.ar  1 <1>  -0.1440 
 28 C       -7.3520    -3.1550    -2.5440 C.3   1 <1>  -0.0970 
 29 H        0.5670     1.6070    -1.3210 H     1 <1>   0.0800 
 30 H       -0.1770     0.8080    -2.6770 H     1 <1>   0.0800 
 31 H        1.8170    -1.7130     0.0630 H     1 <1>   0.0800 
 32 H        1.8650    -0.0130     0.4140 H     1 <1>   0.0800 
 33 H        0.9060    -3.3330    -1.8510 H     1 <1>   0.1500 
 34 H        2.0670     1.8180    -3.2210 H     1 <1>   0.0800 
 35 H        1.9980     0.1000    -3.5380 H     1 <1>   0.0800 
 36 H        3.1240    -1.3570    -2.0000 H     1 <1>   0.0800 
 37 H        3.9630    -0.6180    -0.6540 H     1 <1>   0.0800 
 38 H       -2.5340    -1.1960     0.3350 H     1 <1>   0.3700 
 39 H       -2.0090    -4.4240     1.9360 H     1 <1>   0.1500 
 40 H        0.9720    -5.5810    -0.8560 H     1 <1>   0.1500 
 41 H       -0.4880    -6.1120     1.0530 H     1 <1>   0.1500 
 42 H       -4.7650    -0.7880     2.9440 H     1 <1>   0.0800 
 43 H       -2.2920     0.8930     2.4930 H     1 <1>   0.0800 
 44 H       -2.8170     0.2730     4.0260 H     1 <1>   0.0800 
 45 H       -4.3600     2.2740     2.3440 H     1 <1>   0.0800 
 46 H       -3.4860     2.6240     3.8130 H     1 <1>   0.0800 
 47 H       -4.9110     1.6150     3.8670 H     1 <1>   0.0800 
 48 H       -4.3980     0.2630    -1.4220 H     1 <1>   0.1500 
 49 H       -5.9840    -2.1060     1.7600 H     1 <1>   0.1500 
 50 H       -5.6870    -1.0600    -3.0360 H     1 <1>   0.1500 
 51 H       -7.2480    -3.4160     0.1580 H     1 <1>   0.1500 
 52 H       -6.7660    -4.0000    -2.8580 H     1 <1>   0.0800 
 53 H       -7.6030    -2.5650    -3.4070 H     1 <1>   0.0800 
 54 H       -8.2640    -3.5090    -2.0980 H     1 <1>   0.0800 
@<TRIPOS>BOND
  1   1   2  2   
  2   2   3  am  
  3   2   4  1   
  4   3   5  1   
  5   3   6  1   
  6   4   7  ar  
  7   4   8  ar  
  8   5   9  1   
  9   5  29  1   
 10   5  30  1   
 11   6  10  1   
 12   6  31  1   
 13   6  32  1   
 14   7  11  1   
 15   7  12  ar  
 16   8  13  ar  
 17   8  33  1   
 18   9  14  1   
 19   9  34  1   
 20   9  35  1   
 21  10  14  1   
 22  10  36  1   
 23  10  37  1   
 24  11  15  am  
 25  11  38  1   
 26  12  16  ar  
 27  12  39  1   
 28  13  16  ar  
 29  13  40  1   
 30  15  17  2   
 31  15  18  1   
 32  16  41  1   
 33  18  19  1   
 34  18  20  1   
 35  18  42  1   
 36  19  21  1   
 37  20  22  1   
 38  20  43  1   
 39  20  44  1   
 40  21  23  ar  
 41  21  24  ar  
 42  22  45  1   
 43  22  46  1   
 44  22  47  1   
 45  23  25  ar  
 46  23  48  1   
 47  24  26  ar  
 48  24  49  1   
 49  25  27  ar  
 50  25  50  1   
 51  26  27  ar  
 52  26  51  1   
 53  27  28  1   
 54  28  52  1   
 55  28  53  1   
 56  28  54  1   
@<TRIPOS>SUBSTRUCTURE
  1 ****  11 GROUP 4 **** **** 0

# MOE 2024.06 (io_trps.svl 2023.06)
