@<TRIPOS>MOLECULE
NONAME
44 45 1 0 0 
SMALL
USER_CHARGES


@<TRIPOS>ATOM
  1 O        0.5930    -0.0940    -0.0330 O.3   1 <1>  -0.6800 
  2 C        1.4630     0.9020    -0.3980 C.3   1 <1>   0.2000 
  3 C        2.8420     0.2730    -0.5950 C.3   1 <1>  -0.1600 
  4 C        1.4650     1.9250     0.7350 C.3   1 <1>  -0.1600 
  5 C        3.9210     1.3440    -0.7410 C.3   1 <1>   0.3430 
  6 C        2.5730     2.9550     0.5510 C.3   1 <1>   0.3430 
  7 N        3.8950     2.2590     0.4480 N.4   1 <1>  -0.9590 
  8 C        5.0400     3.2150     0.5650 C.3   1 <1>   0.4230 
  9 C        5.2170     4.0880    -0.6840 C.3   1 <1>  -0.1600 
 10 C        6.3370     2.4620     0.8710 C.3   1 <1>  -0.1600 
 11 C        6.3920     5.0520    -0.5020 C.3   1 <1>   0.3430 
 12 C        7.5020     3.4390     1.0390 C.3   1 <1>   0.3430 
 13 N        7.6370     4.2950    -0.1800 N.4   1 <1>  -0.9590 
 14 C        8.7830     5.2480    -0.0510 C.3   1 <1>   0.3430 
 15 C       10.1160     4.5020    -0.1430 C.3   1 <1>  -0.1600 
 16 C       11.2900     5.4870    -0.1340 C.3   1 <1>  -0.2400 
 17 H        0.4120    -0.7110    -0.7720 H     1 <1>   0.4000 
 18 H        1.1040     1.3490    -1.3120 H     1 <1>   0.0800 
 19 H        2.8340    -0.3370    -1.4810 H     1 <1>   0.0800 
 20 H        3.0830    -0.3580     0.2440 H     1 <1>   0.0800 
 21 H        1.5930     1.4290     1.6820 H     1 <1>   0.0800 
 22 H        0.5140     2.4300     0.7530 H     1 <1>   0.0800 
 23 H        3.7440     1.9080    -1.6440 H     1 <1>   0.0800 
 24 H        4.8810     0.8610    -0.8240 H     1 <1>   0.0800 
 25 H        2.5690     3.6280     1.3940 H     1 <1>   0.0800 
 26 H        2.3850     3.5290    -0.3430 H     1 <1>   0.0800 
 27 H        3.9280     1.6390     1.2720 H     1 <1>   0.4500 
 28 H        4.8420     3.8690     1.4010 H     1 <1>   0.0800 
 29 H        4.3310     4.6730    -0.8540 H     1 <1>   0.0800 
 30 H        5.4000     3.4900    -1.5580 H     1 <1>   0.0800 
 31 H        6.5820     1.7690     0.0870 H     1 <1>   0.0800 
 32 H        6.2270     1.9100     1.7880 H     1 <1>   0.0800 
 33 H        6.1740     5.7470     0.2940 H     1 <1>   0.0800 
 34 H        6.5340     5.6210    -1.4090 H     1 <1>   0.0800 
 35 H        8.4120     2.8830     1.2030 H     1 <1>   0.0800 
 36 H        7.3350     4.0630     1.9040 H     1 <1>   0.0800 
 37 H        7.8700     3.6910    -0.9830 H     1 <1>   0.4500 
 38 H        8.7260     5.7830     0.8850 H     1 <1>   0.0800 
 39 H        8.7440     5.9720    -0.8500 H     1 <1>   0.0800 
 40 H       10.1580     3.9340    -1.0560 H     1 <1>   0.0800 
 41 H       10.2360     3.8320     0.6900 H     1 <1>   0.0800 
 42 H       11.2330     6.1630    -0.9700 H     1 <1>   0.0800 
 43 H       12.2210     4.9500    -0.2020 H     1 <1>   0.0800 
 44 H       11.3030     6.0630     0.7760 H     1 <1>   0.0800 
@<TRIPOS>BOND
  1   1   2  1   
  2   1  17  1   
  3   2   3  1   
  4   2   4  1   
  5   2  18  1   
  6   3   5  1   
  7   3  19  1   
  8   3  20  1   
  9   4   6  1   
 10   4  21  1   
 11   4  22  1   
 12   5   7  1   
 13   5  23  1   
 14   5  24  1   
 15   6   7  1   
 16   6  25  1   
 17   6  26  1   
 18   7   8  1   
 19   7  27  1   
 20   8   9  1   
 21   8  10  1   
 22   8  28  1   
 23   9  11  1   
 24   9  29  1   
 25   9  30  1   
 26  10  12  1   
 27  10  31  1   
 28  10  32  1   
 29  11  13  1   
 30  11  33  1   
 31  11  34  1   
 32  12  13  1   
 33  12  35  1   
 34  12  36  1   
 35  13  14  1   
 36  13  37  1   
 37  14  15  1   
 38  14  38  1   
 39  14  39  1   
 40  15  16  1   
 41  15  40  1   
 42  15  41  1   
 43  16  42  1   
 44  16  43  1   
 45  16  44  1   
@<TRIPOS>SUBSTRUCTURE
  1 ****   8 GROUP 4 **** **** 0

# MOE 2024.06 (io_trps.svl 2023.06)
