@<TRIPOS>MOLECULE
NONAME
39 41 1 0 0 
SMALL
USER_CHARGES


@<TRIPOS>ATOM
  1 O       -0.6510    -0.4020     1.0380 O.3   1 <1>  -0.5320 
  2 C       -1.8400    -0.8180     0.5790 C.ar  1 <1>   0.0830 
  3 C       -2.5530     0.0010    -0.2760 C.ar  1 <1>  -0.1500 
  4 C       -2.3440    -2.0530     0.9520 C.ar  1 <1>  -0.1500 
  5 C       -3.7810    -0.4110    -0.7620 C.ar  1 <1>  -0.1500 
  6 C       -3.5740    -2.4640     0.4670 C.ar  1 <1>  -0.1500 
  7 C       -4.3010    -1.6440    -0.3870 C.ar  1 <1>  -0.1430 
  8 C       -5.6540    -2.0870    -0.9090 C.3   1 <1>   0.4860 
  9 N       -6.6590    -1.9070     0.1710 N.4   1 <1>  -0.9590 
 10 C       -7.9720    -2.5720    -0.1750 C.3   1 <1>   0.3430 
 11 C       -6.8450    -0.4400     0.5060 C.3   1 <1>   0.3430 
 12 C       -9.0690    -2.3290     0.8850 C.3   1 <1>   0.2090 
 13 C       -7.9380    -0.2110     1.5690 C.3   1 <1>   0.2090 
 14 N       -9.2070    -0.8660     1.1350 N.pl3 1 <1>  -0.8380 
 15 C      -10.1510    -0.1600     0.4260 C.ar  1 <1>   0.7200 
 16 N      -11.3680    -0.6860     0.3750 N.ar  1 <1>  -0.6200 
 17 N       -9.7400     0.9560    -0.1740 N.ar  1 <1>  -0.6200 
 18 C      -12.2650     0.0010    -0.2920 C.ar  1 <1>   0.1600 
 19 C      -10.6590     1.6210    -0.8350 C.ar  1 <1>   0.1600 
 20 C      -11.9570     1.1810    -0.9230 C.ar  1 <1>  -0.1500 
 21 H       -0.1940    -1.0520     1.6010 H     1 <1>   0.4500 
 22 H       -2.1360     0.9530    -0.5580 H     1 <1>   0.1500 
 23 H       -1.7820    -2.6900     1.6120 H     1 <1>   0.1500 
 24 H       -4.3150     0.2400    -1.4340 H     1 <1>   0.1500 
 25 H       -3.9480    -3.4300     0.7610 H     1 <1>   0.1500 
 26 H       -5.5990    -3.1250    -1.1970 H     1 <1>   0.0800 
 27 H       -5.9270    -1.5060    -1.7750 H     1 <1>   0.0800 
 28 H       -6.2760    -2.3530     1.0130 H     1 <1>   0.4500 
 29 H       -7.8290    -3.6330    -0.2920 H     1 <1>   0.0800 
 30 H       -8.3340    -2.1820    -1.1130 H     1 <1>   0.0800 
 31 H       -7.1330     0.1010    -0.3800 H     1 <1>   0.0800 
 32 H       -5.9170    -0.0230     0.8620 H     1 <1>   0.0800 
 33 H       -8.8160    -2.8270     1.8040 H     1 <1>   0.0800 
 34 H       -9.9980    -2.7470     0.5380 H     1 <1>   0.0800 
 35 H       -8.0910     0.8460     1.7150 H     1 <1>   0.0800 
 36 H       -7.6270    -0.6220     2.5140 H     1 <1>   0.0800 
 37 H      -13.2700    -0.3870    -0.3360 H     1 <1>   0.1500 
 38 H      -10.3730     2.5400    -1.3180 H     1 <1>   0.1500 
 39 H      -12.7010     1.7360    -1.4630 H     1 <1>   0.1500 
@<TRIPOS>BOND
  1   1   2  1   
  2   1  21  1   
  3   2   3  ar  
  4   2   4  ar  
  5   3   5  ar  
  6   3  22  1   
  7   4   6  ar  
  8   4  23  1   
  9   5   7  ar  
 10   5  24  1   
 11   6   7  ar  
 12   6  25  1   
 13   7   8  1   
 14   8   9  1   
 15   8  26  1   
 16   8  27  1   
 17   9  10  1   
 18   9  11  1   
 19   9  28  1   
 20  10  12  1   
 21  10  29  1   
 22  10  30  1   
 23  11  13  1   
 24  11  31  1   
 25  11  32  1   
 26  12  14  1   
 27  12  33  1   
 28  12  34  1   
 29  13  14  1   
 30  13  35  1   
 31  13  36  1   
 32  14  15  1   
 33  15  16  ar  
 34  15  17  ar  
 35  16  18  ar  
 36  17  19  ar  
 37  18  20  ar  
 38  18  37  1   
 39  19  20  ar  
 40  19  38  1   
 41  20  39  1   
@<TRIPOS>SUBSTRUCTURE
  1 ****  11 GROUP 4 **** **** 0

# MOE 2024.06 (io_trps.svl 2023.06)
