@<TRIPOS>MOLECULE
NONAME
43 45 1 0 0 
SMALL
USER_CHARGES


@<TRIPOS>ATOM
  1 O       -0.8560    -0.0210     1.6840 O.2   1 <1>  -0.5700 
  2 C       -1.9630    -0.0840     1.1970 C.2   1 <1>   0.7800 
  3 O       -2.2490    -1.1590     0.4530 O.3   1 <1>  -0.4300 
  4 N       -2.8530     0.9420     1.4370 N.am  1 <1>  -0.3680 
  5 C       -3.4800    -1.3940    -0.1860 C.3   1 <1>   0.1200 
  6 N       -4.1680     1.1670     1.0250 N.2   1 <1>  -0.5120 
  7 C       -3.3820    -2.7250    -0.9240 C.3   1 <1>  -0.2400 
  8 C       -4.8480     2.1870     1.3650 C.2   1 <1>   0.3280 
  9 C       -6.2960     2.3980     0.8480 C.3   1 <1>   0.0610 
 10 C       -4.3040     3.2780     2.2890 C.3   1 <1>  -0.1790 
 11 C       -6.6370     1.3980    -0.2930 C.3   1 <1>  -0.1600 
 12 C       -6.4970     3.8300     0.2850 C.3   1 <1>  -0.1600 
 13 C       -7.3220     2.1670     1.9880 C.3   1 <1>  -0.1600 
 14 C       -8.0750     1.5900    -0.8070 C.3   1 <1>  -0.0800 
 15 C       -7.9380     4.0350    -0.2190 C.3   1 <1>  -0.0800 
 16 C       -8.7650     2.3690     1.4870 C.3   1 <1>  -0.0800 
 17 C       -8.2330     3.0240    -1.3410 C.3   1 <1>  -0.1600 
 18 C       -9.0570     1.3670     0.3560 C.3   1 <1>  -0.1600 
 19 C       -8.9190     3.8020     0.9450 C.3   1 <1>  -0.1600 
 20 H       -2.4140     1.6540     2.0210 H     1 <1>   0.3700 
 21 H       -4.2540    -1.4280     0.5620 H     1 <1>   0.0800 
 22 H       -3.6680    -0.5880    -0.8750 H     1 <1>   0.0800 
 23 H       -3.1810    -3.5190    -0.2270 H     1 <1>   0.0800 
 24 H       -2.5980    -2.6830    -1.6580 H     1 <1>   0.0800 
 25 H       -4.3110    -2.9320    -1.4240 H     1 <1>   0.0800 
 26 H       -5.0690     3.6400     2.9480 H     1 <1>   0.0800 
 27 H       -3.9420     4.1000     1.6990 H     1 <1>   0.0800 
 28 H       -3.5020     2.9220     2.9070 H     1 <1>   0.0800 
 29 H       -5.9460     1.5300    -1.1080 H     1 <1>   0.0800 
 30 H       -6.5270     0.3880     0.0610 H     1 <1>   0.0800 
 31 H       -6.3010     4.5670     1.0430 H     1 <1>   0.0800 
 32 H       -5.8060     4.0000    -0.5220 H     1 <1>   0.0800 
 33 H       -7.2120     1.1670     2.3720 H     1 <1>   0.0800 
 34 H       -7.1450     2.8460     2.8010 H     1 <1>   0.0800 
 35 H       -8.2780     0.8850    -1.5950 H     1 <1>   0.0800 
 36 H       -8.0540     5.0370    -0.5960 H     1 <1>   0.0800 
 37 H       -9.4570     2.2110     2.2970 H     1 <1>   0.0800 
 38 H       -9.2340     3.1680    -1.7080 H     1 <1>   0.0800 
 39 H       -7.5570     3.1840    -2.1640 H     1 <1>   0.0800 
 40 H      -10.0680     1.4930     0.0090 H     1 <1>   0.0800 
 41 H       -8.9620     0.3610     0.7260 H     1 <1>   0.0800 
 42 H       -9.9290     3.9550     0.6050 H     1 <1>   0.0800 
 43 H       -8.7300     4.5130     1.7310 H     1 <1>   0.0800 
@<TRIPOS>BOND
  1   1   2  2   
  2   2   3  1   
  3   2   4  am  
  4   3   5  1   
  5   4   6  1   
  6   4  20  1   
  7   5   7  1   
  8   5  21  1   
  9   5  22  1   
 10   6   8  2   
 11   7  23  1   
 12   7  24  1   
 13   7  25  1   
 14   8   9  1   
 15   8  10  1   
 16   9  11  1   
 17   9  12  1   
 18   9  13  1   
 19  10  26  1   
 20  10  27  1   
 21  10  28  1   
 22  11  14  1   
 23  11  29  1   
 24  11  30  1   
 25  12  15  1   
 26  12  31  1   
 27  12  32  1   
 28  13  16  1   
 29  13  33  1   
 30  13  34  1   
 31  14  17  1   
 32  14  18  1   
 33  14  35  1   
 34  15  17  1   
 35  15  19  1   
 36  15  36  1   
 37  16  18  1   
 38  16  19  1   
 39  16  37  1   
 40  17  38  1   
 41  17  39  1   
 42  18  40  1   
 43  18  41  1   
 44  19  42  1   
 45  19  43  1   
@<TRIPOS>SUBSTRUCTURE
  1 ****   9 GROUP 4 **** **** 0

# MOE 2024.06 (io_trps.svl 2023.06)
