@<TRIPOS>MOLECULE
NONAME
35 37 1 0 0 
SMALL
USER_CHARGES


@<TRIPOS>ATOM
  1 S       -0.1850    -0.7040    -0.5150 S.3   1 <1>  -0.3710 
  2 C       -1.6810     0.2320    -0.7100 C.2   1 <1>   0.6410 
  3 C       -0.4620    -1.8510     0.9230 C.3   1 <1>   0.1310 
  4 N       -2.5100     0.2820     0.3630 N.pl3 1 <1>  -0.5500 
  5 N       -1.8870     0.7970    -1.8350 N.2   1 <1>  -0.6610 
  6 C        0.7750    -2.6870     1.2230 C.2   1 <1>   0.5690 
  7 C       -3.7040     0.9740     0.3090 C.ar  1 <1>   0.1000 
  8 C       -3.0500     1.5050    -1.9700 C.2   1 <1>   0.6950 
  9 O        1.3120    -2.5100     2.2920 O.2   1 <1>  -0.5700 
 10 N        1.2300    -3.6300     0.3410 N.am  1 <1>  -0.6600 
 11 C       -4.0080     1.6160    -0.8940 C.ar  1 <1>   0.0860 
 12 C       -4.5770     1.0430     1.3910 C.ar  1 <1>  -0.1500 
 13 O       -3.2600     2.0450    -3.0420 O.2   1 <1>  -0.5700 
 14 C        2.4250    -4.4570     0.6160 C.3   1 <1>   0.1400 
 15 C        0.6890    -3.9120    -1.0080 C.3   1 <1>   0.1400 
 16 C       -5.2120     2.3240    -0.9780 C.ar  1 <1>  -0.1500 
 17 C       -5.7570     1.7470     1.2840 C.ar  1 <1>  -0.1500 
 18 C        2.7440    -5.1380    -0.7100 C.3   1 <1>  -0.1600 
 19 C        1.4140    -5.1750    -1.4560 C.3   1 <1>  -0.1600 
 20 C       -6.0760     2.3890     0.0950 C.ar  1 <1>  -0.1500 
 21 H       -1.2920    -2.4860     0.6770 H     1 <1>   0.0800 
 22 H       -0.6950    -1.2460     1.7780 H     1 <1>   0.0800 
 23 H       -2.1950    -0.1160     1.2440 H     1 <1>   0.4000 
 24 H       -4.3320     0.5460     2.3130 H     1 <1>   0.1500 
 25 H        2.1800    -5.1860     1.3690 H     1 <1>   0.0800 
 26 H        3.2430    -3.8460     0.9590 H     1 <1>   0.0800 
 27 H        0.9340    -3.0940    -1.6660 H     1 <1>   0.0800 
 28 H       -0.3780    -4.0560    -0.9840 H     1 <1>   0.0800 
 29 H       -5.4580     2.8230    -1.9010 H     1 <1>   0.1500 
 30 H       -6.4370     1.8030     2.1180 H     1 <1>   0.1500 
 31 H        3.1630    -6.1170    -0.5650 H     1 <1>   0.0800 
 32 H        3.4500    -4.5310    -1.2510 H     1 <1>   0.0800 
 33 H        1.5420    -5.2050    -2.5240 H     1 <1>   0.0800 
 34 H        0.8450    -6.0350    -1.1470 H     1 <1>   0.0800 
 35 H       -6.9990     2.9380     0.0150 H     1 <1>   0.1500 
@<TRIPOS>BOND
  1   1   2  1   
  2   1   3  1   
  3   2   4  1   
  4   2   5  2   
  5   3   6  1   
  6   3  21  1   
  7   3  22  1   
  8   4   7  1   
  9   4  23  1   
 10   5   8  1   
 11   6   9  2   
 12   6  10  am  
 13   7  11  ar  
 14   7  12  ar  
 15   8  11  1   
 16   8  13  2   
 17  10  14  1   
 18  10  15  1   
 19  11  16  ar  
 20  12  17  ar  
 21  12  24  1   
 22  14  18  1   
 23  14  25  1   
 24  14  26  1   
 25  15  19  1   
 26  15  27  1   
 27  15  28  1   
 28  16  20  ar  
 29  16  29  1   
 30  17  20  ar  
 31  17  30  1   
 32  18  19  1   
 33  18  31  1   
 34  18  32  1   
 35  19  33  1   
 36  19  34  1   
 37  20  35  1   
@<TRIPOS>SUBSTRUCTURE
  1 ****   2 GROUP 4 **** **** 0

# MOE 2024.06 (io_trps.svl 2023.06)
