@<TRIPOS>MOLECULE
NONAME
54 56 1 0 0 
SMALL
USER_CHARGES


@<TRIPOS>ATOM
  1 O       -0.3940    -0.6450    -3.0630 O.2   1 <1>  -0.5700 
  2 C       -0.3520    -1.5250    -2.2370 C.2   1 <1>   0.5690 
  3 N        0.7340    -1.7710    -1.4430 N.am  1 <1>  -0.5470 
  4 C       -1.5880    -2.4120    -2.0360 C.3   1 <1>   0.1710 
  5 C        1.9410    -1.0810    -1.2420 C.ar  1 <1>   0.1170 
  6 N       -2.5740    -1.9040    -1.0330 N.3   1 <1>  -0.8100 
  7 C        2.6510    -1.3430    -0.0650 C.ar  1 <1>   0.0820 
  8 C        2.4610    -0.1710    -2.1550 C.ar  1 <1>  -0.1500 
  9 C       -3.7890    -2.7490    -0.9610 C.3   1 <1>   0.1100 
 10 C       -2.0050    -1.6580     0.3170 C.3   1 <1>   0.1100 
 11 O        2.1020    -2.2470     0.8040 O.3   1 <1>  -0.3630 
 12 C        3.8570    -0.6920     0.1790 C.ar  1 <1>  -0.1500 
 13 C        3.6600     0.4720    -1.9070 C.ar  1 <1>  -0.1500 
 14 C       -4.8520    -2.1680     0.0050 C.3   1 <1>   0.3430 
 15 C       -3.0510    -1.0640     1.2940 C.3   1 <1>   0.3430 
 16 C        2.8310    -2.7120     1.9190 C.3   1 <1>   0.1200 
 17 C        4.3570     0.2130    -0.7410 C.ar  1 <1>  -0.1500 
 18 N       -4.3760    -0.8820     0.6180 N.4   1 <1>  -0.9590 
 19 C        1.9920    -3.7770     2.6190 C.3   1 <1>  -0.2400 
 20 C       -5.3940    -0.1810     1.4400 C.3   1 <1>   0.4860 
 21 C       -6.6340     0.0450     0.5980 C.ar  1 <1>  -0.1430 
 22 C       -6.6140     0.9530    -0.4530 C.ar  1 <1>  -0.1500 
 23 C       -7.7970    -0.6630     0.8660 C.ar  1 <1>  -0.1500 
 24 C       -7.7420     1.1400    -1.2320 C.ar  1 <1>  -0.1500 
 25 C       -8.9240    -0.4730     0.0860 C.ar  1 <1>  -0.1500 
 26 C       -8.8960     0.4270    -0.9640 C.ar  1 <1>  -0.1500 
 27 H        0.6380    -2.5310    -0.7710 H     1 <1>   0.3700 
 28 H       -1.2640    -3.3980    -1.7580 H     1 <1>   0.0800 
 29 H       -2.0780    -2.4890    -2.9920 H     1 <1>   0.0800 
 30 H        1.9350     0.0380    -3.0680 H     1 <1>   0.1500 
 31 H       -3.5270    -3.7440    -0.6430 H     1 <1>   0.0800 
 32 H       -4.2260    -2.8270    -1.9430 H     1 <1>   0.0800 
 33 H       -1.1890    -0.9580     0.2440 H     1 <1>   0.0800 
 34 H       -1.6130    -2.5730     0.7260 H     1 <1>   0.0800 
 35 H        4.4210    -0.8680     1.0750 H     1 <1>   0.1500 
 36 H        4.0480     1.1750    -2.6240 H     1 <1>   0.1500 
 37 H       -5.0690    -2.8890     0.7750 H     1 <1>   0.0800 
 38 H       -5.7620    -1.9960    -0.5480 H     1 <1>   0.0800 
 39 H       -2.6880    -0.1150     1.6530 H     1 <1>   0.0800 
 40 H       -3.1550    -1.7190     2.1430 H     1 <1>   0.0800 
 41 H        3.0180    -1.8810     2.5780 H     1 <1>   0.0800 
 42 H        3.7610    -3.1280     1.5700 H     1 <1>   0.0800 
 43 H        5.2900     0.7170    -0.5510 H     1 <1>   0.1500 
 44 H       -4.1640    -0.3010    -0.2080 H     1 <1>   0.4500 
 45 H        1.0620    -3.3570     2.9560 H     1 <1>   0.0800 
 46 H        2.5270    -4.1510     3.4740 H     1 <1>   0.0800 
 47 H        1.8020    -4.5980     1.9510 H     1 <1>   0.0800 
 48 H       -5.0110     0.7700     1.7730 H     1 <1>   0.0800 
 49 H       -5.6440    -0.7720     2.3060 H     1 <1>   0.0800 
 50 H       -5.7300     1.5240    -0.6790 H     1 <1>   0.1500 
 51 H       -7.8450    -1.3650     1.6810 H     1 <1>   0.1500 
 52 H       -7.7260     1.8440    -2.0480 H     1 <1>   0.1500 
 53 H       -9.8270    -1.0220     0.2940 H     1 <1>   0.1500 
 54 H       -9.7740     0.5750    -1.5710 H     1 <1>   0.1500 
@<TRIPOS>BOND
  1   1   2  2   
  2   2   3  am  
  3   2   4  1   
  4   3   5  1   
  5   3  27  1   
  6   4   6  1   
  7   4  28  1   
  8   4  29  1   
  9   5   7  ar  
 10   5   8  ar  
 11   6   9  1   
 12   6  10  1   
 13   7  11  1   
 14   7  12  ar  
 15   8  13  ar  
 16   8  30  1   
 17   9  14  1   
 18   9  31  1   
 19   9  32  1   
 20  10  15  1   
 21  10  33  1   
 22  10  34  1   
 23  11  16  1   
 24  12  17  ar  
 25  12  35  1   
 26  13  17  ar  
 27  13  36  1   
 28  14  18  1   
 29  14  37  1   
 30  14  38  1   
 31  15  18  1   
 32  15  39  1   
 33  15  40  1   
 34  16  19  1   
 35  16  41  1   
 36  16  42  1   
 37  17  43  1   
 38  18  20  1   
 39  18  44  1   
 40  19  45  1   
 41  19  46  1   
 42  19  47  1   
 43  20  21  1   
 44  20  48  1   
 45  20  49  1   
 46  21  22  ar  
 47  21  23  ar  
 48  22  24  ar  
 49  22  50  1   
 50  23  25  ar  
 51  23  51  1   
 52  24  26  ar  
 53  24  52  1   
 54  25  26  ar  
 55  25  53  1   
 56  26  54  1   
@<TRIPOS>SUBSTRUCTURE
  1 ****  10 GROUP 4 **** **** 0

# MOE 2024.06 (io_trps.svl 2023.06)
