@<TRIPOS>MOLECULE
NONAME
60 63 1 0 0 
SMALL
USER_CHARGES


@<TRIPOS>ATOM
  1 N       -0.1060     0.1130    -0.6670 N.4   1 <1>  -0.9590 
  2 C       -1.3820     0.9260    -0.5040 C.3   1 <1>   0.4230 
  3 C       -0.4160    -1.2110    -1.3310 C.3   1 <1>   0.3430 
  4 C        0.7120    -0.0320     0.5900 C.3   1 <1>   0.3430 
  5 C       -1.1230     2.3040     0.1620 C.3   1 <1>  -0.0800 
  6 C       -2.5500     0.1220     0.1820 C.3   1 <1>   0.4230 
  7 C       -1.5240    -2.0520    -0.6240 C.3   1 <1>   0.3430 
  8 C        2.0950    -0.6490     0.3270 C.3   1 <1>  -0.0800 
  9 C       -2.4060     3.1680     0.1880 C.3   1 <1>  -0.1600 
 10 C        0.0000     3.0870    -0.5630 C.3   1 <1>  -0.1600 
 11 N       -2.2860    -1.3350     0.4750 N.4   1 <1>  -0.9590 
 12 C       -3.8230     0.0810    -0.6630 C.3   1 <1>  -0.1600 
 13 C        2.8820    -0.6910     1.6510 C.3   1 <1>  -0.1600 
 14 C        2.8980     0.1250    -0.7410 C.3   1 <1>  -0.1600 
 15 C       -2.1590     4.5400     0.8270 C.3   1 <1>  -0.1600 
 16 C        0.2480     4.4570     0.0800 C.3   1 <1>  -0.1600 
 17 C       -3.6280    -1.9590     0.6800 C.3   1 <1>   0.3430 
 18 C       -4.5940    -1.1490    -0.1800 C.3   1 <1>  -0.1600 
 19 C        4.2760    -1.2990     1.4570 C.3   1 <1>  -0.1600 
 20 C        4.2950    -0.4800    -0.9360 C.3   1 <1>  -0.1600 
 21 C       -1.0340     5.2930     0.1130 C.3   1 <1>  -0.1600 
 22 C        5.0660    -0.5380     0.3870 C.3   1 <1>  -0.1600 
 23 H        0.4970     0.6520    -1.3090 H     1 <1>   0.4500 
 24 H       -1.7310     1.1570    -1.4970 H     1 <1>   0.0800 
 25 H        0.4790    -1.8050    -1.4170 H     1 <1>   0.0800 
 26 H       -0.7480    -1.0210    -2.3400 H     1 <1>   0.0800 
 27 H        0.1880    -0.6360     1.3110 H     1 <1>   0.0800 
 28 H        0.8710     0.9390     1.0300 H     1 <1>   0.0800 
 29 H       -0.8300     2.1540     1.1870 H     1 <1>   0.0800 
 30 H       -2.7970     0.6100     1.1120 H     1 <1>   0.0800 
 31 H       -1.0750    -2.9460    -0.2200 H     1 <1>   0.0800 
 32 H       -2.2180    -2.3770    -1.3840 H     1 <1>   0.0800 
 33 H        1.9780    -1.6680     0.0030 H     1 <1>   0.0800 
 34 H       -3.1880     2.6930     0.7540 H     1 <1>   0.0800 
 35 H       -2.7670     3.3220    -0.8160 H     1 <1>   0.0800 
 36 H       -0.2680     3.2410    -1.5950 H     1 <1>   0.0800 
 37 H        0.9320     2.5540    -0.5420 H     1 <1>   0.0800 
 38 H       -1.7660    -1.4170     1.3600 H     1 <1>   0.4500 
 39 H       -3.5820    -0.0290    -1.7070 H     1 <1>   0.0800 
 40 H       -4.4050     0.9800    -0.5450 H     1 <1>   0.0800 
 41 H        2.3520    -1.2760     2.3840 H     1 <1>   0.0800 
 42 H        2.9950     0.3060     2.0440 H     1 <1>   0.0800 
 43 H        3.0140     1.1530    -0.4380 H     1 <1>   0.0800 
 44 H        2.3980     0.1100    -1.6920 H     1 <1>   0.0800 
 45 H       -1.9000     4.4190     1.8660 H     1 <1>   0.0800 
 46 H       -3.0600     5.1290     0.7850 H     1 <1>   0.0800 
 47 H        1.0020     4.9890    -0.4760 H     1 <1>   0.0800 
 48 H        0.6140     4.3300     1.0850 H     1 <1>   0.0800 
 49 H       -3.9200    -1.8720     1.7150 H     1 <1>   0.0800 
 50 H       -3.6330    -3.0030     0.4050 H     1 <1>   0.0800 
 51 H       -4.9480    -1.7370    -1.0110 H     1 <1>   0.0800 
 52 H       -5.4470    -0.8650     0.4130 H     1 <1>   0.0800 
 53 H        4.1880    -2.3320     1.1670 H     1 <1>   0.0800 
 54 H        4.8180    -1.2680     2.3870 H     1 <1>   0.0800 
 55 H        4.8510     0.1110    -1.6450 H     1 <1>   0.0800 
 56 H        4.2090    -1.4750    -1.3390 H     1 <1>   0.0800 
 57 H       -0.8440     6.2240     0.6200 H     1 <1>   0.0800 
 58 H       -1.3390     5.5280    -0.8940 H     1 <1>   0.0800 
 59 H        6.0160    -1.0220     0.2290 H     1 <1>   0.0800 
 60 H        5.2650     0.4630     0.7310 H     1 <1>   0.0800 
@<TRIPOS>BOND
  1   1   2  1   
  2   1   3  1   
  3   1   4  1   
  4   1  23  1   
  5   2   5  1   
  6   2   6  1   
  7   2  24  1   
  8   3   7  1   
  9   3  25  1   
 10   3  26  1   
 11   4   8  1   
 12   4  27  1   
 13   4  28  1   
 14   5   9  1   
 15   5  10  1   
 16   5  29  1   
 17   6  11  1   
 18   6  12  1   
 19   6  30  1   
 20   7  11  1   
 21   7  31  1   
 22   7  32  1   
 23   8  13  1   
 24   8  14  1   
 25   8  33  1   
 26   9  15  1   
 27   9  34  1   
 28   9  35  1   
 29  10  16  1   
 30  10  36  1   
 31  10  37  1   
 32  11  17  1   
 33  11  38  1   
 34  12  18  1   
 35  12  39  1   
 36  12  40  1   
 37  13  19  1   
 38  13  41  1   
 39  13  42  1   
 40  14  20  1   
 41  14  43  1   
 42  14  44  1   
 43  15  21  1   
 44  15  45  1   
 45  15  46  1   
 46  16  21  1   
 47  16  47  1   
 48  16  48  1   
 49  17  18  1   
 50  17  49  1   
 51  17  50  1   
 52  18  51  1   
 53  18  52  1   
 54  19  22  1   
 55  19  53  1   
 56  19  54  1   
 57  20  22  1   
 58  20  55  1   
 59  20  56  1   
 60  21  57  1   
 61  21  58  1   
 62  22  59  1   
 63  22  60  1   
@<TRIPOS>SUBSTRUCTURE
  1 ****   1 GROUP 4 **** **** 0

# MOE 2024.06 (io_trps.svl 2023.06)
