@<TRIPOS>MOLECULE
NONAME
57 59 1 0 0 
SMALL
USER_CHARGES


@<TRIPOS>ATOM
  1 O        0.1380    -0.2550    -1.8850 O.3   1 <1>  -0.3630 
  2 C       -0.2280    -0.8800    -0.7290 C.ar  1 <1>   0.0830 
  3 C       -0.8310    -0.0810    -2.8990 C.3   1 <1>   0.0400 
  4 C       -1.3550    -0.5000     0.0160 C.ar  1 <1>   0.0830 
  5 C        0.5870    -1.9170    -0.2810 C.ar  1 <1>  -0.1440 
  6 O       -2.1080     0.5570    -0.4060 O.3   1 <1>  -0.3620 
  7 C       -1.6630    -1.1980     1.1820 C.ar  1 <1>  -0.1500 
  8 C        0.2660    -2.5880     0.8880 C.ar  1 <1>  -0.1500 
  9 C        1.8390    -2.3300    -1.0460 C.3   1 <1>   0.2530 
 10 C       -3.1820     1.0630     0.3570 C.3   1 <1>   0.0400 
 11 C       -0.8570    -2.2360     1.6130 C.ar  1 <1>  -0.1500 
 12 N        3.0570    -1.7790    -0.4120 N.3   1 <1>  -0.8100 
 13 C        3.0080    -0.3020    -0.3490 C.3   1 <1>   0.1100 
 14 C        4.2670    -2.2390    -1.1100 C.3   1 <1>   0.1100 
 15 C        4.2720     0.2820     0.3040 C.3   1 <1>   0.3430 
 16 C        5.5430    -1.6750    -0.4530 C.3   1 <1>   0.3430 
 17 N        5.5370    -0.1670    -0.3870 N.4   1 <1>  -0.9590 
 18 C        6.7710     0.3970     0.2440 C.3   1 <1>   0.4230 
 19 C        6.7130     1.9370     0.2440 C.3   1 <1>  -0.1600 
 20 C        8.0240    -0.0840    -0.5130 C.3   1 <1>  -0.1600 
 21 C        8.0040     2.5670     0.7870 C.3   1 <1>  -0.1600 
 22 C        9.3110     0.5530     0.0320 C.3   1 <1>  -0.1600 
 23 C        9.2360     2.0840     0.0100 C.3   1 <1>  -0.0800 
 24 C       10.5120     2.6900     0.6030 C.3   1 <1>  -0.2400 
 25 H       -1.5110    -0.9160    -2.8880 H     1 <1>   0.0800 
 26 H       -0.3240    -0.0310    -3.8450 H     1 <1>   0.0800 
 27 H       -1.3600     0.8380    -2.7230 H     1 <1>   0.0800 
 28 H       -2.5220    -0.9500     1.7740 H     1 <1>   0.1500 
 29 H        0.8950    -3.3880     1.2380 H     1 <1>   0.1500 
 30 H        1.7780    -2.0090    -2.0720 H     1 <1>   0.0800 
 31 H        1.8960    -3.4050    -1.0470 H     1 <1>   0.0800 
 32 H       -3.5830     1.9170    -0.1570 H     1 <1>   0.0800 
 33 H       -2.8140     1.3590     1.3240 H     1 <1>   0.0800 
 34 H       -3.9370     0.3020     0.4460 H     1 <1>   0.0800 
 35 H       -1.1010    -2.7680     2.5160 H     1 <1>   0.1500 
 36 H        2.1640     0.0080     0.2430 H     1 <1>   0.0800 
 37 H        2.8800     0.1090    -1.3370 H     1 <1>   0.0800 
 38 H        4.2330    -1.9440    -2.1450 H     1 <1>   0.0800 
 39 H        4.3070    -3.3150    -1.0720 H     1 <1>   0.0800 
 40 H        4.2920    -0.0280     1.3360 H     1 <1>   0.0800 
 41 H        4.1950     1.3560     0.2810 H     1 <1>   0.0800 
 42 H        6.3920    -2.0180    -1.0180 H     1 <1>   0.0800 
 43 H        5.6190    -2.0810     0.5430 H     1 <1>   0.0800 
 44 H        5.4940     0.1830    -1.3490 H     1 <1>   0.4500 
 45 H        6.8380     0.0580     1.2660 H     1 <1>   0.0800 
 46 H        5.9090     2.2870     0.8650 H     1 <1>   0.0800 
 47 H        6.5550     2.2940    -0.7590 H     1 <1>   0.0800 
 48 H        7.9360     0.1660    -1.5560 H     1 <1>   0.0800 
 49 H        8.1390    -1.1480    -0.4210 H     1 <1>   0.0800 
 50 H        8.1160     2.3170     1.8290 H     1 <1>   0.0800 
 51 H        7.9350     3.6390     0.7160 H     1 <1>   0.0800 
 52 H       10.1490     0.2280    -0.5620 H     1 <1>   0.0800 
 53 H        9.4800     0.2150     1.0420 H     1 <1>   0.0800 
 54 H        9.1540     2.4140    -1.0130 H     1 <1>   0.0800 
 55 H       10.6410     2.3900     1.6280 H     1 <1>   0.0800 
 56 H       10.4690     3.7650     0.5650 H     1 <1>   0.0800 
 57 H       11.3730     2.3710     0.0430 H     1 <1>   0.0800 
@<TRIPOS>BOND
  1   1   2  1   
  2   1   3  1   
  3   2   4  ar  
  4   2   5  ar  
  5   3  25  1   
  6   3  26  1   
  7   3  27  1   
  8   4   6  1   
  9   4   7  ar  
 10   5   8  ar  
 11   5   9  1   
 12   6  10  1   
 13   7  11  ar  
 14   7  28  1   
 15   8  11  ar  
 16   8  29  1   
 17   9  12  1   
 18   9  30  1   
 19   9  31  1   
 20  10  32  1   
 21  10  33  1   
 22  10  34  1   
 23  11  35  1   
 24  12  13  1   
 25  12  14  1   
 26  13  15  1   
 27  13  36  1   
 28  13  37  1   
 29  14  16  1   
 30  14  38  1   
 31  14  39  1   
 32  15  17  1   
 33  15  40  1   
 34  15  41  1   
 35  16  17  1   
 36  16  42  1   
 37  16  43  1   
 38  17  18  1   
 39  17  44  1   
 40  18  19  1   
 41  18  20  1   
 42  18  45  1   
 43  19  21  1   
 44  19  46  1   
 45  19  47  1   
 46  20  22  1   
 47  20  48  1   
 48  20  49  1   
 49  21  23  1   
 50  21  50  1   
 51  21  51  1   
 52  22  23  1   
 53  22  52  1   
 54  22  53  1   
 55  23  24  1   
 56  23  54  1   
 57  24  55  1   
 58  24  56  1   
 59  24  57  1   
@<TRIPOS>SUBSTRUCTURE
  1 ****  13 GROUP 4 **** **** 0

# MOE 2024.06 (io_trps.svl 2023.06)
