@<TRIPOS>MOLECULE
NONAME
35 36 1 0 0 
SMALL
USER_CHARGES


@<TRIPOS>ATOM
  1 O        0.5190    -2.5980    -1.1230 O.2   1 <1>  -0.5700 
  2 C        0.3910    -3.4850    -0.3120 C.2   1 <1>   0.5690 
  3 N       -0.8030    -3.8170     0.2780 N.am  1 <1>  -0.5470 
  4 C        1.6650    -4.2660     0.0610 C.3   1 <1>   0.4040 
  5 C       -2.0760    -3.2390     0.1390 C.ar  1 <1>   0.1170 
  6 N        2.9380    -3.5130    -0.2540 N.4   1 <1>  -0.9590 
  7 C       -3.1880    -3.9990     0.4830 C.ar  1 <1>  -0.1500 
  8 C       -2.2840    -1.9370    -0.3070 C.ar  1 <1>  -0.1500 
  9 C        4.1860    -4.3050    -0.1850 C.3   1 <1>   0.3430 
 10 C        3.1430    -2.3090     0.5860 C.3   1 <1>   0.3430 
 11 C       -4.4660    -3.4800     0.3810 C.ar  1 <1>  -0.1500 
 12 C       -3.5620    -1.4170    -0.4110 C.ar  1 <1>  -0.1500 
 13 C        5.2890    -3.2580    -0.0850 C.3   1 <1>  -0.1600 
 14 C        4.6130    -1.9680     0.3930 C.3   1 <1>  -0.1600 
 15 C       -4.6610    -2.1860    -0.0690 C.ar  1 <1>  -0.1440 
 16 C       -6.0630    -1.6130    -0.1820 C.3   1 <1>  -0.0970 
 17 H       -0.8170    -4.6390     0.8810 H     1 <1>   0.3700 
 18 H        1.6540    -5.1880    -0.4930 H     1 <1>   0.0800 
 19 H        1.6360    -4.5020     1.1100 H     1 <1>   0.0800 
 20 H        2.8220    -3.1510    -1.2170 H     1 <1>   0.4500 
 21 H       -3.0660    -5.0070     0.8320 H     1 <1>   0.1500 
 22 H       -1.4550    -1.3110    -0.5770 H     1 <1>   0.1500 
 23 H        4.3110    -4.9330    -1.0530 H     1 <1>   0.0800 
 24 H        4.1870    -4.9130     0.7050 H     1 <1>   0.0800 
 25 H        2.9600    -2.5450     1.6220 H     1 <1>   0.0800 
 26 H        2.4990    -1.4970     0.2820 H     1 <1>   0.0800 
 27 H       -5.3120    -4.0880     0.6530 H     1 <1>   0.1500 
 28 H       -3.6970    -0.4080    -0.7600 H     1 <1>   0.1500 
 29 H        5.7390    -3.1090    -1.0520 H     1 <1>   0.0800 
 30 H        6.0540    -3.5850     0.5980 H     1 <1>   0.0800 
 31 H        5.0410    -1.6080     1.3130 H     1 <1>   0.0800 
 32 H        4.7100    -1.1970    -0.3520 H     1 <1>   0.0800 
 33 H       -6.7750    -2.3940    -0.3760 H     1 <1>   0.0800 
 34 H       -6.1140    -0.9020    -0.9870 H     1 <1>   0.0800 
 35 H       -6.3290    -1.1190     0.7350 H     1 <1>   0.0800 
@<TRIPOS>BOND
  1   1   2  2   
  2   2   3  am  
  3   2   4  1   
  4   3   5  1   
  5   3  17  1   
  6   4   6  1   
  7   4  18  1   
  8   4  19  1   
  9   5   7  ar  
 10   5   8  ar  
 11   6   9  1   
 12   6  10  1   
 13   6  20  1   
 14   7  11  ar  
 15   7  21  1   
 16   8  12  ar  
 17   8  22  1   
 18   9  13  1   
 19   9  23  1   
 20   9  24  1   
 21  10  14  1   
 22  10  25  1   
 23  10  26  1   
 24  11  15  ar  
 25  11  27  1   
 26  12  15  ar  
 27  12  28  1   
 28  13  14  1   
 29  13  29  1   
 30  13  30  1   
 31  14  31  1   
 32  14  32  1   
 33  15  16  1   
 34  16  33  1   
 35  16  34  1   
 36  16  35  1   
@<TRIPOS>SUBSTRUCTURE
  1 ****   2 GROUP 4 **** **** 0

# MOE 2024.06 (io_trps.svl 2023.06)
