@<TRIPOS>MOLECULE
NONAME
51 52 1 0 0 
SMALL
USER_CHARGES


@<TRIPOS>ATOM
  1 O        0.1130     0.7180     1.2510 O.2   1 <1>  -0.5700 
  2 C        0.5140     1.4350     0.3530 C.2   1 <1>   0.5440 
  3 N       -0.3550     2.2950    -0.2790 N.am  1 <1>  -0.5470 
  4 C        1.8970     1.4020    -0.0640 C.ar  1 <1>   0.0860 
  5 C       -1.7500     2.4500    -0.2000 C.ar  1 <1>   0.1170 
  6 C        2.5360     0.2200    -0.4840 C.ar  1 <1>   0.0830 
  7 C        2.6620     2.5800    -0.0370 C.ar  1 <1>   0.0830 
  8 C       -2.6000     1.4500     0.2570 C.ar  1 <1>  -0.1500 
  9 C       -2.3080     3.6520    -0.6140 C.ar  1 <1>  -0.1500 
 10 O        1.9190    -0.9760    -0.6450 O.3   1 <1>  -0.3630 
 11 C        3.8890     0.2150    -0.7790 C.ar  1 <1>  -0.1500 
 12 O        2.0400     3.7370     0.3080 O.3   1 <1>  -0.3630 
 13 C        4.0170     2.5580    -0.3540 C.ar  1 <1>  -0.1500 
 14 C       -3.9740     1.6490     0.3140 C.ar  1 <1>   0.0830 
 15 C       -3.6750     3.8550    -0.5720 C.ar  1 <1>  -0.1500 
 16 C        0.6600    -1.0820    -1.2770 C.3   1 <1>   0.0400 
 17 C        4.6320     1.3760    -0.7140 C.ar  1 <1>  -0.1500 
 18 C        2.7480     4.9060     0.6620 C.3   1 <1>   0.0400 
 19 O       -4.8380     0.6950     0.7810 O.3   1 <1>  -0.3630 
 20 C       -4.5290     2.8610    -0.1100 C.ar  1 <1>   0.1170 
 21 C       -4.3530    -0.4520     1.4470 C.3   1 <1>   0.0400 
 22 N       -5.9290     3.0070    -0.0400 N.am  1 <1>  -0.5470 
 23 C       -6.7910     4.0020    -0.4040 C.2   1 <1>   0.5690 
 24 O       -6.4400     5.0410    -0.9110 O.2   1 <1>  -0.5700 
 25 C       -8.2850     3.7680    -0.1510 C.3   1 <1>  -0.0190 
 26 C       -9.0840     3.7580    -1.4650 C.3   1 <1>  -0.2400 
 27 C       -8.8660     4.8170     0.8110 C.3   1 <1>  -0.2400 
 28 H        0.1330     3.0520    -0.7580 H     1 <1>   0.3700 
 29 H       -2.1710     0.5190     0.5620 H     1 <1>   0.1500 
 30 H       -1.6720     4.4410    -0.9720 H     1 <1>   0.1500 
 31 H        4.3570    -0.7090    -1.0680 H     1 <1>   0.1500 
 32 H        4.6150     3.4500    -0.3280 H     1 <1>   0.1500 
 33 H       -4.0700     4.7980    -0.9000 H     1 <1>   0.1500 
 34 H        0.6130    -2.0400    -1.7630 H     1 <1>   0.0800 
 35 H        0.5550    -0.2970    -2.0040 H     1 <1>   0.0800 
 36 H       -0.1120    -1.0220    -0.5320 H     1 <1>   0.0800 
 37 H        5.6820     1.3580    -0.9500 H     1 <1>   0.1500 
 38 H        2.0370     5.6320     1.0160 H     1 <1>   0.0800 
 39 H        3.2570     5.2870    -0.2050 H     1 <1>   0.0800 
 40 H        3.4450     4.6690     1.4460 H     1 <1>   0.0800 
 41 H       -3.7230    -0.1430     2.2640 H     1 <1>   0.0800 
 42 H       -3.8020    -1.0570     0.7480 H     1 <1>   0.0800 
 43 H       -5.1940    -1.0050     1.8230 H     1 <1>   0.0800 
 44 H       -6.3600     2.1730     0.3590 H     1 <1>   0.3700 
 45 H       -8.4020     2.8030     0.3090 H     1 <1>   0.0800 
 46 H       -9.0080     4.7150    -1.9530 H     1 <1>   0.0800 
 47 H      -10.1220     3.5480    -1.2760 H     1 <1>   0.0800 
 48 H       -8.6960     3.0070    -2.1290 H     1 <1>   0.0800 
 49 H       -8.7850     5.8010     0.3820 H     1 <1>   0.0800 
 50 H       -8.3240     4.8070     1.7400 H     1 <1>   0.0800 
 51 H       -9.9020     4.6120     1.0140 H     1 <1>   0.0800 
@<TRIPOS>BOND
  1   1   2  2   
  2   2   3  am  
  3   2   4  1   
  4   3   5  1   
  5   3  28  1   
  6   4   6  ar  
  7   4   7  ar  
  8   5   8  ar  
  9   5   9  ar  
 10   6  10  1   
 11   6  11  ar  
 12   7  12  1   
 13   7  13  ar  
 14   8  14  ar  
 15   8  29  1   
 16   9  15  ar  
 17   9  30  1   
 18  10  16  1   
 19  11  17  ar  
 20  11  31  1   
 21  12  18  1   
 22  13  17  ar  
 23  13  32  1   
 24  14  19  1   
 25  14  20  ar  
 26  15  20  ar  
 27  15  33  1   
 28  16  34  1   
 29  16  35  1   
 30  16  36  1   
 31  17  37  1   
 32  18  38  1   
 33  18  39  1   
 34  18  40  1   
 35  19  21  1   
 36  20  22  1   
 37  21  41  1   
 38  21  42  1   
 39  21  43  1   
 40  22  23  am  
 41  22  44  1   
 42  23  24  2   
 43  23  25  1   
 44  25  26  1   
 45  25  27  1   
 46  25  45  1   
 47  26  46  1   
 48  26  47  1   
 49  26  48  1   
 50  27  49  1   
 51  27  50  1   
 52  27  51  1   
@<TRIPOS>SUBSTRUCTURE
  1 ****   5 GROUP 4 **** **** 0

# MOE 2024.06 (io_trps.svl 2023.06)
