@<TRIPOS>MOLECULE
NONAME
45 47 1 0 0 
SMALL
USER_CHARGES


@<TRIPOS>ATOM
  1 S       -1.7130     2.8190     2.0910 S.3   1 <1>  -0.0800 
  2 C       -0.2650     3.4920     1.3770 C.2   1 <1>   0.1240 
  3 C       -2.2460     2.1700     0.5490 C.2   1 <1>  -0.1400 
  4 N        0.5890     4.1330     2.2380 N.pl3 1 <1>  -0.8840 
  5 C       -0.2200     3.2390     0.0290 C.2   1 <1>  -0.0860 
  6 C       -1.3790     2.4980    -0.4290 C.2   1 <1>  -0.1810 
  7 C       -3.5340     1.3660     0.5760 C.3   1 <1>   0.0200 
  8 C        0.8670     3.6720    -0.8050 C.2   1 <1>   0.7160 
  9 C       -1.5770     2.1500    -1.9050 C.3   1 <1>   0.0210 
 10 C       -3.5100     0.2550    -0.4820 C.3   1 <1>  -0.1600 
 11 O        1.2560     3.0310    -1.7680 O.2   1 <1>  -0.5700 
 12 N        1.4920     4.8450    -0.4770 N.am  1 <1>  -0.5470 
 13 C       -3.0560     2.0540    -2.3090 C.3   1 <1>  -0.1600 
 14 C       -3.7570     0.7410    -1.9190 C.3   1 <1>  -0.1600 
 15 C        2.7680     5.3300    -0.7960 C.ar  1 <1>   0.1170 
 16 C        3.5260     5.9410     0.2080 C.ar  1 <1>   0.0830 
 17 C        3.2930     5.2360    -2.0780 C.ar  1 <1>  -0.1500 
 18 O        2.9740     5.9980     1.4590 O.3   1 <1>  -0.3630 
 19 C        4.7870     6.4490    -0.0890 C.ar  1 <1>  -0.1500 
 20 C        4.5480     5.7400    -2.3670 C.ar  1 <1>  -0.1500 
 21 C        3.5990     6.7190     2.4960 C.3   1 <1>   0.1200 
 22 C        5.2940     6.3480    -1.3730 C.ar  1 <1>  -0.1500 
 23 C        2.7060     6.6380     3.7310 C.3   1 <1>  -0.2400 
 24 H        1.5560     4.4060     2.0060 H     1 <1>   0.4000 
 25 H        0.3830     4.1730     3.2410 H     1 <1>   0.4000 
 26 H       -4.3810     2.0140     0.4400 H     1 <1>   0.0800 
 27 H       -3.6230     0.9030     1.5430 H     1 <1>   0.0800 
 28 H       -1.0520     1.2410    -2.1440 H     1 <1>   0.0800 
 29 H       -1.1510     2.9360    -2.5020 H     1 <1>   0.0800 
 30 H       -4.2600    -0.4760    -0.2380 H     1 <1>   0.0800 
 31 H       -2.5560    -0.2420    -0.4320 H     1 <1>   0.0800 
 32 H        1.0980     5.2550     0.3720 H     1 <1>   0.3700 
 33 H       -3.1240     2.1590    -3.3780 H     1 <1>   0.0800 
 34 H       -3.5840     2.8880    -1.8800 H     1 <1>   0.0800 
 35 H       -4.8150     0.8750    -2.0630 H     1 <1>   0.0800 
 36 H       -3.4420    -0.0360    -2.5940 H     1 <1>   0.0800 
 37 H        2.7160     4.7660    -2.8550 H     1 <1>   0.1500 
 38 H        5.3940     6.9220     0.6590 H     1 <1>   0.1500 
 39 H        4.9420     5.6590    -3.3660 H     1 <1>   0.1500 
 40 H        3.7170     7.7410     2.1780 H     1 <1>   0.0800 
 41 H        4.5590     6.2740     2.6940 H     1 <1>   0.0800 
 42 H        6.2710     6.7400    -1.6010 H     1 <1>   0.1500 
 43 H        1.7350     7.0470     3.5140 H     1 <1>   0.0800 
 44 H        3.1440     7.2050     4.5320 H     1 <1>   0.0800 
 45 H        2.6060     5.6170     4.0510 H     1 <1>   0.0800 
@<TRIPOS>BOND
  1   1   2  1   
  2   1   3  1   
  3   2   4  1   
  4   2   5  2   
  5   3   6  2   
  6   3   7  1   
  7   4  24  1   
  8   4  25  1   
  9   5   6  1   
 10   5   8  1   
 11   6   9  1   
 12   7  10  1   
 13   7  26  1   
 14   7  27  1   
 15   8  11  2   
 16   8  12  am  
 17   9  13  1   
 18   9  28  1   
 19   9  29  1   
 20  10  14  1   
 21  10  30  1   
 22  10  31  1   
 23  12  15  1   
 24  12  32  1   
 25  13  14  1   
 26  13  33  1   
 27  13  34  1   
 28  14  35  1   
 29  14  36  1   
 30  15  16  ar  
 31  15  17  ar  
 32  16  18  1   
 33  16  19  ar  
 34  17  20  ar  
 35  17  37  1   
 36  18  21  1   
 37  19  22  ar  
 38  19  38  1   
 39  20  22  ar  
 40  20  39  1   
 41  21  23  1   
 42  21  40  1   
 43  21  41  1   
 44  22  42  1   
 45  23  43  1   
 46  23  44  1   
 47  23  45  1   
@<TRIPOS>SUBSTRUCTURE
  1 ****   8 GROUP 4 **** **** 0

# MOE 2024.06 (io_trps.svl 2023.06)
