@<TRIPOS>MOLECULE
NONAME
43 44 1 0 0 
SMALL
USER_CHARGES


@<TRIPOS>ATOM
  1 F       -1.4680     0.9530    -0.2720 F     1 <1>  -0.3400 
  2 C       -1.4610     1.9600    -1.1360 C.3   1 <1>   1.1640 
  3 F       -0.8110     1.5390    -2.2090 F     1 <1>  -0.3400 
  4 F       -2.7290     2.1270    -1.5000 F     1 <1>  -0.3400 
  5 C       -0.9030     3.2490    -0.5010 C.ar  1 <1>  -0.1440 
  6 C       -1.4220     3.7760     0.6900 C.ar  1 <1>  -0.1440 
  7 C        0.1480     3.9190    -1.1240 C.ar  1 <1>  -0.1500 
  8 C       -0.8720     4.9330     1.2280 C.ar  1 <1>  -0.1500 
  9 C       -2.5780     3.1340     1.4540 C.3   1 <1>   0.4870 
 10 C        0.6790     5.0740    -0.5830 C.ar  1 <1>  -0.1500 
 11 C        0.1710     5.5810     0.5960 C.ar  1 <1>  -0.1500 
 12 N       -3.8720     3.4300     0.7720 N.4   1 <1>  -0.9590 
 13 C       -4.1330     4.8960     0.6610 C.3   1 <1>   0.3430 
 14 C       -4.9960     2.7010     1.4210 C.3   1 <1>   0.3430 
 15 C       -5.3930     5.1310    -0.1700 C.3   1 <1>  -0.1600 
 16 C       -6.2680     2.8920     0.5990 C.3   1 <1>  -0.1600 
 17 C       -6.6110     4.3830     0.4030 C.3   1 <1>  -0.0190 
 18 C       -7.8340     4.5830    -0.4890 C.2   1 <1>   0.6590 
 19 O       -8.0910     3.8290    -1.3900 O.2   1 <1>  -0.5700 
 20 O       -8.5750     5.6450    -0.2120 O.3   1 <1>  -0.4300 
 21 C       -9.7280     5.9520    -0.9640 C.3   1 <1>   0.1200 
 22 C      -10.3420     7.2240    -0.3910 C.3   1 <1>  -0.2400 
 23 H        0.5760     3.5510    -2.0430 H     1 <1>   0.1500 
 24 H       -1.2430     5.3480     2.1510 H     1 <1>   0.1500 
 25 H       -2.6000     3.5220     2.4600 H     1 <1>   0.0800 
 26 H       -2.4270     2.0690     1.5170 H     1 <1>   0.0800 
 27 H        1.4930     5.5780    -1.0780 H     1 <1>   0.1500 
 28 H        0.5930     6.4780     1.0190 H     1 <1>   0.1500 
 29 H       -3.7990     3.0720    -0.1940 H     1 <1>   0.4500 
 30 H       -3.2990     5.3880     0.1850 H     1 <1>   0.0800 
 31 H       -4.2610     5.3210     1.6440 H     1 <1>   0.0800 
 32 H       -5.1510     3.0770     2.4200 H     1 <1>   0.0800 
 33 H       -4.7690     1.6480     1.4850 H     1 <1>   0.0800 
 34 H       -5.2140     4.8170    -1.1840 H     1 <1>   0.0800 
 35 H       -5.6030     6.1870    -0.1950 H     1 <1>   0.0800 
 36 H       -7.0870     2.4020     1.0970 H     1 <1>   0.0800 
 37 H       -6.1440     2.4100    -0.3570 H     1 <1>   0.0800 
 38 H       -6.8490     4.8020     1.3650 H     1 <1>   0.0800 
 39 H      -10.4140     5.1240    -0.8920 H     1 <1>   0.0800 
 40 H       -9.4390     6.0910    -1.9930 H     1 <1>   0.0800 
 41 H      -10.6180     7.0740     0.6380 H     1 <1>   0.0800 
 42 H      -11.2260     7.4810    -0.9470 H     1 <1>   0.0800 
 43 H       -9.6450     8.0400    -0.4630 H     1 <1>   0.0800 
@<TRIPOS>BOND
  1   1   2  1   
  2   2   3  1   
  3   2   4  1   
  4   2   5  1   
  5   5   6  ar  
  6   5   7  ar  
  7   6   8  ar  
  8   6   9  1   
  9   7  10  ar  
 10   7  23  1   
 11   8  11  ar  
 12   8  24  1   
 13   9  12  1   
 14   9  25  1   
 15   9  26  1   
 16  10  11  ar  
 17  10  27  1   
 18  11  28  1   
 19  12  13  1   
 20  12  14  1   
 21  12  29  1   
 22  13  15  1   
 23  13  30  1   
 24  13  31  1   
 25  14  16  1   
 26  14  32  1   
 27  14  33  1   
 28  15  17  1   
 29  15  34  1   
 30  15  35  1   
 31  16  17  1   
 32  16  36  1   
 33  16  37  1   
 34  17  18  1   
 35  17  38  1   
 36  18  19  2   
 37  18  20  1   
 38  20  21  1   
 39  21  22  1   
 40  21  39  1   
 41  21  40  1   
 42  22  41  1   
 43  22  42  1   
 44  22  43  1   
@<TRIPOS>SUBSTRUCTURE
  1 ****  12 GROUP 4 **** **** 0

# MOE 2024.06 (io_trps.svl 2023.06)
