@<TRIPOS>MOLECULE
NONAME
34 36 1 0 0 
SMALL
USER_CHARGES


@<TRIPOS>ATOM
  1 O       -0.6040    -0.7660     1.7580 O.2   1 <1>  -0.5700 
  2 C       -1.6670    -0.8610     1.2020 C.2   1 <1>   0.5690 
  3 N       -2.4370     0.2440     1.0810 N.am  1 <1>  -0.7300 
  4 C       -2.0650    -2.2180     0.6730 C.3   1 <1>  -0.1790 
  5 C       -3.7660     0.5330     0.5130 C.3   1 <1>   0.3000 
  6 C       -3.9050     2.0670     0.4760 C.3   1 <1>  -0.1600 
  7 C       -3.9210    -0.0100    -0.9240 C.3   1 <1>  -0.1600 
  8 C       -4.8740    -0.0430     1.4160 C.3   1 <1>  -0.1600 
  9 C       -5.2840     2.4400    -0.0810 C.3   1 <1>   0.2800 
 10 C       -5.3040     0.3710    -1.4900 C.3   1 <1>  -0.0800 
 11 C       -6.2620     0.3320     0.8570 C.3   1 <1>  -0.0800 
 12 O       -5.4010     3.8080    -0.1010 O.3   1 <1>  -0.6800 
 13 C       -5.4380     1.9060    -1.5120 C.3   1 <1>  -0.1600 
 14 C       -6.3880     1.8670     0.8170 C.3   1 <1>  -0.1600 
 15 C       -6.4000    -0.2200    -0.5770 C.3   1 <1>  -0.1600 
 16 H       -2.0150     1.0610     1.5210 H     1 <1>   0.3700 
 17 H       -3.0880    -2.4350     0.9030 H     1 <1>   0.0800 
 18 H       -1.4490    -2.9710     1.1290 H     1 <1>   0.0800 
 19 H       -1.9100    -2.2490    -0.3880 H     1 <1>   0.0800 
 20 H       -3.1360     2.4830    -0.1490 H     1 <1>   0.0800 
 21 H       -3.8080     2.4650     1.4710 H     1 <1>   0.0800 
 22 H       -3.8470    -1.0790    -0.9350 H     1 <1>   0.0800 
 23 H       -3.1460     0.3900    -1.5530 H     1 <1>   0.0800 
 24 H       -4.7710     0.3450     2.4130 H     1 <1>   0.0800 
 25 H       -4.7980    -1.1120     1.4670 H     1 <1>   0.0800 
 26 H       -5.4120    -0.0180    -2.4880 H     1 <1>   0.0800 
 27 H       -7.0340    -0.0800     1.4840 H     1 <1>   0.0800 
 28 H       -4.7370     4.1860    -0.7040 H     1 <1>   0.4000 
 29 H       -4.6810     2.3240    -2.1510 H     1 <1>   0.0800 
 30 H       -6.4030     2.1790    -1.9010 H     1 <1>   0.0800 
 31 H       -7.3530     2.1440     0.4310 H     1 <1>   0.0800 
 32 H       -6.2950     2.2670     1.8120 H     1 <1>   0.0800 
 33 H       -6.3230    -1.2940    -0.5630 H     1 <1>   0.0800 
 34 H       -7.3710     0.0290    -0.9690 H     1 <1>   0.0800 
@<TRIPOS>BOND
  1   1   2  2   
  2   2   3  am  
  3   2   4  1   
  4   3   5  1   
  5   3  16  1   
  6   4  17  1   
  7   4  18  1   
  8   4  19  1   
  9   5   6  1   
 10   5   7  1   
 11   5   8  1   
 12   6   9  1   
 13   6  20  1   
 14   6  21  1   
 15   7  10  1   
 16   7  22  1   
 17   7  23  1   
 18   8  11  1   
 19   8  24  1   
 20   8  25  1   
 21   9  12  1   
 22   9  13  1   
 23   9  14  1   
 24  10  13  1   
 25  10  15  1   
 26  10  26  1   
 27  11  14  1   
 28  11  15  1   
 29  11  27  1   
 30  12  28  1   
 31  13  29  1   
 32  13  30  1   
 33  14  31  1   
 34  14  32  1   
 35  15  33  1   
 36  15  34  1   
@<TRIPOS>SUBSTRUCTURE
  1 ****   5 GROUP 4 **** **** 0

# MOE 2024.06 (io_trps.svl 2023.06)
