@<TRIPOS>MOLECULE
NONAME
39 40 1 0 0 
SMALL
USER_CHARGES


@<TRIPOS>ATOM
  1 O        0.0760     0.5830     1.1750 O.2   1 <1>  -0.5700 
  2 C        0.7110     1.1630     0.3240 C.2   1 <1>   0.5690 
  3 N        1.9190     0.7120    -0.0930 N.am  1 <1>  -0.7300 
  4 C        0.1450     2.4500    -0.2980 C.3   1 <1>   0.2610 
  5 C        2.6590    -0.4180     0.4660 C.3   1 <1>   0.3640 
  6 O        0.9190     2.9150    -1.3750 O.3   1 <1>  -0.5600 
  7 C        0.1120     3.6310     0.6640 C.3   1 <1>  -0.1600 
  8 C        4.1470    -0.0890     0.4270 C.ar  1 <1>  -0.1440 
  9 C        2.3290    -1.6710    -0.3410 C.3   1 <1>  -0.2400 
 10 C        0.7020     4.2760    -1.5780 C.3   1 <1>   0.1200 
 11 C        0.1580     4.8340    -0.2640 C.3   1 <1>  -0.1600 
 12 C        4.8040     0.1530    -0.7730 C.ar  1 <1>  -0.1500 
 13 C        4.8690    -0.0200     1.6090 C.ar  1 <1>  -0.1500 
 14 C        6.1550     0.4530    -0.7880 C.ar  1 <1>  -0.1500 
 15 C        6.2200     0.2800     1.5940 C.ar  1 <1>  -0.1500 
 16 C        6.8720     0.5170     0.3950 C.ar  1 <1>  -0.1430 
 17 C        8.3560     0.8470     0.3790 C.3   1 <1>  -0.0170 
 18 C        8.5700     2.3590     0.4750 C.3   1 <1>  -0.2400 
 19 H        2.4190     1.2730    -0.7860 H     1 <1>   0.3700 
 20 H       -0.8420     2.2520    -0.6740 H     1 <1>   0.0800 
 21 H        2.3470    -0.5700     1.4870 H     1 <1>   0.0800 
 22 H        0.9890     3.6060     1.2880 H     1 <1>   0.0800 
 23 H       -0.7650     3.6120     1.2860 H     1 <1>   0.0800 
 24 H        2.5630    -1.5330    -1.3800 H     1 <1>   0.0800 
 25 H        1.2840    -1.9010    -0.2390 H     1 <1>   0.0800 
 26 H        2.8990    -2.5000     0.0350 H     1 <1>   0.0800 
 27 H       -0.0110     4.3890    -2.3780 H     1 <1>   0.0800 
 28 H        1.6380     4.7310    -1.8520 H     1 <1>   0.0800 
 29 H        0.7920     5.6120     0.1230 H     1 <1>   0.0800 
 30 H       -0.8280     5.2340    -0.4240 H     1 <1>   0.0800 
 31 H        4.2670     0.1090    -1.7040 H     1 <1>   0.1500 
 32 H        4.3810    -0.1980     2.5520 H     1 <1>   0.1500 
 33 H        6.6460     0.6390    -1.7260 H     1 <1>   0.1500 
 34 H        6.7620     0.3300     2.5210 H     1 <1>   0.1500 
 35 H        8.7990     0.4760    -0.5290 H     1 <1>   0.0800 
 36 H        8.8450     0.3600     1.2040 H     1 <1>   0.0800 
 37 H        8.0980     2.8540    -0.3560 H     1 <1>   0.0800 
 38 H        9.6210     2.5870     0.4630 H     1 <1>   0.0800 
 39 H        8.1430     2.7360     1.3870 H     1 <1>   0.0800 
@<TRIPOS>BOND
  1   1   2  2   
  2   2   3  am  
  3   2   4  1   
  4   3   5  1   
  5   3  19  1   
  6   4   6  1   
  7   4   7  1   
  8   4  20  1   
  9   5   8  1   
 10   5   9  1   
 11   5  21  1   
 12   6  10  1   
 13   7  11  1   
 14   7  22  1   
 15   7  23  1   
 16   8  12  ar  
 17   8  13  ar  
 18   9  24  1   
 19   9  25  1   
 20   9  26  1   
 21  10  11  1   
 22  10  27  1   
 23  10  28  1   
 24  11  29  1   
 25  11  30  1   
 26  12  14  ar  
 27  12  31  1   
 28  13  15  ar  
 29  13  32  1   
 30  14  16  ar  
 31  14  33  1   
 32  15  16  ar  
 33  15  34  1   
 34  16  17  1   
 35  17  18  1   
 36  17  35  1   
 37  17  36  1   
 38  18  37  1   
 39  18  38  1   
 40  18  39  1   
@<TRIPOS>SUBSTRUCTURE
  1 ****   3 GROUP 4 **** **** 0

# MOE 2024.06 (io_trps.svl 2023.06)
