@<TRIPOS>MOLECULE
NONAME
44 44 1 0 0 
SMALL
USER_CHARGES


@<TRIPOS>ATOM
  1 O       -1.6890     0.9080     1.8420 O.2   1 <1>  -0.5700 
  2 C       -1.8560     1.0880     0.6580 C.2   1 <1>   0.5690 
  3 N       -1.0200     1.8740    -0.0910 N.am  1 <1>  -0.5470 
  4 C       -3.0620     0.4300    -0.0630 C.3   1 <1>   0.0610 
  5 C        0.1400     2.5880     0.2530 C.ar  1 <1>   0.1170 
  6 C       -2.5760    -0.4730    -1.2130 C.3   1 <1>  -0.2400 
  7 C       -3.9940     1.5110    -0.6460 C.3   1 <1>  -0.2400 
  8 C       -3.8980    -0.4430     0.8960 C.3   1 <1>  -0.2400 
  9 C        0.5290     3.6550    -0.5490 C.ar  1 <1>  -0.1500 
 10 C        0.9310     2.2700     1.3530 C.ar  1 <1>  -0.1500 
 11 C        1.6700     4.3820    -0.2630 C.ar  1 <1>  -0.1500 
 12 C        2.0720     2.9970     1.6410 C.ar  1 <1>  -0.1500 
 13 C        2.4600     4.0540     0.8300 C.ar  1 <1>   0.1170 
 14 N        3.6030     4.7990     1.1270 N.am  1 <1>  -0.5470 
 15 C        4.9200     4.6560     0.8030 C.2   1 <1>   0.5690 
 16 O        5.6770     5.4910     1.2360 O.2   1 <1>  -0.5700 
 17 C        5.4800     3.4930    -0.0730 C.3   1 <1>   0.0610 
 18 C        4.7610     3.3880    -1.4330 C.3   1 <1>  -0.2400 
 19 C        6.9790     3.7100    -0.3790 C.3   1 <1>  -0.2400 
 20 C        5.3620     2.1420     0.6580 C.3   1 <1>  -0.2400 
 21 H       -1.3180     1.9890    -1.0570 H     1 <1>   0.3700 
 22 H       -2.0470     0.0930    -1.9590 H     1 <1>   0.0800 
 23 H       -3.4070    -0.9620    -1.6910 H     1 <1>   0.0800 
 24 H       -1.9130    -1.2300    -0.8310 H     1 <1>   0.0800 
 25 H       -3.4860     2.1100    -1.3800 H     1 <1>   0.0800 
 26 H       -4.3390     2.1610     0.1400 H     1 <1>   0.0800 
 27 H       -4.8520     1.0620    -1.1130 H     1 <1>   0.0800 
 28 H       -3.2890    -1.2240     1.3160 H     1 <1>   0.0800 
 29 H       -4.7300    -0.8950     0.3860 H     1 <1>   0.0800 
 30 H       -4.2790     0.1530     1.7070 H     1 <1>   0.0800 
 31 H       -0.0670     3.9260    -1.4020 H     1 <1>   0.1500 
 32 H        0.6600     1.4500     1.9910 H     1 <1>   0.1500 
 33 H        1.9570     5.2080    -0.8890 H     1 <1>   0.1500 
 34 H        2.6660     2.7430     2.5000 H     1 <1>   0.1500 
 35 H        3.4510     5.6220     1.7110 H     1 <1>   0.3700 
 36 H        4.7510     4.3460    -1.9230 H     1 <1>   0.0800 
 37 H        3.7500     3.0510    -1.3130 H     1 <1>   0.0800 
 38 H        5.2610     2.6830    -2.0740 H     1 <1>   0.0800 
 39 H        7.1210     4.6390    -0.9050 H     1 <1>   0.0800 
 40 H        7.3750     2.9130    -0.9830 H     1 <1>   0.0800 
 41 H        7.5450     3.7550     0.5350 H     1 <1>   0.0800 
 42 H        4.3340     1.8650     0.7930 H     1 <1>   0.0800 
 43 H        5.8300     2.2020     1.6250 H     1 <1>   0.0800 
 44 H        5.8410     1.3610     0.0940 H     1 <1>   0.0800 
@<TRIPOS>BOND
  1   1   2  2   
  2   2   3  am  
  3   2   4  1   
  4   3   5  1   
  5   3  21  1   
  6   4   6  1   
  7   4   7  1   
  8   4   8  1   
  9   5   9  ar  
 10   5  10  ar  
 11   6  22  1   
 12   6  23  1   
 13   6  24  1   
 14   7  25  1   
 15   7  26  1   
 16   7  27  1   
 17   8  28  1   
 18   8  29  1   
 19   8  30  1   
 20   9  11  ar  
 21   9  31  1   
 22  10  12  ar  
 23  10  32  1   
 24  11  13  ar  
 25  11  33  1   
 26  12  13  ar  
 27  12  34  1   
 28  13  14  1   
 29  14  15  am  
 30  14  35  1   
 31  15  16  2   
 32  15  17  1   
 33  17  18  1   
 34  17  19  1   
 35  17  20  1   
 36  18  36  1   
 37  18  37  1   
 38  18  38  1   
 39  19  39  1   
 40  19  40  1   
 41  19  41  1   
 42  20  42  1   
 43  20  43  1   
 44  20  44  1   
@<TRIPOS>SUBSTRUCTURE
  1 ****  10 GROUP 4 **** **** 0

# MOE 2024.06 (io_trps.svl 2023.06)
