@<TRIPOS>MOLECULE
NONAME
39 40 1 0 0 
SMALL
USER_CHARGES


@<TRIPOS>ATOM
  1 N       -0.0490    -0.0320     0.1920 N.4   1 <1>  -0.9590 
  2 C        1.2680     0.6360     0.4380 C.3   1 <1>   0.4230 
  3 C       -1.2960     0.7590     0.4940 C.3   1 <1>   0.3430 
  4 C       -0.1720    -1.3870     0.8350 C.3   1 <1>   0.3430 
  5 C        1.1940     2.1440     0.1180 C.3   1 <1>  -0.1600 
  6 C        2.3470    -0.0970    -0.3830 C.3   1 <1>  -0.1600 
  7 C       -2.5760    -0.0130     0.0900 C.3   1 <1>   0.1100 
  8 C       -1.4230    -2.1420     0.3210 C.3   1 <1>   0.1100 
  9 C        2.5090     2.9310     0.2650 C.3   1 <1>  -0.1600 
 10 C        3.7700     0.2190     0.1030 C.3   1 <1>  -0.1600 
 11 N       -2.2620    -1.3020    -0.5640 N.3   1 <1>  -0.8100 
 12 C        3.5140     2.6320    -0.8530 C.3   1 <1>  -0.1600 
 13 C        4.4240     1.4250    -0.5850 C.3   1 <1>  -0.1600 
 14 C       -3.4820    -2.0090    -0.9750 C.3   1 <1>   0.0300 
 15 H       -0.1350    -0.2310    -0.8170 H     1 <1>   0.4500 
 16 H        1.5120     0.5350     1.4830 H     1 <1>   0.0800 
 17 H       -1.2810     1.6880    -0.0520 H     1 <1>   0.0800 
 18 H       -1.3380     0.9970     1.5430 H     1 <1>   0.0800 
 19 H       -0.2440    -1.2750     1.9040 H     1 <1>   0.0800 
 20 H        0.6950    -1.9890     0.6310 H     1 <1>   0.0800 
 21 H        0.5040     2.6050     0.8010 H     1 <1>   0.0800 
 22 H        0.8210     2.2830    -0.8820 H     1 <1>   0.0800 
 23 H        2.2520     0.1360    -1.4300 H     1 <1>   0.0800 
 24 H        2.2290    -1.1580    -0.2810 H     1 <1>   0.0800 
 25 H       -3.1520     0.5990    -0.5840 H     1 <1>   0.0800 
 26 H       -3.1790    -0.1830     0.9660 H     1 <1>   0.0800 
 27 H       -2.0000    -2.4830     1.1640 H     1 <1>   0.0800 
 28 H       -1.1030    -3.0140    -0.2250 H     1 <1>   0.0800 
 29 H        2.9550     2.7690     1.2320 H     1 <1>   0.0800 
 30 H        2.2660     3.9790     0.2060 H     1 <1>   0.0800 
 31 H        4.4000    -0.6360    -0.0800 H     1 <1>   0.0800 
 32 H        3.7670     0.3730     1.1700 H     1 <1>   0.0800 
 33 H        4.1490     3.4930    -0.9850 H     1 <1>   0.0800 
 34 H        2.9930     2.4940    -1.7860 H     1 <1>   0.0800 
 35 H        4.8390     1.1070    -1.5280 H     1 <1>   0.0800 
 36 H        5.2530     1.7450     0.0230 H     1 <1>   0.0800 
 37 H       -4.0510    -1.3970    -1.6550 H     1 <1>   0.0800 
 38 H       -4.0950    -2.2450    -0.1210 H     1 <1>   0.0800 
 39 H       -3.2250    -2.9240    -1.4830 H     1 <1>   0.0800 
@<TRIPOS>BOND
  1   1   2  1   
  2   1   3  1   
  3   1   4  1   
  4   1  15  1   
  5   2   5  1   
  6   2   6  1   
  7   2  16  1   
  8   3   7  1   
  9   3  17  1   
 10   3  18  1   
 11   4   8  1   
 12   4  19  1   
 13   4  20  1   
 14   5   9  1   
 15   5  21  1   
 16   5  22  1   
 17   6  10  1   
 18   6  23  1   
 19   6  24  1   
 20   7  11  1   
 21   7  25  1   
 22   7  26  1   
 23   8  11  1   
 24   8  27  1   
 25   8  28  1   
 26   9  12  1   
 27   9  29  1   
 28   9  30  1   
 29  10  13  1   
 30  10  31  1   
 31  10  32  1   
 32  11  14  1   
 33  12  13  1   
 34  12  33  1   
 35  12  34  1   
 36  13  35  1   
 37  13  36  1   
 38  14  37  1   
 39  14  38  1   
 40  14  39  1   
@<TRIPOS>SUBSTRUCTURE
  1 ****   1 GROUP 4 **** **** 0

# MOE 2024.06 (io_trps.svl 2023.06)
