@<TRIPOS>MOLECULE
NONAME
48 50 1 0 0 
SMALL
USER_CHARGES


@<TRIPOS>ATOM
  1 S       -0.0130     0.5000     0.4380 S.o2  1 <1>   1.4470 
  2 O        0.1080     1.0590     1.7680 O.2   1 <1>  -0.6500 
  3 O       -1.1320     0.8880    -0.3930 O.2   1 <1>  -0.6500 
  4 N        1.3960     0.9340    -0.4000 N.am  1 <1>  -0.8490 
  5 C        0.0860    -1.3110     0.4980 C.ar  1 <1>  -0.0090 
  6 C        2.6110     0.6600     0.3850 C.3   1 <1>   0.1960 
  7 C        1.3540     2.3420    -0.8060 C.3   1 <1>   0.1960 
  8 C       -0.0720    -2.0700    -0.6550 C.ar  1 <1>  -0.1500 
  9 C        0.3470    -1.9830     1.6880 C.ar  1 <1>  -0.1500 
 10 C        3.8610     0.8950    -0.4730 C.3   1 <1>  -0.0190 
 11 C        2.5620     2.6750    -1.6910 C.3   1 <1>  -0.1600 
 12 C        0.0260    -3.4510    -0.6270 C.ar  1 <1>  -0.1500 
 13 C        0.4470    -3.3640     1.7260 C.ar  1 <1>  -0.1500 
 14 C        5.1160     0.5630     0.3190 C.2   1 <1>   0.5690 
 15 C        3.8880     2.3430    -0.9940 C.3   1 <1>  -0.1600 
 16 C        0.2860    -4.0990     0.5660 C.ar  1 <1>  -0.1500 
 17 O        5.1850     0.9130     1.4730 O.2   1 <1>  -0.5700 
 18 N        6.1050    -0.1200    -0.3300 N.am  1 <1>  -0.5470 
 19 C        7.3700    -0.5990     0.0590 C.ar  1 <1>   0.1170 
 20 C        8.0940    -1.3550    -0.8700 C.ar  1 <1>   0.0830 
 21 C        7.9320    -0.3560     1.3080 C.ar  1 <1>  -0.1500 
 22 O        7.5070    -1.5710    -2.0880 O.3   1 <1>  -0.3630 
 23 C        9.3520    -1.8510    -0.5390 C.ar  1 <1>  -0.1500 
 24 C        9.1820    -0.8520     1.6320 C.ar  1 <1>  -0.1500 
 25 C        8.1350    -2.3670    -3.0700 C.3   1 <1>   0.0400 
 26 C        9.8920    -1.5990     0.7100 C.ar  1 <1>  -0.1500 
 27 H        2.6100    -0.3640     0.7190 H     1 <1>   0.0800 
 28 H        2.6380     1.2940     1.2570 H     1 <1>   0.0800 
 29 H        1.3470     2.9740     0.0670 H     1 <1>   0.0800 
 30 H        0.4530     2.5340    -1.3660 H     1 <1>   0.0800 
 31 H       -0.2740    -1.5690    -1.5880 H     1 <1>   0.1500 
 32 H        0.4730    -1.4200     2.5980 H     1 <1>   0.1500 
 33 H        3.8030     0.2240    -1.3110 H     1 <1>   0.0800 
 34 H        2.5380     3.7210    -1.9430 H     1 <1>   0.0800 
 35 H        2.4800     2.1160    -2.6070 H     1 <1>   0.0800 
 36 H       -0.1020    -4.0190    -1.5330 H     1 <1>   0.1500 
 37 H        0.6490    -3.8640     2.6570 H     1 <1>   0.1500 
 38 H        4.7080     2.4760    -1.6770 H     1 <1>   0.0800 
 39 H        4.0330     3.0150    -0.1640 H     1 <1>   0.0800 
 40 H        0.3630    -5.1730     0.5920 H     1 <1>   0.1500 
 41 H        5.9110    -0.3680    -1.3010 H     1 <1>   0.3700 
 42 H        7.4010     0.2230     2.0390 H     1 <1>   0.1500 
 43 H        9.9270    -2.4330    -1.2330 H     1 <1>   0.1500 
 44 H        9.6000    -0.6540     2.6040 H     1 <1>   0.1500 
 45 H        7.4880    -2.4140    -3.9270 H     1 <1>   0.0800 
 46 H        8.2870    -3.3550    -2.6740 H     1 <1>   0.0800 
 47 H        9.0700    -1.9120    -3.3440 H     1 <1>   0.0800 
 48 H       10.8650    -1.9840     0.9650 H     1 <1>   0.1500 
@<TRIPOS>BOND
  1   1   2  2   
  2   1   3  2   
  3   1   4  am  
  4   1   5  1   
  5   4   6  1   
  6   4   7  1   
  7   5   8  ar  
  8   5   9  ar  
  9   6  10  1   
 10   6  27  1   
 11   6  28  1   
 12   7  11  1   
 13   7  29  1   
 14   7  30  1   
 15   8  12  ar  
 16   8  31  1   
 17   9  13  ar  
 18   9  32  1   
 19  10  14  1   
 20  10  15  1   
 21  10  33  1   
 22  11  15  1   
 23  11  34  1   
 24  11  35  1   
 25  12  16  ar  
 26  12  36  1   
 27  13  16  ar  
 28  13  37  1   
 29  14  17  2   
 30  14  18  am  
 31  15  38  1   
 32  15  39  1   
 33  16  40  1   
 34  18  19  1   
 35  18  41  1   
 36  19  20  ar  
 37  19  21  ar  
 38  20  22  1   
 39  20  23  ar  
 40  21  24  ar  
 41  21  42  1   
 42  22  25  1   
 43  23  26  ar  
 44  23  43  1   
 45  24  26  ar  
 46  24  44  1   
 47  25  45  1   
 48  25  46  1   
 49  25  47  1   
 50  26  48  1   
@<TRIPOS>SUBSTRUCTURE
  1 ****  10 GROUP 4 **** **** 0

# MOE 2024.06 (io_trps.svl 2023.06)
