@<TRIPOS>MOLECULE
NONAME
32 32 1 0 0 
SMALL
USER_CHARGES


@<TRIPOS>ATOM
  1 O       -0.3890     0.4890     0.0260 O.2   1 <1>  -0.5700 
  2 C       -0.3160     1.6800    -0.1700 C.2   1 <1>   0.4950 
  3 C        0.9480     2.3510    -0.2750 C.2   1 <1>  -0.1360 
  4 C       -1.6220     2.5130    -0.3050 C.3   1 <1>   0.3410 
  5 C        2.1780     1.7890    -0.1710 C.2   1 <1>  -0.1780 
  6 O       -1.5330     3.3920    -1.3750 O.3   1 <1>  -0.6800 
  7 C       -2.8630     1.6550    -0.5870 C.3   1 <1>  -0.2400 
  8 C       -1.8590     3.3780     0.9360 C.3   1 <1>  -0.2400 
  9 C        3.4710     2.4150    -0.2680 C.ar  1 <1>   0.0280 
 10 C        3.6410     3.7630    -0.5910 C.ar  1 <1>  -0.1500 
 11 C        4.6240     1.6640    -0.0360 C.ar  1 <1>  -0.1500 
 12 C        4.8990     4.3290    -0.6740 C.ar  1 <1>  -0.1500 
 13 C        5.8860     2.2230    -0.1160 C.ar  1 <1>  -0.1500 
 14 C        6.0330     3.5690    -0.4370 C.ar  1 <1>   0.0820 
 15 O        7.2270     4.1960    -0.5370 O.3   1 <1>  -0.3620 
 16 C        8.4420     3.5160    -0.3170 C.3   1 <1>   0.0400 
 17 H        0.8610     3.4050    -0.4530 H     1 <1>   0.1500 
 18 H        2.2220     0.7280     0.0120 H     1 <1>   0.1500 
 19 H       -1.5740     2.8870    -2.2100 H     1 <1>   0.4000 
 20 H       -3.0410     0.9930     0.2420 H     1 <1>   0.0800 
 21 H       -2.7120     1.0490    -1.4620 H     1 <1>   0.0800 
 22 H       -3.7330     2.2720    -0.7200 H     1 <1>   0.0800 
 23 H       -1.9650     2.7500     1.8020 H     1 <1>   0.0800 
 24 H       -2.7570     3.9590     0.8250 H     1 <1>   0.0800 
 25 H       -1.0300     4.0420     1.0980 H     1 <1>   0.0800 
 26 H        2.7880     4.3840    -0.7840 H     1 <1>   0.1500 
 27 H        4.5290     0.6230     0.2140 H     1 <1>   0.1500 
 28 H        5.0150     5.3680    -0.9230 H     1 <1>   0.1500 
 29 H        6.7400     1.6010     0.0730 H     1 <1>   0.1500 
 30 H        9.2460     4.2170    -0.4510 H     1 <1>   0.0800 
 31 H        8.5300     2.7180    -1.0320 H     1 <1>   0.0800 
 32 H        8.4520     3.1370     0.6900 H     1 <1>   0.0800 
@<TRIPOS>BOND
  1   1   2  2   
  2   2   3  1   
  3   2   4  1   
  4   3   5  2   
  5   3  17  1   
  6   4   6  1   
  7   4   7  1   
  8   4   8  1   
  9   5   9  1   
 10   5  18  1   
 11   6  19  1   
 12   7  20  1   
 13   7  21  1   
 14   7  22  1   
 15   8  23  1   
 16   8  24  1   
 17   8  25  1   
 18   9  10  ar  
 19   9  11  ar  
 20  10  12  ar  
 21  10  26  1   
 22  11  13  ar  
 23  11  27  1   
 24  12  14  ar  
 25  12  28  1   
 26  13  14  ar  
 27  13  29  1   
 28  14  15  1   
 29  15  16  1   
 30  16  30  1   
 31  16  31  1   
 32  16  32  1   
@<TRIPOS>SUBSTRUCTURE
  1 ****   5 GROUP 4 **** **** 0

# MOE 2024.06 (io_trps.svl 2023.06)
