@<TRIPOS>MOLECULE
NONAME
36 36 1 0 0 
SMALL
USER_CHARGES


@<TRIPOS>ATOM
  1 F       -1.7860     1.1730     1.3640 F     1 <1>  -0.1900 
  2 C       -0.9890     2.0420     0.7980 C.ar  1 <1>   0.1900 
  3 C       -1.3620     2.5970    -0.4170 C.ar  1 <1>  -0.1440 
  4 C        0.1830     2.3800     1.4450 C.ar  1 <1>  -0.1500 
  5 C       -0.5130     3.5300    -0.9960 C.ar  1 <1>  -0.1500 
  6 C       -2.6580     2.1850    -1.0850 C.3   1 <1>   0.4870 
  7 C        1.0170     3.3140     0.8550 C.ar  1 <1>  -0.1500 
  8 C        0.6680     3.8840    -0.3600 C.ar  1 <1>  -0.1500 
  9 N       -3.8000     2.5550    -0.1890 N.4   1 <1>  -0.9590 
 10 C       -5.0600     1.8260    -0.5810 C.3   1 <1>   0.3430 
 11 C       -3.9390     4.0520    -0.1290 C.3   1 <1>   0.2630 
 12 C       -6.2080     1.9280     0.4670 C.3   1 <1>   0.3430 
 13 N       -7.4550     1.1480     0.1180 N.4   1 <1>  -0.9590 
 14 C       -8.5550     1.4690     1.0900 C.3   1 <1>   0.2630 
 15 C       -7.2470    -0.3410     0.1040 C.3   1 <1>   0.2630 
 16 H        0.4410     1.9260     2.3860 H     1 <1>   0.1500 
 17 H       -0.7470     3.9890    -1.9430 H     1 <1>   0.1500 
 18 H       -2.6360     1.1190    -1.2430 H     1 <1>   0.0800 
 19 H       -2.7530     2.6710    -2.0430 H     1 <1>   0.0800 
 20 H        1.9390     3.5960     1.3370 H     1 <1>   0.1500 
 21 H        1.3270     4.6080    -0.8130 H     1 <1>   0.1500 
 22 H       -3.4740     2.2310     0.7410 H     1 <1>   0.4500 
 23 H       -4.8220     0.7840    -0.7170 H     1 <1>   0.0800 
 24 H       -5.4110     2.2150    -1.5230 H     1 <1>   0.0800 
 25 H       -4.2130     4.4470    -1.0940 H     1 <1>   0.0800 
 26 H       -3.0020     4.5020     0.1660 H     1 <1>   0.0800 
 27 H       -4.6870     4.3400     0.5910 H     1 <1>   0.0800 
 28 H       -6.4720     2.9660     0.5770 H     1 <1>   0.0800 
 29 H       -5.8380     1.5780     1.4180 H     1 <1>   0.0800 
 30 H       -7.8050     1.4310    -0.8150 H     1 <1>   0.4500 
 31 H       -8.2740     1.1800     2.0900 H     1 <1>   0.0800 
 32 H       -9.4570     0.9400     0.8240 H     1 <1>   0.0800 
 33 H       -8.7700     2.5260     1.0850 H     1 <1>   0.0800 
 34 H       -6.9100    -0.6850     1.0690 H     1 <1>   0.0800 
 35 H       -6.5170    -0.6210    -0.6390 H     1 <1>   0.0800 
 36 H       -8.1730    -0.8450    -0.1300 H     1 <1>   0.0800 
@<TRIPOS>BOND
  1   1   2  1   
  2   2   3  ar  
  3   2   4  ar  
  4   3   5  ar  
  5   3   6  1   
  6   4   7  ar  
  7   4  16  1   
  8   5   8  ar  
  9   5  17  1   
 10   6   9  1   
 11   6  18  1   
 12   6  19  1   
 13   7   8  ar  
 14   7  20  1   
 15   8  21  1   
 16   9  10  1   
 17   9  11  1   
 18   9  22  1   
 19  10  12  1   
 20  10  23  1   
 21  10  24  1   
 22  11  25  1   
 23  11  26  1   
 24  11  27  1   
 25  12  13  1   
 26  12  28  1   
 27  12  29  1   
 28  13  14  1   
 29  13  15  1   
 30  13  30  1   
 31  14  31  1   
 32  14  32  1   
 33  14  33  1   
 34  15  34  1   
 35  15  35  1   
 36  15  36  1   
@<TRIPOS>SUBSTRUCTURE
  1 ****   9 GROUP 4 **** **** 0

# MOE 2024.06 (io_trps.svl 2023.06)
