@<TRIPOS>MOLECULE
NONAME
53 55 1 0 0 
SMALL
USER_CHARGES


@<TRIPOS>ATOM
  1 S       -0.3510     0.2780     0.4660 S.o2  1 <1>   1.4470 
  2 O       -0.8110     0.0240     1.8150 O.2   1 <1>  -0.6500 
  3 O       -1.1560     1.0740    -0.4330 O.2   1 <1>  -0.6500 
  4 N       -0.0250    -1.2420    -0.2290 N.am  1 <1>  -0.8490 
  5 C        1.2820     1.0770     0.5240 C.ar  1 <1>  -0.0090 
  6 C       -1.2270    -2.0900    -0.4100 C.3   1 <1>   0.2760 
  7 C        0.9600    -1.9620     0.6020 C.3   1 <1>   0.1960 
  8 C        1.9890     1.3290    -0.6450 C.ar  1 <1>  -0.1500 
  9 C        1.8750     1.4510     1.7240 C.ar  1 <1>  -0.1500 
 10 C       -0.8390    -3.4220    -1.0820 C.3   1 <1>  -0.1600 
 11 C       -2.2950    -1.4370    -1.2950 C.3   1 <1>  -0.2400 
 12 C        1.4230    -3.2550    -0.0690 C.3   1 <1>  -0.1600 
 13 C        3.2380     1.9230    -0.6200 C.ar  1 <1>  -0.1500 
 14 C        3.1250     2.0420     1.7510 C.ar  1 <1>  -0.1500 
 15 C        0.2370    -4.1850    -0.3090 C.3   1 <1>  -0.1600 
 16 C        3.8450     2.2870     0.5830 C.ar  1 <1>   0.0860 
 17 C        5.1620     2.8980     0.6300 C.2   1 <1>   0.5440 
 18 O        5.4710     3.6210     1.5560 O.2   1 <1>  -0.5700 
 19 N        6.0730     2.6330    -0.3640 N.am  1 <1>  -0.5470 
 20 C        7.3460     3.1850    -0.5650 C.ar  1 <1>   0.1170 
 21 C        7.5560     4.5490    -0.7840 C.ar  1 <1>  -0.1430 
 22 C        8.4370     2.3240    -0.5760 C.ar  1 <1>  -0.1500 
 23 C        8.8440     5.0140    -0.9970 C.ar  1 <1>  -0.1500 
 24 C        6.4090     5.5520    -0.8010 C.3   1 <1>  -0.0970 
 25 C        9.7210     2.7910    -0.7940 C.ar  1 <1>  -0.1430 
 26 C        9.9190     4.1440    -1.0030 C.ar  1 <1>  -0.1500 
 27 C       10.9070     1.8440    -0.7990 C.3   1 <1>  -0.0970 
 28 H       -1.6620    -2.3010     0.5550 H     1 <1>   0.0800 
 29 H        0.5320    -2.1880     1.5660 H     1 <1>   0.0800 
 30 H        1.8330    -1.3540     0.7630 H     1 <1>   0.0800 
 31 H        1.5430     1.0570    -1.5880 H     1 <1>   0.1500 
 32 H        1.3490     1.2790     2.6500 H     1 <1>   0.1500 
 33 H       -0.4850    -3.2180    -2.0780 H     1 <1>   0.0800 
 34 H       -1.7080    -4.0490    -1.1680 H     1 <1>   0.0800 
 35 H       -1.8470    -1.0050    -2.1720 H     1 <1>   0.0800 
 36 H       -2.8350    -0.6840    -0.7530 H     1 <1>   0.0800 
 37 H       -3.0210    -2.1650    -1.6070 H     1 <1>   0.0800 
 38 H        2.1450    -3.7460     0.5580 H     1 <1>   0.0800 
 39 H        1.9010    -3.0150    -1.0030 H     1 <1>   0.0800 
 40 H        3.7380     2.1140    -1.5530 H     1 <1>   0.1500 
 41 H        3.5590     2.3250     2.6970 H     1 <1>   0.1500 
 42 H        0.5510    -5.0500    -0.8670 H     1 <1>   0.0800 
 43 H       -0.1620    -4.5170     0.6340 H     1 <1>   0.0800 
 44 H        5.8630     1.8290    -0.9490 H     1 <1>   0.3700 
 45 H        8.2750     1.2770    -0.4030 H     1 <1>   0.1500 
 46 H        9.0190     6.0630    -1.1590 H     1 <1>   0.1500 
 47 H        5.5540     5.1410    -1.3050 H     1 <1>   0.0800 
 48 H        6.6960     6.4540    -1.3110 H     1 <1>   0.0800 
 49 H        6.1340     5.8030     0.2070 H     1 <1>   0.0800 
 50 H       10.9110     4.5260    -1.1700 H     1 <1>   0.1500 
 51 H       10.5810     0.8200    -0.7910 H     1 <1>   0.0800 
 52 H       11.5140     2.0190     0.0710 H     1 <1>   0.0800 
 53 H       11.5040     2.0060    -1.6780 H     1 <1>   0.0800 
@<TRIPOS>BOND
  1   1   2  2   
  2   1   3  2   
  3   1   4  am  
  4   1   5  1   
  5   4   6  1   
  6   4   7  1   
  7   5   8  ar  
  8   5   9  ar  
  9   6  10  1   
 10   6  11  1   
 11   6  28  1   
 12   7  12  1   
 13   7  29  1   
 14   7  30  1   
 15   8  13  ar  
 16   8  31  1   
 17   9  14  ar  
 18   9  32  1   
 19  10  15  1   
 20  10  33  1   
 21  10  34  1   
 22  11  35  1   
 23  11  36  1   
 24  11  37  1   
 25  12  15  1   
 26  12  38  1   
 27  12  39  1   
 28  13  16  ar  
 29  13  40  1   
 30  14  16  ar  
 31  14  41  1   
 32  15  42  1   
 33  15  43  1   
 34  16  17  1   
 35  17  18  2   
 36  17  19  am  
 37  19  20  1   
 38  19  44  1   
 39  20  21  ar  
 40  20  22  ar  
 41  21  23  ar  
 42  21  24  1   
 43  22  25  ar  
 44  22  45  1   
 45  23  26  ar  
 46  23  46  1   
 47  24  47  1   
 48  24  48  1   
 49  24  49  1   
 50  25  26  ar  
 51  25  27  1   
 52  26  50  1   
 53  27  51  1   
 54  27  52  1   
 55  27  53  1   
@<TRIPOS>SUBSTRUCTURE
  1 ****  13 GROUP 4 **** **** 0

# MOE 2024.06 (io_trps.svl 2023.06)
