@<TRIPOS>MOLECULE
NONAME
34 35 1 0 0 
SMALL
USER_CHARGES


@<TRIPOS>ATOM
  1 F       -2.0870     1.0560     2.9070 F     1 <1>  -0.1900 
  2 C       -2.4240     1.2800     1.6640 C.ar  1 <1>   0.1900 
  3 C       -1.7140     2.1850     0.8940 C.ar  1 <1>   0.1900 
  4 C       -3.5050     0.5950     1.1390 C.ar  1 <1>  -0.1500 
  5 F       -0.6950     2.8310     1.3990 F     1 <1>  -0.1900 
  6 C       -2.0710     2.4220    -0.4200 C.ar  1 <1>  -0.1500 
  7 C       -3.8800     0.8310    -0.1810 C.ar  1 <1>  -0.1440 
  8 C       -3.1560     1.7390    -0.9530 C.ar  1 <1>  -0.1500 
  9 C       -5.0720     0.1010    -0.7770 C.3   1 <1>   0.4870 
 10 N       -6.3210     0.6260    -0.1620 N.4   1 <1>  -0.9590 
 11 C       -7.4650    -0.2780    -0.4630 C.3   1 <1>   0.3430 
 12 C       -6.5590     2.0510    -0.5430 C.3   1 <1>   0.3430 
 13 C       -8.7030     0.0590     0.3710 C.3   1 <1>  -0.1600 
 14 C       -7.2980     2.7680     0.5860 C.3   1 <1>  -0.1600 
 15 C       -9.3990     1.3530    -0.0720 C.3   1 <1>  -0.1600 
 16 C       -8.8300     2.6300     0.5630 C.3   1 <1>  -0.1600 
 17 H       -4.0240    -0.1080     1.7670 H     1 <1>   0.1500 
 18 H       -1.5060     3.1250    -1.0080 H     1 <1>   0.1500 
 19 H       -3.4240     1.9260    -1.9810 H     1 <1>   0.1500 
 20 H       -4.9730    -0.9530    -0.5720 H     1 <1>   0.0800 
 21 H       -5.0950     0.2380    -1.8460 H     1 <1>   0.0800 
 22 H       -6.1740     0.6200     0.8540 H     1 <1>   0.4500 
 23 H       -7.1800    -1.2950    -0.2440 H     1 <1>   0.0800 
 24 H       -7.7130    -0.2230    -1.5110 H     1 <1>   0.0800 
 25 H       -7.1130     2.1190    -1.4650 H     1 <1>   0.0800 
 26 H       -5.6120     2.5480    -0.6820 H     1 <1>   0.0800 
 27 H       -8.4690     0.0830     1.4210 H     1 <1>   0.0800 
 28 H       -9.4030    -0.7460     0.2270 H     1 <1>   0.0800 
 29 H       -7.0700     3.8170     0.5160 H     1 <1>   0.0800 
 30 H       -6.9140     2.4390     1.5360 H     1 <1>   0.0800 
 31 H      -10.4400     1.2930     0.2040 H     1 <1>   0.0800 
 32 H       -9.3740     1.4340    -1.1460 H     1 <1>   0.0800 
 33 H       -9.2450     3.4700     0.0310 H     1 <1>   0.0800 
 34 H       -9.1900     2.7060     1.5770 H     1 <1>   0.0800 
@<TRIPOS>BOND
  1   1   2  1   
  2   2   3  ar  
  3   2   4  ar  
  4   3   5  1   
  5   3   6  ar  
  6   4   7  ar  
  7   4  17  1   
  8   6   8  ar  
  9   6  18  1   
 10   7   8  ar  
 11   7   9  1   
 12   8  19  1   
 13   9  10  1   
 14   9  20  1   
 15   9  21  1   
 16  10  11  1   
 17  10  12  1   
 18  10  22  1   
 19  11  13  1   
 20  11  23  1   
 21  11  24  1   
 22  12  14  1   
 23  12  25  1   
 24  12  26  1   
 25  13  15  1   
 26  13  27  1   
 27  13  28  1   
 28  14  16  1   
 29  14  29  1   
 30  14  30  1   
 31  15  16  1   
 32  15  31  1   
 33  15  32  1   
 34  16  33  1   
 35  16  34  1   
@<TRIPOS>SUBSTRUCTURE
  1 ****   7 GROUP 4 **** **** 0

# MOE 2024.06 (io_trps.svl 2023.06)
