@<TRIPOS>MOLECULE
NONAME
32 32 1 0 0 
SMALL
USER_CHARGES


@<TRIPOS>ATOM
  1 S       -0.2530     0.4000     0.0320 S.3   1 <1>  -0.4100 
  2 C       -1.6250    -0.7810     0.0150 C.3   1 <1>   0.0700 
  3 C       -2.9310     0.0160     0.0210 C.3   1 <1>  -0.1600 
  4 C       -4.1500    -0.9150     0.0070 C.3   1 <1>  -0.1600 
  5 C       -5.4560    -0.1090     0.0130 C.3   1 <1>  -0.1600 
  6 C       -6.6770    -1.0300    -0.0010 C.3   1 <1>   0.1200 
  7 O       -7.8330    -0.2260     0.0060 O.3   1 <1>  -0.3620 
  8 C       -9.0730    -0.7770    -0.0040 C.ar  1 <1>   0.0820 
  9 C       -9.3150    -2.1490    -0.0200 C.ar  1 <1>  -0.1500 
 10 C      -10.1440     0.1020     0.0040 C.ar  1 <1>  -0.1500 
 11 C      -10.6140    -2.6310    -0.0300 C.ar  1 <1>  -0.1440 
 12 C      -11.4420    -0.3750    -0.0040 C.ar  1 <1>  -0.1500 
 13 C      -11.6750    -1.7390    -0.0200 C.ar  1 <1>  -0.1500 
 14 C      -10.8800    -4.1260    -0.0460 C.3   1 <1>  -0.0970 
 15 H        0.8410    -0.4180     0.0250 H     1 <1>   0.1800 
 16 H       -1.5290    -1.3970     0.8910 H     1 <1>   0.0800 
 17 H       -1.5250    -1.3770    -0.8760 H     1 <1>   0.0800 
 18 H       -2.9560     0.6560    -0.8450 H     1 <1>   0.0800 
 19 H       -2.9600     0.6360     0.9000 H     1 <1>   0.0800 
 20 H       -4.1210    -1.5550     0.8730 H     1 <1>   0.0800 
 21 H       -4.1170    -1.5350    -0.8730 H     1 <1>   0.0800 
 22 H       -5.4900     0.5270    -0.8550 H     1 <1>   0.0800 
 23 H       -5.4940     0.5070     0.8940 H     1 <1>   0.0800 
 24 H       -6.6930    -1.6540     0.8760 H     1 <1>   0.0800 
 25 H       -6.6890    -1.6340    -0.8910 H     1 <1>   0.0800 
 26 H       -8.5040    -2.8500    -0.0240 H     1 <1>   0.1500 
 27 H       -9.9520     1.1600     0.0160 H     1 <1>   0.1500 
 28 H      -12.2680     0.3130     0.0030 H     1 <1>   0.1500 
 29 H      -12.6880    -2.1030    -0.0240 H     1 <1>   0.1500 
 30 H      -10.0560    -4.6520    -0.4920 H     1 <1>   0.0800 
 31 H      -11.7660    -4.3420    -0.6140 H     1 <1>   0.0800 
 32 H      -11.0160    -4.4810     0.9600 H     1 <1>   0.0800 
@<TRIPOS>BOND
  1   1   2  1   
  2   1  15  1   
  3   2   3  1   
  4   2  16  1   
  5   2  17  1   
  6   3   4  1   
  7   3  18  1   
  8   3  19  1   
  9   4   5  1   
 10   4  20  1   
 11   4  21  1   
 12   5   6  1   
 13   5  22  1   
 14   5  23  1   
 15   6   7  1   
 16   6  24  1   
 17   6  25  1   
 18   7   8  1   
 19   8   9  ar  
 20   8  10  ar  
 21   9  11  ar  
 22   9  26  1   
 23  10  12  ar  
 24  10  27  1   
 25  11  13  ar  
 26  11  14  1   
 27  12  13  ar  
 28  12  28  1   
 29  13  29  1   
 30  14  30  1   
 31  14  31  1   
 32  14  32  1   
@<TRIPOS>SUBSTRUCTURE
  1 ****   6 GROUP 4 **** **** 0

# MOE 2024.06 (io_trps.svl 2023.06)
