@<TRIPOS>MOLECULE
NONAME
24 24 1 0 0 
SMALL
USER_CHARGES


@<TRIPOS>ATOM
  1 I        0.1290     0.2810    -0.1090 I     1 <1>  -0.0270 
  2 C        1.8040    -0.9320     0.4420 C.2   1 <1>   0.0270 
  3 C        1.7190    -2.1380     1.1140 C.2   1 <1>   0.1390 
  4 C        3.0990    -0.6790     0.2100 C.2   1 <1>  -0.3020 
  5 N        2.9030    -2.6290     1.3010 N.2   1 <1>  -0.7070 
  6 N        3.8040    -1.7310     0.7410 N.pl3 1 <1>   0.5610 
  7 C        5.2300    -1.8710     0.7160 C.2   1 <1>   0.7290 
  8 O        5.8250    -2.8160     1.1960 O.2   1 <1>  -0.5700 
  9 O        5.9110    -0.8790     0.1210 O.3   1 <1>  -0.4300 
 10 C        7.3080    -0.7570    -0.0450 C.3   1 <1>   0.2800 
 11 C        7.8400    -1.9090    -0.9060 C.3   1 <1>  -0.2400 
 12 C        7.5080     0.5640    -0.7890 C.3   1 <1>  -0.2400 
 13 C        7.9970    -0.6800     1.3210 C.3   1 <1>  -0.2400 
 14 H        0.8030    -2.6060     1.4370 H     1 <1>   0.1500 
 15 H        3.5670     0.1530    -0.2830 H     1 <1>   0.1500 
 16 H        7.2890    -1.9770    -1.8260 H     1 <1>   0.0800 
 17 H        7.7760    -2.8470    -0.3850 H     1 <1>   0.0800 
 18 H        8.8750    -1.7420    -1.1410 H     1 <1>   0.0800 
 19 H        7.0110     0.5370    -1.7410 H     1 <1>   0.0800 
 20 H        8.5550     0.7400    -0.9600 H     1 <1>   0.0800 
 21 H        7.1190     1.3820    -0.2100 H     1 <1>   0.0800 
 22 H        7.9340    -1.6170     1.8440 H     1 <1>   0.0800 
 23 H        7.5550     0.0930     1.9240 H     1 <1>   0.0800 
 24 H        9.0400    -0.4540     1.1920 H     1 <1>   0.0800 
@<TRIPOS>BOND
  1   1   2  1   
  2   2   3  1   
  3   2   4  2   
  4   3   5  2   
  5   3  14  1   
  6   4   6  1   
  7   4  15  1   
  8   5   6  1   
  9   6   7  1   
 10   7   8  2   
 11   7   9  1   
 12   9  10  1   
 13  10  11  1   
 14  10  12  1   
 15  10  13  1   
 16  11  16  1   
 17  11  17  1   
 18  11  18  1   
 19  12  19  1   
 20  12  20  1   
 21  12  21  1   
 22  13  22  1   
 23  13  23  1   
 24  13  24  1   
@<TRIPOS>SUBSTRUCTURE
  1 ****   7 GROUP 4 **** **** 0

# MOE 2024.06 (io_trps.svl 2023.06)
