@<TRIPOS>MOLECULE
NONAME
47 48 1 0 0 
SMALL
USER_CHARGES


@<TRIPOS>ATOM
  1 O        0.5800     0.4670     0.4170 O.2   1 <1>  -0.5700 
  2 C        0.3400     1.6290     0.2180 C.2   1 <1>   0.6590 
  3 O       -0.8670     2.1480     0.3770 O.3   1 <1>  -0.4300 
  4 C        1.4200     2.5930    -0.2400 C.3   1 <1>  -0.0190 
  5 C       -1.9590     1.3650     0.8040 C.3   1 <1>   0.1200 
  6 C        2.6360     1.7940    -0.7500 C.3   1 <1>   0.3430 
  7 C        1.8170     3.5900     0.8670 C.3   1 <1>  -0.1600 
  8 C       -3.1840     2.2690     0.8880 C.3   1 <1>  -0.2400 
  9 N        3.9400     2.5120    -0.5450 N.4   1 <1>  -0.9590 
 10 C        2.9110     4.5600     0.3760 C.3   1 <1>  -0.1600 
 11 C        3.8220     3.9880    -0.7190 C.3   1 <1>   0.3430 
 12 C        5.0250     1.9210    -1.3750 C.3   1 <1>   0.4860 
 13 C        6.3500     2.5150    -0.9390 C.ar  1 <1>  -0.1440 
 14 C        6.9460     2.1130     0.2500 C.ar  1 <1>  -0.1500 
 15 C        6.9760     3.4720    -1.7250 C.ar  1 <1>  -0.1500 
 16 C        8.1460     2.6720     0.6550 C.ar  1 <1>  -0.1500 
 17 C        8.1740     4.0300    -1.3180 C.ar  1 <1>  -0.1500 
 18 C        8.7660     3.6390    -0.1290 C.ar  1 <1>   0.0820 
 19 O        9.9370     4.2400     0.1930 O.3   1 <1>  -0.3620 
 20 C       10.6630     3.8770     1.3440 C.3   1 <1>   0.1200 
 21 C       11.9340     4.7200     1.3840 C.3   1 <1>  -0.2400 
 22 H        1.0120     3.1450    -1.0680 H     1 <1>   0.0800 
 23 H       -1.7230     0.9440     1.7670 H     1 <1>   0.0800 
 24 H       -2.1120     0.5720     0.0910 H     1 <1>   0.0800 
 25 H        2.4880     1.5830    -1.7970 H     1 <1>   0.0800 
 26 H        2.6840     0.8480    -0.2340 H     1 <1>   0.0800 
 27 H        2.1800     3.0400     1.7190 H     1 <1>   0.0800 
 28 H        0.9540     4.1500     1.1910 H     1 <1>   0.0800 
 29 H       -3.0150     3.0600     1.5970 H     1 <1>   0.0800 
 30 H       -4.0340     1.6970     1.2120 H     1 <1>   0.0800 
 31 H       -3.4040     2.6900    -0.0770 H     1 <1>   0.0800 
 32 H        4.2260     2.3750     0.4330 H     1 <1>   0.4500 
 33 H        3.5130     4.8680     1.2130 H     1 <1>   0.0800 
 34 H        2.4490     5.4510    -0.0150 H     1 <1>   0.0800 
 35 H        3.4020     4.2020    -1.6890 H     1 <1>   0.0800 
 36 H        4.7910     4.4600    -0.6580 H     1 <1>   0.0800 
 37 H        4.8540     2.1280    -2.4190 H     1 <1>   0.0800 
 38 H        5.0560     0.8510    -1.2390 H     1 <1>   0.0800 
 39 H        6.4910     1.3610     0.8720 H     1 <1>   0.1500 
 40 H        6.5480     3.7950    -2.6590 H     1 <1>   0.1500 
 41 H        8.5860     2.3440     1.5790 H     1 <1>   0.1500 
 42 H        8.6670     4.7730    -1.9210 H     1 <1>   0.1500 
 43 H       10.9040     2.8300     1.2800 H     1 <1>   0.0800 
 44 H       10.0520     4.0710     2.2090 H     1 <1>   0.0800 
 45 H       12.5290     4.5330     0.5090 H     1 <1>   0.0800 
 46 H       12.5130     4.4670     2.2540 H     1 <1>   0.0800 
 47 H       11.6830     5.7650     1.4310 H     1 <1>   0.0800 
@<TRIPOS>BOND
  1   1   2  2   
  2   2   3  1   
  3   2   4  1   
  4   3   5  1   
  5   4   6  1   
  6   4   7  1   
  7   4  22  1   
  8   5   8  1   
  9   5  23  1   
 10   5  24  1   
 11   6   9  1   
 12   6  25  1   
 13   6  26  1   
 14   7  10  1   
 15   7  27  1   
 16   7  28  1   
 17   8  29  1   
 18   8  30  1   
 19   8  31  1   
 20   9  11  1   
 21   9  12  1   
 22   9  32  1   
 23  10  11  1   
 24  10  33  1   
 25  10  34  1   
 26  11  35  1   
 27  11  36  1   
 28  12  13  1   
 29  12  37  1   
 30  12  38  1   
 31  13  14  ar  
 32  13  15  ar  
 33  14  16  ar  
 34  14  39  1   
 35  15  17  ar  
 36  15  40  1   
 37  16  18  ar  
 38  16  41  1   
 39  17  18  ar  
 40  17  42  1   
 41  18  19  1   
 42  19  20  1   
 43  20  21  1   
 44  20  43  1   
 45  20  44  1   
 46  21  45  1   
 47  21  46  1   
 48  21  47  1   
@<TRIPOS>SUBSTRUCTURE
  1 ****   9 GROUP 4 **** **** 0

# MOE 2024.06 (io_trps.svl 2023.06)
