@<TRIPOS>MOLECULE
NONAME
39 40 1 0 0 
SMALL
USER_CHARGES


@<TRIPOS>ATOM
  1 N       -0.0440     0.0220    -0.1350 N.4   1 <1>  -0.9590 
  2 C        1.2250     0.7800    -0.3320 C.3   1 <1>   0.4230 
  3 C       -0.0520    -1.3460    -0.7620 C.3   1 <1>   0.3430 
  4 C       -1.3030     0.7510    -0.5240 C.3   1 <1>   0.3430 
  5 C        2.4210    -0.0600     0.1690 C.3   1 <1>  -0.1600 
  6 C        1.1830     2.1410     0.3820 C.3   1 <1>  -0.1600 
  7 C       -1.3020    -2.1560    -0.3370 C.3   1 <1>   0.1100 
  8 C       -2.5700    -0.0850    -0.2140 C.3   1 <1>   0.1100 
  9 C        3.6260     0.7760     0.6490 C.3   1 <1>  -0.0800 
 10 C        2.4580     2.9630     0.1120 C.3   1 <1>  -0.1600 
 11 N       -2.2430    -1.3520     0.4750 N.3   1 <1>  -0.8100 
 12 C        3.7100     2.0990    -0.1210 C.3   1 <1>  -0.1600 
 13 C        4.9290    -0.0190     0.5170 C.3   1 <1>  -0.2400 
 14 C       -3.4550    -2.1160     0.8020 C.3   1 <1>   0.0300 
 15 H       -0.1730    -0.1680     0.8700 H     1 <1>   0.4500 
 16 H        1.3640     0.9700    -1.3840 H     1 <1>   0.0800 
 17 H        0.8250    -1.8990    -0.4700 H     1 <1>   0.0800 
 18 H       -0.0380    -1.2560    -1.8360 H     1 <1>   0.0800 
 19 H       -1.2830     0.9910    -1.5730 H     1 <1>   0.0800 
 20 H       -1.3750     1.6760     0.0230 H     1 <1>   0.0800 
 21 H        2.7380    -0.6910    -0.6430 H     1 <1>   0.0800 
 22 H        2.1230    -0.6900     0.9880 H     1 <1>   0.0800 
 23 H        1.0940     1.9750     1.4420 H     1 <1>   0.0800 
 24 H        0.3480     2.7340     0.0610 H     1 <1>   0.0800 
 25 H       -0.9840    -3.0100     0.2370 H     1 <1>   0.0800 
 26 H       -1.7970    -2.5260    -1.2190 H     1 <1>   0.0800 
 27 H       -3.0920    -0.2920    -1.1330 H     1 <1>   0.0800 
 28 H       -3.2280     0.5000     0.4060 H     1 <1>   0.0800 
 29 H        3.4890     1.0110     1.6930 H     1 <1>   0.0800 
 30 H        2.6290     3.6150     0.9530 H     1 <1>   0.0800 
 31 H        2.3140     3.5920    -0.7500 H     1 <1>   0.0800 
 32 H        3.8160     1.8920    -1.1730 H     1 <1>   0.0800 
 33 H        4.5820     2.6520     0.1860 H     1 <1>   0.0800 
 34 H        5.1380    -0.2510    -0.5130 H     1 <1>   0.0800 
 35 H        4.8660    -0.9390     1.0720 H     1 <1>   0.0800 
 36 H        5.7530     0.5510     0.9100 H     1 <1>   0.0800 
 37 H       -3.1920    -3.0130     1.3370 H     1 <1>   0.0800 
 38 H       -3.9910    -2.3860    -0.0930 H     1 <1>   0.0800 
 39 H       -4.1020    -1.5280     1.4320 H     1 <1>   0.0800 
@<TRIPOS>BOND
  1   1   2  1   
  2   1   3  1   
  3   1   4  1   
  4   1  15  1   
  5   2   5  1   
  6   2   6  1   
  7   2  16  1   
  8   3   7  1   
  9   3  17  1   
 10   3  18  1   
 11   4   8  1   
 12   4  19  1   
 13   4  20  1   
 14   5   9  1   
 15   5  21  1   
 16   5  22  1   
 17   6  10  1   
 18   6  23  1   
 19   6  24  1   
 20   7  11  1   
 21   7  25  1   
 22   7  26  1   
 23   8  11  1   
 24   8  27  1   
 25   8  28  1   
 26   9  12  1   
 27   9  13  1   
 28   9  29  1   
 29  10  12  1   
 30  10  30  1   
 31  10  31  1   
 32  11  14  1   
 33  12  32  1   
 34  12  33  1   
 35  13  34  1   
 36  13  35  1   
 37  13  36  1   
 38  14  37  1   
 39  14  38  1   
 40  14  39  1   
@<TRIPOS>SUBSTRUCTURE
  1 ****   1 GROUP 4 **** **** 0

# MOE 2024.06 (io_trps.svl 2023.06)
