@<TRIPOS>MOLECULE
NONAME
38 39 1 0 0 
SMALL
USER_CHARGES


@<TRIPOS>ATOM
  1 O       -1.2090     0.7820     1.6630 O.2   1 <1>  -0.5700 
  2 C       -1.3440     1.5470     0.7300 C.2   1 <1>   0.7800 
  3 O       -2.3260     1.3930    -0.1630 O.3   1 <1>  -0.4300 
  4 N       -0.5190     2.5970     0.5490 N.am  1 <1>  -0.7300 
  5 C       -3.3240     0.3980    -0.1710 C.3   1 <1>   0.2800 
  6 C       -0.5890     3.6170    -0.5070 C.3   1 <1>   0.2200 
  7 C       -4.1800     0.7040    -1.4010 C.3   1 <1>  -0.2400 
  8 C       -2.6900    -0.9890    -0.3290 C.3   1 <1>  -0.2400 
  9 C       -4.1920     0.5070     1.0880 C.3   1 <1>  -0.2400 
 10 C        0.6300     4.5630    -0.5840 C.3   1 <1>  -0.1860 
 11 C       -1.7670     4.5990    -0.2990 C.3   1 <1>  -0.0800 
 12 C        1.8610     4.2800     0.2690 C.2   1 <1>   0.9060 
 13 C        0.0000     5.9630    -0.3960 C.3   1 <1>  -0.0800 
 14 C       -1.3180     5.7890    -1.1350 C.3   1 <1>  -0.1600 
 15 C       -1.7220     5.2150     1.1150 C.3   1 <1>  -0.1600 
 16 O        2.9610     4.5650    -0.2140 O.co2 1 <1>  -0.9000 
 17 O        1.7590     3.7890     1.4020 O.co2 1 <1>  -0.9000 
 18 C       -0.4930     6.1360     1.0510 C.3   1 <1>  -0.1600 
 19 H        0.2710     2.7500     1.2060 H     1 <1>   0.3700 
 20 H       -0.7030     3.1190    -1.4540 H     1 <1>   0.0800 
 21 H       -3.5800     0.6580    -2.2910 H     1 <1>   0.0800 
 22 H       -4.6100     1.6860    -1.3180 H     1 <1>   0.0800 
 23 H       -4.9780    -0.0110    -1.4900 H     1 <1>   0.0800 
 24 H       -2.1370    -1.2630     0.5500 H     1 <1>   0.0800 
 25 H       -2.0310    -1.0030    -1.1780 H     1 <1>   0.0800 
 26 H       -3.4550    -1.7290    -0.4760 H     1 <1>   0.0800 
 27 H       -3.6370     0.2300     1.9650 H     1 <1>   0.0800 
 28 H       -5.0350    -0.1550     1.0130 H     1 <1>   0.0800 
 29 H       -4.5540     1.5120     1.2040 H     1 <1>   0.0800 
 30 H        0.9830     4.5200    -1.5970 H     1 <1>   0.0800 
 31 H       -2.7210     4.1880    -0.5760 H     1 <1>   0.0800 
 32 H        0.6290     6.7650    -0.7440 H     1 <1>   0.0800 
 33 H       -1.9670     6.6420    -1.0340 H     1 <1>   0.0800 
 34 H       -1.1830     5.5440    -2.1750 H     1 <1>   0.0800 
 35 H       -1.6250     4.4760     1.8910 H     1 <1>   0.0800 
 36 H       -2.6100     5.7940     1.2960 H     1 <1>   0.0800 
 37 H       -0.7810     7.1570     1.2290 H     1 <1>   0.0800 
 38 H        0.2560     5.8550     1.7720 H     1 <1>   0.0800 
@<TRIPOS>BOND
  1   1   2  2   
  2   2   3  1   
  3   2   4  am  
  4   3   5  1   
  5   4   6  1   
  6   4  19  1   
  7   5   7  1   
  8   5   8  1   
  9   5   9  1   
 10   6  10  1   
 11   6  11  1   
 12   6  20  1   
 13   7  21  1   
 14   7  22  1   
 15   7  23  1   
 16   8  24  1   
 17   8  25  1   
 18   8  26  1   
 19   9  27  1   
 20   9  28  1   
 21   9  29  1   
 22  10  12  1   
 23  10  13  1   
 24  10  30  1   
 25  11  14  1   
 26  11  15  1   
 27  11  31  1   
 28  12  16  ar  
 29  12  17  ar  
 30  13  14  1   
 31  13  18  1   
 32  13  32  1   
 33  14  33  1   
 34  14  34  1   
 35  15  18  1   
 36  15  35  1   
 37  15  36  1   
 38  18  37  1   
 39  18  38  1   
@<TRIPOS>SUBSTRUCTURE
  1 ****   4 GROUP 4 **** **** 0

# MOE 2024.06 (io_trps.svl 2023.06)
