@<TRIPOS>MOLECULE
NONAME
42 42 1 0 0 
SMALL
USER_CHARGES


@<TRIPOS>ATOM
  1 CL      -2.3090     1.7010     3.6140 Cl    1 <1>  -0.1770 
  2 C       -2.6270     1.5440     1.9040 C.ar  1 <1>   0.1770 
  3 C       -1.7510     2.0610     0.9640 C.ar  1 <1>   0.1770 
  4 C       -3.7810     0.8920     1.5040 C.ar  1 <1>  -0.1500 
  5 CL      -0.2950     2.8900     1.4560 Cl    1 <1>  -0.1770 
  6 C       -2.0220     1.9260    -0.3850 C.ar  1 <1>  -0.1500 
  7 C       -4.0670     0.7600     0.1500 C.ar  1 <1>  -0.1440 
  8 C       -3.1780     1.2750    -0.7890 C.ar  1 <1>  -0.1500 
  9 C       -5.3360     0.0550    -0.3010 C.3   1 <1>   0.4870 
 10 N       -6.5070     0.9630    -0.0660 N.4   1 <1>  -0.9590 
 11 C       -7.8070     0.2030    -0.1940 C.3   1 <1>   0.3430 
 12 C       -6.4160     2.1620    -0.9730 C.3   1 <1>   0.2630 
 13 C       -9.0750     1.0060     0.2270 C.3   1 <1>   0.3430 
 14 N      -10.3660     0.2180     0.2330 N.4   1 <1>  -0.9590 
 15 C      -10.8020    -0.2460    -1.1200 C.3   1 <1>   0.3430 
 16 C      -11.4480     1.0360     0.8610 C.3   1 <1>   0.3430 
 17 C      -10.4110    -1.7070    -1.2950 C.3   1 <1>  -0.2400 
 18 C      -12.5490     0.1130     1.3710 C.3   1 <1>  -0.2400 
 19 H       -4.4260     0.4930     2.2680 H     1 <1>   0.1500 
 20 H       -1.3290     2.3260    -1.1050 H     1 <1>   0.1500 
 21 H       -3.3640     1.1740    -1.8470 H     1 <1>   0.1500 
 22 H       -5.4460    -0.8550     0.2660 H     1 <1>   0.0800 
 23 H       -5.2610    -0.2040    -1.3460 H     1 <1>   0.0800 
 24 H       -6.3760     1.3000     0.9020 H     1 <1>   0.4500 
 25 H       -7.7510    -0.6790     0.4240 H     1 <1>   0.0800 
 26 H       -7.9240    -0.1150    -1.2170 H     1 <1>   0.0800 
 27 H       -6.4760     1.8620    -2.0070 H     1 <1>   0.0800 
 28 H       -5.4770     2.6730    -0.8230 H     1 <1>   0.0800 
 29 H       -7.2100     2.8610    -0.7670 H     1 <1>   0.0800 
 30 H       -9.1880     1.8480    -0.4350 H     1 <1>   0.0800 
 31 H       -8.9090     1.3880     1.2210 H     1 <1>   0.0800 
 32 H      -10.2840    -0.6180     0.8320 H     1 <1>   0.4500 
 33 H      -10.3630     0.3610    -1.8960 H     1 <1>   0.0800 
 34 H      -11.8750    -0.1680    -1.2120 H     1 <1>   0.0800 
 35 H      -11.8520     1.7410     0.1500 H     1 <1>   0.0800 
 36 H      -11.0540     1.5910     1.6980 H     1 <1>   0.0800 
 37 H       -9.3480    -1.8530    -1.2660 H     1 <1>   0.0800 
 38 H      -10.7600    -2.0480    -2.2550 H     1 <1>   0.0800 
 39 H      -10.8830    -2.3190    -0.5460 H     1 <1>   0.0800 
 40 H      -13.0250    -0.4240     0.5700 H     1 <1>   0.0800 
 41 H      -13.3050     0.7050     1.8560 H     1 <1>   0.0800 
 42 H      -12.1650    -0.5830     2.0950 H     1 <1>   0.0800 
@<TRIPOS>BOND
  1   1   2  1   
  2   2   3  ar  
  3   2   4  ar  
  4   3   5  1   
  5   3   6  ar  
  6   4   7  ar  
  7   4  19  1   
  8   6   8  ar  
  9   6  20  1   
 10   7   8  ar  
 11   7   9  1   
 12   8  21  1   
 13   9  10  1   
 14   9  22  1   
 15   9  23  1   
 16  10  11  1   
 17  10  12  1   
 18  10  24  1   
 19  11  13  1   
 20  11  25  1   
 21  11  26  1   
 22  12  27  1   
 23  12  28  1   
 24  12  29  1   
 25  13  14  1   
 26  13  30  1   
 27  13  31  1   
 28  14  15  1   
 29  14  16  1   
 30  14  32  1   
 31  15  17  1   
 32  15  33  1   
 33  15  34  1   
 34  16  18  1   
 35  16  35  1   
 36  16  36  1   
 37  17  37  1   
 38  17  38  1   
 39  17  39  1   
 40  18  40  1   
 41  18  41  1   
 42  18  42  1   
@<TRIPOS>SUBSTRUCTURE
  1 ****  10 GROUP 4 **** **** 0

# MOE 2024.06 (io_trps.svl 2023.06)
