@<TRIPOS>MOLECULE
NONAME
36 36 1 0 0 
SMALL
USER_CHARGES


@<TRIPOS>ATOM
  1 CL      -2.0800     0.8730     1.9220 Cl    1 <1>  -0.1770 
  2 C       -1.0360     2.0510     1.1620 C.ar  1 <1>   0.1770 
  3 C       -1.3630     2.5310    -0.0960 C.ar  1 <1>  -0.1440 
  4 C        0.0860     2.4940     1.8400 C.ar  1 <1>  -0.1500 
  5 C       -0.5320     3.4860    -0.6580 C.ar  1 <1>   0.1770 
  6 C       -2.5800     2.0140    -0.8300 C.3   1 <1>   0.4870 
  7 C        0.9080     3.4440     1.2540 C.ar  1 <1>  -0.1500 
  8 CL      -0.9230     4.1440    -2.2260 Cl    1 <1>  -0.1770 
  9 C        0.5960     3.9450     0.0000 C.ar  1 <1>  -0.1500 
 10 N       -3.8160     2.5380    -0.1630 N.4   1 <1>  -0.9590 
 11 C       -5.0180     1.7090    -0.5440 C.3   1 <1>   0.3430 
 12 C       -3.9660     4.0060    -0.4580 C.3   1 <1>   0.2630 
 13 C       -6.2900     1.9970     0.3080 C.3   1 <1>   0.3430 
 14 N       -7.4740     1.1110    -0.0060 N.4   1 <1>  -0.9590 
 15 C       -8.6940     1.5970     0.7250 C.3   1 <1>   0.2630 
 16 C       -7.2500    -0.3350     0.3440 C.3   1 <1>   0.2630 
 17 H        0.3180     2.1000     2.8150 H     1 <1>   0.1500 
 18 H       -2.5670     0.9360    -0.7910 H     1 <1>   0.0800 
 19 H       -2.5550     2.3100    -1.8670 H     1 <1>   0.0800 
 20 H        1.7870     3.7940     1.7720 H     1 <1>   0.1500 
 21 H        1.2250     4.6850    -0.4650 H     1 <1>   0.1500 
 22 H       -3.6180     2.4270     0.8470 H     1 <1>   0.4500 
 23 H       -4.7650     0.6680    -0.4240 H     1 <1>   0.0800 
 24 H       -5.2460     1.8800    -1.5830 H     1 <1>   0.0800 
 25 H       -4.1080     4.1690    -1.5150 H     1 <1>   0.0800 
 26 H       -3.0800     4.5420    -0.1530 H     1 <1>   0.0800 
 27 H       -4.8070     4.4220     0.0740 H     1 <1>   0.0800 
 28 H       -6.5780     3.0230     0.1480 H     1 <1>   0.0800 
 29 H       -6.0410     1.8810     1.3500 H     1 <1>   0.0800 
 30 H       -7.7040     1.1640    -1.0140 H     1 <1>   0.4500 
 31 H       -8.5410     1.5500     1.7920 H     1 <1>   0.0800 
 32 H       -9.5480     0.9870     0.4770 H     1 <1>   0.0800 
 33 H       -8.9180     2.6170     0.4540 H     1 <1>   0.0800 
 34 H       -7.0350    -0.4400     1.3960 H     1 <1>   0.0800 
 35 H       -6.4290    -0.7450    -0.2210 H     1 <1>   0.0800 
 36 H       -8.1330    -0.9130     0.1210 H     1 <1>   0.0800 
@<TRIPOS>BOND
  1   1   2  1   
  2   2   3  ar  
  3   2   4  ar  
  4   3   5  ar  
  5   3   6  1   
  6   4   7  ar  
  7   4  17  1   
  8   5   8  1   
  9   5   9  ar  
 10   6  10  1   
 11   6  18  1   
 12   6  19  1   
 13   7   9  ar  
 14   7  20  1   
 15   9  21  1   
 16  10  11  1   
 17  10  12  1   
 18  10  22  1   
 19  11  13  1   
 20  11  23  1   
 21  11  24  1   
 22  12  25  1   
 23  12  26  1   
 24  12  27  1   
 25  13  14  1   
 26  13  28  1   
 27  13  29  1   
 28  14  15  1   
 29  14  16  1   
 30  14  30  1   
 31  15  31  1   
 32  15  32  1   
 33  15  33  1   
 34  16  34  1   
 35  16  35  1   
 36  16  36  1   
@<TRIPOS>SUBSTRUCTURE
  1 ****  10 GROUP 4 **** **** 0

# MOE 2024.06 (io_trps.svl 2023.06)
