@<TRIPOS>MOLECULE
NONAME
42 43 1 0 0 
SMALL
USER_CHARGES


@<TRIPOS>ATOM
  1 CL      -0.5030    -0.0350    -1.7050 Cl    1 <1>  -0.1770 
  2 C        0.0530     1.1380    -0.5260 C.ar  1 <1>   0.1770 
  3 C       -0.0420     2.4930    -0.8230 C.ar  1 <1>  -0.1440 
  4 C        0.5740     0.6900     0.6810 C.ar  1 <1>  -0.1440 
  5 C        0.4060     3.4140     0.1110 C.ar  1 <1>  -0.1500 
  6 C       -0.6360     2.9660    -2.1420 C.3   1 <1>  -0.0960 
  7 C        1.0170     1.6270     1.6000 C.ar  1 <1>  -0.1500 
  8 C        0.6590    -0.7950     1.0010 C.3   1 <1>  -0.0960 
  9 C        0.9480     2.9810     1.3170 C.ar  1 <1>   0.0830 
 10 O        1.4290     3.8340     2.2560 O.3   1 <1>  -0.3630 
 11 C        2.1410     4.9940     1.8920 C.3   1 <1>   0.1200 
 12 C        3.4800     4.5760     1.2730 C.3   1 <1>  -0.1600 
 13 C        4.3370     5.7980     0.9480 C.3   1 <1>   0.3430 
 14 N        5.6800     5.3740     0.4670 N.4   1 <1>  -0.9590 
 15 C        6.6640     6.5090     0.4230 C.3   1 <1>   0.3430 
 16 C        5.6740     4.6420    -0.8490 C.3   1 <1>   0.3430 
 17 C        8.0530     6.0380    -0.0690 C.3   1 <1>   0.1200 
 18 C        7.1060     4.2670    -1.2970 C.3   1 <1>   0.1200 
 19 O        8.0560     4.6630    -0.3440 O.3   1 <1>  -0.5600 
 20 H        0.3150     4.4610    -0.1010 H     1 <1>   0.1500 
 21 H       -1.6500     2.6170    -2.2320 H     1 <1>   0.0800 
 22 H       -0.0650     2.5770    -2.9660 H     1 <1>   0.0800 
 23 H       -0.6410     4.0390    -2.2060 H     1 <1>   0.0800 
 24 H        1.4220     1.3170     2.5470 H     1 <1>   0.1500 
 25 H       -0.3230    -1.2320     0.9780 H     1 <1>   0.0800 
 26 H        1.0800    -0.9570     1.9780 H     1 <1>   0.0800 
 27 H        1.2780    -1.2940     0.2760 H     1 <1>   0.0800 
 28 H        2.3010     5.5560     2.7970 H     1 <1>   0.0800 
 29 H        1.5420     5.5860     1.2240 H     1 <1>   0.0800 
 30 H        3.2840     4.0190     0.3750 H     1 <1>   0.0800 
 31 H        3.9970     3.9500     1.9790 H     1 <1>   0.0800 
 32 H        4.4470     6.3920     1.8420 H     1 <1>   0.0800 
 33 H        3.8480     6.4010     0.2000 H     1 <1>   0.0800 
 34 H        6.0870     4.7020     1.1370 H     1 <1>   0.4500 
 35 H        6.7710     6.9440     1.4030 H     1 <1>   0.0800 
 36 H        6.3060     7.2820    -0.2370 H     1 <1>   0.0800 
 37 H        5.2190     5.2530    -1.6100 H     1 <1>   0.0800 
 38 H        5.0920     3.7390    -0.7670 H     1 <1>   0.0800 
 39 H        8.7960     6.2210     0.6890 H     1 <1>   0.0800 
 40 H        8.3450     6.5690    -0.9590 H     1 <1>   0.0800 
 41 H        7.3470     4.7310    -2.2380 H     1 <1>   0.0800 
 42 H        7.1890     3.2000    -1.4190 H     1 <1>   0.0800 
@<TRIPOS>BOND
  1   1   2  1   
  2   2   3  ar  
  3   2   4  ar  
  4   3   5  ar  
  5   3   6  1   
  6   4   7  ar  
  7   4   8  1   
  8   5   9  ar  
  9   5  20  1   
 10   6  21  1   
 11   6  22  1   
 12   6  23  1   
 13   7   9  ar  
 14   7  24  1   
 15   8  25  1   
 16   8  26  1   
 17   8  27  1   
 18   9  10  1   
 19  10  11  1   
 20  11  12  1   
 21  11  28  1   
 22  11  29  1   
 23  12  13  1   
 24  12  30  1   
 25  12  31  1   
 26  13  14  1   
 27  13  32  1   
 28  13  33  1   
 29  14  15  1   
 30  14  16  1   
 31  14  34  1   
 32  15  17  1   
 33  15  35  1   
 34  15  36  1   
 35  16  18  1   
 36  16  37  1   
 37  16  38  1   
 38  17  19  1   
 39  17  39  1   
 40  17  40  1   
 41  18  19  1   
 42  18  41  1   
 43  18  42  1   
@<TRIPOS>SUBSTRUCTURE
  1 ****  12 GROUP 4 **** **** 0

# MOE 2024.06 (io_trps.svl 2023.06)
