@<TRIPOS>MOLECULE
NONAME
52 54 1 0 0 
SMALL
USER_CHARGES


@<TRIPOS>ATOM
  1 S        0.4320     0.0920     0.5160 S.o2  1 <1>   1.4470 
  2 O       -0.3070     0.6750     1.6180 O.2   1 <1>  -0.6500 
  3 O        0.1390    -1.2660     0.1130 O.2   1 <1>  -0.6500 
  4 N        0.1580     1.0870    -0.8300 N.am  1 <1>  -0.8490 
  5 C        2.2150     0.2620     0.8060 C.ar  1 <1>  -0.0090 
  6 C       -1.1520     0.8180    -1.4290 C.3   1 <1>   0.1960 
  7 C        0.3030     2.5090    -0.5000 C.3   1 <1>   0.1960 
  8 C        3.1270     0.0770    -0.2280 C.ar  1 <1>  -0.1500 
  9 C        2.7130     0.5820     2.0640 C.ar  1 <1>  -0.1500 
 10 C       -1.3170     1.6150    -2.7290 C.3   1 <1>  -0.1600 
 11 C        0.2040     3.3600    -1.7690 C.3   1 <1>  -0.1600 
 12 C        4.4920     0.2090    -0.0340 C.ar  1 <1>  -0.1430 
 13 C        4.0720     0.7170     2.2800 C.ar  1 <1>  -0.1500 
 14 C       -1.1230     3.1180    -2.4980 C.3   1 <1>  -0.1600 
 15 C        4.9610     0.5260     1.2360 C.ar  1 <1>   0.0830 
 16 C        5.4380    -0.0030    -1.2070 C.3   1 <1>  -0.0970 
 17 O        6.2800     0.6670     1.4760 O.3   1 <1>  -0.3630 
 18 C        6.9540    -0.4640     2.0130 C.3   1 <1>   0.1810 
 19 C        7.7500    -1.2060     0.9420 C.2   1 <1>   0.5690 
 20 O        7.4210    -2.3440     0.6970 O.2   1 <1>  -0.5700 
 21 N        8.8120    -0.6170     0.2950 N.am  1 <1>  -0.6600 
 22 C        9.3090     0.7750     0.5220 C.3   1 <1>   0.1400 
 23 C        9.5680    -1.3310    -0.7780 C.3   1 <1>   0.1400 
 24 C        9.4290     1.5310    -0.8110 C.3   1 <1>   0.1200 
 25 C        9.6700    -0.4570    -2.0380 C.3   1 <1>   0.1200 
 26 O       10.1980     0.8030    -1.7270 O.3   1 <1>  -0.5600 
 27 H       -1.9330     1.0770    -0.7320 H     1 <1>   0.0800 
 28 H       -1.2410    -0.2310    -1.6580 H     1 <1>   0.0800 
 29 H        1.2610     2.6820    -0.0390 H     1 <1>   0.0800 
 30 H       -0.4650     2.8060     0.1980 H     1 <1>   0.0800 
 31 H        2.7480    -0.1760    -1.2050 H     1 <1>   0.1500 
 32 H        2.0270     0.7300     2.8830 H     1 <1>   0.1500 
 33 H       -2.2960     1.4340    -3.1350 H     1 <1>   0.0800 
 34 H       -0.5950     1.2600    -3.4430 H     1 <1>   0.0800 
 35 H        1.0270     3.1130    -2.4170 H     1 <1>   0.0800 
 36 H        0.2900     4.4000    -1.5100 H     1 <1>   0.0800 
 37 H        4.4450     0.9720     3.2560 H     1 <1>   0.1500 
 38 H       -1.9340     3.4960    -1.8990 H     1 <1>   0.0800 
 39 H       -1.1280     3.6400    -3.4390 H     1 <1>   0.0800 
 40 H        4.9340     0.1780    -2.1390 H     1 <1>   0.0800 
 41 H        5.8000    -1.0160    -1.2030 H     1 <1>   0.0800 
 42 H        6.2750     0.6660    -1.1420 H     1 <1>   0.0800 
 43 H        6.2320    -1.1280     2.4540 H     1 <1>   0.0800 
 44 H        7.6200    -0.1170     2.7790 H     1 <1>   0.0800 
 45 H       10.2800     0.7300     0.9850 H     1 <1>   0.0800 
 46 H        8.6580     1.3230     1.1770 H     1 <1>   0.0800 
 47 H        9.0860    -2.2590    -1.0310 H     1 <1>   0.0800 
 48 H       10.5580    -1.5580    -0.4230 H     1 <1>   0.0800 
 49 H        9.9130     2.4790    -0.6580 H     1 <1>   0.0800 
 50 H        8.4570     1.7060    -1.2380 H     1 <1>   0.0800 
 51 H        8.7000    -0.3250    -2.4860 H     1 <1>   0.0800 
 52 H       10.3230    -0.9180    -2.7570 H     1 <1>   0.0800 
@<TRIPOS>BOND
  1   1   2  2   
  2   1   3  2   
  3   1   4  am  
  4   1   5  1   
  5   4   6  1   
  6   4   7  1   
  7   5   8  ar  
  8   5   9  ar  
  9   6  10  1   
 10   6  27  1   
 11   6  28  1   
 12   7  11  1   
 13   7  29  1   
 14   7  30  1   
 15   8  12  ar  
 16   8  31  1   
 17   9  13  ar  
 18   9  32  1   
 19  10  14  1   
 20  10  33  1   
 21  10  34  1   
 22  11  14  1   
 23  11  35  1   
 24  11  36  1   
 25  12  15  ar  
 26  12  16  1   
 27  13  15  ar  
 28  13  37  1   
 29  14  38  1   
 30  14  39  1   
 31  15  17  1   
 32  16  40  1   
 33  16  41  1   
 34  16  42  1   
 35  17  18  1   
 36  18  19  1   
 37  18  43  1   
 38  18  44  1   
 39  19  20  2   
 40  19  21  am  
 41  21  22  1   
 42  21  23  1   
 43  22  24  1   
 44  22  45  1   
 45  22  46  1   
 46  23  25  1   
 47  23  47  1   
 48  23  48  1   
 49  24  26  1   
 50  24  49  1   
 51  24  50  1   
 52  25  26  1   
 53  25  51  1   
 54  25  52  1   
@<TRIPOS>SUBSTRUCTURE
  1 ****  12 GROUP 4 **** **** 0

# MOE 2024.06 (io_trps.svl 2023.06)
