@<TRIPOS>MOLECULE
NONAME
36 37 1 0 0 
SMALL
USER_CHARGES


@<TRIPOS>ATOM
  1 N        1.8270    -0.7090     1.4900 N.2   1 <1>  -0.7070 
  2 N        1.2520    -1.0100     0.3010 N.pl3 1 <1>   0.5710 
  3 C        1.6200     0.5530     1.6210 C.2   1 <1>   0.3660 
  4 C        1.1850    -2.2960    -0.3060 C.cat 1 <1>   0.7080 
  5 C        0.7430     0.1510    -0.1730 C.2   1 <1>   0.0360 
  6 N        0.9520     1.1360     0.6120 N.2   1 <1>  -0.5650 
  7 N       -0.0100    -2.8190    -0.6140 N.pl3 1 <1>  -0.6530 
  8 N        2.2880    -3.0220    -0.6000 N.pl3 1 <1>  -0.8330 
  9 C       -1.2970    -2.3240    -0.3520 C.ar  1 <1>   0.3490 
 10 C        3.6770    -2.5010    -0.3440 C.3   1 <1>   0.3290 
 11 C        2.2900    -4.3850    -1.2250 C.3   1 <1>   0.3290 
 12 C       -2.2080    -2.2030    -1.3920 C.ar  1 <1>  -0.1500 
 13 C       -1.6800    -1.9560     0.9320 C.ar  1 <1>  -0.1500 
 14 C        4.2460    -3.1130     0.9320 C.3   1 <1>  -0.2400 
 15 C        1.8580    -5.4410    -0.2070 C.3   1 <1>  -0.2400 
 16 C       -3.4790    -1.7090    -1.1570 C.ar  1 <1>  -0.1500 
 17 C       -2.9500    -1.4600     1.1680 C.ar  1 <1>  -0.1500 
 18 C       -3.8490    -1.3350     0.1240 C.ar  1 <1>  -0.1500 
 19 H        1.9470     1.1370     2.4700 H     1 <1>   0.1500 
 20 H        0.2210     0.2110    -1.1110 H     1 <1>   0.1500 
 21 H       -0.0080    -3.7310    -1.0620 H     1 <1>   0.4500 
 22 H        4.3210    -2.7360    -1.1760 H     1 <1>   0.0800 
 23 H        3.6800    -1.4280    -0.2480 H     1 <1>   0.0800 
 24 H        1.6300    -4.4020    -2.0760 H     1 <1>   0.0800 
 25 H        3.2760    -4.6310    -1.5870 H     1 <1>   0.0800 
 26 H       -1.9320    -2.4870    -2.3910 H     1 <1>   0.1500 
 27 H       -0.9970    -2.0560     1.7570 H     1 <1>   0.1500 
 28 H        4.4290    -4.1640     0.8100 H     1 <1>   0.0800 
 29 H        3.5780    -2.9540     1.7600 H     1 <1>   0.0800 
 30 H        5.1840    -2.6410     1.1650 H     1 <1>   0.0800 
 31 H        0.8570    -5.2760     0.1440 H     1 <1>   0.0800 
 32 H        2.5240    -5.4550     0.6360 H     1 <1>   0.0800 
 33 H        1.8910    -6.4130    -0.6670 H     1 <1>   0.0800 
 34 H       -4.1850    -1.6120    -1.9660 H     1 <1>   0.1500 
 35 H       -3.2440    -1.1700     2.1650 H     1 <1>   0.1500 
 36 H       -4.8380    -0.9480     0.3080 H     1 <1>   0.1500 
@<TRIPOS>BOND
  1   1   2  1   
  2   1   3  2   
  3   2   4  ar  
  4   2   5  1   
  5   3   6  1   
  6   3  19  1   
  7   4   7  ar  
  8   4   8  ar  
  9   5   6  2   
 10   5  20  1   
 11   7   9  1   
 12   7  21  1   
 13   8  10  1   
 14   8  11  1   
 15   9  12  ar  
 16   9  13  ar  
 17  10  14  1   
 18  10  22  1   
 19  10  23  1   
 20  11  15  1   
 21  11  24  1   
 22  11  25  1   
 23  12  16  ar  
 24  12  26  1   
 25  13  17  ar  
 26  13  27  1   
 27  14  28  1   
 28  14  29  1   
 29  14  30  1   
 30  15  31  1   
 31  15  32  1   
 32  15  33  1   
 33  16  18  ar  
 34  16  34  1   
 35  17  18  ar  
 36  17  35  1   
 37  18  36  1   
@<TRIPOS>SUBSTRUCTURE
  1 ****   4 GROUP 4 **** **** 0

# MOE 2024.06 (io_trps.svl 2023.06)
