@<TRIPOS>MOLECULE
NONAME
46 48 1 0 0 
SMALL
USER_CHARGES


@<TRIPOS>ATOM
  1 O        4.4170     0.3530     0.3370 O.3   1 <1>  -0.3630 
  2 C        3.2790     1.0120     0.0100 C.ar  1 <1>   0.0830 
  3 C        5.1830     0.7150     1.4650 C.3   1 <1>   0.0400 
  4 C        2.7380     2.0490     0.7630 C.ar  1 <1>  -0.1500 
  5 C        2.6390     0.6080    -1.1490 C.ar  1 <1>  -0.1500 
  6 C        1.5670     2.6640     0.3560 C.ar  1 <1>  -0.1500 
  7 C        1.4690     1.2220    -1.5570 C.ar  1 <1>  -0.1500 
  8 C        0.9210     2.2500    -0.8020 C.ar  1 <1>  -0.1430 
  9 C       -0.3750     2.9050    -1.2370 C.3   1 <1>   0.4860 
 10 N       -1.4700     2.4430    -0.3460 N.4   1 <1>  -0.9590 
 11 C       -1.6260     0.9600    -0.3750 C.3   1 <1>   0.4810 
 12 C       -2.7610     3.1430    -0.6220 C.3   1 <1>   0.3430 
 13 C       -2.8060     0.5720     0.4940 C.2   1 <1>  -0.2880 
 14 C       -3.7640     2.8780     0.5070 C.3   1 <1>  -0.0220 
 15 C       -3.7670     1.4070     0.9090 C.2   1 <1>  -0.2760 
 16 C       -4.9390     0.9840     1.7920 C.3   1 <1>   0.1220 
 17 C       -6.2590     1.1940     1.0650 C.ar  1 <1>  -0.1430 
 18 C       -7.1650     2.1490     1.5030 C.ar  1 <1>  -0.1500 
 19 C       -6.5630     0.4330    -0.0540 C.ar  1 <1>  -0.1500 
 20 C       -8.3570     2.3450     0.8250 C.ar  1 <1>  -0.1500 
 21 C       -7.7540     0.6270    -0.7310 C.ar  1 <1>  -0.1500 
 22 C       -8.6510     1.5850    -0.2930 C.ar  1 <1>  -0.1500 
 23 H        6.0410     0.0690     1.5060 H     1 <1>   0.0800 
 24 H        4.5860     0.5850     2.3500 H     1 <1>   0.0800 
 25 H        5.5010     1.7370     1.3580 H     1 <1>   0.0800 
 26 H        3.2190     2.3880     1.6620 H     1 <1>   0.1500 
 27 H        3.0710    -0.1900    -1.7270 H     1 <1>   0.1500 
 28 H        1.1730     3.4690     0.9530 H     1 <1>   0.1500 
 29 H        1.0020     0.8870    -2.4680 H     1 <1>   0.1500 
 30 H       -0.5910     2.6440    -2.2610 H     1 <1>   0.0800 
 31 H       -0.2700     3.9760    -1.1730 H     1 <1>   0.0800 
 32 H       -1.2010     2.6560     0.6200 H     1 <1>   0.4500 
 33 H       -0.7300     0.4950     0.0090 H     1 <1>   0.0800 
 34 H       -1.7870     0.6130    -1.3830 H     1 <1>   0.0800 
 35 H       -3.1750     2.7800    -1.5490 H     1 <1>   0.0800 
 36 H       -2.6030     4.2060    -0.7130 H     1 <1>   0.0800 
 37 H       -2.7970    -0.4760     0.7440 H     1 <1>   0.1500 
 38 H       -4.7370     3.1750     0.1550 H     1 <1>   0.0800 
 39 H       -3.5280     3.4880     1.3610 H     1 <1>   0.0800 
 40 H       -4.9240     1.5470     2.7080 H     1 <1>   0.0800 
 41 H       -4.8510    -0.0560     2.0530 H     1 <1>   0.0800 
 42 H       -6.9540     2.7470     2.3720 H     1 <1>   0.1500 
 43 H       -5.8730    -0.3150    -0.4020 H     1 <1>   0.1500 
 44 H       -9.0570     3.0870     1.1690 H     1 <1>   0.1500 
 45 H       -7.9860     0.0330    -1.5980 H     1 <1>   0.1500 
 46 H       -9.5780     1.7360    -0.8180 H     1 <1>   0.1500 
@<TRIPOS>BOND
  1   1   2  1   
  2   1   3  1   
  3   2   4  ar  
  4   2   5  ar  
  5   3  23  1   
  6   3  24  1   
  7   3  25  1   
  8   4   6  ar  
  9   4  26  1   
 10   5   7  ar  
 11   5  27  1   
 12   6   8  ar  
 13   6  28  1   
 14   7   8  ar  
 15   7  29  1   
 16   8   9  1   
 17   9  10  1   
 18   9  30  1   
 19   9  31  1   
 20  10  11  1   
 21  10  12  1   
 22  10  32  1   
 23  11  13  1   
 24  11  33  1   
 25  11  34  1   
 26  12  14  1   
 27  12  35  1   
 28  12  36  1   
 29  13  15  2   
 30  13  37  1   
 31  14  15  1   
 32  14  38  1   
 33  14  39  1   
 34  15  16  1   
 35  16  17  1   
 36  16  40  1   
 37  16  41  1   
 38  17  18  ar  
 39  17  19  ar  
 40  18  20  ar  
 41  18  42  1   
 42  19  21  ar  
 43  19  43  1   
 44  20  22  ar  
 45  20  44  1   
 46  21  22  ar  
 47  21  45  1   
 48  22  46  1   
@<TRIPOS>SUBSTRUCTURE
  1 ****  11 GROUP 4 **** **** 0

# MOE 2024.06 (io_trps.svl 2023.06)
