@<TRIPOS>MOLECULE
NONAME
53 55 1 0 0 
SMALL
USER_CHARGES


@<TRIPOS>ATOM
  1 O       -2.5850    -3.7060    -0.1510 O.3   1 <1>  -0.3630 
  2 C       -3.8900    -3.9540     0.1390 C.ar  1 <1>   0.0830 
  3 C       -1.9280    -2.5490     0.3190 C.3   1 <1>   0.1200 
  4 C       -4.4640    -5.1010    -0.4010 C.ar  1 <1>  -0.1440 
  5 C       -4.6580    -3.1150     0.9430 C.ar  1 <1>  -0.1500 
  6 C       -0.4830    -2.5770    -0.1910 C.3   1 <1>   0.2000 
  7 C       -5.7920    -5.3940    -0.1320 C.ar  1 <1>  -0.1500 
  8 C       -3.6540    -6.0400    -1.2840 C.3   1 <1>  -0.0960 
  9 C       -5.9820    -3.4190     1.2020 C.ar  1 <1>  -0.1500 
 10 O        0.0830    -3.8160     0.1190 O.3   1 <1>  -0.6800 
 11 C        0.3880    -1.4600     0.4230 C.3   1 <1>   0.3430 
 12 C       -6.5560    -4.5580     0.6660 C.ar  1 <1>  -0.1440 
 13 N        1.8350    -1.8350     0.3720 N.4   1 <1>  -0.9590 
 14 C       -8.0080    -4.8950     0.9510 C.3   1 <1>  -0.0970 
 15 C        2.6630    -1.1530     1.4300 C.3   1 <1>   0.3430 
 16 C        2.4400    -1.6730    -0.9990 C.3   1 <1>   0.3430 
 17 C        4.1470    -1.5710     1.3810 C.3   1 <1>   0.2090 
 18 C        3.9230    -2.0940    -1.0420 C.3   1 <1>   0.2090 
 19 N        4.7180    -1.3980     0.0130 N.pl3 1 <1>  -0.8380 
 20 C        6.0740    -1.6310    -0.0620 C.ar  1 <1>   0.4100 
 21 N        6.4670    -2.8750     0.1740 N.ar  1 <1>  -0.6200 
 22 C        6.9430    -0.5890    -0.3680 C.ar  1 <1>  -0.1500 
 23 C        7.7720    -3.0850     0.1000 C.ar  1 <1>   0.1600 
 24 C        8.2960    -0.8220    -0.4410 C.ar  1 <1>  -0.1500 
 25 C        8.7130    -2.1150    -0.1980 C.ar  1 <1>  -0.1500 
 26 H       -1.9540    -2.5590     1.3950 H     1 <1>   0.0800 
 27 H       -2.4510    -1.6860    -0.0550 H     1 <1>   0.0800 
 28 H       -4.2560    -2.2230     1.3790 H     1 <1>   0.1500 
 29 H       -0.4920    -2.4820    -1.2640 H     1 <1>   0.0800 
 30 H       -6.2390    -6.2800    -0.5460 H     1 <1>   0.1500 
 31 H       -3.2660    -5.5030    -2.1300 H     1 <1>   0.0800 
 32 H       -4.2600    -6.8510    -1.6450 H     1 <1>   0.0800 
 33 H       -2.8340    -6.4510    -0.7230 H     1 <1>   0.0800 
 34 H       -6.5660    -2.7650     1.8260 H     1 <1>   0.1500 
 35 H       -0.6020    -4.5110    -0.0320 H     1 <1>   0.4000 
 36 H        0.0920    -1.3380     1.4510 H     1 <1>   0.0800 
 37 H        0.2150    -0.5260    -0.0850 H     1 <1>   0.0800 
 38 H        1.8280    -2.8560     0.5640 H     1 <1>   0.4500 
 39 H       -8.0680    -5.5610     1.7940 H     1 <1>   0.0800 
 40 H       -8.4560    -5.3720     0.0980 H     1 <1>   0.0800 
 41 H       -8.5670    -4.0040     1.1730 H     1 <1>   0.0800 
 42 H        2.2690    -1.3810     2.4070 H     1 <1>   0.0800 
 43 H        2.6140    -0.0860     1.2930 H     1 <1>   0.0800 
 44 H        2.3780    -0.6410    -1.3020 H     1 <1>   0.0800 
 45 H        1.8910    -2.2650    -1.7120 H     1 <1>   0.0800 
 46 H        4.2430    -2.6010     1.6830 H     1 <1>   0.0800 
 47 H        4.7100    -0.9730     2.0770 H     1 <1>   0.0800 
 48 H        4.3350    -1.8570    -2.0080 H     1 <1>   0.0800 
 49 H        4.0010    -3.1600    -0.9070 H     1 <1>   0.0800 
 50 H        6.5400     0.3900    -0.5450 H     1 <1>   0.1500 
 51 H        8.1130    -4.0890     0.2870 H     1 <1>   0.1500 
 52 H        8.9960    -0.0380    -0.6760 H     1 <1>   0.1500 
 53 H        9.7580    -2.3670    -0.2380 H     1 <1>   0.1500 
@<TRIPOS>BOND
  1   1   2  1   
  2   1   3  1   
  3   2   4  ar  
  4   2   5  ar  
  5   3   6  1   
  6   3  26  1   
  7   3  27  1   
  8   4   7  ar  
  9   4   8  1   
 10   5   9  ar  
 11   5  28  1   
 12   6  10  1   
 13   6  11  1   
 14   6  29  1   
 15   7  12  ar  
 16   7  30  1   
 17   8  31  1   
 18   8  32  1   
 19   8  33  1   
 20   9  12  ar  
 21   9  34  1   
 22  10  35  1   
 23  11  13  1   
 24  11  36  1   
 25  11  37  1   
 26  12  14  1   
 27  13  15  1   
 28  13  16  1   
 29  13  38  1   
 30  14  39  1   
 31  14  40  1   
 32  14  41  1   
 33  15  17  1   
 34  15  42  1   
 35  15  43  1   
 36  16  18  1   
 37  16  44  1   
 38  16  45  1   
 39  17  19  1   
 40  17  46  1   
 41  17  47  1   
 42  18  19  1   
 43  18  48  1   
 44  18  49  1   
 45  19  20  1   
 46  20  21  ar  
 47  20  22  ar  
 48  21  23  ar  
 49  22  24  ar  
 50  22  50  1   
 51  23  25  ar  
 52  23  51  1   
 53  24  25  ar  
 54  24  52  1   
 55  25  53  1   
@<TRIPOS>SUBSTRUCTURE
  1 ****  10 GROUP 4 **** **** 0

# MOE 2024.06 (io_trps.svl 2023.06)
