@<TRIPOS>MOLECULE
NONAME
41 43 1 0 0 
SMALL
USER_CHARGES


@<TRIPOS>ATOM
  1 BR      -3.8890    -2.7760    -1.1060 Br    1 <1>  -0.0580 
  2 C       -3.7160    -0.8680    -0.9530 C.2   1 <1>   0.1980 
  3 O       -4.6230    -0.2250    -0.2640 O.3   1 <1>  -0.2800 
  4 C       -2.7710    -0.0600    -1.4660 C.2   1 <1>  -0.1500 
  5 C       -4.3030     1.0720    -0.2970 C.2   1 <1>   0.0550 
  6 C       -3.1560     1.2100    -1.0330 C.2   1 <1>  -0.1500 
  7 C       -5.0680     2.1130     0.3710 C.2   1 <1>   0.7150 
  8 O       -4.5380     3.2090     0.4670 O.2   1 <1>  -0.5700 
  9 N       -6.3430     1.9790     0.9020 N.am  1 <1>  -0.6600 
 10 C       -7.2150     0.7940     0.6250 C.3   1 <1>   0.3640 
 11 C       -6.9700     3.1860     1.5420 C.3   1 <1>   0.1400 
 12 C       -8.6910     1.1680     0.4930 C.ar  1 <1>  -0.1440 
 13 C       -7.0470    -0.2300     1.7500 C.3   1 <1>  -0.2400 
 14 C       -8.3120     2.9130     2.2270 C.3   1 <1>  -0.0160 
 15 C       -9.2310     2.1800     1.2720 C.ar  1 <1>  -0.1430 
 16 C       -9.5090     0.4820    -0.3930 C.ar  1 <1>  -0.1500 
 17 C      -10.5720     2.5100     1.1600 C.ar  1 <1>  -0.1500 
 18 C      -10.8540     0.7950    -0.5020 C.ar  1 <1>   0.0820 
 19 C      -11.3860     1.8370     0.2650 C.ar  1 <1>   0.0820 
 20 O      -11.5980     0.0540    -1.3610 O.3   1 <1>  -0.3630 
 21 O      -12.6790     2.2350     0.1740 O.3   1 <1>  -0.3630 
 22 C      -12.6110    -0.7410    -0.7850 C.3   1 <1>   0.0400 
 23 C      -13.0670     2.8140    -1.0520 C.3   1 <1>   0.0400 
 24 H       -1.9150    -0.3110    -2.0660 H     1 <1>   0.1500 
 25 H       -2.6340     2.1280    -1.2430 H     1 <1>   0.1500 
 26 H       -6.9200     0.3490    -0.3080 H     1 <1>   0.0800 
 27 H       -7.1240     3.9260     0.7750 H     1 <1>   0.0800 
 28 H       -6.2860     3.6000     2.2630 H     1 <1>   0.0800 
 29 H       -7.4130     0.1620     2.6800 H     1 <1>   0.0800 
 30 H       -6.0160    -0.5040     1.8680 H     1 <1>   0.0800 
 31 H       -7.6090    -1.1150     1.5140 H     1 <1>   0.0800 
 32 H       -8.7500     3.8500     2.5220 H     1 <1>   0.0800 
 33 H       -8.1580     2.3280     3.1140 H     1 <1>   0.0800 
 34 H       -9.1150    -0.3100    -1.0030 H     1 <1>   0.1500 
 35 H      -10.9980     3.2960     1.7560 H     1 <1>   0.1500 
 36 H      -13.0300    -1.3620    -1.5560 H     1 <1>   0.0800 
 37 H      -13.3740    -0.1060    -0.3730 H     1 <1>   0.0800 
 38 H      -12.1770    -1.3520    -0.0130 H     1 <1>   0.0800 
 39 H      -12.4020     3.6300    -1.2760 H     1 <1>   0.0800 
 40 H      -14.0740     3.1760    -0.9490 H     1 <1>   0.0800 
 41 H      -13.0220     2.0720    -1.8280 H     1 <1>   0.0800 
@<TRIPOS>BOND
  1   1   2  1   
  2   2   3  1   
  3   2   4  2   
  4   3   5  1   
  5   4   6  1   
  6   4  24  1   
  7   5   6  2   
  8   5   7  1   
  9   6  25  1   
 10   7   8  2   
 11   7   9  am  
 12   9  10  1   
 13   9  11  1   
 14  10  12  1   
 15  10  13  1   
 16  10  26  1   
 17  11  14  1   
 18  11  27  1   
 19  11  28  1   
 20  12  15  ar  
 21  12  16  ar  
 22  13  29  1   
 23  13  30  1   
 24  13  31  1   
 25  14  15  1   
 26  14  32  1   
 27  14  33  1   
 28  15  17  ar  
 29  16  18  ar  
 30  16  34  1   
 31  17  19  ar  
 32  17  35  1   
 33  18  19  ar  
 34  18  20  1   
 35  19  21  1   
 36  20  22  1   
 37  21  23  1   
 38  22  36  1   
 39  22  37  1   
 40  22  38  1   
 41  23  39  1   
 42  23  40  1   
 43  23  41  1   
@<TRIPOS>SUBSTRUCTURE
  1 ****  10 GROUP 4 **** **** 0

# MOE 2024.06 (io_trps.svl 2023.06)
