@<TRIPOS>MOLECULE
NONAME
54 56 1 0 0 
SMALL
USER_CHARGES


@<TRIPOS>ATOM
  1 O       -1.7460     1.0640    -0.7210 O.3   1 <1>  -0.3630 
  2 C       -1.0320     1.8760     0.1180 C.ar  1 <1>   0.0830 
  3 C       -1.0770     0.1280    -1.5460 C.3   1 <1>   0.0400 
  4 C        0.1880     2.4810    -0.2240 C.ar  1 <1>   0.0830 
  5 C       -1.5910     2.1060     1.3730 C.ar  1 <1>  -0.1440 
  6 O        0.6930     2.3130    -1.4790 O.3   1 <1>  -0.3620 
  7 C        0.8420     3.2660     0.7230 C.ar  1 <1>  -0.1500 
  8 C       -0.9250     2.8930     2.2990 C.ar  1 <1>  -0.1500 
  9 C       -2.9360     1.5040     1.7300 C.3   1 <1>   0.4860 
 10 C        1.9250     2.8770    -1.8800 C.3   1 <1>   0.0400 
 11 C        0.2900     3.4660     1.9750 C.ar  1 <1>  -0.1500 
 12 N       -3.9390     2.0050     0.7600 N.4   1 <1>  -0.9590 
 13 C       -4.1090     3.5040     0.8300 C.3   1 <1>   0.3430 
 14 C       -5.2550     1.2800     0.8470 C.3   1 <1>   0.3430 
 15 C       -5.1320     4.0270    -0.1990 C.3   1 <1>   0.2090 
 16 C       -6.2810     1.7990    -0.1820 C.3   1 <1>   0.2090 
 17 N       -6.4170     3.2800    -0.0860 N.pl3 1 <1>  -0.8380 
 18 C       -7.5200     3.8350    -0.7340 C.ar  1 <1>   0.1000 
 19 C       -8.6250     4.3170    -0.0210 C.ar  1 <1>  -0.1430 
 20 C       -7.5260     3.9020    -2.1230 C.ar  1 <1>  -0.1500 
 21 C       -9.7160     4.8390    -0.7110 C.ar  1 <1>  -0.1430 
 22 C       -8.6400     4.2640     1.5070 C.3   1 <1>  -0.0970 
 23 C       -8.6040     4.4300    -2.8020 C.ar  1 <1>  -0.1500 
 24 C       -9.6960     4.8950    -2.0960 C.ar  1 <1>  -0.1500 
 25 C      -10.9560     5.3580     0.0070 C.3   1 <1>  -0.0970 
 26 H       -0.7810     0.6150    -2.4590 H     1 <1>   0.0800 
 27 H       -1.7550    -0.6750    -1.7720 H     1 <1>   0.0800 
 28 H       -0.2140    -0.2530    -1.0270 H     1 <1>   0.0800 
 29 H        1.7830     3.7370     0.5090 H     1 <1>   0.1500 
 30 H       -1.3370     3.0700     3.2790 H     1 <1>   0.1500 
 31 H       -3.2160     1.7760     2.7340 H     1 <1>   0.0800 
 32 H       -2.8660     0.4300     1.6660 H     1 <1>   0.0800 
 33 H        1.8600     3.9480    -1.8100 H     1 <1>   0.0800 
 34 H        2.1080     2.5900    -2.9000 H     1 <1>   0.0800 
 35 H        2.7080     2.4940    -1.2490 H     1 <1>   0.0800 
 36 H        0.8100     4.0730     2.6980 H     1 <1>   0.1500 
 37 H       -3.5080     1.7990    -0.1590 H     1 <1>   0.4500 
 38 H       -3.1630     3.9900     0.6590 H     1 <1>   0.0800 
 39 H       -4.4530     3.7820     1.8120 H     1 <1>   0.0800 
 40 H       -5.6750     1.4150     1.8300 H     1 <1>   0.0800 
 41 H       -5.1050     0.2250     0.6910 H     1 <1>   0.0800 
 42 H       -4.7340     3.9210    -1.1930 H     1 <1>   0.0800 
 43 H       -5.3150     5.0740    -0.0240 H     1 <1>   0.0800 
 44 H       -7.2400     1.3450     0.0050 H     1 <1>   0.0800 
 45 H       -5.9740     1.5270    -1.1760 H     1 <1>   0.0800 
 46 H       -6.6830     3.5380    -2.6770 H     1 <1>   0.1500 
 47 H       -9.2080     3.4110     1.8310 H     1 <1>   0.0800 
 48 H       -9.0810     5.1530     1.9150 H     1 <1>   0.0800 
 49 H       -7.6490     4.1910     1.9130 H     1 <1>   0.0800 
 50 H       -8.5980     4.4780    -3.8770 H     1 <1>   0.1500 
 51 H      -10.5330     5.3020    -2.6360 H     1 <1>   0.1500 
 52 H      -10.7250     6.2720     0.5220 H     1 <1>   0.0800 
 53 H      -11.3080     4.6310     0.7170 H     1 <1>   0.0800 
 54 H      -11.7520     5.5530    -0.6890 H     1 <1>   0.0800 
@<TRIPOS>BOND
  1   1   2  1   
  2   1   3  1   
  3   2   4  ar  
  4   2   5  ar  
  5   3  26  1   
  6   3  27  1   
  7   3  28  1   
  8   4   6  1   
  9   4   7  ar  
 10   5   8  ar  
 11   5   9  1   
 12   6  10  1   
 13   7  11  ar  
 14   7  29  1   
 15   8  11  ar  
 16   8  30  1   
 17   9  12  1   
 18   9  31  1   
 19   9  32  1   
 20  10  33  1   
 21  10  34  1   
 22  10  35  1   
 23  11  36  1   
 24  12  13  1   
 25  12  14  1   
 26  12  37  1   
 27  13  15  1   
 28  13  38  1   
 29  13  39  1   
 30  14  16  1   
 31  14  40  1   
 32  14  41  1   
 33  15  17  1   
 34  15  42  1   
 35  15  43  1   
 36  16  17  1   
 37  16  44  1   
 38  16  45  1   
 39  17  18  1   
 40  18  19  ar  
 41  18  20  ar  
 42  19  21  ar  
 43  19  22  1   
 44  20  23  ar  
 45  20  46  1   
 46  21  24  ar  
 47  21  25  1   
 48  22  47  1   
 49  22  48  1   
 50  22  49  1   
 51  23  24  ar  
 52  23  50  1   
 53  24  51  1   
 54  25  52  1   
 55  25  53  1   
 56  25  54  1   
@<TRIPOS>SUBSTRUCTURE
  1 ****  13 GROUP 4 **** **** 0

# MOE 2024.06 (io_trps.svl 2023.06)
