@<TRIPOS>MOLECULE
NONAME
52 53 1 0 0 
SMALL
USER_CHARGES


@<TRIPOS>ATOM
  1 N       -0.1410    -0.1870     0.2840 N.4   1 <1>  -0.9590 
  2 C       -1.3050     0.3270     1.0620 C.3   1 <1>   0.3430 
  3 C       -0.3100    -1.6060    -0.1490 C.3   1 <1>   0.3430 
  4 C        1.1100    -0.0100     1.0870 C.3   1 <1>   0.3430 
  5 C       -2.5880     0.1990     0.2390 C.3   1 <1>  -0.1600 
  6 C       -1.5840    -1.7500    -0.9850 C.3   1 <1>  -0.1600 
  7 C        2.3450    -0.1260     0.1900 C.3   1 <1>  -0.1600 
  8 C       -2.8060    -1.2480    -0.2180 C.3   1 <1>   0.4230 
  9 C        3.6210     0.1760     0.9830 C.3   1 <1>  -0.2400 
 10 N       -3.9960    -1.3440    -1.0990 N.4   1 <1>  -0.9060 
 11 C       -5.3010    -1.1520    -0.4240 C.3   1 <1>   0.4230 
 12 C       -5.6700    -2.3880     0.4070 C.3   1 <1>  -0.1600 
 13 C       -6.3560    -0.8060    -1.4850 C.3   1 <1>  -0.1600 
 14 C       -6.4470    -2.0170     1.6810 C.3   1 <1>  -0.1600 
 15 C       -6.8770     0.6250    -1.2920 C.3   1 <1>  -0.1600 
 16 C       -7.7540    -1.2380     1.4480 C.3   1 <1>  -0.1600 
 17 C       -7.9620     0.7500    -0.2090 C.3   1 <1>  -0.1600 
 18 C       -7.5840     0.2780     1.2080 C.3   1 <1>  -0.1600 
 19 H       -0.0160     0.4040    -0.5520 H     1 <1>   0.4500 
 20 H       -1.1450     1.3640     1.3200 H     1 <1>   0.0800 
 21 H       -1.4030    -0.2310     1.9800 H     1 <1>   0.0800 
 22 H       -0.3660    -2.2470     0.7170 H     1 <1>   0.0800 
 23 H        0.5390    -1.9180    -0.7380 H     1 <1>   0.0800 
 24 H        1.1600    -0.7440     1.8760 H     1 <1>   0.0800 
 25 H        1.1140     0.9680     1.5420 H     1 <1>   0.0800 
 26 H       -2.5270     0.8620    -0.6070 H     1 <1>   0.0800 
 27 H       -3.4060     0.5200     0.8590 H     1 <1>   0.0800 
 28 H       -1.7090    -2.7920    -1.2250 H     1 <1>   0.0800 
 29 H       -1.4570    -1.2060    -1.9050 H     1 <1>   0.0800 
 30 H        2.2780     0.5760    -0.6230 H     1 <1>   0.0800 
 31 H        2.4310    -1.1190    -0.2140 H     1 <1>   0.0800 
 32 H       -2.9500    -1.8730     0.6500 H     1 <1>   0.0800 
 33 H        3.5990     1.1750     1.3840 H     1 <1>   0.0800 
 34 H        4.4820     0.0930     0.3410 H     1 <1>   0.0800 
 35 H        3.7440    -0.5200     1.7960 H     1 <1>   0.0800 
 36 H       -4.0340    -2.2640    -1.5550 H     1 <1>   0.4500 
 37 H       -3.9390    -0.6520    -1.8540 H     1 <1>   0.4500 
 38 H       -5.2200    -0.3140     0.2480 H     1 <1>   0.0800 
 39 H       -4.7910    -2.9190     0.7210 H     1 <1>   0.0800 
 40 H       -6.2600    -3.0740    -0.1780 H     1 <1>   0.0800 
 41 H       -7.1970    -1.4770    -1.4390 H     1 <1>   0.0800 
 42 H       -5.9510    -0.8940    -2.4770 H     1 <1>   0.0800 
 43 H       -5.8180    -1.4630     2.3570 H     1 <1>   0.0800 
 44 H       -6.7020    -2.9360     2.1840 H     1 <1>   0.0800 
 45 H       -7.3150     0.9530    -2.2210 H     1 <1>   0.0800 
 46 H       -6.0660     1.3000    -1.0750 H     1 <1>   0.0800 
 47 H       -8.3410    -1.3470     2.3460 H     1 <1>   0.0800 
 48 H       -8.3330    -1.6980     0.6650 H     1 <1>   0.0800 
 49 H       -8.8530     0.2370    -0.5310 H     1 <1>   0.0800 
 50 H       -8.2260     1.7930    -0.1460 H     1 <1>   0.0800 
 51 H       -6.6050     0.6260     1.4830 H     1 <1>   0.0800 
 52 H       -8.2670     0.7720     1.8810 H     1 <1>   0.0800 
@<TRIPOS>BOND
  1   1   2  1   
  2   1   3  1   
  3   1   4  1   
  4   1  19  1   
  5   2   5  1   
  6   2  20  1   
  7   2  21  1   
  8   3   6  1   
  9   3  22  1   
 10   3  23  1   
 11   4   7  1   
 12   4  24  1   
 13   4  25  1   
 14   5   8  1   
 15   5  26  1   
 16   5  27  1   
 17   6   8  1   
 18   6  28  1   
 19   6  29  1   
 20   7   9  1   
 21   7  30  1   
 22   7  31  1   
 23   8  10  1   
 24   8  32  1   
 25   9  33  1   
 26   9  34  1   
 27   9  35  1   
 28  10  11  1   
 29  10  36  1   
 30  10  37  1   
 31  11  12  1   
 32  11  13  1   
 33  11  38  1   
 34  12  14  1   
 35  12  39  1   
 36  12  40  1   
 37  13  15  1   
 38  13  41  1   
 39  13  42  1   
 40  14  16  1   
 41  14  43  1   
 42  14  44  1   
 43  15  17  1   
 44  15  45  1   
 45  15  46  1   
 46  16  18  1   
 47  16  47  1   
 48  16  48  1   
 49  17  18  1   
 50  17  49  1   
 51  17  50  1   
 52  18  51  1   
 53  18  52  1   
@<TRIPOS>SUBSTRUCTURE
  1 ****   8 GROUP 4 **** **** 0

# MOE 2024.06 (io_trps.svl 2023.06)
