@<TRIPOS>MOLECULE
NONAME
54 57 1 0 0 
SMALL
USER_CHARGES


@<TRIPOS>ATOM
  1 O       -0.0280     0.3990    -1.7780 O.2   1 <1>  -0.5700 
  2 C        0.2060     1.3710    -1.0680 C.2   1 <1>   0.7160 
  3 N        1.3530     1.4320    -0.2850 N.am  1 <1>  -0.2290 
  4 C       -0.6840     2.4680    -1.0080 C.2   1 <1>  -0.0860 
  5 C        1.5630     2.5620     0.5270 C.2   1 <1>   0.4960 
  6 C        2.2900     0.3990    -0.2900 C.2   1 <1>  -0.0410 
  7 C       -0.3840     3.5210    -0.1880 C.2   1 <1>  -0.0260 
  8 C       -1.9000     2.7770    -1.6240 C.2   1 <1>  -0.1500 
  9 N        0.7270     3.5760     0.5810 N.2   1 <1>  -0.5760 
 10 C        2.7570     2.5840     1.3280 C.2   1 <1>  -0.1240 
 11 C        3.4080     0.4420     0.4720 C.2   1 <1>  -0.1500 
 12 N       -1.3620     4.4620    -0.2820 N.pl3 1 <1>   0.0480 
 13 C       -2.3190     4.0030    -1.1720 C.2   1 <1>  -0.2370 
 14 C        3.6490     1.5590     1.3010 C.2   1 <1>  -0.1500 
 15 C        3.0250     3.7890     2.2260 C.3   1 <1>  -0.1020 
 16 C       -1.3360     5.7630     0.4220 C.3   1 <1>   0.0160 
 17 C       -3.5220     4.7030    -1.5150 C.2   1 <1>   0.7150 
 18 O       -3.9750     5.6070    -0.8350 O.2   1 <1>  -0.5700 
 19 N       -4.2590     4.2820    -2.5780 N.am  1 <1>  -0.7300 
 20 C       -5.3920     5.0040    -3.2090 C.3   1 <1>   0.1400 
 21 C       -6.7270     4.3130    -2.8910 C.3   1 <1>  -0.1600 
 22 C       -7.3860     4.7520    -1.5750 C.3   1 <1>   0.3430 
 23 N       -6.5110     4.5200    -0.4000 N.4   1 <1>  -0.9590 
 24 C       -6.2470     3.0700    -0.1090 C.3   1 <1>   0.3430 
 25 C       -6.9940     5.2310     0.8280 C.3   1 <1>   0.3430 
 26 C       -5.3540     2.9040     1.1360 C.3   1 <1>   0.1200 
 27 C       -6.0570     4.9670     2.0230 C.3   1 <1>   0.1200 
 28 O       -5.9050     3.5900     2.2230 O.3   1 <1>  -0.5600 
 29 H        2.0860    -0.4440    -0.9310 H     1 <1>   0.1500 
 30 H       -2.3800     2.1180    -2.3270 H     1 <1>   0.1500 
 31 H        4.1290    -0.3590     0.4650 H     1 <1>   0.1500 
 32 H        4.5470     1.5630     1.8950 H     1 <1>   0.1500 
 33 H        3.0840     4.6840     1.6320 H     1 <1>   0.0800 
 34 H        3.9480     3.6770     2.7660 H     1 <1>   0.0800 
 35 H        2.2250     3.9020     2.9370 H     1 <1>   0.0800 
 36 H       -0.3830     5.9030     0.8980 H     1 <1>   0.0800 
 37 H       -2.1110     5.7810     1.1660 H     1 <1>   0.0800 
 38 H       -1.4960     6.5560    -0.2850 H     1 <1>   0.0800 
 39 H       -3.7970     3.5980    -3.1840 H     1 <1>   0.3700 
 40 H       -5.2360     5.0010    -4.2760 H     1 <1>   0.0800 
 41 H       -5.4090     6.0330    -2.8880 H     1 <1>   0.0800 
 42 H       -6.6190     3.2440    -2.9330 H     1 <1>   0.0800 
 43 H       -7.4140     4.5780    -3.6750 H     1 <1>   0.0800 
 44 H       -8.3170     4.2240    -1.4430 H     1 <1>   0.0800 
 45 H       -7.6120     5.8050    -1.6420 H     1 <1>   0.0800 
 46 H       -5.5890     4.9460    -0.6260 H     1 <1>   0.4500 
 47 H       -5.7610     2.6090    -0.9530 H     1 <1>   0.0800 
 48 H       -7.1770     2.5560     0.0650 H     1 <1>   0.0800 
 49 H       -7.9830     4.8900     1.0860 H     1 <1>   0.0800 
 50 H       -7.0410     6.2920     0.6450 H     1 <1>   0.0800 
 51 H       -4.3610     3.2790     0.9560 H     1 <1>   0.0800 
 52 H       -5.2830     1.8650     1.4070 H     1 <1>   0.0800 
 53 H       -6.4740     5.3850     2.9220 H     1 <1>   0.0800 
 54 H       -5.0870     5.4040     1.8560 H     1 <1>   0.0800 
@<TRIPOS>BOND
  1   1   2  2   
  2   2   3  am  
  3   2   4  1   
  4   3   5  1   
  5   3   6  1   
  6   4   7  2   
  7   4   8  1   
  8   5   9  2   
  9   5  10  1   
 10   6  11  2   
 11   6  29  1   
 12   7   9  1   
 13   7  12  1   
 14   8  13  2   
 15   8  30  1   
 16  10  14  2   
 17  10  15  1   
 18  11  14  1   
 19  11  31  1   
 20  12  13  1   
 21  12  16  1   
 22  13  17  1   
 23  14  32  1   
 24  15  33  1   
 25  15  34  1   
 26  15  35  1   
 27  16  36  1   
 28  16  37  1   
 29  16  38  1   
 30  17  18  2   
 31  17  19  am  
 32  19  20  1   
 33  19  39  1   
 34  20  21  1   
 35  20  40  1   
 36  20  41  1   
 37  21  22  1   
 38  21  42  1   
 39  21  43  1   
 40  22  23  1   
 41  22  44  1   
 42  22  45  1   
 43  23  24  1   
 44  23  25  1   
 45  23  46  1   
 46  24  26  1   
 47  24  47  1   
 48  24  48  1   
 49  25  27  1   
 50  25  49  1   
 51  25  50  1   
 52  26  28  1   
 53  26  51  1   
 54  26  52  1   
 55  27  28  1   
 56  27  53  1   
 57  27  54  1   
@<TRIPOS>SUBSTRUCTURE
  1 ****  13 GROUP 4 **** **** 0

# MOE 2024.06 (io_trps.svl 2023.06)
