@<TRIPOS>MOLECULE
NONAME
26 27 1 0 0 
SMALL
USER_CHARGES


@<TRIPOS>ATOM
  1 I        0.6560     0.7890     2.7090 I     1 <1>  -0.0270 
  2 C        0.9840     2.1170     1.0610 C.2   1 <1>   0.0270 
  3 C        0.1730     2.2160    -0.0550 C.2   1 <1>   0.1390 
  4 C        1.9910     2.9940     0.9160 C.2   1 <1>  -0.3020 
  5 N        0.6400     3.1160    -0.8720 N.2   1 <1>  -0.7070 
  6 N        1.7690     3.5930    -0.2800 N.pl3 1 <1>   0.3140 
  7 C        2.5640     4.6660    -0.9070 C.3   1 <1>   0.2770 
  8 C        4.0460     4.3480    -0.8680 C.2   1 <1>   0.3350 
  9 N        4.6990     3.8370    -1.8420 N.2   1 <1>  -0.4100 
 10 N        4.7890     4.6070     0.2120 N.2   1 <1>  -0.5650 
 11 O        5.8930     3.7460    -1.3920 O.3   1 <1>  -0.0190 
 12 C        5.9620     4.1990    -0.1690 C.2   1 <1>   0.3930 
 13 C        7.2310     4.1880     0.5330 C.2   1 <1>   0.8050 
 14 O        7.3840     4.5850     1.6740 O.2   1 <1>  -0.5700 
 15 O        8.3020     3.7110    -0.1160 O.3   1 <1>  -0.4300 
 16 C        9.5780     3.6580     0.4840 C.3   1 <1>   0.1200 
 17 C       10.5510     3.0650    -0.5300 C.3   1 <1>  -0.2400 
 18 H       -0.7190     1.6390    -0.2290 H     1 <1>   0.1500 
 19 H        2.8170     3.2200     1.5650 H     1 <1>   0.1500 
 20 H        2.3740     5.5840    -0.3860 H     1 <1>   0.0800 
 21 H        2.2460     4.7710    -1.9270 H     1 <1>   0.0800 
 22 H        9.5180     3.0430     1.3660 H     1 <1>   0.0800 
 23 H        9.8700     4.6580     0.7580 H     1 <1>   0.0800 
 24 H       10.2440     2.0710    -0.8030 H     1 <1>   0.0800 
 25 H       11.5340     3.0120    -0.1000 H     1 <1>   0.0800 
 26 H       10.5950     3.6820    -1.4090 H     1 <1>   0.0800 
@<TRIPOS>BOND
  1   1   2  1   
  2   2   3  1   
  3   2   4  2   
  4   3   5  2   
  5   3  18  1   
  6   4   6  1   
  7   4  19  1   
  8   5   6  1   
  9   6   7  1   
 10   7   8  1   
 11   7  20  1   
 12   7  21  1   
 13   8   9  2   
 14   8  10  1   
 15   9  11  1   
 16  10  12  2   
 17  11  12  1   
 18  12  13  1   
 19  13  14  2   
 20  13  15  1   
 21  15  16  1   
 22  16  17  1   
 23  16  22  1   
 24  16  23  1   
 25  17  24  1   
 26  17  25  1   
 27  17  26  1   
@<TRIPOS>SUBSTRUCTURE
  1 ****  10 GROUP 4 **** **** 0

# MOE 2024.06 (io_trps.svl 2023.06)
