@<TRIPOS>MOLECULE
NONAME
37 38 1 0 0 
SMALL
USER_CHARGES


@<TRIPOS>ATOM
  1 BR       1.2390    -0.8230    -0.1700 Br    1 <1>  -0.0570 
  2 C       -0.3320    -1.7420     0.4690 C.2   1 <1>   0.0570 
  3 C       -0.6640    -1.8590     1.7640 C.2   1 <1>  -0.1100 
  4 C       -1.2170    -2.3460    -0.4730 C.2   1 <1>  -0.1500 
  5 S       -2.1640    -2.7670     1.8830 S.3   1 <1>  -0.0800 
  6 C       -2.2660    -2.9450     0.1270 C.2   1 <1>  -0.1400 
  7 C       -3.4580    -3.7040    -0.4160 C.3   1 <1>   0.5230 
  8 N       -4.6980    -2.9980     0.0020 N.4   1 <1>  -0.9590 
  9 C       -5.9120    -3.8330    -0.2710 C.3   1 <1>   0.3430 
 10 C       -4.7890    -1.6410    -0.6150 C.3   1 <1>   0.3430 
 11 C       -7.1890    -3.1500     0.2310 C.3   1 <1>  -0.0190 
 12 C       -6.0290    -0.9170    -0.0860 C.3   1 <1>  -0.1600 
 13 C       -8.3790    -4.0110    -0.1530 C.2   1 <1>   0.6590 
 14 C       -7.3130    -1.7220    -0.3370 C.3   1 <1>  -0.1600 
 15 O       -8.2620    -4.9230    -0.9290 O.2   1 <1>  -0.5700 
 16 O       -9.5310    -3.6970     0.4170 O.3   1 <1>  -0.4300 
 17 C      -10.7120    -4.4150     0.1420 C.3   1 <1>   0.1200 
 18 C      -11.8430    -3.7910     0.9530 C.3   1 <1>  -0.2400 
 19 H       -0.1940    -1.5150     2.6690 H     1 <1>   0.1500 
 20 H       -1.0060    -2.2920    -1.5280 H     1 <1>   0.1500 
 21 H       -3.4480    -4.7060    -0.0170 H     1 <1>   0.0800 
 22 H       -3.4020    -3.7620    -1.4910 H     1 <1>   0.0800 
 23 H       -4.6100    -2.8600     1.0190 H     1 <1>   0.4500 
 24 H       -5.8180    -4.7950     0.2070 H     1 <1>   0.0800 
 25 H       -6.0040    -4.0010    -1.3330 H     1 <1>   0.0800 
 26 H       -4.8550    -1.7290    -1.6880 H     1 <1>   0.0800 
 27 H       -3.9090    -1.0630    -0.3760 H     1 <1>   0.0800 
 28 H       -7.1590    -3.1070     1.3050 H     1 <1>   0.0800 
 29 H       -6.1100     0.0390    -0.5740 H     1 <1>   0.0800 
 30 H       -5.9110    -0.7280     0.9670 H     1 <1>   0.0800 
 31 H       -8.1520    -1.2200     0.1180 H     1 <1>   0.0800 
 32 H       -7.5020    -1.7720    -1.3980 H     1 <1>   0.0800 
 33 H      -10.5610    -5.4450     0.4180 H     1 <1>   0.0800 
 34 H      -10.9150    -4.3500    -0.9150 H     1 <1>   0.0800 
 35 H      -11.6270    -3.8540     2.0040 H     1 <1>   0.0800 
 36 H      -12.7590    -4.3210     0.7610 H     1 <1>   0.0800 
 37 H      -11.9800    -2.7620     0.6730 H     1 <1>   0.0800 
@<TRIPOS>BOND
  1   1   2  1   
  2   2   3  2   
  3   2   4  1   
  4   3   5  1   
  5   3  19  1   
  6   4   6  2   
  7   4  20  1   
  8   5   6  1   
  9   6   7  1   
 10   7   8  1   
 11   7  21  1   
 12   7  22  1   
 13   8   9  1   
 14   8  10  1   
 15   8  23  1   
 16   9  11  1   
 17   9  24  1   
 18   9  25  1   
 19  10  12  1   
 20  10  26  1   
 21  10  27  1   
 22  11  13  1   
 23  11  14  1   
 24  11  28  1   
 25  12  14  1   
 26  12  29  1   
 27  12  30  1   
 28  13  15  2   
 29  13  16  1   
 30  14  31  1   
 31  14  32  1   
 32  16  17  1   
 33  17  18  1   
 34  17  33  1   
 35  17  34  1   
 36  18  35  1   
 37  18  36  1   
 38  18  37  1   
@<TRIPOS>SUBSTRUCTURE
  1 ****   8 GROUP 4 **** **** 0

# MOE 2024.06 (io_trps.svl 2023.06)
