@<TRIPOS>MOLECULE
NONAME
29 30 1 0 0 
SMALL
USER_CHARGES


@<TRIPOS>ATOM
  1 O       -0.1410    -0.3230    -0.0280 O.2   1 <1>  -0.5700 
  2 C       -0.2460    -1.5070    -0.2240 C.2   1 <1>   0.5560 
  3 C       -1.5010    -2.1930    -0.2410 C.2   1 <1>  -0.1360 
  4 C        1.0270    -2.3060    -0.4790 C.3   1 <1>  -0.1000 
  5 C       -2.7250    -1.6530    -0.0210 C.2   1 <1>  -0.1780 
  6 C        1.3260    -3.5820     0.2580 C.3   1 <1>  -0.2000 
  7 C        2.1160    -2.3470     0.5540 C.3   1 <1>  -0.2000 
  8 C       -4.0140    -2.2940    -0.0250 C.ar  1 <1>   0.0280 
  9 C       -4.1860    -3.6580    -0.2720 C.ar  1 <1>  -0.1500 
 10 C       -5.1630    -1.5430     0.2250 C.ar  1 <1>  -0.1500 
 11 C       -5.4410    -4.2370    -0.2670 C.ar  1 <1>  -0.1500 
 12 C       -6.4210    -2.1150     0.2320 C.ar  1 <1>  -0.1500 
 13 C       -6.5690    -3.4760    -0.0150 C.ar  1 <1>   0.0830 
 14 O       -7.7600    -4.1170    -0.0280 O.3   1 <1>  -0.3630 
 15 C       -8.9710    -3.4370     0.2150 C.3   1 <1>   0.0400 
 16 H       -1.4110    -3.2390    -0.4550 H     1 <1>   0.1500 
 17 H        1.3410    -2.2270    -1.5040 H     1 <1>   0.1000 
 18 H       -2.7660    -0.5970     0.1890 H     1 <1>   0.1500 
 19 H        0.6490    -3.9360     1.0160 H     1 <1>   0.1000 
 20 H        1.8090    -4.3860    -0.2710 H     1 <1>   0.1000 
 21 H        3.1380    -2.2840     0.2220 H     1 <1>   0.1000 
 22 H        1.9540    -1.8280     1.4830 H     1 <1>   0.1000 
 23 H       -3.3370    -4.2820    -0.4700 H     1 <1>   0.1500 
 24 H       -5.0680    -0.4890     0.4190 H     1 <1>   0.1500 
 25 H       -5.5570    -5.2890    -0.4580 H     1 <1>   0.1500 
 26 H       -7.2720    -1.4910     0.4310 H     1 <1>   0.1500 
 27 H       -9.7730    -4.1500     0.1530 H     1 <1>   0.0800 
 28 H       -9.1000    -2.6760    -0.5330 H     1 <1>   0.0800 
 29 H       -8.9390    -3.0090     1.2010 H     1 <1>   0.0800 
@<TRIPOS>BOND
  1   1   2  2   
  2   2   3  1   
  3   2   4  1   
  4   3   5  2   
  5   3  16  1   
  6   4   6  1   
  7   4   7  1   
  8   4  17  1   
  9   5   8  1   
 10   5  18  1   
 11   6   7  1   
 12   6  19  1   
 13   6  20  1   
 14   7  21  1   
 15   7  22  1   
 16   8   9  ar  
 17   8  10  ar  
 18   9  11  ar  
 19   9  23  1   
 20  10  12  ar  
 21  10  24  1   
 22  11  13  ar  
 23  11  25  1   
 24  12  13  ar  
 25  12  26  1   
 26  13  14  1   
 27  14  15  1   
 28  15  27  1   
 29  15  28  1   
 30  15  29  1   
@<TRIPOS>SUBSTRUCTURE
  1 ****   8 GROUP 4 **** **** 0

# MOE 2024.06 (io_trps.svl 2023.06)
