@<TRIPOS>MOLECULE
NONAME
48 49 1 0 0 
SMALL
USER_CHARGES


@<TRIPOS>ATOM
  1 O       -0.0970    -0.0580     0.8850 O.2   1 <1>  -0.5700 
  2 C        0.0040    -1.1460     0.3530 C.2   1 <1>   0.5440 
  3 N        1.2050    -1.5480    -0.1870 N.am  1 <1>  -0.5470 
  4 C       -1.1410    -2.0330     0.2720 C.ar  1 <1>   0.0860 
  5 C        2.4650    -0.9330    -0.2330 C.ar  1 <1>   0.1170 
  6 C       -2.4270    -1.5250     0.0930 C.ar  1 <1>  -0.1500 
  7 C       -1.0110    -3.4190     0.3640 C.ar  1 <1>  -0.1500 
  8 C        3.5870    -1.7370    -0.3820 C.ar  1 <1>  -0.1500 
  9 C        2.6480     0.4430    -0.1550 C.ar  1 <1>  -0.1500 
 10 C       -3.5370    -2.3470    -0.0100 C.ar  1 <1>  -0.1440 
 11 C       -2.1100    -4.2500     0.2610 C.ar  1 <1>  -0.1500 
 12 C        4.8780    -1.2180    -0.4480 C.ar  1 <1>   0.0860 
 13 C        3.9150     0.9910    -0.2240 C.ar  1 <1>  -0.1500 
 14 C       -3.3780    -3.7260     0.0720 C.ar  1 <1>  -0.1430 
 15 C       -4.9080    -1.7160    -0.2070 C.3   1 <1>  -0.0970 
 16 C        6.0230    -2.1010    -0.5900 C.2   1 <1>   0.5440 
 17 C        5.0170     0.1690    -0.3720 C.ar  1 <1>  -0.1500 
 18 C       -4.5650    -4.6730    -0.0370 C.3   1 <1>  -0.0970 
 19 O        5.9000    -3.1670    -1.1600 O.2   1 <1>  -0.5700 
 20 N        7.2350    -1.7410    -0.0630 N.am  1 <1>  -0.7300 
 21 C        8.5160    -2.4560    -0.0930 C.3   1 <1>   0.3000 
 22 C        9.5240    -1.5620     0.6260 C.3   1 <1>  -0.2400 
 23 C        8.3850    -3.7830     0.6550 C.3   1 <1>  -0.2400 
 24 C        8.9630    -2.6670    -1.5390 C.3   1 <1>  -0.2400 
 25 H        1.1740    -2.4670    -0.6240 H     1 <1>   0.3700 
 26 H       -2.5440    -0.4570     0.0360 H     1 <1>   0.1500 
 27 H       -0.0430    -3.8570     0.5280 H     1 <1>   0.1500 
 28 H        3.4650    -2.8030    -0.4470 H     1 <1>   0.1500 
 29 H        1.8000     1.0950    -0.0460 H     1 <1>   0.1500 
 30 H       -1.9730    -5.3150     0.3350 H     1 <1>   0.1500 
 31 H        4.0370     2.0590    -0.1660 H     1 <1>   0.1500 
 32 H       -4.8390    -0.6430    -0.2380 H     1 <1>   0.0800 
 33 H       -5.5590    -1.9870     0.6040 H     1 <1>   0.0800 
 34 H       -5.3400    -2.0530    -1.1320 H     1 <1>   0.0800 
 35 H        5.9940     0.6130    -0.4390 H     1 <1>   0.1500 
 36 H       -5.0570    -4.5410    -0.9830 H     1 <1>   0.0800 
 37 H       -5.2660    -4.4760     0.7540 H     1 <1>   0.0800 
 38 H       -4.2510    -5.6980     0.0390 H     1 <1>   0.0800 
 39 H        7.2660    -0.9040     0.5130 H     1 <1>   0.3700 
 40 H        9.2250    -1.3940     1.6450 H     1 <1>   0.0800 
 41 H        9.6190    -0.6170     0.1220 H     1 <1>   0.0800 
 42 H       10.4910    -2.0330     0.6360 H     1 <1>   0.0800 
 43 H        8.0290    -3.6190     1.6560 H     1 <1>   0.0800 
 44 H        9.3400    -4.2740     0.7070 H     1 <1>   0.0800 
 45 H        7.7050    -4.4400     0.1450 H     1 <1>   0.0800 
 46 H        8.9990    -1.7300    -2.0640 H     1 <1>   0.0800 
 47 H        8.2880    -3.3280    -2.0530 H     1 <1>   0.0800 
 48 H        9.9410    -3.1120    -1.5640 H     1 <1>   0.0800 
@<TRIPOS>BOND
  1   1   2  2   
  2   2   3  am  
  3   2   4  1   
  4   3   5  1   
  5   3  25  1   
  6   4   6  ar  
  7   4   7  ar  
  8   5   8  ar  
  9   5   9  ar  
 10   6  10  ar  
 11   6  26  1   
 12   7  11  ar  
 13   7  27  1   
 14   8  12  ar  
 15   8  28  1   
 16   9  13  ar  
 17   9  29  1   
 18  10  14  ar  
 19  10  15  1   
 20  11  14  ar  
 21  11  30  1   
 22  12  16  1   
 23  12  17  ar  
 24  13  17  ar  
 25  13  31  1   
 26  14  18  1   
 27  15  32  1   
 28  15  33  1   
 29  15  34  1   
 30  16  19  2   
 31  16  20  am  
 32  17  35  1   
 33  18  36  1   
 34  18  37  1   
 35  18  38  1   
 36  20  21  1   
 37  20  39  1   
 38  21  22  1   
 39  21  23  1   
 40  21  24  1   
 41  22  40  1   
 42  22  41  1   
 43  22  42  1   
 44  23  43  1   
 45  23  44  1   
 46  23  45  1   
 47  24  46  1   
 48  24  47  1   
 49  24  48  1   
@<TRIPOS>SUBSTRUCTURE
  1 ****   5 GROUP 4 **** **** 0

# MOE 2024.06 (io_trps.svl 2023.06)
