@<TRIPOS>MOLECULE
NONAME
41 43 1 0 0 
SMALL
USER_CHARGES


@<TRIPOS>ATOM
  1 BR      -2.2320     3.1720    -2.0070 Br    1 <1>  -0.0580 
  2 C       -2.7060     1.5990    -1.0050 C.2   1 <1>   0.1980 
  3 O       -3.8520     1.0200    -1.2840 O.3   1 <1>  -0.2800 
  4 C       -2.0230     0.9790    -0.0240 C.2   1 <1>  -0.1500 
  5 C       -3.9390    -0.0210    -0.4690 C.2   1 <1>  -0.0400 
  6 C       -2.8470    -0.0990     0.3330 C.2   1 <1>  -0.1500 
  7 C       -5.1810    -0.8890    -0.5550 C.3   1 <1>   0.5230 
  8 N       -6.3710     0.0000    -0.5170 N.4   1 <1>  -0.9590 
  9 C       -6.5140     0.7000     0.8130 C.3   1 <1>   0.3430 
 10 C       -7.6430    -0.7080    -0.9030 C.3   1 <1>   0.3430 
 11 C       -7.7320     1.6420     0.8500 C.3   1 <1>   0.2090 
 12 C       -8.8670     0.2290    -0.8720 C.3   1 <1>   0.2090 
 13 N       -8.9770     0.9230     0.4450 N.pl3 1 <1>  -0.8380 
 14 C      -10.1540     1.6680     0.6080 C.ar  1 <1>   0.1000 
 15 C      -10.4610     2.8240    -0.1350 C.ar  1 <1>   0.0820 
 16 C      -11.0580     1.2270     1.5630 C.ar  1 <1>  -0.1500 
 17 O       -9.5610     3.2520    -1.0760 O.3   1 <1>  -0.3630 
 18 C      -11.6580     3.4940     0.1020 C.ar  1 <1>  -0.1500 
 19 C      -12.2450     1.8990     1.7920 C.ar  1 <1>  -0.1500 
 20 C       -9.7900     4.4250    -1.8270 C.3   1 <1>   0.0400 
 21 C      -12.5450     3.0330     1.0610 C.ar  1 <1>  -0.1500 
 22 H       -1.0670     1.2330     0.4000 H     1 <1>   0.1500 
 23 H       -2.6070    -0.8190     1.0990 H     1 <1>   0.1500 
 24 H       -5.2040    -1.5940     0.2600 H     1 <1>   0.0800 
 25 H       -5.1590    -1.4320    -1.4860 H     1 <1>   0.0800 
 26 H       -6.1850     0.7380    -1.2120 H     1 <1>   0.4500 
 27 H       -5.6250     1.2730     1.0240 H     1 <1>   0.0800 
 28 H       -6.6330    -0.0300     1.5960 H     1 <1>   0.0800 
 29 H       -7.8290    -1.5180    -0.2170 H     1 <1>   0.0800 
 30 H       -7.5490    -1.1250    -1.8920 H     1 <1>   0.0800 
 31 H       -7.5600     2.4790     0.1970 H     1 <1>   0.0800 
 32 H       -7.8580     2.0260     1.8480 H     1 <1>   0.0800 
 33 H       -9.7630    -0.3450    -1.0410 H     1 <1>   0.0800 
 34 H       -8.7870     0.9530    -1.6640 H     1 <1>   0.0800 
 35 H      -10.8250     0.3460     2.1310 H     1 <1>   0.1500 
 36 H      -11.9290     4.3760    -0.4440 H     1 <1>   0.1500 
 37 H      -12.9330     1.5400     2.5380 H     1 <1>   0.1500 
 38 H       -8.9530     4.5740    -2.4840 H     1 <1>   0.0800 
 39 H       -9.8770     5.2600    -1.1540 H     1 <1>   0.0800 
 40 H      -10.6890     4.3010    -2.4050 H     1 <1>   0.0800 
 41 H      -13.4680     3.5570     1.2380 H     1 <1>   0.1500 
@<TRIPOS>BOND
  1   1   2  1   
  2   2   3  1   
  3   2   4  2   
  4   3   5  1   
  5   4   6  1   
  6   4  22  1   
  7   5   6  2   
  8   5   7  1   
  9   6  23  1   
 10   7   8  1   
 11   7  24  1   
 12   7  25  1   
 13   8   9  1   
 14   8  10  1   
 15   8  26  1   
 16   9  11  1   
 17   9  27  1   
 18   9  28  1   
 19  10  12  1   
 20  10  29  1   
 21  10  30  1   
 22  11  13  1   
 23  11  31  1   
 24  11  32  1   
 25  12  13  1   
 26  12  33  1   
 27  12  34  1   
 28  13  14  1   
 29  14  15  ar  
 30  14  16  ar  
 31  15  17  1   
 32  15  18  ar  
 33  16  19  ar  
 34  16  35  1   
 35  17  20  1   
 36  18  21  ar  
 37  18  36  1   
 38  19  21  ar  
 39  19  37  1   
 40  20  38  1   
 41  20  39  1   
 42  20  40  1   
 43  21  41  1   
@<TRIPOS>SUBSTRUCTURE
  1 ****  11 GROUP 4 **** **** 0

# MOE 2024.06 (io_trps.svl 2023.06)
