@<TRIPOS>MOLECULE
NONAME
48 49 1 0 0 
SMALL
USER_CHARGES


@<TRIPOS>ATOM
  1 O        0.7810    -1.5730    -0.7480 O.2   1 <1>  -0.5700 
  2 C        0.3080    -2.5180    -0.1460 C.2   1 <1>   0.6900 
  3 N       -0.9090    -3.0400    -0.4960 N.am  1 <1>  -0.6600 
  4 N        0.9860    -3.0550     0.8980 N.am  1 <1>  -0.7300 
  5 C       -1.3620    -4.4140    -0.1550 C.3   1 <1>   0.1400 
  6 C       -1.8370    -2.2860    -1.3790 C.3   1 <1>   0.1400 
  7 C        2.2350    -2.4900     1.4680 C.3   1 <1>   0.1400 
  8 C       -2.7230    -4.3390     0.5390 C.3   1 <1>  -0.1600 
  9 C       -3.2120    -2.1950    -0.7100 C.3   1 <1>  -0.1600 
 10 C        3.4150    -2.7170     0.5220 C.3   1 <1>   0.1200 
 11 C       -3.7590    -3.5830    -0.3220 C.3   1 <1>  -0.0190 
 12 O        4.6070    -2.3820     1.2040 O.3   1 <1>  -0.3630 
 13 C       -5.1210    -3.4660     0.3610 C.2   1 <1>   0.6590 
 14 C        5.8150    -2.5060     0.5950 C.ar  1 <1>   0.0820 
 15 O       -5.2770    -3.6600     1.5400 O.2   1 <1>  -0.5700 
 16 O       -6.1320    -3.1350    -0.4350 O.3   1 <1>  -0.4300 
 17 C        5.9790    -2.8830    -0.7350 C.ar  1 <1>  -0.1500 
 18 C        6.9320    -2.2350     1.3690 C.ar  1 <1>  -0.1500 
 19 C       -7.4460    -2.9840     0.0620 C.3   1 <1>   0.0400 
 20 C        7.2520    -2.9870    -1.2700 C.ar  1 <1>  -0.1500 
 21 C        8.2050    -2.3390     0.8340 C.ar  1 <1>  -0.1500 
 22 C        8.3690    -2.7190    -0.4960 C.ar  1 <1>   0.0820 
 23 O        9.5790    -2.8480    -1.1030 O.3   1 <1>  -0.3620 
 24 C       10.7750    -2.5960    -0.4000 C.3   1 <1>   0.0400 
 25 H        0.4370    -3.6380     1.5250 H     1 <1>   0.3700 
 26 H       -0.6520    -4.9130     0.4790 H     1 <1>   0.0800 
 27 H       -1.4470    -4.9850    -1.0640 H     1 <1>   0.0800 
 28 H       -1.9150    -2.7950    -2.3240 H     1 <1>   0.0800 
 29 H       -1.4630    -1.2930    -1.5630 H     1 <1>   0.0800 
 30 H        2.4370    -2.9680     2.4100 H     1 <1>   0.0800 
 31 H        2.1060    -1.4330     1.6290 H     1 <1>   0.0800 
 32 H       -2.6030    -3.8410     1.4860 H     1 <1>   0.0800 
 33 H       -3.0770    -5.3350     0.7380 H     1 <1>   0.0800 
 34 H       -3.8970    -1.7090    -1.3820 H     1 <1>   0.0800 
 35 H       -3.1270    -1.5800     0.1700 H     1 <1>   0.0800 
 36 H        3.3260    -2.0840    -0.3440 H     1 <1>   0.0800 
 37 H        3.4720    -3.7510     0.2340 H     1 <1>   0.0800 
 38 H       -3.9110    -4.1470    -1.2250 H     1 <1>   0.0800 
 39 H        5.1370    -3.0960    -1.3660 H     1 <1>   0.1500 
 40 H        6.7960    -1.9420     2.3940 H     1 <1>   0.1500 
 41 H       -8.0920    -2.7150    -0.7550 H     1 <1>   0.0800 
 42 H       -7.4480    -2.2090     0.8090 H     1 <1>   0.0800 
 43 H       -7.7640    -3.9170     0.4950 H     1 <1>   0.0800 
 44 H        7.3870    -3.2780    -2.2960 H     1 <1>   0.1500 
 45 H        9.0470    -2.1220     1.4620 H     1 <1>   0.1500 
 46 H       11.5980    -2.7590    -1.0730 H     1 <1>   0.0800 
 47 H       10.8420    -3.2760     0.4310 H     1 <1>   0.0800 
 48 H       10.7750    -1.5740    -0.0650 H     1 <1>   0.0800 
@<TRIPOS>BOND
  1   1   2  2   
  2   2   3  am  
  3   2   4  am  
  4   3   5  1   
  5   3   6  1   
  6   4   7  1   
  7   4  25  1   
  8   5   8  1   
  9   5  26  1   
 10   5  27  1   
 11   6   9  1   
 12   6  28  1   
 13   6  29  1   
 14   7  10  1   
 15   7  30  1   
 16   7  31  1   
 17   8  11  1   
 18   8  32  1   
 19   8  33  1   
 20   9  11  1   
 21   9  34  1   
 22   9  35  1   
 23  10  12  1   
 24  10  36  1   
 25  10  37  1   
 26  11  13  1   
 27  11  38  1   
 28  12  14  1   
 29  13  15  2   
 30  13  16  1   
 31  14  17  ar  
 32  14  18  ar  
 33  16  19  1   
 34  17  20  ar  
 35  17  39  1   
 36  18  21  ar  
 37  18  40  1   
 38  19  41  1   
 39  19  42  1   
 40  19  43  1   
 41  20  22  ar  
 42  20  44  1   
 43  21  22  ar  
 44  21  45  1   
 45  22  23  1   
 46  23  24  1   
 47  24  46  1   
 48  24  47  1   
 49  24  48  1   
@<TRIPOS>SUBSTRUCTURE
  1 ****   4 GROUP 4 **** **** 0

# MOE 2024.06 (io_trps.svl 2023.06)
