@<TRIPOS>MOLECULE
NONAME
24 28 1 0 0 
SMALL
USER_CHARGES


@<TRIPOS>ATOM
  1 O       -0.4630     0.7190     0.0730 O.2   1 <1>  -0.5700 
  2 C       -0.1320     1.8390     0.3570 C.2   1 <1>   0.6670 
  3 O       -1.0320     2.6760     0.8750 O.3   1 <1>  -0.4300 
  4 C        1.3000     2.3080     0.1300 C.3   1 <1>   0.0530 
  5 C       -0.7970     4.0110     1.2720 C.3   1 <1>   0.0400 
  6 C        1.7340     3.4780    -0.8020 C.3   1 <1>   0.0000 
  7 C        2.2790     2.8000     1.2370 C.3   1 <1>   0.0000 
  8 C        2.4250     1.4090    -0.4700 C.3   1 <1>   0.0000 
  9 C        2.7090     3.9810     0.3100 C.3   1 <1>   0.0000 
 10 C        2.8660     2.5850    -1.3970 C.3   1 <1>   0.0000 
 11 C        3.4090     1.9100     0.6340 C.3   1 <1>   0.0000 
 12 C        3.8340     3.0880    -0.2880 C.3   1 <1>  -0.0710 
 13 C        5.2630     3.5510    -0.4870 C.2   1 <1>   0.8710 
 14 O        5.8460     3.2590    -1.5360 O.co2 1 <1>  -0.9000 
 15 O        5.7980     4.2100     0.4110 O.co2 1 <1>  -0.9000 
 16 H       -1.7210     4.4130     1.6480 H     1 <1>   0.0800 
 17 H       -0.4750     4.5840     0.4210 H     1 <1>   0.0800 
 18 H       -0.0550     4.0260     2.0500 H     1 <1>   0.0800 
 19 H        1.0690     4.0990    -1.3750 H     1 <1>   0.0000 
 20 H        2.0490     2.8820     2.2840 H     1 <1>   0.0000 
 21 H        2.3100     0.3860    -0.7790 H     1 <1>   0.0000 
 22 H        2.8270     5.0050     0.6170 H     1 <1>   0.0000 
 23 H        3.1050     2.4980    -2.4420 H     1 <1>   0.0000 
 24 H        4.0810     1.2890     1.1980 H     1 <1>   0.0000 
@<TRIPOS>BOND
  1   1   2  2   
  2   2   3  1   
  3   2   4  1   
  4   3   5  1   
  5   4   6  1   
  6   4   7  1   
  7   4   8  1   
  8   5  16  1   
  9   5  17  1   
 10   5  18  1   
 11   6   9  1   
 12   6  10  1   
 13   6  19  1   
 14   7   9  1   
 15   7  11  1   
 16   7  20  1   
 17   8  10  1   
 18   8  11  1   
 19   8  21  1   
 20   9  12  1   
 21   9  22  1   
 22  10  12  1   
 23  10  23  1   
 24  11  12  1   
 25  11  24  1   
 26  12  13  1   
 27  13  14  ar  
 28  13  15  ar  
@<TRIPOS>SUBSTRUCTURE
  1 ****   4 GROUP 4 **** **** 0

# MOE 2024.06 (io_trps.svl 2023.06)
