@<TRIPOS>MOLECULE
NONAME
49 51 1 0 0 
SMALL
USER_CHARGES


@<TRIPOS>ATOM
  1 O        0.6750     0.1060     0.6180 O.3   1 <1>  -0.3630 
  2 C        1.7390     0.9150     0.3400 C.ar  1 <1>   0.0830 
  3 C       -0.6180     0.5840     0.9140 C.3   1 <1>   0.0400 
  4 C        1.7660     2.3210     0.3520 C.ar  1 <1>   0.0830 
  5 C        2.8910     0.2190     0.0180 C.ar  1 <1>  -0.1500 
  6 O        0.6450     3.0310     0.6700 O.3   1 <1>  -0.3630 
  7 C        2.9590     2.9690     0.0380 C.ar  1 <1>  -0.1500 
  8 C        4.0730     0.8700    -0.2930 C.ar  1 <1>  -0.1430 
  9 C        0.6070     4.4420     0.6850 C.3   1 <1>   0.0400 
 10 C        4.1050     2.2580    -0.2820 C.ar  1 <1>  -0.1430 
 11 C        5.2930     0.0370    -0.6470 C.3   1 <1>   0.4860 
 12 C        5.3870     3.0170    -0.6010 C.3   1 <1>  -0.0160 
 13 N        6.5310     0.8270    -0.4210 N.4   1 <1>  -0.9590 
 14 C        6.4790     2.1130    -1.1790 C.3   1 <1>   0.3430 
 15 C        7.7580     0.0390    -0.7050 C.3   1 <1>   0.4860 
 16 C        8.9590     0.8530    -0.2720 C.ar  1 <1>  -0.1430 
 17 C        9.7900     1.4300    -1.2210 C.ar  1 <1>  -0.1500 
 18 C        9.2340     1.0370     1.0760 C.ar  1 <1>  -0.1500 
 19 C       10.8740     2.1930    -0.8260 C.ar  1 <1>  -0.1500 
 20 C       10.3190     1.8020     1.4660 C.ar  1 <1>  -0.1500 
 21 C       11.1420     2.3870     0.5190 C.ar  1 <1>  -0.1430 
 22 C       12.3360     3.2240     0.9510 C.3   1 <1>  -0.0170 
 23 C       13.5800     2.3470     1.1050 C.3   1 <1>  -0.2400 
 24 H       -1.2640    -0.2620     1.0560 H     1 <1>   0.0800 
 25 H       -0.9680     1.1780     0.0880 H     1 <1>   0.0800 
 26 H       -0.5760     1.1670     1.8170 H     1 <1>   0.0800 
 27 H        2.8360    -0.8560     0.0160 H     1 <1>   0.1500 
 28 H        3.0140     4.0410     0.0410 H     1 <1>   0.1500 
 29 H       -0.3880     4.7450     0.9570 H     1 <1>   0.0800 
 30 H        0.8420     4.8100    -0.2980 H     1 <1>   0.0800 
 31 H        1.3090     4.8040     1.4150 H     1 <1>   0.0800 
 32 H        5.2260    -0.2620    -1.6800 H     1 <1>   0.0800 
 33 H        5.3040    -0.8510    -0.0350 H     1 <1>   0.0800 
 34 H        5.7540     3.4770     0.3000 H     1 <1>   0.0800 
 35 H        5.1800     3.8040    -1.3040 H     1 <1>   0.0800 
 36 H        6.5490     1.0770     0.5750 H     1 <1>   0.4500 
 37 H        7.4260     2.6270    -1.1200 H     1 <1>   0.0800 
 38 H        6.2650     1.9130    -2.2160 H     1 <1>   0.0800 
 39 H        7.8250    -0.1860    -1.7570 H     1 <1>   0.0800 
 40 H        7.7420    -0.8890    -0.1550 H     1 <1>   0.0800 
 41 H        9.6130     1.2940    -2.2750 H     1 <1>   0.1500 
 42 H        8.6190     0.5900     1.8380 H     1 <1>   0.1500 
 43 H       11.5170     2.6360    -1.5680 H     1 <1>   0.1500 
 44 H       10.5280     1.9390     2.5140 H     1 <1>   0.1500 
 45 H       12.1210     3.7100     1.8870 H     1 <1>   0.0800 
 46 H       12.5250     3.9930     0.2220 H     1 <1>   0.0800 
 47 H       13.4100     1.5860     1.8460 H     1 <1>   0.0800 
 48 H       14.4190     2.9450     1.4100 H     1 <1>   0.0800 
 49 H       13.8170     1.8710     0.1700 H     1 <1>   0.0800 
@<TRIPOS>BOND
  1   1   2  1   
  2   1   3  1   
  3   2   4  ar  
  4   2   5  ar  
  5   3  24  1   
  6   3  25  1   
  7   3  26  1   
  8   4   6  1   
  9   4   7  ar  
 10   5   8  ar  
 11   5  27  1   
 12   6   9  1   
 13   7  10  ar  
 14   7  28  1   
 15   8  10  ar  
 16   8  11  1   
 17   9  29  1   
 18   9  30  1   
 19   9  31  1   
 20  10  12  1   
 21  11  13  1   
 22  11  32  1   
 23  11  33  1   
 24  12  14  1   
 25  12  34  1   
 26  12  35  1   
 27  13  14  1   
 28  13  15  1   
 29  13  36  1   
 30  14  37  1   
 31  14  38  1   
 32  15  16  1   
 33  15  39  1   
 34  15  40  1   
 35  16  17  ar  
 36  16  18  ar  
 37  17  19  ar  
 38  17  41  1   
 39  18  20  ar  
 40  18  42  1   
 41  19  21  ar  
 42  19  43  1   
 43  20  21  ar  
 44  20  44  1   
 45  21  22  1   
 46  22  23  1   
 47  22  45  1   
 48  22  46  1   
 49  23  47  1   
 50  23  48  1   
 51  23  49  1   
@<TRIPOS>SUBSTRUCTURE
  1 ****  13 GROUP 4 **** **** 0

# MOE 2024.06 (io_trps.svl 2023.06)
