@<TRIPOS>MOLECULE
NONAME
37 38 1 0 0 
SMALL
USER_CHARGES


@<TRIPOS>ATOM
  1 F        0.2230     4.3390    -0.0840 F     1 <1>  -0.1900 
  2 C        0.5610     3.0950    -0.3290 C.ar  1 <1>   0.1900 
  3 C       -0.4170     2.1040    -0.2350 C.ar  1 <1>   0.1170 
  4 C        1.8740     2.8370    -0.6710 C.ar  1 <1>  -0.1500 
  5 N       -1.7340     2.4600     0.1190 N.am  1 <1>  -0.5470 
  6 C       -0.0110     0.8000    -0.5110 C.ar  1 <1>  -0.1500 
  7 C        2.2460     1.5300    -0.9380 C.ar  1 <1>  -0.1500 
  8 C       -2.8490     1.7360     0.4030 C.2   1 <1>   0.6900 
  9 C        1.3020     0.5190    -0.8570 C.ar  1 <1>  -0.1500 
 10 O       -2.8700     0.5210     0.4280 O.2   1 <1>  -0.5700 
 11 N       -4.0100     2.4150     0.6240 N.am  1 <1>  -0.6600 
 12 C       -4.7130     2.9560    -0.5710 C.3   1 <1>   0.1400 
 13 C       -4.9410     1.8670     1.6530 C.3   1 <1>   0.1400 
 14 C       -5.6180     1.8670    -1.1890 C.3   1 <1>   0.3430 
 15 C       -5.8470     0.7820     1.0350 C.3   1 <1>   0.3430 
 16 N       -6.5820     1.2810    -0.1880 N.4   1 <1>  -0.9590 
 17 C       -7.3840     0.2010    -0.8210 C.3   1 <1>   0.3430 
 18 C       -8.5960    -0.1160     0.0460 C.3   1 <1>  -0.2400 
 19 H        2.5880     3.6390    -0.7270 H     1 <1>   0.1500 
 20 H       -1.8530     3.4570     0.2950 H     1 <1>   0.3700 
 21 H       -0.7120    -0.0110    -0.4600 H     1 <1>   0.1500 
 22 H        3.2630     1.3000    -1.2060 H     1 <1>   0.1500 
 23 H        1.5900    -0.4980    -1.0640 H     1 <1>   0.1500 
 24 H       -3.9910     3.2750    -1.3050 H     1 <1>   0.0800 
 25 H       -5.2990     3.8140    -0.2900 H     1 <1>   0.0800 
 26 H       -5.5380     2.6620     2.0640 H     1 <1>   0.0800 
 27 H       -4.3700     1.4330     2.4570 H     1 <1>   0.0800 
 28 H       -4.9830     1.0850    -1.5750 H     1 <1>   0.0800 
 29 H       -6.1620     2.2900    -2.0180 H     1 <1>   0.0800 
 30 H       -6.5500     0.4470     1.7790 H     1 <1>   0.0800 
 31 H       -5.2260    -0.0580     0.7660 H     1 <1>   0.0800 
 32 H       -7.2270     2.0240     0.1090 H     1 <1>   0.4500 
 33 H       -6.7790    -0.6830    -0.9550 H     1 <1>   0.0800 
 34 H       -7.7260     0.5240    -1.7920 H     1 <1>   0.0800 
 35 H       -8.3070    -0.5340     0.9930 H     1 <1>   0.0800 
 36 H       -9.2050    -0.8470    -0.4580 H     1 <1>   0.0800 
 37 H       -9.1980     0.7620     0.2020 H     1 <1>   0.0800 
@<TRIPOS>BOND
  1   1   2  1   
  2   2   3  ar  
  3   2   4  ar  
  4   3   5  1   
  5   3   6  ar  
  6   4   7  ar  
  7   4  19  1   
  8   5   8  am  
  9   5  20  1   
 10   6   9  ar  
 11   6  21  1   
 12   7   9  ar  
 13   7  22  1   
 14   8  10  2   
 15   8  11  am  
 16   9  23  1   
 17  11  12  1   
 18  11  13  1   
 19  12  14  1   
 20  12  24  1   
 21  12  25  1   
 22  13  15  1   
 23  13  26  1   
 24  13  27  1   
 25  14  16  1   
 26  14  28  1   
 27  14  29  1   
 28  15  16  1   
 29  15  30  1   
 30  15  31  1   
 31  16  17  1   
 32  16  32  1   
 33  17  18  1   
 34  17  33  1   
 35  17  34  1   
 36  18  35  1   
 37  18  36  1   
 38  18  37  1   
@<TRIPOS>SUBSTRUCTURE
  1 ****   8 GROUP 4 **** **** 0

# MOE 2024.06 (io_trps.svl 2023.06)
