@<TRIPOS>MOLECULE
NONAME
44 46 1 0 0 
SMALL
USER_CHARGES


@<TRIPOS>ATOM
  1 F       -1.8670     2.8600    -2.1580 F     1 <1>  -0.1900 
  2 C       -2.3330     2.2170    -1.1230 C.ar  1 <1>   0.1900 
  3 C       -3.5110     1.5080    -1.2610 C.ar  1 <1>  -0.1500 
  4 C       -1.6360     2.2710     0.0680 C.ar  1 <1>  -0.1500 
  5 C       -4.0190     0.8300    -0.1610 C.ar  1 <1>  -0.1440 
  6 C       -2.1410     1.5860     1.1590 C.ar  1 <1>  -0.1500 
  7 C       -3.3240     0.8690     1.0440 C.ar  1 <1>  -0.1500 
  8 C       -5.3210     0.0590    -0.2700 C.3   1 <1>   0.4870 
  9 N       -6.4430     1.0300    -0.3340 N.4   1 <1>  -0.9590 
 10 C       -6.5390     1.8680     0.9210 C.3   1 <1>   0.3430 
 11 C       -7.7600     0.3560    -0.6250 C.3   1 <1>   0.3430 
 12 C       -7.6980     2.8820     0.8630 C.3   1 <1>   0.2090 
 13 C       -8.9300     1.3570    -0.6970 C.3   1 <1>   0.2090 
 14 N       -8.9870     2.2050     0.5310 N.pl3 1 <1>  -0.8380 
 15 C      -10.1120     3.0390     0.6030 C.ar  1 <1>   0.1000 
 16 C      -10.3460     4.1200    -0.2680 C.ar  1 <1>   0.0830 
 17 C      -11.0390     2.7700     1.5990 C.ar  1 <1>  -0.1500 
 18 O       -9.4230     4.3780    -1.2490 O.3   1 <1>  -0.3630 
 19 C      -11.4970     4.8890    -0.1130 C.ar  1 <1>  -0.1500 
 20 C      -12.1780     3.5400     1.7460 C.ar  1 <1>  -0.1500 
 21 C       -9.5810     5.4720    -2.1280 C.3   1 <1>   0.0400 
 22 C      -12.4070     4.5990     0.8890 C.ar  1 <1>  -0.1500 
 23 H       -3.9990     1.5000    -2.2200 H     1 <1>   0.1500 
 24 H       -0.7210     2.8330     0.1340 H     1 <1>   0.1500 
 25 H       -1.6100     1.6090     2.0970 H     1 <1>   0.1500 
 26 H       -3.6890     0.3410     1.9100 H     1 <1>   0.1500 
 27 H       -5.4380    -0.5910     0.5820 H     1 <1>   0.0800 
 28 H       -5.3010    -0.5470    -1.1620 H     1 <1>   0.0800 
 29 H       -6.2450     1.6830    -1.1020 H     1 <1>   0.4500 
 30 H       -5.6170     2.4040     1.0770 H     1 <1>   0.0800 
 31 H       -6.6980     1.2280     1.7720 H     1 <1>   0.0800 
 32 H       -7.9810    -0.3560     0.1540 H     1 <1>   0.0800 
 33 H       -7.7030    -0.1800    -1.5580 H     1 <1>   0.0800 
 34 H       -7.4790     3.6380     0.1310 H     1 <1>   0.0800 
 35 H       -7.7950     3.3690     1.8190 H     1 <1>   0.0800 
 36 H       -9.8570     0.8190    -0.7930 H     1 <1>   0.0800 
 37 H       -8.8210     1.9780    -1.5680 H     1 <1>   0.0800 
 38 H      -10.8610     1.9470     2.2660 H     1 <1>   0.1500 
 39 H      -11.7120     5.7190    -0.7570 H     1 <1>   0.1500 
 40 H      -12.8850     3.3140     2.5260 H     1 <1>   0.1500 
 41 H       -8.7380     5.4920    -2.7960 H     1 <1>   0.0800 
 42 H       -9.6110     6.3810    -1.5540 H     1 <1>   0.0800 
 43 H      -10.4880     5.3410    -2.6920 H     1 <1>   0.0800 
 44 H      -13.2940     5.1990     1.0020 H     1 <1>   0.1500 
@<TRIPOS>BOND
  1   1   2  1   
  2   2   3  ar  
  3   2   4  ar  
  4   3   5  ar  
  5   3  23  1   
  6   4   6  ar  
  7   4  24  1   
  8   5   7  ar  
  9   5   8  1   
 10   6   7  ar  
 11   6  25  1   
 12   7  26  1   
 13   8   9  1   
 14   8  27  1   
 15   8  28  1   
 16   9  10  1   
 17   9  11  1   
 18   9  29  1   
 19  10  12  1   
 20  10  30  1   
 21  10  31  1   
 22  11  13  1   
 23  11  32  1   
 24  11  33  1   
 25  12  14  1   
 26  12  34  1   
 27  12  35  1   
 28  13  14  1   
 29  13  36  1   
 30  13  37  1   
 31  14  15  1   
 32  15  16  ar  
 33  15  17  ar  
 34  16  18  1   
 35  16  19  ar  
 36  17  20  ar  
 37  17  38  1   
 38  18  21  1   
 39  19  22  ar  
 40  19  39  1   
 41  20  22  ar  
 42  20  40  1   
 43  21  41  1   
 44  21  42  1   
 45  21  43  1   
 46  22  44  1   
@<TRIPOS>SUBSTRUCTURE
  1 ****  12 GROUP 4 **** **** 0

# MOE 2024.06 (io_trps.svl 2023.06)
