@<TRIPOS>MOLECULE
NONAME
24 25 1 0 0 
SMALL
USER_CHARGES


@<TRIPOS>ATOM
  1 S        0.3260    -0.0810     0.9960 S.3   1 <1>  -0.2820 
  2 C        1.5810    -1.1930     0.5150 C.2   1 <1>   0.6410 
  3 C       -0.8930    -1.1570     0.3070 C.2   1 <1>   0.5300 
  4 N        2.8280    -0.9940     0.7350 N.2   1 <1>  -0.6610 
  5 N        0.9780    -2.2590    -0.1100 N.pl3 1 <1>  -0.1080 
  6 N       -0.4170    -2.2140    -0.2140 N.2   1 <1>  -0.4920 
  7 C       -2.3460    -0.6910     0.4220 C.3   1 <1>  -0.0190 
  8 C        3.6460    -1.9890     0.2770 C.2   1 <1>   0.7670 
  9 C        1.7920    -3.2710    -0.5780 C.2   1 <1>   0.2000 
 10 C       -3.3460    -1.8400     0.2080 C.3   1 <1>  -0.2400 
 11 C       -2.6460     0.4450    -0.5700 C.3   1 <1>  -0.2400 
 12 O        4.8510    -1.8660     0.4520 O.2   1 <1>  -0.5700 
 13 C        3.1310    -3.1260    -0.3790 C.2   1 <1>  -0.1360 
 14 N        1.2110    -4.3390    -1.2030 N.pl3 1 <1>  -0.9000 
 15 H       -2.4850    -0.3150     1.4210 H     1 <1>   0.0800 
 16 H       -3.2550    -2.2410    -0.7870 H     1 <1>   0.0800 
 17 H       -4.3550    -1.4930     0.3480 H     1 <1>   0.0800 
 18 H       -3.1590    -2.6310     0.9130 H     1 <1>   0.0800 
 19 H       -2.5040     0.1080    -1.5820 H     1 <1>   0.0800 
 20 H       -1.9930     1.2820    -0.3930 H     1 <1>   0.0800 
 21 H       -3.6620     0.7820    -0.4580 H     1 <1>   0.0800 
 22 H        3.8340    -3.8630    -0.7090 H     1 <1>   0.1500 
 23 H        1.7200    -5.1390    -1.5890 H     1 <1>   0.4000 
 24 H        0.1900    -4.3590    -1.3090 H     1 <1>   0.4000 
@<TRIPOS>BOND
  1   1   2  1   
  2   1   3  1   
  3   2   4  2   
  4   2   5  1   
  5   3   6  2   
  6   3   7  1   
  7   4   8  1   
  8   5   6  1   
  9   5   9  1   
 10   7  10  1   
 11   7  11  1   
 12   7  15  1   
 13   8  12  2   
 14   8  13  1   
 15   9  13  2   
 16   9  14  1   
 17  10  16  1   
 18  10  17  1   
 19  10  18  1   
 20  11  19  1   
 21  11  20  1   
 22  11  21  1   
 23  13  22  1   
 24  14  23  1   
 25  14  24  1   
@<TRIPOS>SUBSTRUCTURE
  1 ****   5 GROUP 4 **** **** 0

# MOE 2024.06 (io_trps.svl 2023.06)
