@<TRIPOS>MOLECULE
NONAME
56 59 1 0 0 
SMALL
USER_CHARGES


@<TRIPOS>ATOM
  1 O       -0.1840    -0.5530    -1.2060 O.2   1 <1>  -0.5700 
  2 C       -0.3880    -1.4730    -0.4560 C.2   1 <1>   0.5690 
  3 N        0.5580    -2.2900     0.0820 N.am  1 <1>  -0.4200 
  4 C       -1.7760    -1.8570     0.0150 C.3   1 <1>  -0.0190 
  5 C       -0.0060    -3.2190     0.9070 C.2   1 <1>   0.5690 
  6 C        2.0050    -2.1460    -0.2210 C.3   1 <1>   0.2200 
  7 C       -1.5130    -3.0620     0.9540 C.3   1 <1>  -0.0190 
  8 C       -2.7420    -2.1010    -1.1620 C.3   1 <1>  -0.0220 
  9 O        0.5760    -4.0640     1.5380 O.2   1 <1>  -0.5700 
 10 C        2.5480    -3.4080    -0.9100 C.3   1 <1>  -0.1600 
 11 C        2.8020    -1.8050     1.0480 C.3   1 <1>  -0.1600 
 12 C       -2.2440    -4.3740     0.6090 C.3   1 <1>  -0.0220 
 13 C       -3.8480    -3.0590    -0.7670 C.2   1 <1>  -0.2880 
 14 C        4.0490    -3.2720    -1.2110 C.3   1 <1>  -0.1600 
 15 C        4.3020    -1.6730     0.7410 C.3   1 <1>  -0.1600 
 16 C       -3.6210    -4.0950     0.0410 C.2   1 <1>  -0.2880 
 17 C        4.8540    -2.9430     0.0620 C.3   1 <1>  -0.0190 
 18 C        6.3450    -2.8040    -0.2470 C.2   1 <1>   0.5690 
 19 O        6.7260    -1.9180    -0.9740 O.2   1 <1>  -0.5700 
 20 N        7.2070    -3.6900     0.3050 N.am  1 <1>  -0.7300 
 21 C        8.6430    -3.7400     0.0230 C.3   1 <1>   0.3640 
 22 C        9.0930    -5.1940     0.1170 C.ar  1 <1>  -0.1440 
 23 C        9.3770    -2.8430     1.0170 C.3   1 <1>  -0.2400 
 24 C        9.5660    -5.8390    -1.0160 C.ar  1 <1>  -0.1500 
 25 C        9.0320    -5.8970     1.3140 C.ar  1 <1>  -0.1500 
 26 C        9.9740    -7.1610    -0.9560 C.ar  1 <1>  -0.1500 
 27 C        9.4390    -7.2180     1.3760 C.ar  1 <1>  -0.1500 
 28 C        9.9110    -7.8510     0.2400 C.ar  1 <1>  -0.1500 
 29 H       -2.1640    -1.0460     0.6050 H     1 <1>   0.0800 
 30 H        2.1280    -1.3250    -0.9090 H     1 <1>   0.0800 
 31 H       -1.7870    -2.7780     1.9540 H     1 <1>   0.0800 
 32 H       -2.2140    -2.5190    -2.0030 H     1 <1>   0.0800 
 33 H       -3.1600    -1.1590    -1.4720 H     1 <1>   0.0800 
 34 H        2.0160    -3.5700    -1.8310 H     1 <1>   0.0800 
 35 H        2.4030    -4.2650    -0.2770 H     1 <1>   0.0800 
 36 H        2.6700    -2.5780     1.7850 H     1 <1>   0.0800 
 37 H        2.4420    -0.8780     1.4580 H     1 <1>   0.0800 
 38 H       -2.3250    -4.9740     1.4990 H     1 <1>   0.0800 
 39 H       -1.6840    -4.9390    -0.1170 H     1 <1>   0.0800 
 40 H       -4.8060    -2.8400    -1.2100 H     1 <1>   0.1500 
 41 H        4.1990    -2.4900    -1.9370 H     1 <1>   0.0800 
 42 H        4.4140    -4.1890    -1.6400 H     1 <1>   0.0800 
 43 H        4.8420    -1.4910     1.6540 H     1 <1>   0.0800 
 44 H        4.4600    -0.8270     0.0930 H     1 <1>   0.0800 
 45 H       -4.3740    -4.8120     0.3260 H     1 <1>   0.1500 
 46 H        4.7330    -3.7610     0.7490 H     1 <1>   0.0800 
 47 H        6.8670    -4.4850     0.8440 H     1 <1>   0.3700 
 48 H        8.8190    -3.3700    -0.9740 H     1 <1>   0.0800 
 49 H        9.1640    -3.1290     2.0290 H     1 <1>   0.0800 
 50 H        9.0790    -1.8210     0.8670 H     1 <1>   0.0800 
 51 H       10.4360    -2.9150     0.8510 H     1 <1>   0.0800 
 52 H        9.6190    -5.3160    -1.9560 H     1 <1>   0.1500 
 53 H        8.6680    -5.4210     2.2080 H     1 <1>   0.1500 
 54 H       10.3400    -7.6510    -1.8410 H     1 <1>   0.1500 
 55 H        9.3900    -7.7550     2.3080 H     1 <1>   0.1500 
 56 H       10.2280    -8.8790     0.2870 H     1 <1>   0.1500 
@<TRIPOS>BOND
  1   1   2  2   
  2   2   3  am  
  3   2   4  1   
  4   3   5  am  
  5   3   6  1   
  6   4   7  1   
  7   4   8  1   
  8   4  29  1   
  9   5   7  1   
 10   5   9  2   
 11   6  10  1   
 12   6  11  1   
 13   6  30  1   
 14   7  12  1   
 15   7  31  1   
 16   8  13  1   
 17   8  32  1   
 18   8  33  1   
 19  10  14  1   
 20  10  34  1   
 21  10  35  1   
 22  11  15  1   
 23  11  36  1   
 24  11  37  1   
 25  12  16  1   
 26  12  38  1   
 27  12  39  1   
 28  13  16  2   
 29  13  40  1   
 30  14  17  1   
 31  14  41  1   
 32  14  42  1   
 33  15  17  1   
 34  15  43  1   
 35  15  44  1   
 36  16  45  1   
 37  17  18  1   
 38  17  46  1   
 39  18  19  2   
 40  18  20  am  
 41  20  21  1   
 42  20  47  1   
 43  21  22  1   
 44  21  23  1   
 45  21  48  1   
 46  22  24  ar  
 47  22  25  ar  
 48  23  49  1   
 49  23  50  1   
 50  23  51  1   
 51  24  26  ar  
 52  24  52  1   
 53  25  27  ar  
 54  25  53  1   
 55  26  28  ar  
 56  26  54  1   
 57  27  28  ar  
 58  27  55  1   
 59  28  56  1   
@<TRIPOS>SUBSTRUCTURE
  1 ****  14 GROUP 4 **** **** 0

# MOE 2024.06 (io_trps.svl 2023.06)
