@<TRIPOS>MOLECULE
NONAME
45 47 1 0 0 
SMALL
USER_CHARGES


@<TRIPOS>ATOM
  1 O       -0.9540     0.7570     0.6370 O.2   1 <1>  -0.5700 
  2 C       -0.7220     1.7620     0.0070 C.2   1 <1>   0.5690 
  3 N        0.5490     2.2670    -0.0890 N.am  1 <1>  -0.6600 
  4 C       -1.8810     2.4690    -0.6890 C.3   1 <1>  -0.0990 
  5 C        0.9460     3.5260    -0.7930 C.3   1 <1>   0.1400 
  6 C        1.7080     1.5810     0.5600 C.3   1 <1>   0.1400 
  7 C       -3.2350     1.7420    -0.5680 C.3   1 <1>  -0.1600 
  8 C        1.8080     4.4090     0.1260 C.3   1 <1>   0.1200 
  9 C        2.5300     2.5740     1.3970 C.3   1 <1>   0.1200 
 10 C       -4.3580     2.4950    -1.2960 C.3   1 <1>   0.0200 
 11 O        2.8950     3.6870     0.6280 O.3   1 <1>  -0.5600 
 12 C       -5.6960     1.8000    -1.1320 C.2   1 <1>   0.2980 
 13 O       -5.8800     0.6380    -1.7010 O.3   1 <1>  -0.0190 
 14 N       -6.6850     2.2520    -0.4810 N.2   1 <1>  -0.5650 
 15 N       -7.0950     0.3210    -1.3820 N.2   1 <1>  -0.4100 
 16 C       -7.5750     1.2700    -0.6580 C.2   1 <1>   0.4620 
 17 C       -8.9120     1.3070    -0.0880 C.ar  1 <1>   0.0540 
 18 C       -9.3510     2.3800     0.6880 C.ar  1 <1>  -0.1500 
 19 C       -9.8160     0.2630    -0.2960 C.ar  1 <1>  -0.1500 
 20 C      -10.6220     2.4200     1.2330 C.ar  1 <1>   0.0820 
 21 C      -11.0900     0.2880     0.2420 C.ar  1 <1>  -0.1500 
 22 O      -10.9370     3.5150     1.9700 O.3   1 <1>  -0.3630 
 23 C      -11.4990     1.3640     1.0070 C.ar  1 <1>  -0.1500 
 24 C      -12.2050     3.6580     2.5690 C.3   1 <1>   0.0400 
 25 H       -1.6320     2.5700    -1.7290 H     1 <1>   0.0800 
 26 H       -1.9750     3.4500    -0.2610 H     1 <1>   0.0800 
 27 H        0.0860     4.0860    -1.1070 H     1 <1>   0.0800 
 28 H        1.5170     3.2730    -1.6690 H     1 <1>   0.0800 
 29 H        2.3370     1.1540    -0.2010 H     1 <1>   0.0800 
 30 H        1.3720     0.7810     1.1950 H     1 <1>   0.0800 
 31 H       -3.4940     1.6440     0.4740 H     1 <1>   0.0800 
 32 H       -3.1440     0.7490    -0.9760 H     1 <1>   0.0800 
 33 H        1.2270     4.7780     0.9530 H     1 <1>   0.0800 
 34 H        2.1980     5.2480    -0.4230 H     1 <1>   0.0800 
 35 H        3.4330     2.1060     1.7460 H     1 <1>   0.0800 
 36 H        1.9640     2.9110     2.2470 H     1 <1>   0.0800 
 37 H       -4.1350     2.5690    -2.3450 H     1 <1>   0.0800 
 38 H       -4.4410     3.4920    -0.8990 H     1 <1>   0.0800 
 39 H       -8.6900     3.2070     0.8760 H     1 <1>   0.1500 
 40 H       -9.5150    -0.5840    -0.8880 H     1 <1>   0.1500 
 41 H      -11.7640    -0.5320     0.0640 H     1 <1>   0.1500 
 42 H      -12.4920     1.3630     1.4140 H     1 <1>   0.1500 
 43 H      -12.2210     4.5950     3.0960 H     1 <1>   0.0800 
 44 H      -12.3570     2.8470     3.2600 H     1 <1>   0.0800 
 45 H      -12.9570     3.6580     1.8000 H     1 <1>   0.0800 
@<TRIPOS>BOND
  1   1   2  2   
  2   2   3  am  
  3   2   4  1   
  4   3   5  1   
  5   3   6  1   
  6   4   7  1   
  7   4  25  1   
  8   4  26  1   
  9   5   8  1   
 10   5  27  1   
 11   5  28  1   
 12   6   9  1   
 13   6  29  1   
 14   6  30  1   
 15   7  10  1   
 16   7  31  1   
 17   7  32  1   
 18   8  11  1   
 19   8  33  1   
 20   8  34  1   
 21   9  11  1   
 22   9  35  1   
 23   9  36  1   
 24  10  12  1   
 25  10  37  1   
 26  10  38  1   
 27  12  13  1   
 28  12  14  2   
 29  13  15  1   
 30  14  16  1   
 31  15  16  2   
 32  16  17  1   
 33  17  18  ar  
 34  17  19  ar  
 35  18  20  ar  
 36  18  39  1   
 37  19  21  ar  
 38  19  40  1   
 39  20  22  1   
 40  20  23  ar  
 41  21  23  ar  
 42  21  41  1   
 43  22  24  1   
 44  23  42  1   
 45  24  43  1   
 46  24  44  1   
 47  24  45  1   
@<TRIPOS>SUBSTRUCTURE
  1 ****  12 GROUP 4 **** **** 0

# MOE 2024.06 (io_trps.svl 2023.06)
