@<TRIPOS>MOLECULE
NONAME
34 34 1 0 0 
SMALL
USER_CHARGES


@<TRIPOS>ATOM
  1 BR       0.3560    -1.0890     2.4080 Br    1 <1>  -0.1110 
  2 C        1.0930    -2.0940     0.9360 C.ar  1 <1>   0.1110 
  3 C        0.2710    -2.9210     0.1820 C.ar  1 <1>   0.0830 
  4 C        2.4430    -1.9530     0.6800 C.ar  1 <1>  -0.1500 
  5 O       -1.0460    -2.9980     0.5090 O.3   1 <1>  -0.3630 
  6 C        0.8480    -3.6250    -0.8710 C.ar  1 <1>  -0.1500 
  7 C        3.0090    -2.6660    -0.3680 C.ar  1 <1>  -0.1430 
  8 C       -1.9540    -3.7710    -0.2450 C.3   1 <1>   0.0400 
  9 C        2.2030    -3.4960    -1.1400 C.ar  1 <1>  -0.1500 
 10 C        4.4880    -2.5450    -0.6580 C.3   1 <1>   0.4870 
 11 N        5.1680    -3.5450     0.1940 N.4   1 <1>  -0.9060 
 12 C        6.6240    -3.6270     0.1090 C.3   1 <1>   0.5030 
 13 C        7.0490    -4.7240     1.0790 C.3   1 <1>  -0.2400 
 14 C        7.0370    -4.0020    -1.3140 C.3   1 <1>  -0.2400 
 15 C        7.2420    -2.2940     0.5280 C.3   1 <1>  -0.2400 
 16 H        3.0200    -1.2890     1.3000 H     1 <1>   0.1500 
 17 H        0.2570    -4.2750    -1.4890 H     1 <1>   0.1500 
 18 H       -2.9300    -3.6570     0.1930 H     1 <1>   0.0800 
 19 H       -1.6550    -4.8030    -0.2040 H     1 <1>   0.0800 
 20 H       -1.9650    -3.4100    -1.2580 H     1 <1>   0.0800 
 21 H        2.6160    -4.0530    -1.9660 H     1 <1>   0.1500 
 22 H        4.8270    -1.5490    -0.4230 H     1 <1>   0.0800 
 23 H        4.6760    -2.7410    -1.7010 H     1 <1>   0.0800 
 24 H        4.7740    -4.4640    -0.0240 H     1 <1>   0.4500 
 25 H        4.9080    -3.3570     1.1660 H     1 <1>   0.4500 
 26 H        6.7630    -4.4850     2.0880 H     1 <1>   0.0800 
 27 H        8.1190    -4.8340     1.0620 H     1 <1>   0.0800 
 28 H        6.6210    -5.6730     0.8060 H     1 <1>   0.0800 
 29 H        6.5660    -4.9160    -1.6280 H     1 <1>   0.0800 
 30 H        8.1020    -4.1540    -1.3520 H     1 <1>   0.0800 
 31 H        6.8050    -3.2210    -2.0160 H     1 <1>   0.0800 
 32 H        8.3140    -2.3860     0.5560 H     1 <1>   0.0800 
 33 H        7.0100    -1.5090    -0.1690 H     1 <1>   0.0800 
 34 H        6.9140    -2.0060     1.5120 H     1 <1>   0.0800 
@<TRIPOS>BOND
  1   1   2  1   
  2   2   3  ar  
  3   2   4  ar  
  4   3   5  1   
  5   3   6  ar  
  6   4   7  ar  
  7   4  16  1   
  8   5   8  1   
  9   6   9  ar  
 10   6  17  1   
 11   7   9  ar  
 12   7  10  1   
 13   8  18  1   
 14   8  19  1   
 15   8  20  1   
 16   9  21  1   
 17  10  11  1   
 18  10  22  1   
 19  10  23  1   
 20  11  12  1   
 21  11  24  1   
 22  11  25  1   
 23  12  13  1   
 24  12  14  1   
 25  12  15  1   
 26  13  26  1   
 27  13  27  1   
 28  13  28  1   
 29  14  29  1   
 30  14  30  1   
 31  14  31  1   
 32  15  32  1   
 33  15  33  1   
 34  15  34  1   
@<TRIPOS>SUBSTRUCTURE
  1 ****   7 GROUP 4 **** **** 0

# MOE 2024.06 (io_trps.svl 2023.06)
