@<TRIPOS>MOLECULE
NONAME
51 53 1 0 0 
SMALL
USER_CHARGES


@<TRIPOS>ATOM
  1 S       -0.0210    -1.0170    -1.4900 S.3   1 <1>  -0.3710 
  2 C       -1.0020     0.2470    -0.6850 C.2   1 <1>   0.6510 
  3 C        1.4820    -0.1020    -2.1150 C.3   1 <1>   0.1310 
  4 N       -0.6380     1.4500    -0.8890 N.2   1 <1>  -0.6210 
  5 N       -2.0680    -0.1720     0.0840 N.am  1 <1>  -0.2370 
  6 C        2.5670    -0.0240    -1.0390 C.2   1 <1>   0.5690 
  7 C       -1.3050     2.4470    -0.2490 C.2   1 <1>   0.0210 
  8 C       -2.7900     0.8330     0.7260 C.2   1 <1>   0.6160 
  9 C       -2.4280    -1.5290     0.2040 C.ar  1 <1>   0.1170 
 10 O        3.2000    -1.0410    -0.8560 O.2   1 <1>  -0.5700 
 11 N        2.8550     1.1210    -0.3260 N.am  1 <1>  -0.6600 
 12 O       -0.8580     3.5830    -0.4310 O.3   1 <1>  -0.8500 
 13 C       -2.3970     2.1600     0.5620 C.2   1 <1>  -0.1240 
 14 O       -3.7680     0.5020     1.4260 O.2   1 <1>  -0.5700 
 15 C       -3.3620    -2.1160    -0.6540 C.ar  1 <1>  -0.1430 
 16 C       -1.8360    -2.3060     1.1930 C.ar  1 <1>  -0.1500 
 17 C        2.1840     2.4520    -0.5030 C.3   1 <1>   0.1400 
 18 C        3.7620     1.0750     0.8540 C.3   1 <1>   0.1400 
 19 C       -3.1410     3.2920     1.2630 C.3   1 <1>  -0.0220 
 20 C       -3.6800    -3.4570    -0.5080 C.ar  1 <1>  -0.1500 
 21 C       -4.0370    -1.2960    -1.7460 C.3   1 <1>  -0.0970 
 22 C       -2.1580    -3.6430     1.3330 C.ar  1 <1>  -0.1500 
 23 C        3.2310     3.5670    -0.5990 C.3   1 <1>  -0.1600 
 24 C        4.8320     2.1650     0.7430 C.3   1 <1>  -0.1600 
 25 C       -2.6000     3.5000     2.6800 C.3   1 <1>  -0.2400 
 26 C       -3.0810    -4.2200     0.4800 C.ar  1 <1>  -0.1500 
 27 C        4.1980     3.5540     0.5910 C.3   1 <1>  -0.1600 
 28 H        1.1720     0.8540    -2.4830 H     1 <1>   0.0800 
 29 H        1.8550    -0.6790    -2.9390 H     1 <1>   0.0800 
 30 H       -1.1180    -1.8540     1.8530 H     1 <1>   0.1500 
 31 H        1.5290     2.6350     0.3330 H     1 <1>   0.0800 
 32 H        1.5830     2.4870    -1.3900 H     1 <1>   0.0800 
 33 H        4.2380     0.1130     0.9340 H     1 <1>   0.0800 
 34 H        3.1740     1.2300     1.7420 H     1 <1>   0.0800 
 35 H       -4.1920     3.0730     1.3000 H     1 <1>   0.0800 
 36 H       -3.0160     4.2000     0.6980 H     1 <1>   0.0800 
 37 H       -4.3980    -3.9160    -1.1640 H     1 <1>   0.1500 
 38 H       -3.2960    -0.8760    -2.4030 H     1 <1>   0.0800 
 39 H       -4.6020    -0.4950    -1.3040 H     1 <1>   0.0800 
 40 H       -4.7040    -1.9020    -2.3300 H     1 <1>   0.0800 
 41 H       -1.6900    -4.2320     2.1020 H     1 <1>   0.1500 
 42 H        2.7160     4.5110    -0.6400 H     1 <1>   0.0800 
 43 H        3.7760     3.4490    -1.5180 H     1 <1>   0.0800 
 44 H        5.4560     1.9520    -0.1080 H     1 <1>   0.0800 
 45 H        5.4510     2.1450     1.6210 H     1 <1>   0.0800 
 46 H       -2.7360     2.6070     3.2630 H     1 <1>   0.0800 
 47 H       -3.1120     4.3160     3.1560 H     1 <1>   0.0800 
 48 H       -1.5500     3.7280     2.6270 H     1 <1>   0.0800 
 49 H       -3.3350    -5.2600     0.5840 H     1 <1>   0.1500 
 50 H        3.6530     3.7990     1.4870 H     1 <1>   0.0800 
 51 H        4.9630     4.2960     0.4490 H     1 <1>   0.0800 
@<TRIPOS>BOND
  1   1   2  1   
  2   1   3  1   
  3   2   4  2   
  4   2   5  1   
  5   3   6  1   
  6   3  28  1   
  7   3  29  1   
  8   4   7  1   
  9   5   8  am  
 10   5   9  1   
 11   6  10  2   
 12   6  11  am  
 13   7  12  1   
 14   7  13  2   
 15   8  13  1   
 16   8  14  2   
 17   9  15  ar  
 18   9  16  ar  
 19  11  17  1   
 20  11  18  1   
 21  13  19  1   
 22  15  20  ar  
 23  15  21  1   
 24  16  22  ar  
 25  16  30  1   
 26  17  23  1   
 27  17  31  1   
 28  17  32  1   
 29  18  24  1   
 30  18  33  1   
 31  18  34  1   
 32  19  25  1   
 33  19  35  1   
 34  19  36  1   
 35  20  26  ar  
 36  20  37  1   
 37  21  38  1   
 38  21  39  1   
 39  21  40  1   
 40  22  26  ar  
 41  22  41  1   
 42  23  27  1   
 43  23  42  1   
 44  23  43  1   
 45  24  27  1   
 46  24  44  1   
 47  24  45  1   
 48  25  46  1   
 49  25  47  1   
 50  25  48  1   
 51  26  49  1   
 52  27  50  1   
 53  27  51  1   
@<TRIPOS>SUBSTRUCTURE
  1 ****   2 GROUP 4 **** **** 0

# MOE 2024.06 (io_trps.svl 2023.06)
