@<TRIPOS>MOLECULE
NONAME
46 47 1 0 0 
SMALL
USER_CHARGES


@<TRIPOS>ATOM
  1 S        1.0330    -1.3420     0.7640 S.o2  1 <1>   1.4470 
  2 O        1.8830    -2.4650     1.1050 O.2   1 <1>  -0.6500 
  3 O        1.0380    -0.1800     1.6240 O.2   1 <1>  -0.6500 
  4 N        1.5140    -0.8230    -0.7770 N.am  1 <1>  -0.8490 
  5 C       -0.6750    -1.8950     0.5060 C.ar  1 <1>  -0.0090 
  6 C        2.6520     0.1460    -0.7430 C.3   1 <1>   0.2570 
  7 C        1.7040    -1.9270    -1.7250 C.3   1 <1>   0.1960 
  8 C       -1.0960    -3.1570     0.9090 C.ar  1 <1>  -0.1500 
  9 C       -1.6080    -1.0660    -0.1050 C.ar  1 <1>  -0.1500 
 10 C        4.0830    -0.4070    -0.6100 C.2   1 <1>   0.5690 
 11 C        1.7590    -1.4060    -3.1590 C.3   1 <1>  -0.2400 
 12 C       -2.3990    -3.5780     0.7060 C.ar  1 <1>  -0.1500 
 13 C       -2.9130    -1.4810    -0.3110 C.ar  1 <1>  -0.1500 
 14 O        4.9470     0.0940    -1.2920 O.2   1 <1>  -0.5700 
 15 N        4.3640    -1.4300     0.2400 N.am  1 <1>  -0.7300 
 16 C       -3.3150    -2.7410     0.0940 C.ar  1 <1>  -0.1430 
 17 C        5.6830    -2.0400     0.4530 C.3   1 <1>   0.2200 
 18 C       -4.7450    -3.2000    -0.1310 C.3   1 <1>  -0.0970 
 19 C        5.6360    -3.4840    -0.0290 C.3   1 <1>  -0.1600 
 20 C        5.9150    -2.1790     1.9520 C.3   1 <1>  -0.1600 
 21 C        4.9770    -4.2810     1.1030 C.3   1 <1>  -0.1600 
 22 C        5.1500    -3.4390     2.3740 C.3   1 <1>  -0.1600 
 23 H        2.5040     0.8600     0.0460 H     1 <1>   0.0800 
 24 H        2.6250     0.7160    -1.6540 H     1 <1>   0.0800 
 25 H        0.8690    -2.6050    -1.6490 H     1 <1>   0.0800 
 26 H        2.5970    -2.4840    -1.4930 H     1 <1>   0.0800 
 27 H       -0.3960    -3.8210     1.3890 H     1 <1>   0.1500 
 28 H       -1.3080    -0.0820    -0.4230 H     1 <1>   0.1500 
 29 H        2.6610    -0.8490    -3.3360 H     1 <1>   0.0800 
 30 H        0.9030    -0.7900    -3.3660 H     1 <1>   0.0800 
 31 H        1.7500    -2.2380    -3.8400 H     1 <1>   0.0800 
 32 H       -2.6960    -4.5620     1.0270 H     1 <1>   0.1500 
 33 H       -3.6120    -0.8170    -0.7890 H     1 <1>   0.1500 
 34 H        3.6050    -1.9010     0.7510 H     1 <1>   0.3700 
 35 H        6.4560    -1.4660    -0.0330 H     1 <1>   0.0800 
 36 H       -4.8280    -3.6750    -1.0920 H     1 <1>   0.0800 
 37 H       -5.4180    -2.3620    -0.0990 H     1 <1>   0.0800 
 38 H       -5.0400    -3.9000     0.6290 H     1 <1>   0.0800 
 39 H        6.6460    -3.8320    -0.1590 H     1 <1>   0.0800 
 40 H        5.1160    -3.5830    -0.9660 H     1 <1>   0.0800 
 41 H        5.6050    -1.3030     2.4950 H     1 <1>   0.0800 
 42 H        6.9660    -2.3350     2.1210 H     1 <1>   0.0800 
 43 H        5.4320    -5.2510     1.2070 H     1 <1>   0.0800 
 44 H        3.9280    -4.4080     0.8980 H     1 <1>   0.0800 
 45 H        4.1810    -3.1650     2.7570 H     1 <1>   0.0800 
 46 H        5.6850    -3.9780     3.1370 H     1 <1>   0.0800 
@<TRIPOS>BOND
  1   1   2  2   
  2   1   3  2   
  3   1   4  am  
  4   1   5  1   
  5   4   6  1   
  6   4   7  1   
  7   5   8  ar  
  8   5   9  ar  
  9   6  10  1   
 10   6  23  1   
 11   6  24  1   
 12   7  11  1   
 13   7  25  1   
 14   7  26  1   
 15   8  12  ar  
 16   8  27  1   
 17   9  13  ar  
 18   9  28  1   
 19  10  14  2   
 20  10  15  am  
 21  11  29  1   
 22  11  30  1   
 23  11  31  1   
 24  12  16  ar  
 25  12  32  1   
 26  13  16  ar  
 27  13  33  1   
 28  15  17  1   
 29  15  34  1   
 30  16  18  1   
 31  17  19  1   
 32  17  20  1   
 33  17  35  1   
 34  18  36  1   
 35  18  37  1   
 36  18  38  1   
 37  19  21  1   
 38  19  39  1   
 39  19  40  1   
 40  20  22  1   
 41  20  41  1   
 42  20  42  1   
 43  21  22  1   
 44  21  43  1   
 45  21  44  1   
 46  22  45  1   
 47  22  46  1   
@<TRIPOS>SUBSTRUCTURE
  1 ****   1 GROUP 4 **** **** 0

# MOE 2024.06 (io_trps.svl 2023.06)
