@<TRIPOS>MOLECULE
NONAME
37 38 1 0 0 
SMALL
USER_CHARGES


@<TRIPOS>ATOM
  1 CL       0.1770     1.2170     1.6130 Cl    1 <1>  -0.1770 
  2 C        0.9940     2.4770     0.7150 C.ar  1 <1>   0.1770 
  3 C        0.3390     3.6630     0.4060 C.ar  1 <1>   0.0820 
  4 C        2.3010     2.2450     0.3250 C.ar  1 <1>  -0.1500 
  5 O       -0.9460     3.8310     0.8020 O.3   1 <1>  -0.3630 
  6 C        1.0370     4.6480    -0.3050 C.ar  1 <1>   0.0830 
  7 C        2.9870     3.2150    -0.3910 C.ar  1 <1>  -0.1440 
  8 C       -1.9320     3.3680    -0.0910 C.3   1 <1>   0.2580 
  9 O        0.5470     5.8670    -0.6600 O.3   1 <1>  -0.3630 
 10 C        2.3420     4.4040    -0.7050 C.ar  1 <1>  -0.1500 
 11 C        4.4210     2.9930    -0.8190 C.3   1 <1>   0.4870 
 12 C       -3.2710     3.8980     0.3790 C.2   1 <1>  -0.2880 
 13 C       -0.4090     6.5360     0.1380 C.3   1 <1>   0.0400 
 14 N        5.2770     3.6220     0.2050 N.4   1 <1>  -0.7990 
 15 C       -4.0940     4.6710    -0.3370 C.2   1 <1>  -0.3000 
 16 C        6.7090     3.4810    -0.0760 C.3   1 <1>   0.2960 
 17 C        7.3960     2.2430     0.3860 C.3   1 <1>  -0.2000 
 18 C        7.6490     3.5520     1.0760 C.3   1 <1>  -0.2000 
 19 H        2.7530     1.3040     0.5890 H     1 <1>   0.1500 
 20 H       -1.9220     2.2920    -0.0850 H     1 <1>   0.0800 
 21 H       -1.7020     3.7300    -1.0790 H     1 <1>   0.0800 
 22 H        2.8390     5.1760    -1.2690 H     1 <1>   0.1500 
 23 H        4.5930     3.4440    -1.7830 H     1 <1>   0.0800 
 24 H        4.6310     1.9370    -0.8860 H     1 <1>   0.0800 
 25 H       -3.4980     3.5810     1.3830 H     1 <1>   0.1500 
 26 H       -0.3770     7.5830    -0.1050 H     1 <1>   0.0800 
 27 H       -0.1700     6.3930     1.1770 H     1 <1>   0.0800 
 28 H       -1.3870     6.1470    -0.0820 H     1 <1>   0.0800 
 29 H        5.0620     3.2020     1.1150 H     1 <1>   0.4500 
 30 H        5.0240     4.6140     0.2810 H     1 <1>   0.4500 
 31 H       -5.0400     5.0350     0.0260 H     1 <1>   0.1500 
 32 H       -3.8960     5.0070    -1.3410 H     1 <1>   0.1500 
 33 H        7.0200     3.9270    -1.0110 H     1 <1>   0.1000 
 34 H        8.1970     1.8330    -0.2060 H     1 <1>   0.1000 
 35 H        6.8570     1.4830     0.9250 H     1 <1>   0.1000 
 36 H        7.2760     3.6830     2.0780 H     1 <1>   0.1000 
 37 H        8.6150     4.0090     0.9380 H     1 <1>   0.1000 
@<TRIPOS>BOND
  1   1   2  1   
  2   2   3  ar  
  3   2   4  ar  
  4   3   5  1   
  5   3   6  ar  
  6   4   7  ar  
  7   4  19  1   
  8   5   8  1   
  9   6   9  1   
 10   6  10  ar  
 11   7  10  ar  
 12   7  11  1   
 13   8  12  1   
 14   8  20  1   
 15   8  21  1   
 16   9  13  1   
 17  10  22  1   
 18  11  14  1   
 19  11  23  1   
 20  11  24  1   
 21  12  15  2   
 22  12  25  1   
 23  13  26  1   
 24  13  27  1   
 25  13  28  1   
 26  14  16  1   
 27  14  29  1   
 28  14  30  1   
 29  15  31  1   
 30  15  32  1   
 31  16  17  1   
 32  16  18  1   
 33  16  33  1   
 34  17  18  1   
 35  17  34  1   
 36  17  35  1   
 37  18  36  1   
 38  18  37  1   
@<TRIPOS>SUBSTRUCTURE
  1 ****  10 GROUP 4 **** **** 0

# MOE 2024.06 (io_trps.svl 2023.06)
