@<TRIPOS>MOLECULE
NONAME
56 59 1 0 0 
SMALL
USER_CHARGES


@<TRIPOS>ATOM
  1 O        0.2960     0.0370     0.5510 O.3   1 <1>  -0.5600 
  2 C       -0.3250     0.3120    -0.6680 C.3   1 <1>   0.4800 
  3 C        1.4700     0.7890     0.6500 C.3   1 <1>   0.2000 
  4 O        0.7110     0.7340    -1.4890 O.3   1 <1>  -0.5600 
  5 C       -1.4020     1.3950    -0.5170 C.3   1 <1>  -0.1600 
  6 C        1.5990     1.4500    -0.7140 C.3   1 <1>   0.1200 
  7 C        2.6380    -0.1640     0.9900 C.3   1 <1>   0.3430 
  8 C       -2.6070     0.9400     0.3380 C.3   1 <1>  -0.0800 
  9 N        2.4240    -1.5270     0.4080 N.4   1 <1>  -0.9590 
 10 C       -3.7310    -0.1120    -0.3680 C.3   1 <1>   0.0000 
 11 C       -3.4240     2.2500     0.8890 C.3   1 <1>  -0.0800 
 12 C        3.0040    -2.6060     1.2550 C.3   1 <1>   0.3430 
 13 C        2.8370    -1.6340    -1.0220 C.3   1 <1>   0.3430 
 14 C       -5.1990     0.6280    -0.2770 C.3   1 <1>  -0.0800 
 15 C       -3.7690    -1.4480     0.4040 C.3   1 <1>  -0.2400 
 16 C       -3.4290    -0.4740    -1.8420 C.3   1 <1>  -0.2400 
 17 C       -4.3110     1.4410     0.3070 C.3   1 <1>  -0.1600 
 18 C       -4.8870     2.9740     0.9580 C.3   1 <1>  -0.1600 
 19 C        2.5530    -3.9700     0.7270 C.3   1 <1>  -0.1600 
 20 C        2.3810    -2.9810    -1.5850 C.3   1 <1>  -0.1600 
 21 C       -6.0100     1.9130     0.3230 C.3   1 <1>  -0.1600 
 22 C        2.9110    -4.1560    -0.7530 C.3   1 <1>  -0.1600 
 23 H       -0.7290    -0.6000    -1.0640 H     1 <1>   0.0800 
 24 H        1.3530     1.5350     1.4170 H     1 <1>   0.0800 
 25 H       -1.7410     1.6970    -1.4900 H     1 <1>   0.0800 
 26 H       -0.9660     2.2580    -0.0500 H     1 <1>   0.0800 
 27 H        2.5850     1.3860    -1.1380 H     1 <1>   0.0800 
 28 H        1.2820     2.4790    -0.6840 H     1 <1>   0.0800 
 29 H        2.6810    -0.2440     2.0640 H     1 <1>   0.0800 
 30 H        3.5740     0.2530     0.6590 H     1 <1>   0.0800 
 31 H       -2.1920     0.4420     1.2030 H     1 <1>   0.0800 
 32 H        1.3930    -1.6310     0.4200 H     1 <1>   0.4500 
 33 H       -3.1930     2.1930     1.9440 H     1 <1>   0.0800 
 34 H        2.6760    -2.4920     2.2760 H     1 <1>   0.0800 
 35 H        4.0800    -2.5490     1.2320 H     1 <1>   0.0800 
 36 H        3.9090    -1.5540    -1.1000 H     1 <1>   0.0800 
 37 H        2.3910    -0.8430    -1.6020 H     1 <1>   0.0800 
 38 H       -5.4660     0.7280    -1.3200 H     1 <1>   0.0800 
 39 H       -4.0030    -1.2900     1.4410 H     1 <1>   0.0800 
 40 H       -2.8170    -1.9430     0.3470 H     1 <1>   0.0800 
 41 H       -4.5200    -2.0970    -0.0100 H     1 <1>   0.0800 
 42 H       -4.2260    -1.0760    -2.2410 H     1 <1>   0.0800 
 43 H       -3.3530     0.4080    -2.4510 H     1 <1>   0.0800 
 44 H       -2.5250    -1.0420    -1.9370 H     1 <1>   0.0800 
 45 H       -4.1180     1.9720    -0.7200 H     1 <1>   0.0800 
 46 H       -4.4900     0.8990     1.3340 H     1 <1>   0.0800 
 47 H       -4.8750     3.8890     0.3840 H     1 <1>   0.0800 
 48 H       -5.1470     3.2310     1.9730 H     1 <1>   0.0800 
 49 H        1.4900    -4.0680     0.8620 H     1 <1>   0.0800 
 50 H        3.0230    -4.7450     1.3070 H     1 <1>   0.0800 
 51 H        2.7320    -3.0730    -2.5990 H     1 <1>   0.0800 
 52 H        1.3060    -3.0050    -1.6150 H     1 <1>   0.0800 
 53 H       -6.6940     1.5900     1.0940 H     1 <1>   0.0800 
 54 H       -6.5930     2.3980    -0.4440 H     1 <1>   0.0800 
 55 H        2.4920    -5.0800    -1.1180 H     1 <1>   0.0800 
 56 H        3.9820    -4.2180    -0.8600 H     1 <1>   0.0800 
@<TRIPOS>BOND
  1   1   2  1   
  2   1   3  1   
  3   2   4  1   
  4   2   5  1   
  5   2  23  1   
  6   3   6  1   
  7   3   7  1   
  8   3  24  1   
  9   4   6  1   
 10   5   8  1   
 11   5  25  1   
 12   5  26  1   
 13   6  27  1   
 14   6  28  1   
 15   7   9  1   
 16   7  29  1   
 17   7  30  1   
 18   8  10  1   
 19   8  11  1   
 20   8  31  1   
 21   9  12  1   
 22   9  13  1   
 23   9  32  1   
 24  10  14  1   
 25  10  15  1   
 26  10  16  1   
 27  11  17  1   
 28  11  18  1   
 29  11  33  1   
 30  12  19  1   
 31  12  34  1   
 32  12  35  1   
 33  13  20  1   
 34  13  36  1   
 35  13  37  1   
 36  14  17  1   
 37  14  21  1   
 38  14  38  1   
 39  15  39  1   
 40  15  40  1   
 41  15  41  1   
 42  16  42  1   
 43  16  43  1   
 44  16  44  1   
 45  17  45  1   
 46  17  46  1   
 47  18  21  1   
 48  18  47  1   
 49  18  48  1   
 50  19  22  1   
 51  19  49  1   
 52  19  50  1   
 53  20  22  1   
 54  20  51  1   
 55  20  52  1   
 56  21  53  1   
 57  21  54  1   
 58  22  55  1   
 59  22  56  1   
@<TRIPOS>SUBSTRUCTURE
  1 ****   2 GROUP 4 **** **** 0

# MOE 2024.06 (io_trps.svl 2023.06)
