@<TRIPOS>MOLECULE
NONAME
47 48 1 0 0 
SMALL
USER_CHARGES


@<TRIPOS>ATOM
  1 N       -0.9310    -0.1240     0.2940 N.4   1 <1>  -0.9590 
  2 C       -2.0990    -0.2180     1.2200 C.3   1 <1>   0.3430 
  3 C       -0.5800    -1.4210    -0.3650 C.3   1 <1>   0.3430 
  4 C        0.2380     0.4480     1.0260 C.3   1 <1>   0.3430 
  5 C       -3.3060    -0.7860     0.4740 C.3   1 <1>  -0.1600 
  6 C       -1.7970    -2.0010    -1.0960 C.3   1 <1>  -0.1600 
  7 C        1.2710     0.9630     0.0300 C.3   1 <1>  -0.2400 
  8 C       -3.0050    -2.1580    -0.1600 C.3   1 <1>   0.5030 
  9 N       -4.1660    -2.6850    -0.9260 N.4   1 <1>  -0.9060 
 10 C       -2.7310    -3.2310     0.9250 C.3   1 <1>  -0.0220 
 11 C       -4.9420    -1.8410    -1.8770 C.3   1 <1>   0.4860 
 12 C       -3.9870    -3.5890     1.7130 C.2   1 <1>  -0.2880 
 13 C       -5.9780    -1.0480    -1.1030 C.ar  1 <1>  -0.1430 
 14 C       -4.6470    -4.7460     1.6060 C.2   1 <1>  -0.3000 
 15 C       -6.0500     0.3300    -1.2640 C.ar  1 <1>  -0.1500 
 16 C       -6.8610    -1.6770    -0.2320 C.ar  1 <1>  -0.1500 
 17 C       -6.9700     1.0710    -0.5440 C.ar  1 <1>  -0.1500 
 18 C       -7.7780    -0.9320     0.4880 C.ar  1 <1>  -0.1500 
 19 C       -7.8300     0.4410     0.3360 C.ar  1 <1>  -0.1500 
 20 H       -1.1550     0.5670    -0.4390 H     1 <1>   0.4500 
 21 H       -2.3430     0.7610     1.6020 H     1 <1>   0.0800 
 22 H       -1.8530    -0.8470     2.0610 H     1 <1>   0.0800 
 23 H       -0.2310    -2.1210     0.3780 H     1 <1>   0.0800 
 24 H        0.2200    -1.2680    -1.0730 H     1 <1>   0.0800 
 25 H        0.6820    -0.2950     1.6710 H     1 <1>   0.0800 
 26 H       -0.0850     1.2740     1.6410 H     1 <1>   0.0800 
 27 H       -3.5660    -0.0680    -0.2800 H     1 <1>   0.0800 
 28 H       -4.1330    -0.8550     1.1590 H     1 <1>   0.0800 
 29 H       -1.5180    -2.9560    -1.5070 H     1 <1>   0.0800 
 30 H       -2.0380    -1.3490    -1.9170 H     1 <1>   0.0800 
 31 H        1.7090     0.1640    -0.5410 H     1 <1>   0.0800 
 32 H        2.0670     1.4430     0.5710 H     1 <1>   0.0800 
 33 H        0.8400     1.6930    -0.6320 H     1 <1>   0.0800 
 34 H       -4.8380    -2.9950    -0.2070 H     1 <1>   0.4500 
 35 H       -3.8900    -3.5490    -1.4030 H     1 <1>   0.4500 
 36 H       -1.9690    -2.9190     1.6160 H     1 <1>   0.0800 
 37 H       -2.3590    -4.1250     0.4520 H     1 <1>   0.0800 
 38 H       -5.4580    -2.4680    -2.5870 H     1 <1>   0.0800 
 39 H       -4.2890    -1.1800    -2.4230 H     1 <1>   0.0800 
 40 H       -4.3110    -2.8220     2.4010 H     1 <1>   0.1500 
 41 H       -5.5270    -4.9860     2.1830 H     1 <1>   0.1500 
 42 H       -4.3740    -5.5660     0.9620 H     1 <1>   0.1500 
 43 H       -5.4030     0.8480    -1.9520 H     1 <1>   0.1500 
 44 H       -6.8680    -2.7450    -0.1010 H     1 <1>   0.1500 
 45 H       -7.0260     2.1400    -0.6690 H     1 <1>   0.1500 
 46 H       -8.4630    -1.4180     1.1640 H     1 <1>   0.1500 
 47 H       -8.5470     1.0190     0.8950 H     1 <1>   0.1500 
@<TRIPOS>BOND
  1   1   2  1   
  2   1   3  1   
  3   1   4  1   
  4   1  20  1   
  5   2   5  1   
  6   2  21  1   
  7   2  22  1   
  8   3   6  1   
  9   3  23  1   
 10   3  24  1   
 11   4   7  1   
 12   4  25  1   
 13   4  26  1   
 14   5   8  1   
 15   5  27  1   
 16   5  28  1   
 17   6   8  1   
 18   6  29  1   
 19   6  30  1   
 20   7  31  1   
 21   7  32  1   
 22   7  33  1   
 23   8   9  1   
 24   8  10  1   
 25   9  11  1   
 26   9  34  1   
 27   9  35  1   
 28  10  12  1   
 29  10  36  1   
 30  10  37  1   
 31  11  13  1   
 32  11  38  1   
 33  11  39  1   
 34  12  14  2   
 35  12  40  1   
 36  13  15  ar  
 37  13  16  ar  
 38  14  41  1   
 39  14  42  1   
 40  15  17  ar  
 41  15  43  1   
 42  16  18  ar  
 43  16  44  1   
 44  17  19  ar  
 45  17  45  1   
 46  18  19  ar  
 47  18  46  1   
 48  19  47  1   
@<TRIPOS>SUBSTRUCTURE
  1 ****   5 GROUP 4 **** **** 0

# MOE 2024.06 (io_trps.svl 2023.06)
