@<TRIPOS>MOLECULE
NONAME
52 54 1 0 0 
SMALL
USER_CHARGES


@<TRIPOS>ATOM
  1 BR       3.9280     0.2410    -2.2830 Br    1 <1>  -0.1110 
  2 C        3.5270    -1.0380    -0.8950 C.ar  1 <1>   0.1110 
  3 C        3.5140    -0.6420     0.4350 C.ar  1 <1>   0.0820 
  4 C        3.2690    -2.3420    -1.2720 C.ar  1 <1>  -0.1500 
  5 O        3.7830     0.6290     0.8030 O.3   1 <1>  -0.3630 
  6 C        3.2090    -1.5810     1.4060 C.ar  1 <1>  -0.1500 
  7 C        2.9840    -3.2880    -0.2940 C.ar  1 <1>  -0.1430 
  8 C        5.1440     0.9340     1.0010 C.3   1 <1>   0.0400 
  9 C        2.9510    -2.8940     1.0420 C.ar  1 <1>  -0.1500 
 10 C        2.7600    -4.7480    -0.6840 C.3   1 <1>   0.5020 
 11 N        1.4780    -5.1980    -0.1080 N.am  1 <1>  -0.7300 
 12 C        3.9430    -5.5880    -0.2060 C.2   1 <1>  -0.1240 
 13 C        1.3690    -6.1690     0.8140 C.2   1 <1>   0.6900 
 14 C        3.7480    -6.5900     0.6920 C.2   1 <1>  -0.0290 
 15 C        5.1620    -5.1380    -0.7900 C.2   1 <1>   0.7060 
 16 O        0.3030    -6.4210     1.3250 O.2   1 <1>  -0.5700 
 17 N        2.4840    -6.8520     1.1780 N.am  1 <1>  -0.5390 
 18 C        4.8290    -7.5060     1.2430 C.3   1 <1>  -0.1020 
 19 O        5.2440    -4.7870    -1.9520 O.2   1 <1>  -0.5700 
 20 O        6.2270    -5.0200     0.0050 O.3   1 <1>  -0.4300 
 21 C        7.3690    -4.2850    -0.3730 C.3   1 <1>   0.2000 
 22 C        8.5180    -4.7130     0.5470 C.3   1 <1>  -0.1600 
 23 C        7.0600    -2.7870    -0.2220 C.3   1 <1>  -0.1600 
 24 C        9.7700    -3.8570     0.3070 C.3   1 <1>  -0.1600 
 25 C        8.3150    -1.9320    -0.4550 C.3   1 <1>  -0.1600 
 26 C        9.4640    -2.3590     0.4720 C.3   1 <1>  -0.0800 
 27 C       10.7160    -1.5230     0.1890 C.3   1 <1>  -0.2400 
 28 H        3.3080    -2.6080    -2.3140 H     1 <1>   0.1500 
 29 H        3.1780    -1.2840     2.4380 H     1 <1>   0.1500 
 30 H        5.2190     1.9690     1.2830 H     1 <1>   0.0800 
 31 H        5.6800     0.7620     0.0840 H     1 <1>   0.0800 
 32 H        5.5310     0.3070     1.7850 H     1 <1>   0.0800 
 33 H        2.7280    -3.6160     1.8100 H     1 <1>   0.1500 
 34 H        2.6860    -4.8300    -1.7560 H     1 <1>   0.0800 
 35 H        0.6660    -4.6040    -0.2620 H     1 <1>   0.3700 
 36 H        2.3090    -7.5830     1.8670 H     1 <1>   0.3700 
 37 H        4.5250    -8.5330     1.1440 H     1 <1>   0.0800 
 38 H        4.9930    -7.2920     2.2840 H     1 <1>   0.0800 
 39 H        5.7590    -7.3890     0.7200 H     1 <1>   0.0800 
 40 H        7.6180    -4.5210    -1.3950 H     1 <1>   0.0800 
 41 H        8.7520    -5.7470     0.3660 H     1 <1>   0.0800 
 42 H        8.2100    -4.6050     1.5720 H     1 <1>   0.0800 
 43 H        6.6840    -2.5980     0.7680 H     1 <1>   0.0800 
 44 H        6.3080    -2.4980    -0.9340 H     1 <1>   0.0800 
 45 H       10.1390    -4.0420    -0.6880 H     1 <1>   0.0800 
 46 H       10.5370    -4.1480     1.0030 H     1 <1>   0.0800 
 47 H        8.0760    -0.8970    -0.2850 H     1 <1>   0.0800 
 48 H        8.6230    -2.0350    -1.4820 H     1 <1>   0.0800 
 49 H        9.1640    -2.1820     1.4920 H     1 <1>   0.0800 
 50 H       11.0510    -1.6710    -0.8230 H     1 <1>   0.0800 
 51 H       11.5100    -1.8040     0.8580 H     1 <1>   0.0800 
 52 H       10.5080    -0.4780     0.3320 H     1 <1>   0.0800 
@<TRIPOS>BOND
  1   1   2  1   
  2   2   3  ar  
  3   2   4  ar  
  4   3   5  1   
  5   3   6  ar  
  6   4   7  ar  
  7   4  28  1   
  8   5   8  1   
  9   6   9  ar  
 10   6  29  1   
 11   7   9  ar  
 12   7  10  1   
 13   8  30  1   
 14   8  31  1   
 15   8  32  1   
 16   9  33  1   
 17  10  11  1   
 18  10  12  1   
 19  10  34  1   
 20  11  13  am  
 21  11  35  1   
 22  12  14  2   
 23  12  15  1   
 24  13  16  2   
 25  13  17  am  
 26  14  17  1   
 27  14  18  1   
 28  15  19  2   
 29  15  20  1   
 30  17  36  1   
 31  18  37  1   
 32  18  38  1   
 33  18  39  1   
 34  20  21  1   
 35  21  22  1   
 36  21  23  1   
 37  21  40  1   
 38  22  24  1   
 39  22  41  1   
 40  22  42  1   
 41  23  25  1   
 42  23  43  1   
 43  23  44  1   
 44  24  26  1   
 45  24  45  1   
 46  24  46  1   
 47  25  26  1   
 48  25  47  1   
 49  25  48  1   
 50  26  27  1   
 51  26  49  1   
 52  27  50  1   
 53  27  51  1   
 54  27  52  1   
@<TRIPOS>SUBSTRUCTURE
  1 ****  15 GROUP 4 **** **** 0

# MOE 2024.06 (io_trps.svl 2023.06)
