@<TRIPOS>MOLECULE
NONAME
54 55 1 0 0 
SMALL
USER_CHARGES


@<TRIPOS>ATOM
  1 O       -0.8080    -2.8860     2.4660 O.2   1 <1>  -0.5700 
  2 C       -0.5500    -2.7370     1.2910 C.2   1 <1>   0.7800 
  3 O        0.6210    -3.1740     0.8420 O.3   1 <1>  -0.4300 
  4 N       -1.4530    -2.1910     0.4120 N.am  1 <1>  -0.6600 
  5 C        1.4890    -2.2920     0.1710 C.3   1 <1>   0.1200 
  6 C       -1.6530    -2.7760    -0.9330 C.3   1 <1>   0.1400 
  7 C       -2.6070    -1.4200     0.9260 C.3   1 <1>   0.1400 
  8 C        2.6850    -3.0970    -0.3250 C.3   1 <1>  -0.2400 
  9 C       -2.8140    -3.7680    -0.8440 C.3   1 <1>  -0.1600 
 10 C       -3.7970    -2.3690     1.0660 C.3   1 <1>  -0.1600 
 11 C       -4.0720    -3.1090    -0.2560 C.3   1 <1>   0.4230 
 12 N       -5.1530    -4.1280    -0.1070 N.4   1 <1>  -0.9590 
 13 C       -6.4830    -3.5030     0.1440 C.3   1 <1>   0.4860 
 14 C       -4.8600    -5.2020     0.8930 C.3   1 <1>   0.3430 
 15 C       -7.5600    -4.5240    -0.1570 C.ar  1 <1>  -0.1440 
 16 C       -4.8740    -6.5600     0.1940 C.3   1 <1>  -0.1600 
 17 C       -7.8860    -4.8270    -1.4720 C.ar  1 <1>  -0.1500 
 18 C       -8.2200    -5.1720     0.8780 C.ar  1 <1>  -0.1500 
 19 C       -4.5540    -7.6830     1.1880 C.3   1 <1>  -0.1600 
 20 C       -8.8530    -5.7780    -1.7480 C.ar  1 <1>  -0.1500 
 21 C       -9.1860    -6.1230     0.5990 C.ar  1 <1>  -0.1500 
 22 C       -4.5660    -9.0470     0.4930 C.3   1 <1>  -0.2400 
 23 C       -9.5000    -6.4280    -0.7130 C.ar  1 <1>  -0.1500 
 24 H        1.8020    -1.5340     0.8700 H     1 <1>   0.0800 
 25 H        0.9700    -1.8320    -0.6510 H     1 <1>   0.0800 
 26 H       -0.7630    -3.2890    -1.2600 H     1 <1>   0.0800 
 27 H       -1.8680    -1.9910    -1.6390 H     1 <1>   0.0800 
 28 H       -2.8330    -0.6170     0.2450 H     1 <1>   0.0800 
 29 H       -2.3640    -0.9870     1.8830 H     1 <1>   0.0800 
 30 H        3.1930    -3.5530     0.5060 H     1 <1>   0.0800 
 31 H        3.3760    -2.4480    -0.8320 H     1 <1>   0.0800 
 32 H        2.3630    -3.8590    -1.0110 H     1 <1>   0.0800 
 33 H       -2.4860    -4.5890    -0.2320 H     1 <1>   0.0800 
 34 H       -3.0220    -4.1430    -1.8300 H     1 <1>   0.0800 
 35 H       -4.6530    -1.7900     1.3610 H     1 <1>   0.0800 
 36 H       -3.5640    -3.0570     1.8590 H     1 <1>   0.0800 
 37 H       -4.3980    -2.3690    -0.9710 H     1 <1>   0.0800 
 38 H       -5.2550    -4.6130    -1.0060 H     1 <1>   0.4500 
 39 H       -6.6210    -2.6500    -0.5000 H     1 <1>   0.0800 
 40 H       -6.5570    -3.1750     1.1680 H     1 <1>   0.0800 
 41 H       -5.5960    -5.1960     1.6800 H     1 <1>   0.0800 
 42 H       -3.8920    -5.0480     1.3400 H     1 <1>   0.0800 
 43 H       -4.1390    -6.5740    -0.5920 H     1 <1>   0.0800 
 44 H       -5.8450    -6.7450    -0.2320 H     1 <1>   0.0800 
 45 H       -7.4030    -4.3300    -2.2960 H     1 <1>   0.1500 
 46 H       -7.9970    -4.9490     1.9070 H     1 <1>   0.1500 
 47 H       -5.2830    -7.6900     1.9820 H     1 <1>   0.0800 
 48 H       -3.5830    -7.5230     1.6270 H     1 <1>   0.0800 
 49 H       -9.1080    -6.0140    -2.7670 H     1 <1>   0.1500 
 50 H       -9.6980    -6.6280     1.4010 H     1 <1>   0.1500 
 51 H       -5.5340    -9.2480     0.0670 H     1 <1>   0.0800 
 52 H       -4.3430    -9.8230     1.2040 H     1 <1>   0.0800 
 53 H       -3.8280    -9.0830    -0.2890 H     1 <1>   0.0800 
 54 H      -10.2530    -7.1680    -0.9280 H     1 <1>   0.1500 
@<TRIPOS>BOND
  1   1   2  2   
  2   2   3  1   
  3   2   4  am  
  4   3   5  1   
  5   4   6  1   
  6   4   7  1   
  7   5   8  1   
  8   5  24  1   
  9   5  25  1   
 10   6   9  1   
 11   6  26  1   
 12   6  27  1   
 13   7  10  1   
 14   7  28  1   
 15   7  29  1   
 16   8  30  1   
 17   8  31  1   
 18   8  32  1   
 19   9  11  1   
 20   9  33  1   
 21   9  34  1   
 22  10  11  1   
 23  10  35  1   
 24  10  36  1   
 25  11  12  1   
 26  11  37  1   
 27  12  13  1   
 28  12  14  1   
 29  12  38  1   
 30  13  15  1   
 31  13  39  1   
 32  13  40  1   
 33  14  16  1   
 34  14  41  1   
 35  14  42  1   
 36  15  17  ar  
 37  15  18  ar  
 38  16  19  1   
 39  16  43  1   
 40  16  44  1   
 41  17  20  ar  
 42  17  45  1   
 43  18  21  ar  
 44  18  46  1   
 45  19  22  1   
 46  19  47  1   
 47  19  48  1   
 48  20  23  ar  
 49  20  49  1   
 50  21  23  ar  
 51  21  50  1   
 52  22  51  1   
 53  22  52  1   
 54  22  53  1   
 55  23  54  1   
@<TRIPOS>SUBSTRUCTURE
  1 ****  12 GROUP 4 **** **** 0

# MOE 2024.06 (io_trps.svl 2023.06)
