@<TRIPOS>MOLECULE
NONAME
47 48 1 0 0 
SMALL
USER_CHARGES


@<TRIPOS>ATOM
  1 S       -0.7300     0.0780     0.6560 S.o2  1 <1>   1.2040 
  2 O       -0.3000    -1.2980     0.5240 O.2   1 <1>  -0.6500 
  3 O       -1.5190     0.4820     1.8010 O.2   1 <1>  -0.6500 
  4 C        0.7170     1.1560     0.5360 C.ar  1 <1>  -0.0090 
  5 C       -1.6090     0.5440    -0.8410 C.3   1 <1>   0.0890 
  6 C        0.7020     2.4390     1.0700 C.ar  1 <1>  -0.1500 
  7 C        1.8680     0.7430    -0.1250 C.ar  1 <1>  -0.1500 
  8 C       -2.9450    -0.1660    -1.0210 C.ar  1 <1>  -0.1440 
  9 C        1.7920     3.2830     0.9420 C.ar  1 <1>  -0.1500 
 10 C        2.9610     1.5820    -0.2560 C.ar  1 <1>  -0.1500 
 11 C       -4.1340     0.5200    -0.8390 C.ar  1 <1>  -0.1500 
 12 C       -2.9810    -1.5080    -1.3670 C.ar  1 <1>  -0.1500 
 13 C        2.9270     2.8590     0.2740 C.ar  1 <1>  -0.1430 
 14 C       -5.3700    -0.1030    -0.9930 C.ar  1 <1>   0.0860 
 15 C       -4.1960    -2.1470    -1.5370 C.ar  1 <1>  -0.1500 
 16 C        4.1260     3.7810     0.1350 C.3   1 <1>  -0.0970 
 17 C       -6.6020     0.6320    -0.7810 C.2   1 <1>   0.5440 
 18 C       -5.3760    -1.4490    -1.3560 C.ar  1 <1>  -0.1500 
 19 O       -6.8040     1.6380    -1.4370 O.2   1 <1>  -0.5700 
 20 N       -7.5420     0.2310     0.1500 N.am  1 <1>  -0.6600 
 21 C       -7.1980    -0.6510     1.3000 C.3   1 <1>   0.1400 
 22 C       -8.8650     0.9110     0.2300 C.3   1 <1>   0.1400 
 23 C       -7.9920    -1.9540     1.2320 C.3   1 <1>  -0.2400 
 24 C       -9.8040     0.3290    -0.8250 C.3   1 <1>  -0.2400 
 25 H       -0.9940     0.3280    -1.6930 H     1 <1>   0.0800 
 26 H       -1.7800     1.6030    -0.8320 H     1 <1>   0.0800 
 27 H       -0.1710     2.7850     1.5980 H     1 <1>   0.1500 
 28 H        1.9160    -0.2510    -0.5390 H     1 <1>   0.1500 
 29 H        1.7530     4.2710     1.3690 H     1 <1>   0.1500 
 30 H        3.8400     1.2340    -0.7710 H     1 <1>   0.1500 
 31 H       -4.1280     1.5630    -0.5680 H     1 <1>   0.1500 
 32 H       -2.0680    -2.0650    -1.5010 H     1 <1>   0.1500 
 33 H       -4.2210    -3.1880    -1.8100 H     1 <1>   0.1500 
 34 H        3.8100     4.8080     0.1030 H     1 <1>   0.0800 
 35 H        4.6640     3.5650    -0.7700 H     1 <1>   0.0800 
 36 H        4.7860     3.6470     0.9720 H     1 <1>   0.0800 
 37 H       -6.3190    -1.9440    -1.4980 H     1 <1>   0.1500 
 38 H       -7.4180    -0.1370     2.2200 H     1 <1>   0.0800 
 39 H       -6.1450    -0.8740     1.3020 H     1 <1>   0.0800 
 40 H       -8.7390     1.9670     0.0600 H     1 <1>   0.0800 
 41 H       -9.2900     0.7820     1.2100 H     1 <1>   0.0800 
 42 H       -9.0420    -1.7630     1.3530 H     1 <1>   0.0800 
 43 H       -7.6760    -2.6080     2.0250 H     1 <1>   0.0800 
 44 H       -7.8230    -2.4490     0.2940 H     1 <1>   0.0800 
 45 H       -9.4010     0.5010    -1.8070 H     1 <1>   0.0800 
 46 H      -10.7610     0.8120    -0.7620 H     1 <1>   0.0800 
 47 H       -9.9380    -0.7250    -0.6740 H     1 <1>   0.0800 
@<TRIPOS>BOND
  1   1   2  2   
  2   1   3  2   
  3   1   4  1   
  4   1   5  1   
  5   4   6  ar  
  6   4   7  ar  
  7   5   8  1   
  8   5  25  1   
  9   5  26  1   
 10   6   9  ar  
 11   6  27  1   
 12   7  10  ar  
 13   7  28  1   
 14   8  11  ar  
 15   8  12  ar  
 16   9  13  ar  
 17   9  29  1   
 18  10  13  ar  
 19  10  30  1   
 20  11  14  ar  
 21  11  31  1   
 22  12  15  ar  
 23  12  32  1   
 24  13  16  1   
 25  14  17  1   
 26  14  18  ar  
 27  15  18  ar  
 28  15  33  1   
 29  16  34  1   
 30  16  35  1   
 31  16  36  1   
 32  17  19  2   
 33  17  20  am  
 34  18  37  1   
 35  20  21  1   
 36  20  22  1   
 37  21  23  1   
 38  21  38  1   
 39  21  39  1   
 40  22  24  1   
 41  22  40  1   
 42  22  41  1   
 43  23  42  1   
 44  23  43  1   
 45  23  44  1   
 46  24  45  1   
 47  24  46  1   
 48  24  47  1   
@<TRIPOS>SUBSTRUCTURE
  1 ****   8 GROUP 4 **** **** 0

# MOE 2024.06 (io_trps.svl 2023.06)
