@<TRIPOS>MOLECULE
NONAME
26 26 1 0 0 
SMALL
USER_CHARGES


@<TRIPOS>ATOM
  1 O       -2.5720     2.8590     0.4910 O.co2 1 <1>  -0.9000 
  2 C       -3.0530     2.5260    -0.5930 C.2   1 <1>   0.9060 
  3 O       -2.3440     2.1000    -1.5040 O.co2 1 <1>  -0.9000 
  4 C       -4.4950     2.0880    -0.6110 C.3   1 <1>  -0.1860 
  5 C       -4.4350     0.5530    -0.4700 C.3   1 <1>   0.4230 
  6 C       -5.3760     2.8430     0.4150 C.3   1 <1>  -0.1600 
  7 N       -3.2540     0.1580     0.3220 N.4   1 <1>  -0.8530 
  8 C       -5.6580    -0.1370     0.1470 C.3   1 <1>  -0.1600 
  9 C       -6.8670     2.8410     0.0450 C.3   1 <1>  -0.1600 
 10 C       -7.0050     0.3090    -0.4420 C.3   1 <1>  -0.1600 
 11 C       -7.5970     1.5170     0.2960 C.3   1 <1>  -0.1600 
 12 H       -4.8610     2.3170    -1.5940 H     1 <1>   0.0800 
 13 H       -4.3040     0.1620    -1.4670 H     1 <1>   0.0800 
 14 H       -5.2220     2.4660     1.4120 H     1 <1>   0.0800 
 15 H       -5.0540     3.8720     0.4250 H     1 <1>   0.0800 
 16 H       -3.1650     0.8060     1.1210 H     1 <1>   0.4500 
 17 H       -2.4420     0.4590    -0.2590 H     1 <1>   0.4500 
 18 H       -3.1810    -0.8230     0.5760 H     1 <1>   0.4500 
 19 H       -5.5590    -1.1930    -0.0330 H     1 <1>   0.0800 
 20 H       -5.6720     0.0130     1.2120 H     1 <1>   0.0800 
 21 H       -7.3560     3.6010     0.6320 H     1 <1>   0.0800 
 22 H       -6.9830     3.1270    -0.9870 H     1 <1>   0.0800 
 23 H       -6.9190     0.5160    -1.4960 H     1 <1>   0.0800 
 24 H       -7.7030    -0.5050    -0.3340 H     1 <1>   0.0800 
 25 H       -8.6190     1.6390    -0.0220 H     1 <1>   0.0800 
 26 H       -7.6230     1.3200     1.3550 H     1 <1>   0.0800 
@<TRIPOS>BOND
  1   1   2  ar  
  2   2   3  ar  
  3   2   4  1   
  4   4   5  1   
  5   4   6  1   
  6   4  12  1   
  7   5   7  1   
  8   5   8  1   
  9   5  13  1   
 10   6   9  1   
 11   6  14  1   
 12   6  15  1   
 13   7  16  1   
 14   7  17  1   
 15   7  18  1   
 16   8  10  1   
 17   8  19  1   
 18   8  20  1   
 19   9  11  1   
 20   9  21  1   
 21   9  22  1   
 22  10  11  1   
 23  10  23  1   
 24  10  24  1   
 25  11  25  1   
 26  11  26  1   
@<TRIPOS>SUBSTRUCTURE
  1 ****   4 GROUP 4 **** **** 0

# MOE 2024.06 (io_trps.svl 2023.06)
