@<TRIPOS>MOLECULE
NONAME
45 47 1 0 0 
SMALL
USER_CHARGES


@<TRIPOS>ATOM
  1 CL      -1.6880     0.3380    -0.1830 Cl    1 <1>  -0.1770 
  2 C       -0.9150     1.8950    -0.3590 C.ar  1 <1>   0.1770 
  3 C       -1.6740     3.0640    -0.5070 C.ar  1 <1>   0.0860 
  4 C        0.4670     1.9070    -0.3650 C.ar  1 <1>  -0.1500 
  5 C       -3.1210     3.0760    -0.4810 C.2   1 <1>   0.5440 
  6 C       -0.9740     4.2620    -0.6920 C.ar  1 <1>  -0.1500 
  7 C        1.1070     3.1160    -0.5350 C.ar  1 <1>   0.1900 
  8 O       -3.7630     3.7210    -1.2920 O.2   1 <1>  -0.5700 
  9 N       -3.8470     2.4420     0.4940 N.am  1 <1>  -0.6600 
 10 C        0.4100     4.2970    -0.7030 C.ar  1 <1>  -0.1500 
 11 F        2.4100     3.1450    -0.5410 F     1 <1>  -0.1900 
 12 C       -4.8470     1.4110     0.0570 C.3   1 <1>   0.1400 
 13 C       -4.3340     3.2660     1.6430 C.3   1 <1>   0.1400 
 14 C       -6.2730     1.9980    -0.0890 C.3   1 <1>   0.3430 
 15 C       -5.6930     3.9450     1.3290 C.3   1 <1>   0.3430 
 16 N       -6.2550     3.4940     0.0060 N.4   1 <1>  -0.9590 
 17 C       -7.5150     4.1380    -0.4410 C.3   1 <1>   0.4230 
 18 C       -7.2740     5.6270    -0.7180 C.3   1 <1>  -0.1600 
 19 C       -8.6540     3.9390     0.5720 C.3   1 <1>  -0.1600 
 20 C       -8.5590     6.3000    -1.2220 C.3   1 <1>  -0.1600 
 21 C       -9.9430     4.6090     0.0730 C.3   1 <1>  -0.1600 
 22 C       -9.7160     6.0960    -0.2330 C.3   1 <1>  -0.1600 
 23 H        1.0310     1.0000    -0.2450 H     1 <1>   0.1500 
 24 H       -1.5260     5.1770    -0.8300 H     1 <1>   0.1500 
 25 H        0.9460     5.2210    -0.8430 H     1 <1>   0.1500 
 26 H       -4.8580     0.5980     0.7630 H     1 <1>   0.0800 
 27 H       -4.5420     1.0030    -0.8920 H     1 <1>   0.0800 
 28 H       -3.6060     4.0220     1.8840 H     1 <1>   0.0800 
 29 H       -4.4390     2.6360     2.5100 H     1 <1>   0.0800 
 30 H       -6.9060     1.5920     0.6820 H     1 <1>   0.0800 
 31 H       -6.6780     1.6930    -1.0400 H     1 <1>   0.0800 
 32 H       -5.5450     5.0120     1.3130 H     1 <1>   0.0800 
 33 H       -6.3880     3.7250     2.1210 H     1 <1>   0.0800 
 34 H       -5.5130     3.7650    -0.6780 H     1 <1>   0.4500 
 35 H       -7.8180     3.6850    -1.3720 H     1 <1>   0.0800 
 36 H       -6.5070     5.7380    -1.4660 H     1 <1>   0.0800 
 37 H       -6.9590     6.1320     0.1770 H     1 <1>   0.0800 
 38 H       -8.3950     4.3770     1.5190 H     1 <1>   0.0800 
 39 H       -8.8470     2.8920     0.7150 H     1 <1>   0.0800 
 40 H       -8.8330     5.8900    -2.1800 H     1 <1>   0.0800 
 41 H       -8.3860     7.3550    -1.3580 H     1 <1>   0.0800 
 42 H      -10.7150     4.5130     0.8190 H     1 <1>   0.0800 
 43 H      -10.2900     4.1130    -0.8180 H     1 <1>   0.0800 
 44 H      -10.6170     6.5200    -0.6440 H     1 <1>   0.0800 
 45 H       -9.5010     6.6220     0.6820 H     1 <1>   0.0800 
@<TRIPOS>BOND
  1   1   2  1   
  2   2   3  ar  
  3   2   4  ar  
  4   3   5  1   
  5   3   6  ar  
  6   4   7  ar  
  7   4  23  1   
  8   5   8  2   
  9   5   9  am  
 10   6  10  ar  
 11   6  24  1   
 12   7  10  ar  
 13   7  11  1   
 14   9  12  1   
 15   9  13  1   
 16  10  25  1   
 17  12  14  1   
 18  12  26  1   
 19  12  27  1   
 20  13  15  1   
 21  13  28  1   
 22  13  29  1   
 23  14  16  1   
 24  14  30  1   
 25  14  31  1   
 26  15  16  1   
 27  15  32  1   
 28  15  33  1   
 29  16  17  1   
 30  16  34  1   
 31  17  18  1   
 32  17  19  1   
 33  17  35  1   
 34  18  20  1   
 35  18  36  1   
 36  18  37  1   
 37  19  21  1   
 38  19  38  1   
 39  19  39  1   
 40  20  22  1   
 41  20  40  1   
 42  20  41  1   
 43  21  22  1   
 44  21  42  1   
 45  21  43  1   
 46  22  44  1   
 47  22  45  1   
@<TRIPOS>SUBSTRUCTURE
  1 ****   5 GROUP 4 **** **** 0

# MOE 2024.06 (io_trps.svl 2023.06)
