@<TRIPOS>MOLECULE
NONAME
47 49 1 0 0 
SMALL
USER_CHARGES


@<TRIPOS>ATOM
  1 S        0.3710    -0.8760     1.6850 S.o2  1 <1>   1.4470 
  2 O        0.8940    -1.6140     2.8160 O.2   1 <1>  -0.6500 
  3 O       -0.2160     0.4240     1.9300 O.2   1 <1>  -0.6500 
  4 N        1.6720    -0.6390     0.6280 N.am  1 <1>  -0.8490 
  5 C       -0.7980    -1.9180     0.7640 C.ar  1 <1>  -0.0090 
  6 C        2.4370    -1.8790     0.3720 C.3   1 <1>   0.1960 
  7 C        2.5810     0.4190     1.1020 C.3   1 <1>   0.1960 
  8 C       -0.7820    -1.9830    -0.6240 C.ar  1 <1>  -0.1500 
  9 C       -1.7440    -2.6830     1.4350 C.ar  1 <1>  -0.1500 
 10 C        3.5610    -1.6550    -0.6570 C.3   1 <1>   0.2090 
 11 C        3.7250     0.6900     0.1050 C.3   1 <1>   0.2090 
 12 C       -1.6340    -2.8100    -1.3560 C.ar  1 <1>  -0.1790 
 13 C       -2.6240    -3.4950     0.7430 C.ar  1 <1>  -0.1500 
 14 N        4.4750    -0.5600    -0.2090 N.pl3 1 <1>  -0.8380 
 15 C       -1.5370    -2.8950    -2.8070 C.2   1 <1>   0.9790 
 16 C       -2.5650    -3.5570    -0.6360 C.ar  1 <1>  -0.1500 
 17 C        5.6660    -0.3970    -0.9180 C.ar  1 <1>   0.1000 
 18 O       -2.3940    -3.5070    -3.4680 O.co2 1 <1>  -0.9000 
 19 O       -0.5770    -2.3730    -3.4020 O.co2 1 <1>  -0.9000 
 20 C        6.9070    -0.5080    -0.2830 C.ar  1 <1>  -0.1430 
 21 C        5.6210    -0.1050    -2.2770 C.ar  1 <1>  -0.1500 
 22 C        8.0790    -0.3120    -1.0120 C.ar  1 <1>  -0.1430 
 23 C        6.9340    -0.8390     1.2100 C.3   1 <1>  -0.0970 
 24 C        6.7810     0.0780    -3.0000 C.ar  1 <1>  -0.1500 
 25 C        8.0050    -0.0240    -2.3670 C.ar  1 <1>  -0.1500 
 26 C        9.4590    -0.3990    -0.3760 C.3   1 <1>  -0.0970 
 27 H        1.7810    -2.6440    -0.0050 H     1 <1>   0.0800 
 28 H        2.8750    -2.2380     1.2880 H     1 <1>   0.0800 
 29 H        3.0030     0.1380     2.0520 H     1 <1>   0.0800 
 30 H        2.0280     1.3320     1.2410 H     1 <1>   0.0800 
 31 H       -0.0790    -1.3810    -1.1770 H     1 <1>   0.1500 
 32 H       -1.7880    -2.6460     2.5100 H     1 <1>   0.1500 
 33 H        3.1220    -1.4040    -1.6070 H     1 <1>   0.0800 
 34 H        4.1270    -2.5620    -0.7770 H     1 <1>   0.0800 
 35 H        4.4030     1.4130     0.5230 H     1 <1>   0.0800 
 36 H        3.3140     1.1000    -0.8010 H     1 <1>   0.0800 
 37 H       -3.3540    -4.0810     1.2730 H     1 <1>   0.1500 
 38 H       -3.2440    -4.1930    -1.1820 H     1 <1>   0.1500 
 39 H        4.6680    -0.0210    -2.7650 H     1 <1>   0.1500 
 40 H        7.8900    -1.1950     1.5380 H     1 <1>   0.0800 
 41 H        6.6770     0.0390     1.7740 H     1 <1>   0.0800 
 42 H        6.2150    -1.6070     1.4290 H     1 <1>   0.0800 
 43 H        6.7340     0.3020    -4.0510 H     1 <1>   0.1500 
 44 H        8.9020     0.1250    -2.9410 H     1 <1>   0.1500 
 45 H        9.6560    -1.4100    -0.0680 H     1 <1>   0.0800 
 46 H        9.5120     0.2490     0.4800 H     1 <1>   0.0800 
 47 H       10.2250    -0.1010    -1.0680 H     1 <1>   0.0800 
@<TRIPOS>BOND
  1   1   2  2   
  2   1   3  2   
  3   1   4  am  
  4   1   5  1   
  5   4   6  1   
  6   4   7  1   
  7   5   8  ar  
  8   5   9  ar  
  9   6  10  1   
 10   6  27  1   
 11   6  28  1   
 12   7  11  1   
 13   7  29  1   
 14   7  30  1   
 15   8  12  ar  
 16   8  31  1   
 17   9  13  ar  
 18   9  32  1   
 19  10  14  1   
 20  10  33  1   
 21  10  34  1   
 22  11  14  1   
 23  11  35  1   
 24  11  36  1   
 25  12  15  1   
 26  12  16  ar  
 27  13  16  ar  
 28  13  37  1   
 29  14  17  1   
 30  15  18  ar  
 31  15  19  ar  
 32  16  38  1   
 33  17  20  ar  
 34  17  21  ar  
 35  20  22  ar  
 36  20  23  1   
 37  21  24  ar  
 38  21  39  1   
 39  22  25  ar  
 40  22  26  1   
 41  23  40  1   
 42  23  41  1   
 43  23  42  1   
 44  24  25  ar  
 45  24  43  1   
 46  25  44  1   
 47  26  45  1   
 48  26  46  1   
 49  26  47  1   
@<TRIPOS>SUBSTRUCTURE
  1 ****   6 GROUP 4 **** **** 0

# MOE 2024.06 (io_trps.svl 2023.06)
