@<TRIPOS>MOLECULE
NONAME
55 57 1 0 0 
SMALL
USER_CHARGES


@<TRIPOS>ATOM
  1 BR       0.6270    -0.0900    -2.1470 Br    1 <1>  -0.1110 
  2 C        0.0530    -1.7220    -1.2880 C.ar  1 <1>   0.1110 
  3 C        0.8700    -2.3310    -0.3460 C.ar  1 <1>   0.0820 
  4 C       -1.1760    -2.2360    -1.6480 C.ar  1 <1>  -0.1500 
  5 O        2.0650    -1.7480    -0.0550 O.3   1 <1>  -0.3630 
  6 C        0.4180    -3.5060     0.2470 C.ar  1 <1>  -0.1500 
  7 C       -1.6260    -3.4020    -1.0460 C.ar  1 <1>  -0.1440 
  8 C        2.9590    -2.3150     0.8770 C.3   1 <1>   0.0400 
  9 C       -0.8220    -4.0430    -0.1020 C.ar  1 <1>   0.0820 
 10 C       -2.9840    -3.9710    -1.4370 C.3   1 <1>   0.2540 
 11 O       -1.2970    -5.1970     0.4420 O.3   1 <1>  -0.3630 
 12 N       -4.0220    -3.6250    -0.4420 N.3   1 <1>  -0.8100 
 13 C       -0.5320    -5.9720     1.3400 C.3   1 <1>   0.0400 
 14 C       -5.2730    -4.3630    -0.6840 C.3   1 <1>   0.1100 
 15 C       -4.2520    -2.1730    -0.3100 C.3   1 <1>   0.1100 
 16 C       -6.3000    -4.0900     0.4340 C.3   1 <1>   0.3430 
 17 C       -5.2690    -1.8750     0.8090 C.3   1 <1>   0.3430 
 18 N       -6.5610    -2.6180     0.6070 N.4   1 <1>  -0.9590 
 19 C       -7.5200    -2.3410     1.6960 C.3   1 <1>   0.4810 
 20 C       -8.8820    -2.7590     1.2030 C.2   1 <1>  -0.2880 
 21 C       -9.8370    -1.9120     0.7810 C.2   1 <1>  -0.1780 
 22 C      -11.1570    -2.2440     0.2920 C.ar  1 <1>   0.0280 
 23 C      -11.8790    -1.3100    -0.4480 C.ar  1 <1>  -0.1500 
 24 C      -11.7550    -3.4800     0.5320 C.ar  1 <1>  -0.1500 
 25 C      -13.1400    -1.5990    -0.9380 C.ar  1 <1>  -0.1500 
 26 C      -13.0160    -3.7750     0.0440 C.ar  1 <1>  -0.1500 
 27 C      -13.7110    -2.8350    -0.6940 C.ar  1 <1>  -0.1500 
 28 H       -1.7640    -1.7250    -2.3880 H     1 <1>   0.1500 
 29 H        1.0290    -3.9980     0.9750 H     1 <1>   0.1500 
 30 H        3.8270    -1.6820     0.9320 H     1 <1>   0.0800 
 31 H        3.2430    -3.2950     0.5380 H     1 <1>   0.0800 
 32 H        2.4790    -2.3600     1.8390 H     1 <1>   0.0800 
 33 H       -2.8980    -5.0430    -1.5060 H     1 <1>   0.0800 
 34 H       -3.2710    -3.6040    -2.4080 H     1 <1>   0.0800 
 35 H       -0.3350    -5.3920     2.2230 H     1 <1>   0.0800 
 36 H        0.3830    -6.2660     0.8560 H     1 <1>   0.0800 
 37 H       -1.1040    -6.8450     1.5970 H     1 <1>   0.0800 
 38 H       -5.6880    -4.0870    -1.6380 H     1 <1>   0.0800 
 39 H       -5.0620    -5.4190    -0.7040 H     1 <1>   0.0800 
 40 H       -3.3270    -1.6840    -0.0550 H     1 <1>   0.0800 
 41 H       -4.5980    -1.7650    -1.2440 H     1 <1>   0.0800 
 42 H       -5.9130    -4.5020     1.3510 H     1 <1>   0.0800 
 43 H       -7.2180    -4.6030     0.1980 H     1 <1>   0.0800 
 44 H       -5.4540    -0.8140     0.8420 H     1 <1>   0.0800 
 45 H       -4.8260    -2.1660     1.7470 H     1 <1>   0.0800 
 46 H       -6.9960    -2.2800    -0.2590 H     1 <1>   0.4500 
 47 H       -7.2530    -2.8740     2.5960 H     1 <1>   0.0800 
 48 H       -7.5310    -1.2840     1.9110 H     1 <1>   0.0800 
 49 H       -9.0240    -3.8240     1.2190 H     1 <1>   0.1500 
 50 H       -9.6500    -0.8510     0.7820 H     1 <1>   0.1500 
 51 H      -11.4540    -0.3440    -0.6490 H     1 <1>   0.1500 
 52 H      -11.2430    -4.2240     1.1110 H     1 <1>   0.1500 
 53 H      -13.6800    -0.8640    -1.5090 H     1 <1>   0.1500 
 54 H      -13.4610    -4.7360     0.2400 H     1 <1>   0.1500 
 55 H      -14.6910    -3.0630    -1.0740 H     1 <1>   0.1500 
@<TRIPOS>BOND
  1   1   2  1   
  2   2   3  ar  
  3   2   4  ar  
  4   3   5  1   
  5   3   6  ar  
  6   4   7  ar  
  7   4  28  1   
  8   5   8  1   
  9   6   9  ar  
 10   6  29  1   
 11   7   9  ar  
 12   7  10  1   
 13   8  30  1   
 14   8  31  1   
 15   8  32  1   
 16   9  11  1   
 17  10  12  1   
 18  10  33  1   
 19  10  34  1   
 20  11  13  1   
 21  12  14  1   
 22  12  15  1   
 23  13  35  1   
 24  13  36  1   
 25  13  37  1   
 26  14  16  1   
 27  14  38  1   
 28  14  39  1   
 29  15  17  1   
 30  15  40  1   
 31  15  41  1   
 32  16  18  1   
 33  16  42  1   
 34  16  43  1   
 35  17  18  1   
 36  17  44  1   
 37  17  45  1   
 38  18  19  1   
 39  18  46  1   
 40  19  20  1   
 41  19  47  1   
 42  19  48  1   
 43  20  21  2   
 44  20  49  1   
 45  21  22  1   
 46  21  50  1   
 47  22  23  ar  
 48  22  24  ar  
 49  23  25  ar  
 50  23  51  1   
 51  24  26  ar  
 52  24  52  1   
 53  25  27  ar  
 54  25  53  1   
 55  26  27  ar  
 56  26  54  1   
 57  27  55  1   
@<TRIPOS>SUBSTRUCTURE
  1 ****  15 GROUP 4 **** **** 0

# MOE 2024.06 (io_trps.svl 2023.06)
