@<TRIPOS>MOLECULE
NONAME
43 45 1 0 0 
SMALL
USER_CHARGES


@<TRIPOS>ATOM
  1 S        0.5880    -0.5510     1.3300 S.o2  1 <1>   1.4470 
  2 O        0.2140    -0.0050     2.6120 O.2   1 <1>  -0.6500 
  3 O        1.6880    -1.4870     1.2620 O.2   1 <1>  -0.6500 
  4 N        1.0980     0.7740     0.4400 N.am  1 <1>  -0.9140 
  5 C       -0.8920    -1.1270     0.4340 C.ar  1 <1>  -0.0090 
  6 C        1.6870     0.4330    -0.8370 C.3   1 <1>   0.3390 
  7 C       -1.2190    -2.4740     0.2570 C.ar  1 <1>  -0.1440 
  8 C       -1.7590    -0.1750    -0.0900 C.ar  1 <1>  -0.1500 
  9 C        3.0740     1.0450    -0.8690 C.ar  1 <1>  -0.1440 
 10 C       -2.3560    -2.8290    -0.4550 C.ar  1 <1>  -0.1500 
 11 C       -0.3630    -3.5970     0.8300 C.3   1 <1>  -0.0970 
 12 C       -2.9010    -0.5270    -0.7990 C.ar  1 <1>   0.0830 
 13 C        4.1540     0.3270    -0.3640 C.ar  1 <1>  -0.1500 
 14 C        3.2670     2.3250    -1.3900 C.ar  1 <1>  -0.1500 
 15 C       -3.1970    -1.8700    -0.9880 C.ar  1 <1>  -0.1430 
 16 O       -3.7560     0.3910    -1.3230 O.3   1 <1>  -0.3630 
 17 C        5.4030     0.9150    -0.4050 C.ar  1 <1>   0.0830 
 18 C        4.5320     2.8990    -1.4220 C.ar  1 <1>  -0.1500 
 19 C       -4.4360    -2.2900    -1.7650 C.3   1 <1>  -0.0970 
 20 C       -3.6350     1.7680    -1.0420 C.3   1 <1>   0.0400 
 21 O        6.5690     0.4140     0.0170 O.3   1 <1>  -0.3630 
 22 C        5.5870     2.1650    -0.9190 C.ar  1 <1>   0.0830 
 23 C        7.5580     1.4090    -0.2430 C.3   1 <1>   0.4000 
 24 O        6.8770     2.5080    -0.8440 O.3   1 <1>  -0.3630 
 25 H        1.8690     1.1400     0.9980 H     1 <1>   0.4200 
 26 H        1.0810     0.8420    -1.6280 H     1 <1>   0.0800 
 27 H        1.7560    -0.6320    -0.9920 H     1 <1>   0.0800 
 28 H       -1.5210     0.8600     0.0680 H     1 <1>   0.1500 
 29 H       -2.5940    -3.8690    -0.5950 H     1 <1>   0.1500 
 30 H        0.5600    -3.6770     0.2840 H     1 <1>   0.0800 
 31 H       -0.8720    -4.5430     0.7670 H     1 <1>   0.0800 
 32 H       -0.1430    -3.4130     1.8660 H     1 <1>   0.0800 
 33 H        4.0400    -0.6590     0.0530 H     1 <1>   0.1500 
 34 H        2.4300     2.8830    -1.7730 H     1 <1>   0.1500 
 35 H        4.6990     3.8840    -1.8200 H     1 <1>   0.1500 
 36 H       -4.5120    -3.3600    -1.8320 H     1 <1>   0.0800 
 37 H       -4.3960    -1.8860    -2.7610 H     1 <1>   0.0800 
 38 H       -5.3170    -1.9130    -1.2760 H     1 <1>   0.0800 
 39 H       -4.4600     2.2770    -1.5070 H     1 <1>   0.0800 
 40 H       -2.7080     2.1280    -1.4510 H     1 <1>   0.0800 
 41 H       -3.6700     1.9120     0.0230 H     1 <1>   0.0800 
 42 H        8.2900     1.0190    -0.9270 H     1 <1>   0.0800 
 43 H        8.0040     1.7240     0.6840 H     1 <1>   0.0800 
@<TRIPOS>BOND
  1   1   2  2   
  2   1   3  2   
  3   1   4  am  
  4   1   5  1   
  5   4   6  1   
  6   4  25  1   
  7   5   7  ar  
  8   5   8  ar  
  9   6   9  1   
 10   6  26  1   
 11   6  27  1   
 12   7  10  ar  
 13   7  11  1   
 14   8  12  ar  
 15   8  28  1   
 16   9  13  ar  
 17   9  14  ar  
 18  10  15  ar  
 19  10  29  1   
 20  11  30  1   
 21  11  31  1   
 22  11  32  1   
 23  12  15  ar  
 24  12  16  1   
 25  13  17  ar  
 26  13  33  1   
 27  14  18  ar  
 28  14  34  1   
 29  15  19  1   
 30  16  20  1   
 31  17  21  1   
 32  17  22  ar  
 33  18  22  ar  
 34  18  35  1   
 35  19  36  1   
 36  19  37  1   
 37  19  38  1   
 38  20  39  1   
 39  20  40  1   
 40  20  41  1   
 41  21  23  1   
 42  22  24  1   
 43  23  24  1   
 44  23  42  1   
 45  23  43  1   
@<TRIPOS>SUBSTRUCTURE
  1 ****   6 GROUP 4 **** **** 0

# MOE 2024.06 (io_trps.svl 2023.06)
