@<TRIPOS>MOLECULE
NONAME
44 45 1 0 0 
SMALL
USER_CHARGES


@<TRIPOS>ATOM
  1 O       -0.7360     0.9580    -0.1090 O.3   1 <1>  -0.3630 
  2 C       -0.0560     2.1340    -0.0570 C.ar  1 <1>   0.0830 
  3 C       -0.4930    -0.0850     0.8030 C.3   1 <1>   0.2580 
  4 C       -0.4830     3.1710    -0.8850 C.ar  1 <1>  -0.1440 
  5 C        1.0330     2.3330     0.7890 C.ar  1 <1>  -0.1500 
  6 C       -1.5890    -1.1200     0.6250 C.2   1 <1>  -0.2880 
  7 C        0.1760     4.3910    -0.8500 C.ar  1 <1>  -0.1500 
  8 C       -1.6610     2.9860    -1.8350 C.3   1 <1>   0.2540 
  9 C        1.6810     3.5550     0.8160 C.ar  1 <1>  -0.1500 
 10 C       -2.4040    -1.5650     1.5880 C.2   1 <1>  -0.3000 
 11 C        1.2530     4.5840    -0.0020 C.ar  1 <1>  -0.1500 
 12 N       -2.9090     2.7630    -1.0860 N.3   1 <1>  -0.8100 
 13 C       -3.2950     3.8670    -0.1790 C.3   1 <1>   0.1100 
 14 C       -4.0400     2.3190    -1.9230 C.3   1 <1>   0.1100 
 15 C       -4.5100     3.4750     0.6970 C.3   1 <1>   0.3430 
 16 C       -5.2570     1.9110    -1.0550 C.3   1 <1>   0.3430 
 17 N       -4.9490     2.0680     0.4080 N.4   1 <1>  -0.9590 
 18 C       -5.9890     1.5720     1.3380 C.3   1 <1>   0.3430 
 19 C       -6.0920     0.0560     1.2330 C.3   1 <1>  -0.2400 
 20 H       -0.5100     0.3160     1.8010 H     1 <1>   0.0800 
 21 H        0.4730    -0.5070     0.5860 H     1 <1>   0.0800 
 22 H        1.3980     1.5540     1.4300 H     1 <1>   0.1500 
 23 H       -1.6400    -1.4740    -0.3910 H     1 <1>   0.1500 
 24 H       -0.1400     5.2000    -1.4840 H     1 <1>   0.1500 
 25 H       -1.4590     2.1280    -2.4550 H     1 <1>   0.0800 
 26 H       -1.7660     3.8440    -2.4760 H     1 <1>   0.0800 
 27 H        2.5220     3.7060     1.4710 H     1 <1>   0.1500 
 28 H       -3.1660    -2.3080     1.4300 H     1 <1>   0.1500 
 29 H       -2.3720    -1.2350     2.6120 H     1 <1>   0.1500 
 30 H        1.7600     5.5340     0.0190 H     1 <1>   0.1500 
 31 H       -3.5250     4.7510    -0.7490 H     1 <1>   0.0800 
 32 H       -2.4720     4.1060     0.4740 H     1 <1>   0.0800 
 33 H       -3.7360     1.4690    -2.5110 H     1 <1>   0.0800 
 34 H       -4.3260     3.1030    -2.6040 H     1 <1>   0.0800 
 35 H       -5.3200     4.1610     0.5110 H     1 <1>   0.0800 
 36 H       -4.2310     3.5670     1.7340 H     1 <1>   0.0800 
 37 H       -5.5040     0.8860    -1.2710 H     1 <1>   0.0800 
 38 H       -6.1060     2.5180    -1.3210 H     1 <1>   0.0800 
 39 H       -4.0740     1.5240     0.5230 H     1 <1>   0.4500 
 40 H       -6.9400     2.0270     1.1100 H     1 <1>   0.0800 
 41 H       -5.7210     1.8340     2.3490 H     1 <1>   0.0800 
 42 H       -6.4620    -0.2480     0.2710 H     1 <1>   0.0800 
 43 H       -6.7820    -0.3020     1.9770 H     1 <1>   0.0800 
 44 H       -5.1370    -0.4030     1.4170 H     1 <1>   0.0800 
@<TRIPOS>BOND
  1   1   2  1   
  2   1   3  1   
  3   2   4  ar  
  4   2   5  ar  
  5   3   6  1   
  6   3  20  1   
  7   3  21  1   
  8   4   7  ar  
  9   4   8  1   
 10   5   9  ar  
 11   5  22  1   
 12   6  10  2   
 13   6  23  1   
 14   7  11  ar  
 15   7  24  1   
 16   8  12  1   
 17   8  25  1   
 18   8  26  1   
 19   9  11  ar  
 20   9  27  1   
 21  10  28  1   
 22  10  29  1   
 23  11  30  1   
 24  12  13  1   
 25  12  14  1   
 26  13  15  1   
 27  13  31  1   
 28  13  32  1   
 29  14  16  1   
 30  14  33  1   
 31  14  34  1   
 32  15  17  1   
 33  15  35  1   
 34  15  36  1   
 35  16  17  1   
 36  16  37  1   
 37  16  38  1   
 38  17  18  1   
 39  17  39  1   
 40  18  19  1   
 41  18  40  1   
 42  18  41  1   
 43  19  42  1   
 44  19  43  1   
 45  19  44  1   
@<TRIPOS>SUBSTRUCTURE
  1 ****  12 GROUP 4 **** **** 0

# MOE 2024.06 (io_trps.svl 2023.06)
