@<TRIPOS>MOLECULE
NONAME
53 56 1 0 0 
SMALL
USER_CHARGES


@<TRIPOS>ATOM
  1 S        0.0710    -0.2350     0.8860 S.3   1 <1>  -0.0800 
  2 C       -0.3900     1.4490     0.7160 C.2   1 <1>   0.1040 
  3 C       -1.5550    -0.7740     0.5040 C.2   1 <1>  -0.1400 
  4 N        0.5440     2.4600     0.8780 N.am  1 <1>  -0.4940 
  5 C       -1.7200     1.5610     0.4300 C.2   1 <1>  -0.0860 
  6 C       -2.3600     0.2720     0.2570 C.2   1 <1>  -0.1810 
  7 C       -1.8170    -2.2650     0.4940 C.3   1 <1>   0.0200 
  8 C        1.8860     2.4920     1.1490 C.2   1 <1>   0.5690 
  9 C       -2.3800     2.8350     0.3620 C.2   1 <1>   0.7160 
 10 C       -3.7990     0.0690    -0.2030 C.3   1 <1>   0.0210 
 11 C       -2.9990    -2.6230     1.4080 C.3   1 <1>  -0.1600 
 12 O        2.5500     1.5180     1.4180 O.2   1 <1>  -0.5700 
 13 C        2.5680     3.8680     1.0830 C.3   1 <1>   0.2610 
 14 O       -1.8710     3.7880    -0.2020 O.2   1 <1>  -0.5700 
 15 N       -3.5790     3.0070     0.9820 N.am  1 <1>  -0.7300 
 16 C       -4.6310    -0.6740     0.8510 C.3   1 <1>  -0.1600 
 17 C       -4.3800    -2.1930     0.8780 C.3   1 <1>  -0.1600 
 18 O        1.6060     4.9030     1.0580 O.3   1 <1>  -0.5600 
 19 C        3.3860     4.0550    -0.1930 C.3   1 <1>  -0.1600 
 20 C       -4.5050     4.1300     0.7600 C.3   1 <1>   0.2840 
 21 C        1.5030     5.5030    -0.2000 C.3   1 <1>   0.1200 
 22 C        2.3960     4.7030    -1.1390 C.3   1 <1>  -0.1600 
 23 C       -5.7440     3.5700     0.0930 C.ar  1 <1>  -0.1440 
 24 C       -6.8520     3.2080     0.8450 C.ar  1 <1>   0.1600 
 25 C       -5.7830     3.3950    -1.2760 C.ar  1 <1>  -0.1500 
 26 N       -7.9660     2.6920     0.3520 N.ar  1 <1>  -0.6200 
 27 C       -6.9380     2.8640    -1.8070 C.ar  1 <1>  -0.1500 
 28 C       -7.9840     2.5350    -0.9620 C.ar  1 <1>   0.1600 
 29 H        0.1780     3.4080     0.7240 H     1 <1>   0.3700 
 30 H       -0.9390    -2.7760     0.8480 H     1 <1>   0.0800 
 31 H       -2.0050    -2.5940    -0.5120 H     1 <1>   0.0800 
 32 H       -3.7930    -0.4980    -1.1170 H     1 <1>   0.0800 
 33 H       -4.2690     1.0040    -0.4380 H     1 <1>   0.0800 
 34 H       -2.8350    -2.1930     2.3810 H     1 <1>   0.0800 
 35 H       -3.0090    -3.6920     1.5300 H     1 <1>   0.0800 
 36 H        3.1800     3.9950     1.9580 H     1 <1>   0.0800 
 37 H       -3.9820     2.1880     1.4370 H     1 <1>   0.3700 
 38 H       -5.6710    -0.5150     0.6210 H     1 <1>   0.0800 
 39 H       -4.4490    -0.2530     1.8240 H     1 <1>   0.0800 
 40 H       -5.1250    -2.6350     1.5160 H     1 <1>   0.0800 
 41 H       -4.5300    -2.6030    -0.1070 H     1 <1>   0.0800 
 42 H        3.7770     3.1250    -0.5690 H     1 <1>   0.0800 
 43 H        4.2040     4.7240     0.0110 H     1 <1>   0.0800 
 44 H       -4.0510     4.8780     0.1310 H     1 <1>   0.0800 
 45 H       -4.7510     4.5850     1.7040 H     1 <1>   0.0800 
 46 H        1.8510     6.5170    -0.1060 H     1 <1>   0.0800 
 47 H        0.4720     5.4960    -0.5130 H     1 <1>   0.0800 
 48 H        1.8060     3.9540    -1.6390 H     1 <1>   0.0800 
 49 H        2.8700     5.3280    -1.8750 H     1 <1>   0.0800 
 50 H       -6.8240     3.3450     1.9130 H     1 <1>   0.1500 
 51 H       -4.9460     3.6580    -1.9020 H     1 <1>   0.1500 
 52 H       -7.0300     2.7050    -2.8660 H     1 <1>   0.1500 
 53 H       -8.8820     2.1210    -1.3890 H     1 <1>   0.1500 
@<TRIPOS>BOND
  1   1   2  1   
  2   1   3  1   
  3   2   4  1   
  4   2   5  2   
  5   3   6  2   
  6   3   7  1   
  7   4   8  am  
  8   4  29  1   
  9   5   6  1   
 10   5   9  1   
 11   6  10  1   
 12   7  11  1   
 13   7  30  1   
 14   7  31  1   
 15   8  12  2   
 16   8  13  1   
 17   9  14  2   
 18   9  15  am  
 19  10  16  1   
 20  10  32  1   
 21  10  33  1   
 22  11  17  1   
 23  11  34  1   
 24  11  35  1   
 25  13  18  1   
 26  13  19  1   
 27  13  36  1   
 28  15  20  1   
 29  15  37  1   
 30  16  17  1   
 31  16  38  1   
 32  16  39  1   
 33  17  40  1   
 34  17  41  1   
 35  18  21  1   
 36  19  22  1   
 37  19  42  1   
 38  19  43  1   
 39  20  23  1   
 40  20  44  1   
 41  20  45  1   
 42  21  22  1   
 43  21  46  1   
 44  21  47  1   
 45  22  48  1   
 46  22  49  1   
 47  23  24  ar  
 48  23  25  ar  
 49  24  26  ar  
 50  24  50  1   
 51  25  27  ar  
 52  25  51  1   
 53  26  28  ar  
 54  27  28  ar  
 55  27  52  1   
 56  28  53  1   
@<TRIPOS>SUBSTRUCTURE
  1 ****   5 GROUP 4 **** **** 0

# MOE 2024.06 (io_trps.svl 2023.06)
