@<TRIPOS>MOLECULE
NONAME
55 57 1 0 0 
SMALL
USER_CHARGES


@<TRIPOS>ATOM
  1 O       -0.3370     1.1380    -0.8690 O.3   1 <1>  -0.3630 
  2 C       -1.2510     1.4040     0.1010 C.ar  1 <1>   0.0830 
  3 C        1.0440     1.3390    -0.6450 C.3   1 <1>   0.2640 
  4 C       -1.1670     2.4380     1.0440 C.ar  1 <1>   0.0820 
  5 C       -2.3460     0.5580     0.1040 C.ar  1 <1>  -0.1500 
  6 C        1.8190     0.4310    -1.5860 C.ar  1 <1>  -0.1440 
  7 O       -0.1030     3.2910     1.0140 O.3   1 <1>  -0.3630 
  8 C       -2.1890     2.5740     1.9800 C.ar  1 <1>  -0.1500 
  9 C       -3.3730     0.7150     1.0210 C.ar  1 <1>  -0.1440 
 10 C        1.9420     0.7600    -2.9270 C.ar  1 <1>  -0.1500 
 11 C        2.4090    -0.7320    -1.1150 C.ar  1 <1>  -0.1500 
 12 C        0.0500     4.3450     1.9410 C.3   1 <1>   0.0400 
 13 C       -3.2800     1.7220     1.9700 C.ar  1 <1>  -0.1500 
 14 C       -4.5770    -0.2020     0.9730 C.3   1 <1>   0.4860 
 15 C        2.6490    -0.0620    -3.7880 C.ar  1 <1>  -0.1500 
 16 C        3.1160    -1.5560    -1.9740 C.ar  1 <1>  -0.1500 
 17 N       -5.6870     0.5440     0.2970 N.4   1 <1>  -0.9590 
 18 C        3.2370    -1.2210    -3.3110 C.ar  1 <1>  -0.1500 
 19 C       -7.0110    -0.1280     0.5720 C.3   1 <1>   0.3430 
 20 C       -5.3990     0.6640    -1.1640 C.3   1 <1>   0.3430 
 21 C       -8.2890     0.6730     0.1770 C.3   1 <1>   0.3430 
 22 C       -5.9370     1.9710    -1.7480 C.3   1 <1>  -0.1600 
 23 N       -8.2960     1.3140    -1.1940 N.4   1 <1>  -0.9590 
 24 C       -7.3230     2.4410    -1.3030 C.3   1 <1>   0.3430 
 25 C       -9.6760     1.8360    -1.4850 C.3   1 <1>   0.2630 
 26 H        1.2730     2.3710    -0.8440 H     1 <1>   0.0800 
 27 H        1.2670     1.1070     0.3810 H     1 <1>   0.0800 
 28 H       -2.3640    -0.2280    -0.6320 H     1 <1>   0.1500 
 29 H       -2.1530     3.3430     2.7300 H     1 <1>   0.1500 
 30 H        1.4830     1.6570    -3.3050 H     1 <1>   0.1500 
 31 H        2.3180    -1.0040    -0.0780 H     1 <1>   0.1500 
 32 H        0.9640     4.8630     1.7100 H     1 <1>   0.0800 
 33 H       -0.7820     5.0200     1.8480 H     1 <1>   0.0800 
 34 H        0.1080     3.9340     2.9340 H     1 <1>   0.0800 
 35 H       -4.0440     1.8580     2.7170 H     1 <1>   0.1500 
 36 H       -4.8550    -0.4640     1.9820 H     1 <1>   0.0800 
 37 H       -4.3380    -1.1070     0.4370 H     1 <1>   0.0800 
 38 H        2.7390     0.1990    -4.8270 H     1 <1>   0.1500 
 39 H        3.5710    -2.4570    -1.6020 H     1 <1>   0.1500 
 40 H       -5.6330     1.4820     0.7170 H     1 <1>   0.4500 
 41 H        3.7860    -1.8600    -3.9790 H     1 <1>   0.1500 
 42 H       -7.0810    -0.3470     1.6260 H     1 <1>   0.0800 
 43 H       -7.0360    -1.0760     0.0590 H     1 <1>   0.0800 
 44 H       -5.8260    -0.1770    -1.6880 H     1 <1>   0.0800 
 45 H       -4.3350     0.6400    -1.3400 H     1 <1>   0.0800 
 46 H       -8.4470     1.4390     0.9190 H     1 <1>   0.0800 
 47 H       -9.1280    -0.0010     0.2500 H     1 <1>   0.0800 
 48 H       -5.9370     1.8770    -2.8200 H     1 <1>   0.0800 
 49 H       -5.2330     2.7540    -1.5260 H     1 <1>   0.0800 
 50 H       -8.0950     0.6190    -1.9290 H     1 <1>   0.4500 
 51 H       -7.6780     3.1640    -2.0230 H     1 <1>   0.0800 
 52 H       -7.2510     2.9470    -0.3530 H     1 <1>   0.0800 
 53 H       -9.9590     2.5880    -0.7650 H     1 <1>   0.0800 
 54 H      -10.4000     1.0370    -1.4490 H     1 <1>   0.0800 
 55 H       -9.7130     2.2780    -2.4700 H     1 <1>   0.0800 
@<TRIPOS>BOND
  1   1   2  1   
  2   1   3  1   
  3   2   4  ar  
  4   2   5  ar  
  5   3   6  1   
  6   3  26  1   
  7   3  27  1   
  8   4   7  1   
  9   4   8  ar  
 10   5   9  ar  
 11   5  28  1   
 12   6  10  ar  
 13   6  11  ar  
 14   7  12  1   
 15   8  13  ar  
 16   8  29  1   
 17   9  13  ar  
 18   9  14  1   
 19  10  15  ar  
 20  10  30  1   
 21  11  16  ar  
 22  11  31  1   
 23  12  32  1   
 24  12  33  1   
 25  12  34  1   
 26  13  35  1   
 27  14  17  1   
 28  14  36  1   
 29  14  37  1   
 30  15  18  ar  
 31  15  38  1   
 32  16  18  ar  
 33  16  39  1   
 34  17  19  1   
 35  17  20  1   
 36  17  40  1   
 37  18  41  1   
 38  19  21  1   
 39  19  42  1   
 40  19  43  1   
 41  20  22  1   
 42  20  44  1   
 43  20  45  1   
 44  21  23  1   
 45  21  46  1   
 46  21  47  1   
 47  22  24  1   
 48  22  48  1   
 49  22  49  1   
 50  23  24  1   
 51  23  25  1   
 52  23  50  1   
 53  24  51  1   
 54  24  52  1   
 55  25  53  1   
 56  25  54  1   
 57  25  55  1   
@<TRIPOS>SUBSTRUCTURE
  1 ****   5 GROUP 4 **** **** 0

# MOE 2024.06 (io_trps.svl 2023.06)
