@<TRIPOS>MOLECULE
NONAME
46 47 1 0 0 
SMALL
USER_CHARGES


@<TRIPOS>ATOM
  1 CL      -2.2020     0.9890     3.6620 Cl    1 <1>  -0.1770 
  2 C       -2.7070    -0.0440     2.3500 C.ar  1 <1>   0.1770 
  3 C       -4.0510    -0.2870     2.1590 C.ar  1 <1>  -0.1500 
  4 C       -1.7490    -0.6020     1.5260 C.ar  1 <1>  -0.1500 
  5 C       -4.4870    -1.1070     1.1160 C.ar  1 <1>   0.0860 
  6 C       -2.1560    -1.4230     0.4900 C.ar  1 <1>  -0.1500 
  7 C       -5.9050    -1.3490     0.9180 C.2   1 <1>   0.5440 
  8 C       -3.5040    -1.6710     0.2930 C.ar  1 <1>  -0.1500 
  9 O       -6.7100    -1.2080     1.8140 O.2   1 <1>  -0.5700 
 10 N       -6.3950    -1.7340    -0.3060 N.am  1 <1>  -0.1800 
 11 C       -6.7540    -0.7800    -1.2190 C.2   1 <1>   0.6900 
 12 C       -6.7490    -3.0440    -0.5070 C.2   1 <1>   0.5690 
 13 O       -6.2290     0.3070    -1.2530 O.2   1 <1>  -0.5700 
 14 N       -7.7110    -1.0730    -2.1280 N.am  1 <1>  -0.4900 
 15 O       -6.0130    -3.9290    -0.1460 O.2   1 <1>  -0.5700 
 16 C       -8.0910    -3.3670    -1.1990 C.3   1 <1>   0.1220 
 17 C       -8.4030    -2.2350    -2.1920 C.2   1 <1>   0.5690 
 18 C       -9.2310    -3.3730    -0.1380 C.3   1 <1>  -0.1600 
 19 C       -8.0300    -4.7290    -1.9520 C.3   1 <1>  -0.1600 
 20 O       -9.2750    -2.3500    -3.0130 O.2   1 <1>  -0.5700 
 21 C       -9.1420    -4.4460     0.9740 C.3   1 <1>  -0.1600 
 22 C       -7.0170    -4.7780    -3.1110 C.3   1 <1>  -0.2400 
 23 C       -9.9950    -5.7060     0.7220 C.3   1 <1>  -0.0800 
 24 C      -11.4960    -5.4220     0.8760 C.3   1 <1>  -0.2400 
 25 C       -9.5900    -6.8080     1.7070 C.3   1 <1>  -0.2400 
 26 H       -4.7670     0.1650     2.8230 H     1 <1>   0.1500 
 27 H       -0.7070    -0.3960     1.6970 H     1 <1>   0.1500 
 28 H       -1.4230    -1.8700    -0.1600 H     1 <1>   0.1500 
 29 H       -3.7900    -2.3230    -0.5130 H     1 <1>   0.1500 
 30 H       -7.9630    -0.3390    -2.7880 H     1 <1>   0.3700 
 31 H      -10.1760    -3.4520    -0.6450 H     1 <1>   0.0800 
 32 H       -9.2330    -2.4120     0.3490 H     1 <1>   0.0800 
 33 H       -9.0060    -4.9560    -2.3480 H     1 <1>   0.0800 
 34 H       -7.7760    -5.5120    -1.2590 H     1 <1>   0.0800 
 35 H       -9.4690    -4.0040     1.9000 H     1 <1>   0.0800 
 36 H       -8.1170    -4.7330     1.1270 H     1 <1>   0.0800 
 37 H       -7.0300    -5.7590    -3.5540 H     1 <1>   0.0800 
 38 H       -7.2670    -4.0680    -3.8800 H     1 <1>   0.0800 
 39 H       -6.0170    -4.5870    -2.7640 H     1 <1>   0.0800 
 40 H       -9.8190    -6.0750    -0.2740 H     1 <1>   0.0800 
 41 H      -11.7100    -5.0400     1.8590 H     1 <1>   0.0800 
 42 H      -12.0610    -6.3260     0.7340 H     1 <1>   0.0800 
 43 H      -11.8350    -4.7060     0.1500 H     1 <1>   0.0800 
 44 H       -9.7470    -6.4870     2.7220 H     1 <1>   0.0800 
 45 H       -8.5500    -7.0570     1.5840 H     1 <1>   0.0800 
 46 H      -10.1690    -7.6980     1.5350 H     1 <1>   0.0800 
@<TRIPOS>BOND
  1   1   2  1   
  2   2   3  ar  
  3   2   4  ar  
  4   3   5  ar  
  5   3  26  1   
  6   4   6  ar  
  7   4  27  1   
  8   5   7  1   
  9   5   8  ar  
 10   6   8  ar  
 11   6  28  1   
 12   7   9  2   
 13   7  10  am  
 14   8  29  1   
 15  10  11  am  
 16  10  12  am  
 17  11  13  2   
 18  11  14  am  
 19  12  15  2   
 20  12  16  1   
 21  14  17  am  
 22  14  30  1   
 23  16  17  1   
 24  16  18  1   
 25  16  19  1   
 26  17  20  2   
 27  18  21  1   
 28  18  31  1   
 29  18  32  1   
 30  19  22  1   
 31  19  33  1   
 32  19  34  1   
 33  21  23  1   
 34  21  35  1   
 35  21  36  1   
 36  22  37  1   
 37  22  38  1   
 38  22  39  1   
 39  23  24  1   
 40  23  25  1   
 41  23  40  1   
 42  24  41  1   
 43  24  42  1   
 44  24  43  1   
 45  25  44  1   
 46  25  45  1   
 47  25  46  1   
@<TRIPOS>SUBSTRUCTURE
  1 ****  10 GROUP 4 **** **** 0

# MOE 2024.06 (io_trps.svl 2023.06)
