@<TRIPOS>MOLECULE
NONAME
28 29 1 0 0 
SMALL
USER_CHARGES


@<TRIPOS>ATOM
  1 F       -0.2870     0.8030    -1.8940 F     1 <1>  -0.3400 
  2 C       -1.3230     0.5450    -1.0980 C.3   1 <1>   1.0200 
  3 F       -2.2870     0.1360    -1.9170 F     1 <1>  -0.3400 
  4 F       -0.9520    -0.5230    -0.4060 F     1 <1>  -0.3400 
  5 C       -1.7530     1.8150    -0.2900 C.3   1 <1>   0.4380 
  6 N       -1.5070     3.0610    -1.1620 N.am  1 <1>  -0.7300 
  7 C       -3.2520     1.8390     0.1420 C.2   1 <1>  -0.1240 
  8 C       -0.8270     1.8690     0.9600 C.3   1 <1>   1.0200 
  9 C       -2.2910     4.1440    -1.2070 C.2   1 <1>   0.6900 
 10 C       -4.0140     2.9640    -0.0220 C.2   1 <1>   0.2180 
 11 C       -3.8580     0.7050     0.7380 C.2   1 <1>   0.6160 
 12 F       -1.0190     2.9910     1.6470 F     1 <1>  -0.3400 
 13 F       -0.9880     0.9010     1.8490 F     1 <1>  -0.3400 
 14 F        0.4650     1.8700     0.6470 F     1 <1>  -0.3400 
 15 O       -1.9270     5.1460    -1.7690 O.2   1 <1>  -0.5700 
 16 N       -3.4970     4.0850    -0.6160 N.am  1 <1>  -0.5390 
 17 N       -5.3390     3.0050     0.4030 N.am  1 <1>  -0.4690 
 18 O       -3.2910    -0.3480     0.9220 O.2   1 <1>  -0.5700 
 19 N       -5.1520     0.7800     1.1350 N.am  1 <1>  -0.4900 
 20 C       -5.9110     1.8870     0.9900 C.2   1 <1>   0.6900 
 21 C       -6.1690     4.2400     0.2330 C.3   1 <1>   0.0600 
 22 O       -7.0590     1.8590     1.3780 O.2   1 <1>  -0.5700 
 23 H       -0.5950     3.1500    -1.6220 H     1 <1>   0.3700 
 24 H       -4.0480     4.9350    -0.7130 H     1 <1>   0.3700 
 25 H       -5.5790    -0.0360     1.5610 H     1 <1>   0.3700 
 26 H       -5.7130     5.0600     0.7590 H     1 <1>   0.0800 
 27 H       -7.1630     4.1020     0.6240 H     1 <1>   0.0800 
 28 H       -6.2510     4.4810    -0.8120 H     1 <1>   0.0800 
@<TRIPOS>BOND
  1   1   2  1   
  2   2   3  1   
  3   2   4  1   
  4   2   5  1   
  5   5   6  1   
  6   5   7  1   
  7   5   8  1   
  8   6   9  am  
  9   6  23  1   
 10   7  10  2   
 11   7  11  1   
 12   8  12  1   
 13   8  13  1   
 14   8  14  1   
 15   9  15  2   
 16   9  16  am  
 17  10  16  1   
 18  10  17  1   
 19  11  18  2   
 20  11  19  am  
 21  16  24  1   
 22  17  20  am  
 23  17  21  1   
 24  19  20  am  
 25  19  25  1   
 26  20  22  2   
 27  21  26  1   
 28  21  27  1   
 29  21  28  1   
@<TRIPOS>SUBSTRUCTURE
  1 ****   7 GROUP 4 **** **** 0

# MOE 2024.06 (io_trps.svl 2023.06)
