@<TRIPOS>MOLECULE
NONAME
39 40 1 0 0 
SMALL
USER_CHARGES


@<TRIPOS>ATOM
  1 BR       1.2190    -0.0290    -1.4550 Br    1 <1>  -0.1110 
  2 C        0.4880    -1.6840    -0.7830 C.ar  1 <1>   0.1110 
  3 C        1.0660    -2.3100     0.3090 C.ar  1 <1>   0.0830 
  4 C       -0.6180    -2.2070    -1.4250 C.ar  1 <1>  -0.1500 
  5 O        2.1410    -1.7880     0.9340 O.3   1 <1>  -0.5330 
  6 C        0.5230    -3.5050     0.7710 C.ar  1 <1>   0.0830 
  7 C       -1.1740    -3.3910    -0.9570 C.ar  1 <1>  -0.1430 
  8 O        1.1300    -4.0900     1.8420 O.3   1 <1>  -0.3630 
  9 C       -0.5960    -4.0380     0.1320 C.ar  1 <1>  -0.1500 
 10 C       -2.4090    -3.9640    -1.6300 C.3   1 <1>   0.4860 
 11 C        0.8000    -5.3970     2.2610 C.3   1 <1>   0.0400 
 12 N       -3.5800    -3.7330    -0.7420 N.4   1 <1>  -0.9590 
 13 C       -4.7770    -4.4900    -1.1900 C.3   1 <1>   0.3430 
 14 C       -3.8980    -2.2890    -0.5930 C.3   1 <1>   0.3430 
 15 C       -5.7010    -4.8030    -0.0090 C.3   1 <1>  -0.1600 
 16 C       -4.1580    -1.9610     0.8770 C.3   1 <1>  -0.1600 
 17 C       -6.1590    -3.5990     0.8370 C.3   1 <1>  -0.1600 
 18 C       -5.0220    -2.9700     1.6580 C.3   1 <1>  -0.1600 
 19 H       -1.0200    -1.6800    -2.2730 H     1 <1>   0.1500 
 20 H        2.4150    -2.3680     1.6730 H     1 <1>   0.4500 
 21 H       -1.0200    -4.9610     0.4830 H     1 <1>   0.1500 
 22 H       -2.2660    -5.0200    -1.7890 H     1 <1>   0.0800 
 23 H       -2.5650    -3.4920    -2.5860 H     1 <1>   0.0800 
 24 H        1.4660    -5.6700     3.0600 H     1 <1>   0.0800 
 25 H        0.9300    -6.0740     1.4350 H     1 <1>   0.0800 
 26 H       -0.2150    -5.4080     2.6170 H     1 <1>   0.0800 
 27 H       -3.3240    -4.0650     0.1960 H     1 <1>   0.4500 
 28 H       -4.4760    -5.4220    -1.6410 H     1 <1>   0.0800 
 29 H       -5.3150    -3.9210    -1.9320 H     1 <1>   0.0800 
 30 H       -4.7720    -2.0450    -1.1750 H     1 <1>   0.0800 
 31 H       -3.0830    -1.6770    -0.9440 H     1 <1>   0.0800 
 32 H       -5.2260    -5.5300     0.6270 H     1 <1>   0.0800 
 33 H       -6.5800    -5.2790    -0.4080 H     1 <1>   0.0800 
 34 H       -4.6440    -1.0010     0.9070 H     1 <1>   0.0800 
 35 H       -3.2150    -1.8400     1.3830 H     1 <1>   0.0800 
 36 H       -6.9010    -3.9580     1.5320 H     1 <1>   0.0800 
 37 H       -6.6420    -2.8570     0.2240 H     1 <1>   0.0800 
 38 H       -5.4530    -2.4500     2.4980 H     1 <1>   0.0800 
 39 H       -4.4010    -3.7470     2.0710 H     1 <1>   0.0800 
@<TRIPOS>BOND
  1   1   2  1   
  2   2   3  ar  
  3   2   4  ar  
  4   3   5  1   
  5   3   6  ar  
  6   4   7  ar  
  7   4  19  1   
  8   5  20  1   
  9   6   8  1   
 10   6   9  ar  
 11   7   9  ar  
 12   7  10  1   
 13   8  11  1   
 14   9  21  1   
 15  10  12  1   
 16  10  22  1   
 17  10  23  1   
 18  11  24  1   
 19  11  25  1   
 20  11  26  1   
 21  12  13  1   
 22  12  14  1   
 23  12  27  1   
 24  13  15  1   
 25  13  28  1   
 26  13  29  1   
 27  14  16  1   
 28  14  30  1   
 29  14  31  1   
 30  15  17  1   
 31  15  32  1   
 32  15  33  1   
 33  16  18  1   
 34  16  34  1   
 35  16  35  1   
 36  17  18  1   
 37  17  36  1   
 38  17  37  1   
 39  18  38  1   
 40  18  39  1   
@<TRIPOS>SUBSTRUCTURE
  1 ****   7 GROUP 4 **** **** 0

# MOE 2024.06 (io_trps.svl 2023.06)
