@<TRIPOS>MOLECULE
NONAME
39 42 1 0 0 
SMALL
USER_CHARGES


@<TRIPOS>ATOM
  1 S        1.0980     0.2900    -1.5470 S.3   1 <1>  -0.2420 
  2 C        2.2750     0.8700    -0.3620 C.2   1 <1>   0.6510 
  3 C       -0.1000     1.4920    -1.0340 C.2   1 <1>  -0.0490 
  4 N        3.4490     0.3560    -0.2200 N.2   1 <1>  -0.6210 
  5 N        1.7250     1.9080     0.3420 N.am  1 <1>  -0.2290 
  6 C        0.4070     2.2390    -0.0440 C.2   1 <1>  -0.0410 
  7 C        4.2390     0.9290     0.7390 C.2   1 <1>   0.0330 
  8 C        2.4940     2.4850     1.3220 C.2   1 <1>   0.6160 
  9 C        3.7940     1.9590     1.5070 C.2   1 <1>  -0.1360 
 10 C        5.6440     0.3530     0.9080 C.3   1 <1>   0.2480 
 11 O        2.0600     3.4110     1.9920 O.2   1 <1>  -0.5700 
 12 N        6.5840     0.8530    -0.1120 N.3   1 <1>  -0.8100 
 13 C        6.7770     2.3240    -0.0370 C.3   1 <1>   0.1100 
 14 C        7.8850     0.1510    -0.0030 C.3   1 <1>   0.1100 
 15 C        7.7960     2.8400    -1.0710 C.3   1 <1>   0.2090 
 16 C        8.9070     0.6460    -1.0420 C.3   1 <1>   0.2090 
 17 N        9.0940     2.1220    -0.9170 N.pl3 1 <1>  -0.8380 
 18 C       10.1250     2.6720    -0.1890 C.ar  1 <1>   0.7200 
 19 N       10.2690     3.9960    -0.2560 N.ar  1 <1>  -0.6200 
 20 N       10.8830     1.8400     0.5260 N.ar  1 <1>  -0.6200 
 21 C       11.2580     4.5100     0.4320 C.ar  1 <1>   0.1600 
 22 C       11.8640     2.3830     1.2040 C.ar  1 <1>   0.1600 
 23 C       12.1000     3.7350     1.1910 C.ar  1 <1>  -0.1500 
 24 H       -1.0490     1.4890    -1.5430 H     1 <1>   0.1500 
 25 H       -0.0850     3.0480     0.4710 H     1 <1>   0.1500 
 26 H        4.3950     2.4170     2.2680 H     1 <1>   0.1500 
 27 H        5.5770    -0.7190     0.8330 H     1 <1>   0.0800 
 28 H        6.0200     0.5950     1.8870 H     1 <1>   0.0800 
 29 H        7.1190     2.5980     0.9450 H     1 <1>   0.0800 
 30 H        5.8400     2.8180    -0.2200 H     1 <1>   0.0800 
 31 H        7.7320    -0.9040    -0.1490 H     1 <1>   0.0800 
 32 H        8.3020     0.2990     0.9790 H     1 <1>   0.0800 
 33 H        7.9210     3.9010    -0.9490 H     1 <1>   0.0800 
 34 H        7.4130     2.6700    -2.0620 H     1 <1>   0.0800 
 35 H        8.5430     0.4190    -2.0290 H     1 <1>   0.0800 
 36 H        9.8410     0.1280    -0.9150 H     1 <1>   0.0800 
 37 H       11.4010     5.5760     0.3880 H     1 <1>   0.1500 
 38 H       12.4950     1.7330     1.7860 H     1 <1>   0.1500 
 39 H       12.9080     4.1680     1.7490 H     1 <1>   0.1500 
@<TRIPOS>BOND
  1   1   2  1   
  2   1   3  1   
  3   2   4  2   
  4   2   5  1   
  5   3   6  2   
  6   3  24  1   
  7   4   7  1   
  8   5   6  1   
  9   5   8  am  
 10   6  25  1   
 11   7   9  2   
 12   7  10  1   
 13   8   9  1   
 14   8  11  2   
 15   9  26  1   
 16  10  12  1   
 17  10  27  1   
 18  10  28  1   
 19  12  13  1   
 20  12  14  1   
 21  13  15  1   
 22  13  29  1   
 23  13  30  1   
 24  14  16  1   
 25  14  31  1   
 26  14  32  1   
 27  15  17  1   
 28  15  33  1   
 29  15  34  1   
 30  16  17  1   
 31  16  35  1   
 32  16  36  1   
 33  17  18  1   
 34  18  19  ar  
 35  18  20  ar  
 36  19  21  ar  
 37  20  22  ar  
 38  21  23  ar  
 39  21  37  1   
 40  22  23  ar  
 41  22  38  1   
 42  23  39  1   
@<TRIPOS>SUBSTRUCTURE
  1 ****  13 GROUP 4 **** **** 0

# MOE 2024.06 (io_trps.svl 2023.06)
