@<TRIPOS>MOLECULE
22331
44 45 1 0 0 
SMALL
USER_CHARGES


@<TRIPOS>ATOM
  1 S        0.0080    -1.1210    -0.6030 S.3   1 <1>  -0.0800 
  2 C        0.9680     0.1990    -0.0090 C.2   1 <1>   0.4420 
  3 C        1.1930    -2.1870     0.0720 C.2   1 <1>   0.1980 
  4 N        2.0320    -0.2020     0.5790 N.2   1 <1>  -0.3380 
  5 N        0.5990     1.5080    -0.2270 N.am  1 <1>  -0.4940 
  6 N        2.1510    -1.5630     0.6300 N.2   1 <1>  -0.3380 
  7 C        0.9900    -3.6860    -0.0730 C.3   1 <1>   0.3000 
  8 C       -0.5770     2.1300    -0.5210 C.2   1 <1>   0.5690 
  9 O       -0.3110    -4.0370     0.3030 O.3   1 <1>  -0.5600 
 10 O       -0.5280     3.2600    -0.9360 O.2   1 <1>  -0.5700 
 11 C       -1.9300     1.4410    -0.3270 C.3   1 <1>   0.1810 
 12 C       -0.5670    -5.4040     0.2620 C.3   1 <1>   0.0400 
 13 O       -2.8740     2.3200     0.2600 O.3   1 <1>  -0.3620 
 14 C       -4.1980     2.0230     0.3030 C.ar  1 <1>   0.0820 
 15 C       -5.1380     3.0640     0.3740 C.ar  1 <1>  -0.1430 
 16 C       -4.6130     0.6920     0.2810 C.ar  1 <1>  -0.1500 
 17 C       -6.4850     2.7020     0.4090 C.ar  1 <1>  -0.1500 
 18 C       -4.7170     4.5640     0.4060 C.3   1 <1>   0.1430 
 19 C       -5.9540     0.3700     0.3160 C.ar  1 <1>  -0.1500 
 20 C       -6.8900     1.3800     0.3800 C.ar  1 <1>  -0.1500 
 21 C       -3.9670     4.9440    -0.8820 C.3   1 <1>  -0.2400 
 22 C       -3.8370     4.8600     1.6340 C.3   1 <1>  -0.2400 
 23 C       -5.9160     5.5290     0.5020 C.3   1 <1>  -0.2400 
 24 H        1.3750     2.1660    -0.1740 H     1 <1>   0.3700 
 25 H        1.6860    -4.2060     0.5610 H     1 <1>   0.0800 
 26 H        1.1420    -3.9770    -1.0970 H     1 <1>   0.0800 
 27 H       -1.8280     0.6050     0.3370 H     1 <1>   0.0800 
 28 H       -2.3120     1.1240    -1.2790 H     1 <1>   0.0800 
 29 H       -1.5880    -5.5630     0.5630 H     1 <1>   0.0800 
 30 H        0.0920    -5.9120     0.9460 H     1 <1>   0.0800 
 31 H       -0.4260    -5.7660    -0.7420 H     1 <1>   0.0800 
 32 H       -3.9070    -0.1150     0.2450 H     1 <1>   0.1500 
 33 H       -7.2670     3.4330     0.4610 H     1 <1>   0.1500 
 34 H       -6.2670    -0.6590     0.2980 H     1 <1>   0.1500 
 35 H       -7.9380     1.1390     0.4080 H     1 <1>   0.1500 
 36 H       -3.7560     5.9980    -0.9050 H     1 <1>   0.0800 
 37 H       -3.0300     4.4290    -0.9630 H     1 <1>   0.0800 
 38 H       -4.5630     4.6940    -1.7420 H     1 <1>   0.0800 
 39 H       -2.8910     4.3560     1.5740 H     1 <1>   0.0800 
 40 H       -4.3360     4.5370     2.5290 H     1 <1>   0.0800 
 41 H       -3.6330     5.9120     1.7130 H     1 <1>   0.0800 
 42 H       -6.4780     5.3460     1.4000 H     1 <1>   0.0800 
 43 H       -6.5620     5.4170    -0.3500 H     1 <1>   0.0800 
 44 H       -5.5820     6.5510     0.5260 H     1 <1>   0.0800 
@<TRIPOS>BOND
  1   1   2  1   
  2   1   3  1   
  3   2   4  2   
  4   2   5  1   
  5   3   6  2   
  6   3   7  1   
  7   4   6  1   
  8   5   8  am  
  9   5  24  1   
 10   7   9  1   
 11   7  25  1   
 12   7  26  1   
 13   8  10  2   
 14   8  11  1   
 15   9  12  1   
 16  11  13  1   
 17  11  27  1   
 18  11  28  1   
 19  12  29  1   
 20  12  30  1   
 21  12  31  1   
 22  13  14  1   
 23  14  15  ar  
 24  14  16  ar  
 25  15  17  ar  
 26  15  18  1   
 27  16  19  ar  
 28  16  32  1   
 29  17  20  ar  
 30  17  33  1   
 31  18  21  1   
 32  18  22  1   
 33  18  23  1   
 34  19  20  ar  
 35  19  34  1   
 36  20  35  1   
 37  21  36  1   
 38  21  37  1   
 39  21  38  1   
 40  22  39  1   
 41  22  40  1   
 42  22  41  1   
 43  23  42  1   
 44  23  43  1   
 45  23  44  1   
@<TRIPOS>SUBSTRUCTURE
  1 ****  11 GROUP 4 **** **** 0

# MOE 2024.06 (io_trps.svl 2023.06)
