@<TRIPOS>MOLECULE
NONAME
45 47 1 0 0 
SMALL
USER_CHARGES


@<TRIPOS>ATOM
  1 S       -0.5610     0.1290     0.1250 S.3   1 <1>  -0.1570 
  2 C       -0.1600     1.8650    -0.1500 C.ar  1 <1>   0.1020 
  3 C        0.9910    -0.7630     0.2810 C.2   1 <1>   0.1960 
  4 C       -0.9740     2.5900    -1.0020 C.ar  1 <1>  -0.1500 
  5 C        0.9140     2.4630     0.4900 C.ar  1 <1>  -0.1500 
  6 O        2.1060    -0.2040    -0.1200 O.3   1 <1>  -0.2800 
  7 C        1.1970    -2.0060     0.7580 C.2   1 <1>  -0.1500 
  8 C       -0.7000     3.9280    -1.2310 C.ar  1 <1>  -0.1500 
  9 C        1.1840     3.8010     0.2560 C.ar  1 <1>  -0.1500 
 10 C        3.0960    -1.0640     0.0870 C.2   1 <1>   0.0950 
 11 C        2.5720    -2.2030     0.6340 C.2   1 <1>  -0.1500 
 12 C        0.3790     4.5310    -0.6040 C.ar  1 <1>  -0.1500 
 13 C        4.4130    -0.6580    -0.2890 C.2   1 <1>  -0.1050 
 14 C        5.6060    -1.3010    -0.1640 C.2   1 <1>   0.0790 
 15 C        6.7980    -0.7100    -0.6700 C.1   1 <1>   0.4920 
 16 C        5.8300    -2.5760     0.4520 C.2   1 <1>   0.6160 
 17 N        7.7460    -0.2510    -1.1090 N.1   1 <1>  -0.5570 
 18 O        5.4600    -2.7810     1.5910 O.2   1 <1>  -0.5700 
 19 N        6.4700    -3.5800    -0.2230 N.am  1 <1>  -0.7300 
 20 C        6.7900    -4.9110     0.3210 C.3   1 <1>   0.2200 
 21 C        8.3110    -5.0950     0.3080 C.3   1 <1>  -0.1600 
 22 C        6.0930    -5.9740    -0.5340 C.3   1 <1>  -0.1600 
 23 C        8.7010    -6.5090     0.7620 C.3   1 <1>  -0.1600 
 24 C        6.4790    -7.3900    -0.0820 C.3   1 <1>  -0.1600 
 25 C        8.0020    -7.5780    -0.0890 C.3   1 <1>  -0.1600 
 26 H       -1.8090     2.1120    -1.4810 H     1 <1>   0.1500 
 27 H        1.5290     1.8980     1.1660 H     1 <1>   0.1500 
 28 H        0.4780    -2.7020     1.1490 H     1 <1>   0.1500 
 29 H       -1.3250     4.4990    -1.8960 H     1 <1>   0.1500 
 30 H        2.0180     4.2740     0.7450 H     1 <1>   0.1500 
 31 H        3.0840    -3.1020     0.9270 H     1 <1>   0.1500 
 32 H        0.5910     5.5710    -0.7840 H     1 <1>   0.1500 
 33 H        4.4160     0.3150    -0.7510 H     1 <1>   0.1500 
 34 H        6.8170    -3.4230    -1.1700 H     1 <1>   0.3700 
 35 H        6.4360    -4.9920     1.3370 H     1 <1>   0.0800 
 36 H        8.6880    -4.9320    -0.6860 H     1 <1>   0.0800 
 37 H        8.7620    -4.3740     0.9680 H     1 <1>   0.0800 
 38 H        5.0270    -5.8540    -0.4510 H     1 <1>   0.0800 
 39 H        6.3730    -5.8490    -1.5660 H     1 <1>   0.0800 
 40 H        9.7690    -6.6300     0.6890 H     1 <1>   0.0800 
 41 H        8.4260    -6.6400     1.7950 H     1 <1>   0.0800 
 42 H        6.1040    -7.5600     0.9130 H     1 <1>   0.0800 
 43 H        6.0220    -8.1150    -0.7340 H     1 <1>   0.0800 
 44 H        8.2450    -8.5560     0.2910 H     1 <1>   0.0800 
 45 H        8.3640    -7.5210    -1.1020 H     1 <1>   0.0800 
@<TRIPOS>BOND
  1   1   2  1   
  2   1   3  1   
  3   2   4  ar  
  4   2   5  ar  
  5   3   6  1   
  6   3   7  2   
  7   4   8  ar  
  8   4  26  1   
  9   5   9  ar  
 10   5  27  1   
 11   6  10  1   
 12   7  11  1   
 13   7  28  1   
 14   8  12  ar  
 15   8  29  1   
 16   9  12  ar  
 17   9  30  1   
 18  10  11  2   
 19  10  13  1   
 20  11  31  1   
 21  12  32  1   
 22  13  14  2   
 23  13  33  1   
 24  14  15  1   
 25  14  16  1   
 26  15  17  3   
 27  16  18  2   
 28  16  19  am  
 29  19  20  1   
 30  19  34  1   
 31  20  21  1   
 32  20  22  1   
 33  20  35  1   
 34  21  23  1   
 35  21  36  1   
 36  21  37  1   
 37  22  24  1   
 38  22  38  1   
 39  22  39  1   
 40  23  25  1   
 41  23  40  1   
 42  23  41  1   
 43  24  25  1   
 44  24  42  1   
 45  24  43  1   
 46  25  44  1   
 47  25  45  1   
@<TRIPOS>SUBSTRUCTURE
  1 ****  10 GROUP 4 **** **** 0

# MOE 2024.06 (io_trps.svl 2023.06)
