@<TRIPOS>MOLECULE
NONAME
54 56 1 0 0 
SMALL
USER_CHARGES


@<TRIPOS>ATOM
  1 O       -0.6040    -0.5040     0.4210 O.3   1 <1>  -0.3630 
  2 C       -1.7880    -1.0110    -0.0160 C.ar  1 <1>   0.0820 
  3 C        0.1570     0.3870    -0.3620 C.3   1 <1>   0.0400 
  4 C       -2.4420    -1.9260     0.8030 C.ar  1 <1>  -0.1440 
  5 C       -2.3580    -0.6540    -1.2350 C.ar  1 <1>  -0.1500 
  6 C       -3.6500    -2.4690     0.3960 C.ar  1 <1>  -0.1500 
  7 C       -1.8400    -2.3380     2.1390 C.3   1 <1>  -0.0960 
  8 C       -3.5650    -1.2030    -1.6300 C.ar  1 <1>  -0.1500 
  9 C       -4.2200    -2.1130    -0.8160 C.ar  1 <1>  -0.1440 
 10 C       -5.5520    -2.7150    -1.2400 C.3   1 <1>   0.2530 
 11 N       -6.6130    -2.4010    -0.2600 N.3   1 <1>  -0.8100 
 12 C       -7.8800    -3.0730    -0.5990 C.3   1 <1>   0.1100 
 13 C       -6.8000    -0.9440    -0.0820 C.3   1 <1>   0.1100 
 14 C       -8.9570    -2.8020     0.4720 C.3   1 <1>   0.3430 
 15 C       -7.8610    -0.6460     0.9940 C.3   1 <1>   0.3430 
 16 N       -9.1670    -1.3290     0.6950 N.4   1 <1>  -0.9590 
 17 C      -10.1720    -1.0530     1.7430 C.3   1 <1>   0.4810 
 18 C      -11.5210    -1.4020     1.1640 C.2   1 <1>  -0.2880 
 19 C      -12.4180    -0.5060     0.7190 C.2   1 <1>  -0.1780 
 20 C      -13.7210    -0.7710     0.1500 C.ar  1 <1>   0.0280 
 21 C      -14.3660     0.2120    -0.5970 C.ar  1 <1>  -0.1500 
 22 C      -14.3780    -1.9890     0.3190 C.ar  1 <1>  -0.1500 
 23 C      -15.6090    -0.0120    -1.1620 C.ar  1 <1>  -0.1500 
 24 C      -15.6200    -2.2190    -0.2440 C.ar  1 <1>  -0.1500 
 25 C      -16.2380    -1.2310    -0.9870 C.ar  1 <1>  -0.1500 
 26 H        1.0510     0.6290     0.1820 H     1 <1>   0.0800 
 27 H       -0.4190     1.2790    -0.5350 H     1 <1>   0.0800 
 28 H        0.4120    -0.0950    -1.2890 H     1 <1>   0.0800 
 29 H       -1.8780     0.0470    -1.8900 H     1 <1>   0.1500 
 30 H       -4.1600    -3.1770     1.0260 H     1 <1>   0.1500 
 31 H       -2.4760    -3.0310     2.6580 H     1 <1>   0.0800 
 32 H       -1.6980    -1.4690     2.7570 H     1 <1>   0.0800 
 33 H       -0.8840    -2.8030     1.9760 H     1 <1>   0.0800 
 34 H       -3.9880    -0.9160    -2.5770 H     1 <1>   0.1500 
 35 H       -5.4330    -3.7830    -1.3090 H     1 <1>   0.0800 
 36 H       -5.8300    -2.3460    -2.2130 H     1 <1>   0.0800 
 37 H       -8.2310    -2.7390    -1.5610 H     1 <1>   0.0800 
 38 H       -7.7120    -4.1350    -0.6570 H     1 <1>   0.0800 
 39 H       -5.8730    -0.4950     0.2340 H     1 <1>   0.0800 
 40 H       -7.0840    -0.4900    -1.0160 H     1 <1>   0.0800 
 41 H       -8.6410    -3.2670     1.3910 H     1 <1>   0.0800 
 42 H       -9.8800    -3.2640     0.1640 H     1 <1>   0.0800 
 43 H       -8.0060     0.4190     1.0590 H     1 <1>   0.0800 
 44 H       -7.4800    -0.9890     1.9420 H     1 <1>   0.0800 
 45 H       -9.5410    -0.9370    -0.1780 H     1 <1>   0.4500 
 46 H       -9.9730    -1.6260     2.6350 H     1 <1>   0.0800 
 47 H      -10.1570    -0.0050     1.9940 H     1 <1>   0.0800 
 48 H      -11.7040    -2.4610     1.1400 H     1 <1>   0.1500 
 49 H      -12.1910     0.5470     0.7630 H     1 <1>   0.1500 
 50 H      -13.8950     1.1670    -0.7440 H     1 <1>   0.1500 
 51 H      -13.9260    -2.7690     0.9000 H     1 <1>   0.1500 
 52 H      -16.0890     0.7610    -1.7370 H     1 <1>   0.1500 
 53 H      -16.1110    -3.1670    -0.1030 H     1 <1>   0.1500 
 54 H      -17.2050    -1.4080    -1.4260 H     1 <1>   0.1500 
@<TRIPOS>BOND
  1   1   2  1   
  2   1   3  1   
  3   2   4  ar  
  4   2   5  ar  
  5   3  26  1   
  6   3  27  1   
  7   3  28  1   
  8   4   6  ar  
  9   4   7  1   
 10   5   8  ar  
 11   5  29  1   
 12   6   9  ar  
 13   6  30  1   
 14   7  31  1   
 15   7  32  1   
 16   7  33  1   
 17   8   9  ar  
 18   8  34  1   
 19   9  10  1   
 20  10  11  1   
 21  10  35  1   
 22  10  36  1   
 23  11  12  1   
 24  11  13  1   
 25  12  14  1   
 26  12  37  1   
 27  12  38  1   
 28  13  15  1   
 29  13  39  1   
 30  13  40  1   
 31  14  16  1   
 32  14  41  1   
 33  14  42  1   
 34  15  16  1   
 35  15  43  1   
 36  15  44  1   
 37  16  17  1   
 38  16  45  1   
 39  17  18  1   
 40  17  46  1   
 41  17  47  1   
 42  18  19  2   
 43  18  48  1   
 44  19  20  1   
 45  19  49  1   
 46  20  21  ar  
 47  20  22  ar  
 48  21  23  ar  
 49  21  50  1   
 50  22  24  ar  
 51  22  51  1   
 52  23  25  ar  
 53  23  52  1   
 54  24  25  ar  
 55  24  53  1   
 56  25  54  1   
@<TRIPOS>SUBSTRUCTURE
  1 ****  13 GROUP 4 **** **** 0

# MOE 2024.06 (io_trps.svl 2023.06)
