@<TRIPOS>MOLECULE
NONAME
42 43 1 0 0 
SMALL
USER_CHARGES


@<TRIPOS>ATOM
  1 O       -4.9870     0.8240    -3.1610 O.co2 1 <1>  -0.9000 
  2 C       -4.7450     0.4190    -2.0200 C.2   1 <1>   1.0330 
  3 O       -3.5840     0.0650    -1.7290 O.co2 1 <1>  -0.9000 
  4 C       -5.7900     0.2690    -1.0300 C.2   1 <1>  -0.2330 
  5 C       -5.7250    -0.2360     0.2330 C.2   1 <1>  -0.0400 
  6 C       -7.1450     0.6180    -1.1880 C.2   1 <1>  -0.1500 
  7 O       -6.9020    -0.2160     0.8150 O.3   1 <1>  -0.2800 
  8 C       -4.5430    -0.8010     1.0020 C.3   1 <1>   0.5230 
  9 C       -7.7720     0.3010    -0.0340 C.2   1 <1>  -0.0400 
 10 N       -3.8010    -1.7820     0.1710 N.4   1 <1>  -0.9590 
 11 C       -9.2340     0.4480     0.3920 C.3   1 <1>   0.1800 
 12 C       -4.6600    -2.8760    -0.3490 C.3   1 <1>   0.3430 
 13 C       -2.5230    -2.2230     0.7680 C.3   1 <1>   0.3430 
 14 C       -9.3180     1.3570     1.6250 C.3   1 <1>  -0.2400 
 15 C      -10.0670     1.0670    -0.7390 C.3   1 <1>  -0.2400 
 16 C       -9.8090    -0.9330     0.7330 C.3   1 <1>  -0.2400 
 17 C       -3.8810    -3.6800    -1.3900 C.3   1 <1>  -0.1600 
 18 C       -1.7290    -3.0220    -0.2670 C.3   1 <1>  -0.1600 
 19 C       -2.5440    -4.1910    -0.8380 C.3   1 <1>  -0.1600 
 20 H       -7.5370     1.0550    -2.0910 H     1 <1>   0.1500 
 21 H       -4.9030    -1.2770     1.8980 H     1 <1>   0.0800 
 22 H       -3.8930     0.0130     1.2760 H     1 <1>   0.0800 
 23 H       -3.5450    -1.2060    -0.6730 H     1 <1>   0.4500 
 24 H       -5.5440    -2.4630    -0.8100 H     1 <1>   0.0800 
 25 H       -4.9640    -3.5190     0.4600 H     1 <1>   0.0800 
 26 H       -2.7160    -2.8360     1.6320 H     1 <1>   0.0800 
 27 H       -1.9470    -1.3640     1.0720 H     1 <1>   0.0800 
 28 H      -10.3390     1.4870     1.9350 H     1 <1>   0.0800 
 29 H       -8.7630     0.9310     2.4410 H     1 <1>   0.0800 
 30 H       -8.8990     2.3210     1.4000 H     1 <1>   0.0800 
 31 H       -9.6860     2.0400    -0.9940 H     1 <1>   0.0800 
 32 H      -11.0950     1.1710    -0.4410 H     1 <1>   0.0800 
 33 H      -10.0270     0.4460    -1.6160 H     1 <1>   0.0800 
 34 H       -9.2580    -1.3760     1.5430 H     1 <1>   0.0800 
 35 H       -9.7370    -1.5830    -0.1210 H     1 <1>   0.0800 
 36 H      -10.8410    -0.8550     1.0230 H     1 <1>   0.0800 
 37 H       -3.7060    -3.0510    -2.2480 H     1 <1>   0.0800 
 38 H       -4.4810    -4.5110    -1.7170 H     1 <1>   0.0800 
 39 H       -0.8290    -3.3960     0.1880 H     1 <1>   0.0800 
 40 H       -1.4380    -2.3590    -1.0650 H     1 <1>   0.0800 
 41 H       -1.9870    -4.6720    -1.6240 H     1 <1>   0.0800 
 42 H       -2.7250    -4.9190    -0.0650 H     1 <1>   0.0800 
@<TRIPOS>BOND
  1   1   2  ar  
  2   2   3  ar  
  3   2   4  1   
  4   4   5  2   
  5   4   6  1   
  6   5   7  1   
  7   5   8  1   
  8   6   9  2   
  9   6  20  1   
 10   7   9  1   
 11   8  10  1   
 12   8  21  1   
 13   8  22  1   
 14   9  11  1   
 15  10  12  1   
 16  10  13  1   
 17  10  23  1   
 18  11  14  1   
 19  11  15  1   
 20  11  16  1   
 21  12  17  1   
 22  12  24  1   
 23  12  25  1   
 24  13  18  1   
 25  13  26  1   
 26  13  27  1   
 27  14  28  1   
 28  14  29  1   
 29  14  30  1   
 30  15  31  1   
 31  15  32  1   
 32  15  33  1   
 33  16  34  1   
 34  16  35  1   
 35  16  36  1   
 36  17  19  1   
 37  17  37  1   
 38  17  38  1   
 39  18  19  1   
 40  18  39  1   
 41  18  40  1   
 42  19  41  1   
 43  19  42  1   
@<TRIPOS>SUBSTRUCTURE
  1 ****   5 GROUP 4 **** **** 0

# MOE 2024.06 (io_trps.svl 2023.06)
