@<TRIPOS>MOLECULE
NONAME
34 35 1 0 0 
SMALL
USER_CHARGES


@<TRIPOS>ATOM
  1 O       -0.1740     1.1670     2.1770 O.2   1 <1>  -0.5700 
  2 C       -0.2000     1.8020     1.1520 C.2   1 <1>   0.5690 
  3 N        0.8790     1.9620     0.3270 N.am  1 <1>  -0.5470 
  4 C       -1.4920     2.5040     0.7690 C.3   1 <1>  -0.0990 
  5 C        2.1870     1.4530     0.3950 C.ar  1 <1>   0.1170 
  6 C       -2.4130     1.7210    -0.1970 C.3   1 <1>   0.0000 
  7 C        3.1790     2.0950    -0.3450 C.ar  1 <1>  -0.1500 
  8 C        2.5270     0.3270     1.1550 C.ar  1 <1>  -0.1500 
  9 C       -1.7250     1.4600    -1.5460 C.3   1 <1>  -0.2400 
 10 C       -2.8300     0.3780     0.4200 C.3   1 <1>  -0.2400 
 11 C       -3.6780     2.5540    -0.4510 C.3   1 <1>  -0.2400 
 12 C        4.4650     1.5990    -0.2980 C.ar  1 <1>   0.0830 
 13 C        3.8280    -0.1580     1.1920 C.ar  1 <1>  -0.1500 
 14 O        5.5530     2.0610    -0.9250 O.3   1 <1>  -0.3630 
 15 C        4.7830     0.5040     0.4490 C.ar  1 <1>   0.0830 
 16 C        6.6330     1.2080    -0.5490 C.3   1 <1>   0.4000 
 17 O        6.0880     0.2240     0.3290 O.3   1 <1>  -0.3630 
 18 H        0.7050     2.5620    -0.4760 H     1 <1>   0.3700 
 19 H       -1.2480     3.4580     0.3400 H     1 <1>   0.0800 
 20 H       -2.0300     2.7020     1.6790 H     1 <1>   0.0800 
 21 H        2.9650     2.9600    -0.9410 H     1 <1>   0.1500 
 22 H        1.7720    -0.1830     1.7240 H     1 <1>   0.1500 
 23 H       -1.3940     2.3820    -1.9910 H     1 <1>   0.0800 
 24 H       -2.4090     0.9870    -2.2280 H     1 <1>   0.0800 
 25 H       -0.8790     0.8060    -1.4290 H     1 <1>   0.0800 
 26 H       -3.3060     0.5300     1.3730 H     1 <1>   0.0800 
 27 H       -3.5180    -0.1400    -0.2240 H     1 <1>   0.0800 
 28 H       -1.9750    -0.2580     0.5730 H     1 <1>   0.0800 
 29 H       -3.4280     3.5000    -0.8980 H     1 <1>   0.0800 
 30 H       -4.1990     2.7420     0.4710 H     1 <1>   0.0800 
 31 H       -4.3480     2.0340    -1.1140 H     1 <1>   0.0800 
 32 H        4.0920    -1.0200     1.7770 H     1 <1>   0.1500 
 33 H        7.3810     1.7800    -0.0290 H     1 <1>   0.0800 
 34 H        7.0350     0.7270    -1.4230 H     1 <1>   0.0800 
@<TRIPOS>BOND
  1   1   2  2   
  2   2   3  am  
  3   2   4  1   
  4   3   5  1   
  5   3  18  1   
  6   4   6  1   
  7   4  19  1   
  8   4  20  1   
  9   5   7  ar  
 10   5   8  ar  
 11   6   9  1   
 12   6  10  1   
 13   6  11  1   
 14   7  12  ar  
 15   7  21  1   
 16   8  13  ar  
 17   8  22  1   
 18   9  23  1   
 19   9  24  1   
 20   9  25  1   
 21  10  26  1   
 22  10  27  1   
 23  10  28  1   
 24  11  29  1   
 25  11  30  1   
 26  11  31  1   
 27  12  14  1   
 28  12  15  ar  
 29  13  15  ar  
 30  13  32  1   
 31  14  16  1   
 32  15  17  1   
 33  16  17  1   
 34  16  33  1   
 35  16  34  1   
@<TRIPOS>SUBSTRUCTURE
  1 ****   5 GROUP 4 **** **** 0

# MOE 2024.06 (io_trps.svl 2023.06)
