@<TRIPOS>MOLECULE
NONAME
51 55 1 0 0 
SMALL
USER_CHARGES


@<TRIPOS>ATOM
  1 F        1.1240     0.3190    -0.9350 F     1 <1>  -0.1900 
  2 C        2.1780     1.0630    -0.7120 C.ar  1 <1>   0.1900 
  3 C        3.2240     1.0240    -1.6150 C.ar  1 <1>  -0.1500 
  4 C        2.2060     1.8590     0.4170 C.ar  1 <1>  -0.1500 
  5 C        4.3350     1.8130    -1.3730 C.ar  1 <1>  -0.1500 
  6 C        3.3240     2.6420     0.6450 C.ar  1 <1>  -0.1500 
  7 C        4.3950     2.6270    -0.2430 C.ar  1 <1>   0.1000 
  8 N        5.5030     3.4260     0.0160 N.pl3 1 <1>  -0.8380 
  9 C        5.7110     4.5850    -0.8960 C.3   1 <1>   0.2090 
 10 C        6.7560     2.7160     0.3950 C.3   1 <1>   0.2090 
 11 C        6.7620     5.5560    -0.3180 C.3   1 <1>   0.3430 
 12 C        7.7970     3.7050     0.9610 C.3   1 <1>   0.3430 
 13 N        8.0680     4.8790     0.0420 N.4   1 <1>  -0.9590 
 14 C        9.0870     5.8340     0.5990 C.3   1 <1>   0.4230 
 15 C        9.3750     6.9910    -0.3960 C.3   1 <1>  -0.0800 
 16 C       10.4280     5.1100     0.9040 C.3   1 <1>  -0.0800 
 17 C       10.0030     6.4470    -1.7010 C.3   1 <1>  -0.1600 
 18 C       10.3660     7.9820     0.2490 C.3   1 <1>  -0.1600 
 19 C       11.0590     4.5600    -0.3970 C.3   1 <1>  -0.1600 
 20 C       11.4120     6.1110     1.5420 C.3   1 <1>  -0.1600 
 21 C       11.3220     5.7150    -1.3820 C.3   1 <1>  -0.0800 
 22 C       11.6910     7.2720     0.5730 C.3   1 <1>  -0.0800 
 23 C       12.2960     6.7120    -0.7270 C.3   1 <1>  -0.1600 
 24 H        3.1610     0.3900    -2.4810 H     1 <1>   0.1500 
 25 H        1.3720     1.8610     1.0960 H     1 <1>   0.1500 
 26 H        5.1580     1.7960    -2.0630 H     1 <1>   0.1500 
 27 H        3.3750     3.2710     1.5140 H     1 <1>   0.1500 
 28 H        4.7760     5.1050    -1.0230 H     1 <1>   0.0800 
 29 H        6.0280     4.2350    -1.8630 H     1 <1>   0.0800 
 30 H        7.1610     2.2080    -0.4630 H     1 <1>   0.0800 
 31 H        6.5280     1.9730     1.1410 H     1 <1>   0.0800 
 32 H        6.3420     6.0150     0.5620 H     1 <1>   0.0800 
 33 H        6.9340     6.3310    -1.0440 H     1 <1>   0.0800 
 34 H        8.7070     3.1610     1.1460 H     1 <1>   0.0800 
 35 H        7.4310     4.0690     1.9070 H     1 <1>   0.0800 
 36 H        8.4800     4.5110    -0.8230 H     1 <1>   0.4500 
 37 H        8.7090     6.2560     1.5160 H     1 <1>   0.0800 
 38 H        8.4810     7.5440    -0.6170 H     1 <1>   0.0800 
 39 H       10.2870     4.3160     1.6130 H     1 <1>   0.0800 
 40 H        9.3280     5.7840    -2.2110 H     1 <1>   0.0800 
 41 H       10.2060     7.2660    -2.3710 H     1 <1>   0.0800 
 42 H        9.9450     8.3960     1.1500 H     1 <1>   0.0800 
 43 H       10.5540     8.8030    -0.4230 H     1 <1>   0.0800 
 44 H       10.4260     3.8220    -0.8550 H     1 <1>   0.0800 
 45 H       11.9920     4.0730    -0.1660 H     1 <1>   0.0800 
 46 H       11.0090     6.4950     2.4640 H     1 <1>   0.0800 
 47 H       12.3380     5.6140     1.7800 H     1 <1>   0.0800 
 48 H       11.7580     5.3320    -2.2900 H     1 <1>   0.0800 
 49 H       12.3790     7.9680     1.0230 H     1 <1>   0.0800 
 50 H       12.5060     7.5200    -1.4080 H     1 <1>   0.0800 
 51 H       13.2310     6.2230    -0.5130 H     1 <1>   0.0800 
@<TRIPOS>BOND
  1   1   2  1   
  2   2   3  ar  
  3   2   4  ar  
  4   3   5  ar  
  5   3  24  1   
  6   4   6  ar  
  7   4  25  1   
  8   5   7  ar  
  9   5  26  1   
 10   6   7  ar  
 11   6  27  1   
 12   7   8  1   
 13   8   9  1   
 14   8  10  1   
 15   9  11  1   
 16   9  28  1   
 17   9  29  1   
 18  10  12  1   
 19  10  30  1   
 20  10  31  1   
 21  11  13  1   
 22  11  32  1   
 23  11  33  1   
 24  12  13  1   
 25  12  34  1   
 26  12  35  1   
 27  13  14  1   
 28  13  36  1   
 29  14  15  1   
 30  14  16  1   
 31  14  37  1   
 32  15  17  1   
 33  15  18  1   
 34  15  38  1   
 35  16  19  1   
 36  16  20  1   
 37  16  39  1   
 38  17  21  1   
 39  17  40  1   
 40  17  41  1   
 41  18  22  1   
 42  18  42  1   
 43  18  43  1   
 44  19  21  1   
 45  19  44  1   
 46  19  45  1   
 47  20  22  1   
 48  20  46  1   
 49  20  47  1   
 50  21  23  1   
 51  21  48  1   
 52  22  23  1   
 53  22  49  1   
 54  23  50  1   
 55  23  51  1   
@<TRIPOS>SUBSTRUCTURE
  1 ****  13 GROUP 4 **** **** 0

# MOE 2024.06 (io_trps.svl 2023.06)
