@<TRIPOS>MOLECULE
NONAME
45 45 1 0 0 
SMALL
USER_CHARGES


@<TRIPOS>ATOM
  1 O        0.3830     1.3300    -0.2370 O.2   1 <1>  -0.5700 
  2 C        0.1100     2.4670    -0.5720 C.2   1 <1>   0.5440 
  3 N        1.1530     3.2940    -0.8890 N.am  1 <1>  -0.7300 
  4 C       -1.2630     2.9400    -0.5940 C.ar  1 <1>   0.0860 
  5 C        2.5460     2.8730    -1.2320 C.3   1 <1>   0.1400 
  6 C       -2.2240     2.3790     0.2480 C.ar  1 <1>  -0.1500 
  7 C       -1.6810     3.9620    -1.4510 C.ar  1 <1>  -0.1500 
  8 C        3.4210     2.6340     0.0170 C.3   1 <1>   0.3430 
  9 C       -3.5340     2.8210     0.2540 C.ar  1 <1>   0.0830 
 10 C       -2.9860     4.4230    -1.4430 C.ar  1 <1>  -0.1500 
 11 N        2.9100     1.4930     0.8360 N.4   1 <1>  -0.9590 
 12 O       -4.3990     2.1870     1.0790 O.3   1 <1>  -0.3620 
 13 C       -3.9200     3.8760    -0.5810 C.ar  1 <1>   0.0830 
 14 C        3.1720     1.6690     2.2930 C.3   1 <1>   0.2630 
 15 C        3.3830     0.1670     0.3400 C.3   1 <1>   0.2630 
 16 C       -5.3540     1.3630     0.4510 C.3   1 <1>   0.1200 
 17 O       -5.1650     4.4060    -0.6040 O.3   1 <1>  -0.3630 
 18 C       -6.2360     0.7500     1.5340 C.3   1 <1>  -0.2400 
 19 C       -5.7230     4.8590     0.6100 C.3   1 <1>   0.1200 
 20 C       -6.9030     5.7670     0.2770 C.3   1 <1>  -0.2400 
 21 H        0.9260     4.2700    -1.1040 H     1 <1>   0.3700 
 22 H        2.9990     3.6440    -1.8320 H     1 <1>   0.0800 
 23 H        2.5120     1.9770    -1.8280 H     1 <1>   0.0800 
 24 H       -1.9500     1.5760     0.9080 H     1 <1>   0.1500 
 25 H       -0.9860     4.4040    -2.1410 H     1 <1>   0.1500 
 26 H        3.4170     3.5360     0.6050 H     1 <1>   0.0800 
 27 H        4.4370     2.4380    -0.2830 H     1 <1>   0.0800 
 28 H       -3.2920     5.2150    -2.1040 H     1 <1>   0.1500 
 29 H        1.8740     1.4960     0.6830 H     1 <1>   0.4500 
 30 H        4.2320     1.6730     2.4870 H     1 <1>   0.0800 
 31 H        2.7210     0.8630     2.8500 H     1 <1>   0.0800 
 32 H        2.7500     2.5990     2.6380 H     1 <1>   0.0800 
 33 H        4.4540     0.0930     0.4220 H     1 <1>   0.0800 
 34 H        3.0980     0.0340    -0.6910 H     1 <1>   0.0800 
 35 H        2.9340    -0.6250     0.9180 H     1 <1>   0.0800 
 36 H       -5.9400     1.9600    -0.2270 H     1 <1>   0.0800 
 37 H       -4.8320     0.5980    -0.0990 H     1 <1>   0.0800 
 38 H       -6.9730     0.1100     1.0830 H     1 <1>   0.0800 
 39 H       -6.7420     1.5240     2.0810 H     1 <1>   0.0800 
 40 H       -5.6380     0.1630     2.2080 H     1 <1>   0.0800 
 41 H       -6.0510     4.0110     1.1830 H     1 <1>   0.0800 
 42 H       -4.9660     5.3970     1.1560 H     1 <1>   0.0800 
 43 H       -7.3500     6.1300     1.1850 H     1 <1>   0.0800 
 44 H       -7.6450     5.2200    -0.2770 H     1 <1>   0.0800 
 45 H       -6.5690     6.6090    -0.3020 H     1 <1>   0.0800 
@<TRIPOS>BOND
  1   1   2  2   
  2   2   3  am  
  3   2   4  1   
  4   3   5  1   
  5   3  21  1   
  6   4   6  ar  
  7   4   7  ar  
  8   5   8  1   
  9   5  22  1   
 10   5  23  1   
 11   6   9  ar  
 12   6  24  1   
 13   7  10  ar  
 14   7  25  1   
 15   8  11  1   
 16   8  26  1   
 17   8  27  1   
 18   9  12  1   
 19   9  13  ar  
 20  10  13  ar  
 21  10  28  1   
 22  11  14  1   
 23  11  15  1   
 24  11  29  1   
 25  12  16  1   
 26  13  17  1   
 27  14  30  1   
 28  14  31  1   
 29  14  32  1   
 30  15  33  1   
 31  15  34  1   
 32  15  35  1   
 33  16  18  1   
 34  16  36  1   
 35  16  37  1   
 36  17  19  1   
 37  18  38  1   
 38  18  39  1   
 39  18  40  1   
 40  19  20  1   
 41  19  41  1   
 42  19  42  1   
 43  20  43  1   
 44  20  44  1   
 45  20  45  1   
@<TRIPOS>SUBSTRUCTURE
  1 ****   4 GROUP 4 **** **** 0

# MOE 2024.06 (io_trps.svl 2023.06)
