@<TRIPOS>MOLECULE
NONAME
38 39 1 0 0 
SMALL
USER_CHARGES


@<TRIPOS>ATOM
  1 CL       0.1090     1.8920    -1.9620 Cl    1 <1>  -0.1770 
  2 C       -1.0540     2.3820    -0.7500 C.ar  1 <1>   0.1770 
  3 C       -0.6330     2.8490     0.4860 C.ar  1 <1>   0.1770 
  4 C       -2.4010     2.2970    -1.0420 C.ar  1 <1>  -0.1500 
  5 CL       1.0720     2.9620     0.8700 Cl    1 <1>  -0.1770 
  6 C       -1.5580     3.2350     1.4390 C.ar  1 <1>  -0.1500 
  7 C       -3.3420     2.6800    -0.0950 C.ar  1 <1>   0.1000 
  8 C       -2.9090     3.1490     1.1440 C.ar  1 <1>  -0.1500 
  9 N       -4.6910     2.5880    -0.4060 N.pl3 1 <1>  -0.8380 
 10 C       -5.4810     1.5810     0.3640 C.3   1 <1>   0.2090 
 11 C       -5.4310     3.8800    -0.5330 C.3   1 <1>   0.2090 
 12 C       -6.8880     1.4020    -0.2380 C.3   1 <1>   0.1100 
 13 C       -6.8440     3.6610    -1.1080 C.3   1 <1>   0.1100 
 14 N       -7.6270     2.6820    -0.3140 N.3   1 <1>  -0.8100 
 15 C       -8.9840     2.4790    -0.8960 C.3   1 <1>   0.1710 
 16 C       -9.8910     3.7140    -0.8960 C.2   1 <1>   0.6590 
 17 O      -10.0030     4.4170    -1.8710 O.2   1 <1>  -0.5700 
 18 O      -10.5580     3.9590     0.2260 O.3   1 <1>  -0.4300 
 19 C      -11.4100     5.0730     0.3490 C.3   1 <1>   0.1200 
 20 C      -11.9990     5.0650     1.7550 C.3   1 <1>  -0.2400 
 21 H       -2.7310     1.9370    -1.9980 H     1 <1>   0.1500 
 22 H       -1.2230     3.5960     2.3950 H     1 <1>   0.1500 
 23 H       -3.6400     3.4450     1.8740 H     1 <1>   0.1500 
 24 H       -5.5750     1.8990     1.3870 H     1 <1>   0.0800 
 25 H       -4.9630     0.6380     0.3500 H     1 <1>   0.0800 
 26 H       -4.8820     4.5420    -1.1790 H     1 <1>   0.0800 
 27 H       -5.5160     4.3450     0.4340 H     1 <1>   0.0800 
 28 H       -7.4380     0.7100     0.3750 H     1 <1>   0.0800 
 29 H       -6.7890     0.9760    -1.2220 H     1 <1>   0.0800 
 30 H       -6.7520     3.3200    -2.1250 H     1 <1>   0.0800 
 31 H       -7.3550     4.6080    -1.1200 H     1 <1>   0.0800 
 32 H       -9.4910     1.7130    -0.3360 H     1 <1>   0.0800 
 33 H       -8.8890     2.1370    -1.9110 H     1 <1>   0.0800 
 34 H      -12.1830     4.9950    -0.3970 H     1 <1>   0.0800 
 35 H      -10.8300     5.9640     0.1770 H     1 <1>   0.0800 
 36 H      -12.5640     4.1650     1.9150 H     1 <1>   0.0800 
 37 H      -12.6540     5.9080     1.8790 H     1 <1>   0.0800 
 38 H      -11.2120     5.1310     2.4860 H     1 <1>   0.0800 
@<TRIPOS>BOND
  1   1   2  1   
  2   2   3  ar  
  3   2   4  ar  
  4   3   5  1   
  5   3   6  ar  
  6   4   7  ar  
  7   4  21  1   
  8   6   8  ar  
  9   6  22  1   
 10   7   8  ar  
 11   7   9  1   
 12   8  23  1   
 13   9  10  1   
 14   9  11  1   
 15  10  12  1   
 16  10  24  1   
 17  10  25  1   
 18  11  13  1   
 19  11  26  1   
 20  11  27  1   
 21  12  14  1   
 22  12  28  1   
 23  12  29  1   
 24  13  14  1   
 25  13  30  1   
 26  13  31  1   
 27  14  15  1   
 28  15  16  1   
 29  15  32  1   
 30  15  33  1   
 31  16  17  2   
 32  16  18  1   
 33  18  19  1   
 34  19  20  1   
 35  19  34  1   
 36  19  35  1   
 37  20  36  1   
 38  20  37  1   
 39  20  38  1   
@<TRIPOS>SUBSTRUCTURE
  1 ****  11 GROUP 4 **** **** 0

# MOE 2024.06 (io_trps.svl 2023.06)
