@<TRIPOS>MOLECULE
NONAME
29 30 1 0 0 
SMALL
USER_CHARGES


@<TRIPOS>ATOM
  1 CL       0.5310     0.3200    -0.8040 Cl    1 <1>  -0.2900 
  2 C        0.1880    -1.3210    -0.2610 C.3   1 <1>   0.5610 
  3 CL      -0.2360    -1.1760     1.4420 Cl    1 <1>  -0.2900 
  4 C        1.4150    -2.2170    -0.4410 C.2   1 <1>   0.5690 
  5 O        1.2730    -3.2680    -1.0240 O.2   1 <1>  -0.5700 
  6 N        2.6260    -1.7840     0.0480 N.am  1 <1>  -0.5470 
  7 C        3.9040    -2.3650     0.0080 C.ar  1 <1>   0.1170 
  8 C        5.0420    -1.5490     0.0060 C.ar  1 <1>  -0.1430 
  9 C        4.0620    -3.7460     0.0000 C.ar  1 <1>  -0.1500 
 10 C        6.3090    -2.1280     0.0090 C.ar  1 <1>  -0.1440 
 11 C        4.8850    -0.0240     0.0160 C.3   1 <1>  -0.0160 
 12 C        5.3180    -4.3160    -0.0070 C.ar  1 <1>  -0.1500 
 13 C        6.4380    -3.5080    -0.0010 C.ar  1 <1>  -0.1500 
 14 C        7.5900    -1.3010     0.0050 C.3   1 <1>  -0.0170 
 15 C        6.1700     0.7310    -0.3390 C.3   1 <1>  -0.1600 
 16 C        7.3580     0.1520     0.4280 C.3   1 <1>  -0.1600 
 17 H       -0.6610    -1.6970    -0.8000 H     1 <1>   0.0800 
 18 H        2.6180    -0.8490     0.4570 H     1 <1>   0.3700 
 19 H        3.2000    -4.3870     0.0040 H     1 <1>   0.1500 
 20 H        4.5710     0.2750     1.0000 H     1 <1>   0.0800 
 21 H        4.1230     0.2730    -0.6840 H     1 <1>   0.0800 
 22 H        5.4240    -5.3870    -0.0160 H     1 <1>   0.1500 
 23 H        7.4140    -3.9610    -0.0060 H     1 <1>   0.1500 
 24 H        7.9980    -1.3180    -0.9900 H     1 <1>   0.0800 
 25 H        8.3130    -1.7470     0.6660 H     1 <1>   0.0800 
 26 H        6.0530     1.7750    -0.1040 H     1 <1>   0.0800 
 27 H        6.3520     0.6460    -1.3970 H     1 <1>   0.0800 
 28 H        8.2440     0.7300     0.2300 H     1 <1>   0.0800 
 29 H        7.1600     0.1900     1.4850 H     1 <1>   0.0800 
@<TRIPOS>BOND
  1   1   2  1   
  2   2   3  1   
  3   2   4  1   
  4   2  17  1   
  5   4   5  2   
  6   4   6  am  
  7   6   7  1   
  8   6  18  1   
  9   7   8  ar  
 10   7   9  ar  
 11   8  10  ar  
 12   8  11  1   
 13   9  12  ar  
 14   9  19  1   
 15  10  13  ar  
 16  10  14  1   
 17  11  15  1   
 18  11  20  1   
 19  11  21  1   
 20  12  13  ar  
 21  12  22  1   
 22  13  23  1   
 23  14  16  1   
 24  14  24  1   
 25  14  25  1   
 26  15  16  1   
 27  15  26  1   
 28  15  27  1   
 29  16  28  1   
 30  16  29  1   
@<TRIPOS>SUBSTRUCTURE
  1 ****   7 GROUP 4 **** **** 0

# MOE 2024.06 (io_trps.svl 2023.06)
