@<TRIPOS>MOLECULE
NONAME
43 44 1 0 0 
SMALL
USER_CHARGES


@<TRIPOS>ATOM
  1 O        0.3340     0.8260    -1.9410 O.2   1 <1>  -0.5700 
  2 C        0.2230     1.9210    -1.4230 C.2   1 <1>   0.5440 
  3 N       -0.9920     2.2750    -0.8780 N.am  1 <1>  -0.6600 
  4 C        1.3690     2.8090    -1.3720 C.ar  1 <1>   0.0860 
  5 C       -1.1680     3.4060     0.0820 C.3   1 <1>   0.1400 
  6 C       -2.1890     1.3950    -1.0380 C.3   1 <1>   0.1400 
  7 C        2.5840     2.3630    -0.8570 C.ar  1 <1>  -0.1500 
  8 C        1.2970     4.1250    -1.8300 C.ar  1 <1>  -0.1500 
  9 C       -2.3000     3.1100     1.0870 C.3   1 <1>   0.2000 
 10 C       -3.4990     2.1740    -0.7870 C.3   1 <1>   0.2000 
 11 C        3.6880     3.2050    -0.7770 C.ar  1 <1>   0.0830 
 12 C        2.3890     4.9710    -1.7570 C.ar  1 <1>  -0.1500 
 13 O       -3.5170     2.8550     0.4420 O.3   1 <1>  -0.5600 
 14 C       -2.5410     4.2760     2.0420 C.3   1 <1>  -0.2400 
 15 C       -4.7210     1.2600    -0.8030 C.3   1 <1>  -0.2400 
 16 O        4.8960     2.8360    -0.2800 O.3   1 <1>  -0.3630 
 17 C        3.5800     4.5100    -1.2270 C.ar  1 <1>  -0.1500 
 18 C        5.1750     1.5360     0.1900 C.3   1 <1>   0.2000 
 19 C        4.6670     1.4090     1.6280 C.3   1 <1>  -0.2400 
 20 C        6.6900     1.3540     0.1260 C.3   1 <1>  -0.2400 
 21 H       -1.4060     4.3040    -0.4620 H     1 <1>   0.0800 
 22 H       -0.2530     3.5700     0.6230 H     1 <1>   0.0800 
 23 H       -2.1180     0.5730    -0.3470 H     1 <1>   0.0800 
 24 H       -2.2030     0.9880    -2.0340 H     1 <1>   0.0800 
 25 H        2.6330     1.3440    -0.5250 H     1 <1>   0.1500 
 26 H        0.3740     4.4810    -2.2520 H     1 <1>   0.1500 
 27 H       -2.0440     2.2320     1.6550 H     1 <1>   0.0800 
 28 H       -3.6050     2.9170    -1.5580 H     1 <1>   0.0800 
 29 H        2.3150     5.9840    -2.1120 H     1 <1>   0.1500 
 30 H       -2.8300     5.1540     1.4930 H     1 <1>   0.0800 
 31 H       -1.6460     4.4910     2.5970 H     1 <1>   0.0800 
 32 H       -3.3200     4.0200     2.7370 H     1 <1>   0.0800 
 33 H       -4.6490     0.5290    -0.0180 H     1 <1>   0.0800 
 34 H       -4.7890     0.7500    -1.7460 H     1 <1>   0.0800 
 35 H       -5.6130     1.8430    -0.6640 H     1 <1>   0.0800 
 36 H        4.4360     5.1570    -1.1640 H     1 <1>   0.1500 
 37 H        4.7080     0.8180    -0.4630 H     1 <1>   0.0800 
 38 H        5.1410     2.1410     2.2550 H     1 <1>   0.0800 
 39 H        4.8930     0.4300     2.0100 H     1 <1>   0.0800 
 40 H        3.6020     1.5470     1.6690 H     1 <1>   0.0800 
 41 H        7.1810     2.0840     0.7440 H     1 <1>   0.0800 
 42 H        7.0270     1.4620    -0.8890 H     1 <1>   0.0800 
 43 H        6.9580     0.3720     0.4710 H     1 <1>   0.0800 
@<TRIPOS>BOND
  1   1   2  2   
  2   2   3  am  
  3   2   4  1   
  4   3   5  1   
  5   3   6  1   
  6   4   7  ar  
  7   4   8  ar  
  8   5   9  1   
  9   5  21  1   
 10   5  22  1   
 11   6  10  1   
 12   6  23  1   
 13   6  24  1   
 14   7  11  ar  
 15   7  25  1   
 16   8  12  ar  
 17   8  26  1   
 18   9  13  1   
 19   9  14  1   
 20   9  27  1   
 21  10  13  1   
 22  10  15  1   
 23  10  28  1   
 24  11  16  1   
 25  11  17  ar  
 26  12  17  ar  
 27  12  29  1   
 28  14  30  1   
 29  14  31  1   
 30  14  32  1   
 31  15  33  1   
 32  15  34  1   
 33  15  35  1   
 34  16  18  1   
 35  17  36  1   
 36  18  19  1   
 37  18  20  1   
 38  18  37  1   
 39  19  38  1   
 40  19  39  1   
 41  19  40  1   
 42  20  41  1   
 43  20  42  1   
 44  20  43  1   
@<TRIPOS>SUBSTRUCTURE
  1 ****   4 GROUP 4 **** **** 0

# MOE 2024.06 (io_trps.svl 2023.06)
