@<TRIPOS>MOLECULE
NONAME
41 42 1 0 0 
SMALL
USER_CHARGES


@<TRIPOS>ATOM
  1 O        0.3180    -0.3880     0.0780 O.3   1 <1>  -0.3630 
  2 C       -0.9090    -0.9110    -0.1660 C.ar  1 <1>   0.0830 
  3 C        1.4870    -1.0330    -0.3620 C.3   1 <1>   0.1200 
  4 C       -1.9940    -0.2230     0.3520 C.ar  1 <1>  -0.1500 
  5 C       -1.1260    -2.0790    -0.8940 C.ar  1 <1>  -0.1500 
  6 C        2.6720    -0.1830     0.1040 C.3   1 <1>   0.3430 
  7 C       -3.2810    -0.6890     0.1530 C.ar  1 <1>  -0.1500 
  8 C       -2.4160    -2.5410    -1.0910 C.ar  1 <1>  -0.1500 
  9 N        3.9980    -0.7390    -0.3260 N.4   1 <1>  -0.9590 
 10 C       -3.5000    -1.8500    -0.5710 C.ar  1 <1>  -0.1430 
 11 C        4.3160    -2.0340     0.3510 C.3   1 <1>   0.3430 
 12 C        5.0740     0.2700    -0.0890 C.3   1 <1>   0.3430 
 13 C       -4.9140    -2.3620    -0.7890 C.3   1 <1>  -0.0170 
 14 C        5.6230    -2.6010    -0.2070 C.3   1 <1>  -0.1600 
 15 C        6.3980    -0.2440    -0.6580 C.3   1 <1>  -0.1600 
 16 C       -5.3200    -3.3170     0.3360 C.3   1 <1>  -0.2400 
 17 C        6.7810    -1.6050    -0.0630 C.3   1 <1>  -0.1600 
 18 H        1.4510    -1.0900    -1.4360 H     1 <1>   0.0800 
 19 H        1.5070    -2.0130     0.0790 H     1 <1>   0.0800 
 20 H       -1.8290     0.6780     0.9140 H     1 <1>   0.1500 
 21 H       -0.3180    -2.6430    -1.3150 H     1 <1>   0.1500 
 22 H        2.6440    -0.1060     1.1790 H     1 <1>   0.0800 
 23 H        2.5520     0.8060    -0.3080 H     1 <1>   0.0800 
 24 H       -4.1130    -0.1440     0.5640 H     1 <1>   0.1500 
 25 H       -2.5790    -3.4450    -1.6510 H     1 <1>   0.1500 
 26 H        3.9750    -0.9130    -1.3390 H     1 <1>   0.4500 
 27 H        3.5240    -2.7470     0.1890 H     1 <1>   0.0800 
 28 H        4.4180    -1.8760     1.4130 H     1 <1>   0.0800 
 29 H        5.1820     0.4480     0.9690 H     1 <1>   0.0800 
 30 H        4.8190     1.2030    -0.5660 H     1 <1>   0.0800 
 31 H       -4.9740    -2.8720    -1.7350 H     1 <1>   0.0800 
 32 H       -5.6000    -1.5330    -0.8230 H     1 <1>   0.0800 
 33 H        5.4890    -2.8600    -1.2430 H     1 <1>   0.0800 
 34 H        5.8680    -3.5070     0.3210 H     1 <1>   0.0800 
 35 H        7.1740     0.4690    -0.4400 H     1 <1>   0.0800 
 36 H        6.3240    -0.3190    -1.7290 H     1 <1>   0.0800 
 37 H       -4.6510    -4.1590     0.3660 H     1 <1>   0.0800 
 38 H       -6.3210    -3.6750     0.1760 H     1 <1>   0.0800 
 39 H       -5.2790    -2.8110     1.2840 H     1 <1>   0.0800 
 40 H        7.6590    -1.9880    -0.5580 H     1 <1>   0.0800 
 41 H        7.0230    -1.4850     0.9810 H     1 <1>   0.0800 
@<TRIPOS>BOND
  1   1   2  1   
  2   1   3  1   
  3   2   4  ar  
  4   2   5  ar  
  5   3   6  1   
  6   3  18  1   
  7   3  19  1   
  8   4   7  ar  
  9   4  20  1   
 10   5   8  ar  
 11   5  21  1   
 12   6   9  1   
 13   6  22  1   
 14   6  23  1   
 15   7  10  ar  
 16   7  24  1   
 17   8  10  ar  
 18   8  25  1   
 19   9  11  1   
 20   9  12  1   
 21   9  26  1   
 22  10  13  1   
 23  11  14  1   
 24  11  27  1   
 25  11  28  1   
 26  12  15  1   
 27  12  29  1   
 28  12  30  1   
 29  13  16  1   
 30  13  31  1   
 31  13  32  1   
 32  14  17  1   
 33  14  33  1   
 34  14  34  1   
 35  15  17  1   
 36  15  35  1   
 37  15  36  1   
 38  16  37  1   
 39  16  38  1   
 40  16  39  1   
 41  17  40  1   
 42  17  41  1   
@<TRIPOS>SUBSTRUCTURE
  1 ****   3 GROUP 4 **** **** 0

# MOE 2024.06 (io_trps.svl 2023.06)
