@<TRIPOS>MOLECULE
NONAME
27 27 1 0 0 
SMALL
USER_CHARGES


@<TRIPOS>ATOM
  1 S       -0.6980    -0.3300     1.3990 S.2   1 <1>  -0.6770 
  2 P        0.8210    -1.3070     0.7120 P.3   1 <1>   0.8160 
  3 C        2.1200    -0.2850     0.0510 C.ar  1 <1>  -0.1390 
  4 C        1.5660    -2.3150     1.9500 C.3   1 <1>  -0.2400 
  5 C        0.3650    -2.4060    -0.5860 C.3   1 <1>  -0.2400 
  6 C        3.3160    -0.8220    -0.4200 C.ar  1 <1>  -0.1500 
  7 C        1.9760     1.0970    -0.0300 C.ar  1 <1>  -0.1500 
  8 C        4.3230    -0.0240    -0.9350 C.ar  1 <1>  -0.1500 
  9 C        2.9710     1.9100    -0.5450 C.ar  1 <1>  -0.1500 
 10 C        4.1560     1.3470    -0.9890 C.ar  1 <1>   0.0830 
 11 O        5.1550     2.1090    -1.4940 O.3   1 <1>  -0.2320 
 12 C        5.6600     3.1910    -0.9060 C.2   1 <1>   0.6590 
 13 O        6.1650     4.0640    -1.5560 O.2   1 <1>  -0.5700 
 14 C        5.6410     3.2770     0.6070 C.3   1 <1>  -0.1790 
 15 H        1.9450    -1.7160     2.7580 H     1 <1>   0.0800 
 16 H        2.3840    -2.8960     1.5700 H     1 <1>   0.0800 
 17 H        0.8550    -2.9990     2.3740 H     1 <1>   0.0800 
 18 H       -0.0470    -1.8670    -1.4190 H     1 <1>   0.0800 
 19 H       -0.3830    -3.1040    -0.2610 H     1 <1>   0.0800 
 20 H        1.2000    -2.9730    -0.9520 H     1 <1>   0.0800 
 21 H        3.4760    -1.8850    -0.3910 H     1 <1>   0.1500 
 22 H        1.0630     1.5560     0.3130 H     1 <1>   0.1500 
 23 H        5.2370    -0.4610    -1.2970 H     1 <1>   0.1500 
 24 H        2.8140     2.9720    -0.6060 H     1 <1>   0.1500 
 25 H        5.9030     2.3280     1.0340 H     1 <1>   0.0800 
 26 H        4.6670     3.5700     0.9490 H     1 <1>   0.0800 
 27 H        6.3550     4.0120     0.9310 H     1 <1>   0.0800 
@<TRIPOS>BOND
  1   1   2  2   
  2   2   3  1   
  3   2   4  1   
  4   2   5  1   
  5   3   6  ar  
  6   3   7  ar  
  7   4  15  1   
  8   4  16  1   
  9   4  17  1   
 10   5  18  1   
 11   5  19  1   
 12   5  20  1   
 13   6   8  ar  
 14   6  21  1   
 15   7   9  ar  
 16   7  22  1   
 17   8  10  ar  
 18   8  23  1   
 19   9  10  ar  
 20   9  24  1   
 21  10  11  1   
 22  11  12  1   
 23  12  13  2   
 24  12  14  1   
 25  14  25  1   
 26  14  26  1   
 27  14  27  1   
@<TRIPOS>SUBSTRUCTURE
  1 ****   7 GROUP 4 **** **** 0

# MOE 2024.06 (io_trps.svl 2023.06)
