@<TRIPOS>MOLECULE
NONAME
49 50 1 0 0 
SMALL
USER_CHARGES


@<TRIPOS>ATOM
  1 O       -0.0250    -0.0810     0.9800 O.2   1 <1>  -0.5700 
  2 C       -0.0570    -1.0290     0.2210 C.2   1 <1>   0.6900 
  3 N        1.0680    -1.6380    -0.2490 N.am  1 <1>  -0.5470 
  4 N       -1.2560    -1.5140    -0.1880 N.am  1 <1>  -0.7300 
  5 C        2.4220    -1.2950    -0.1230 C.ar  1 <1>   0.1170 
  6 C       -2.5370    -0.9700     0.2810 C.3   1 <1>   0.2200 
  7 C        3.3790    -2.2920    -0.2820 C.ar  1 <1>  -0.1500 
  8 C        2.8570     0.0010     0.1320 C.ar  1 <1>  -0.1500 
  9 C       -3.6060    -2.0580     0.2600 C.3   1 <1>  -0.1600 
 10 C       -2.9440     0.2050    -0.6050 C.3   1 <1>  -0.1600 
 11 C        4.7310    -2.0110    -0.1860 C.ar  1 <1>  -0.1430 
 12 C        4.2050     0.2970     0.2320 C.ar  1 <1>  -0.1430 
 13 C       -4.9530    -1.4780     0.6880 C.3   1 <1>   0.3430 
 14 C       -4.2930     0.7560    -0.1590 C.3   1 <1>   0.3430 
 15 C        5.1390    -0.7120     0.0710 C.ar  1 <1>  -0.1500 
 16 C        5.7700    -3.1040    -0.3590 C.3   1 <1>  -0.0970 
 17 C        4.6600     1.7180     0.5140 C.3   1 <1>  -0.0970 
 18 N       -5.3220    -0.3270    -0.1950 N.4   1 <1>  -0.9590 
 19 C       -6.6600     0.2320     0.1480 C.3   1 <1>   0.3430 
 20 C       -7.7700    -0.7340    -0.2730 C.3   1 <1>  -0.1600 
 21 C       -9.1520    -0.1150    -0.0320 C.3   1 <1>  -0.2400 
 22 H        0.9050    -2.5460    -0.6670 H     1 <1>   0.3700 
 23 H       -1.2800    -2.1590    -0.9740 H     1 <1>   0.3700 
 24 H       -2.4140    -0.6200     1.2950 H     1 <1>   0.0800 
 25 H        3.0610    -3.2980    -0.4790 H     1 <1>   0.1500 
 26 H        2.1360     0.7880     0.2490 H     1 <1>   0.1500 
 27 H       -3.3300    -2.8380     0.9480 H     1 <1>   0.0800 
 28 H       -3.6950    -2.4860    -0.7220 H     1 <1>   0.0800 
 29 H       -2.9940    -0.0930    -1.6370 H     1 <1>   0.0800 
 30 H       -2.2070     0.9850    -0.5150 H     1 <1>   0.0800 
 31 H       -4.8920    -1.1450     1.7120 H     1 <1>   0.0800 
 32 H       -5.7050    -2.2490     0.6290 H     1 <1>   0.0800 
 33 H       -4.5830     1.5650    -0.8120 H     1 <1>   0.0800 
 34 H       -4.2070     1.1460     0.8430 H     1 <1>   0.0800 
 35 H        6.1880    -0.4870     0.1450 H     1 <1>   0.1500 
 36 H        5.3060    -4.0700    -0.4300 H     1 <1>   0.0800 
 37 H        6.4390    -3.1080     0.4830 H     1 <1>   0.0800 
 38 H        6.3380    -2.9270    -1.2540 H     1 <1>   0.0800 
 39 H        3.8790     2.2750     1.0000 H     1 <1>   0.0800 
 40 H        4.9140     2.2080    -0.4080 H     1 <1>   0.0800 
 41 H        5.5220     1.7130     1.1570 H     1 <1>   0.0800 
 42 H       -5.3730    -0.6720    -1.1630 H     1 <1>   0.4500 
 43 H       -6.8050     1.1660    -0.3730 H     1 <1>   0.0800 
 44 H       -6.7240     0.4270     1.2070 H     1 <1>   0.0800 
 45 H       -7.7100    -1.6480     0.2910 H     1 <1>   0.0800 
 46 H       -7.6780    -0.9640    -1.3200 H     1 <1>   0.0800 
 47 H       -9.2960     0.1100     1.0110 H     1 <1>   0.0800 
 48 H       -9.9220    -0.8050    -0.3350 H     1 <1>   0.0800 
 49 H       -9.2720     0.7900    -0.6030 H     1 <1>   0.0800 
@<TRIPOS>BOND
  1   1   2  2   
  2   2   3  am  
  3   2   4  am  
  4   3   5  1   
  5   3  22  1   
  6   4   6  1   
  7   4  23  1   
  8   5   7  ar  
  9   5   8  ar  
 10   6   9  1   
 11   6  10  1   
 12   6  24  1   
 13   7  11  ar  
 14   7  25  1   
 15   8  12  ar  
 16   8  26  1   
 17   9  13  1   
 18   9  27  1   
 19   9  28  1   
 20  10  14  1   
 21  10  29  1   
 22  10  30  1   
 23  11  15  ar  
 24  11  16  1   
 25  12  15  ar  
 26  12  17  1   
 27  13  18  1   
 28  13  31  1   
 29  13  32  1   
 30  14  18  1   
 31  14  33  1   
 32  14  34  1   
 33  15  35  1   
 34  16  36  1   
 35  16  37  1   
 36  16  38  1   
 37  17  39  1   
 38  17  40  1   
 39  17  41  1   
 40  18  19  1   
 41  18  42  1   
 42  19  20  1   
 43  19  43  1   
 44  19  44  1   
 45  20  21  1   
 46  20  45  1   
 47  20  46  1   
 48  21  47  1   
 49  21  48  1   
 50  21  49  1   
@<TRIPOS>SUBSTRUCTURE
  1 ****   2 GROUP 4 **** **** 0

# MOE 2024.06 (io_trps.svl 2023.06)
