@<TRIPOS>MOLECULE
NONAME
41 42 1 0 0 
SMALL
USER_CHARGES


@<TRIPOS>ATOM
  1 O       -0.1780    -2.1130     1.5070 O.2   1 <1>  -0.5700 
  2 C        0.1200    -2.3010     0.3570 C.2   1 <1>   0.5690 
  3 N       -0.8220    -2.2660    -0.6010 N.am  1 <1>  -0.8000 
  4 C        1.5780    -2.5780     0.0030 C.3   1 <1>  -0.0190 
  5 C        2.0680    -3.8630     0.6990 C.3   1 <1>  -0.1600 
  6 C        2.4660    -1.3810     0.3980 C.3   1 <1>  -0.1600 
  7 C        3.5630    -4.0970     0.4990 C.3   1 <1>   0.3430 
  8 C        3.9520    -1.6720     0.2040 C.3   1 <1>   0.3430 
  9 N        4.3190    -2.8990     0.9660 N.4   1 <1>  -0.9590 
 10 C        5.8010    -3.1590     1.0140 C.3   1 <1>   0.3430 
 11 C        6.4900    -3.3380    -0.3560 C.3   1 <1>   0.0630 
 12 C        7.6060    -4.3610    -0.1910 C.ar  1 <1>  -0.1440 
 13 C        7.0590    -2.0260    -0.9240 C.3   1 <1>  -0.2400 
 14 C        7.5600    -5.5540    -0.8990 C.ar  1 <1>  -0.1500 
 15 C        8.6710    -4.1290     0.6700 C.ar  1 <1>  -0.1500 
 16 C        8.5560    -6.5020    -0.7430 C.ar  1 <1>  -0.1500 
 17 C        9.6670    -5.0780     0.8260 C.ar  1 <1>  -0.1500 
 18 C        9.6090    -6.2660     0.1210 C.ar  1 <1>  -0.1500 
 19 H       -1.7900    -2.0780    -0.3300 H     1 <1>   0.3700 
 20 H       -0.6630    -2.4130    -1.5980 H     1 <1>   0.3700 
 21 H        1.6480    -2.7180    -1.0610 H     1 <1>   0.0800 
 22 H        1.5240    -4.7070     0.3120 H     1 <1>   0.0800 
 23 H        1.8610    -3.8110     1.7550 H     1 <1>   0.0800 
 24 H        2.2930    -1.1190     1.4280 H     1 <1>   0.0800 
 25 H        2.1940    -0.5250    -0.1960 H     1 <1>   0.0800 
 26 H        3.7650    -4.2780    -0.5440 H     1 <1>   0.0800 
 27 H        3.8670    -4.9680     1.0590 H     1 <1>   0.0800 
 28 H        4.5320    -0.8320     0.5520 H     1 <1>   0.0800 
 29 H        4.1570    -1.8170    -0.8450 H     1 <1>   0.0800 
 30 H        4.0120    -2.7340     1.9360 H     1 <1>   0.4500 
 31 H        5.9670    -4.0600     1.5830 H     1 <1>   0.0800 
 32 H        6.2940    -2.3600     1.5430 H     1 <1>   0.0800 
 33 H        5.7860    -3.7320    -1.0650 H     1 <1>   0.0800 
 34 H        7.7300    -1.5600    -0.2250 H     1 <1>   0.0800 
 35 H        6.2820    -1.3280    -1.1720 H     1 <1>   0.0800 
 36 H        7.6120    -2.2360    -1.8240 H     1 <1>   0.0800 
 37 H        6.7560    -5.7630    -1.5830 H     1 <1>   0.1500 
 38 H        8.7480    -3.2120     1.2270 H     1 <1>   0.1500 
 39 H        8.5160    -7.4250    -1.2960 H     1 <1>   0.1500 
 40 H       10.4910    -4.8930     1.4940 H     1 <1>   0.1500 
 41 H       10.3850    -7.0030     0.2410 H     1 <1>   0.1500 
@<TRIPOS>BOND
  1   1   2  2   
  2   2   3  am  
  3   2   4  1   
  4   3  19  1   
  5   3  20  1   
  6   4   5  1   
  7   4   6  1   
  8   4  21  1   
  9   5   7  1   
 10   5  22  1   
 11   5  23  1   
 12   6   8  1   
 13   6  24  1   
 14   6  25  1   
 15   7   9  1   
 16   7  26  1   
 17   7  27  1   
 18   8   9  1   
 19   8  28  1   
 20   8  29  1   
 21   9  10  1   
 22   9  30  1   
 23  10  11  1   
 24  10  31  1   
 25  10  32  1   
 26  11  12  1   
 27  11  13  1   
 28  11  33  1   
 29  12  14  ar  
 30  12  15  ar  
 31  13  34  1   
 32  13  35  1   
 33  13  36  1   
 34  14  16  ar  
 35  14  37  1   
 36  15  17  ar  
 37  15  38  1   
 38  16  18  ar  
 39  16  39  1   
 40  17  18  ar  
 41  17  40  1   
 42  18  41  1   
@<TRIPOS>SUBSTRUCTURE
  1 ****   9 GROUP 4 **** **** 0

# MOE 2024.06 (io_trps.svl 2023.06)
