@<TRIPOS>MOLECULE
NONAME
56 58 1 0 0 
SMALL
USER_CHARGES


@<TRIPOS>ATOM
  1 S       -0.0270     0.0260     1.1650 S.3   1 <1>  -0.0800 
  2 C        0.8360     1.3510     0.3900 C.2   1 <1>   0.1040 
  3 C       -1.5750     0.7060     0.7100 C.2   1 <1>  -0.1400 
  4 N        2.2260     1.3390     0.3470 N.am  1 <1>  -0.4940 
  5 C       -0.0430     2.2530    -0.1480 C.2   1 <1>  -0.0860 
  6 C       -1.4170     1.8570     0.0450 C.2   1 <1>  -0.1810 
  7 C       -2.8600     0.0000     1.0760 C.3   1 <1>   0.0200 
  8 C        3.1570     0.6280     1.0610 C.2   1 <1>   0.5690 
  9 C        0.3440     3.4640    -0.8170 C.2   1 <1>   0.7160 
 10 C       -2.6250     2.6400    -0.4490 C.3   1 <1>   0.0210 
 11 C       -4.0300     0.6050     0.2690 C.3   1 <1>  -0.0800 
 12 O        2.8890    -0.0220     2.0400 O.2   1 <1>  -0.5700 
 13 C        4.6080     0.7110     0.5790 C.3   1 <1>  -0.0190 
 14 O       -0.2170     3.8910    -1.8040 O.2   1 <1>  -0.5700 
 15 N        1.3750     4.2060    -0.3550 N.am  1 <1>  -0.8000 
 16 C       -3.9260     2.1490     0.2210 C.3   1 <1>  -0.1600 
 17 C       -5.3700     0.1150     0.8520 C.3   1 <1>  -0.1600 
 18 C        4.8170    -0.1430    -0.6870 C.3   1 <1>  -0.1600 
 19 C        5.6280     0.2950     1.6600 C.3   1 <1>  -0.1600 
 20 C       -6.5840     0.4560    -0.0270 C.3   1 <1>  -0.1600 
 21 C        6.2630    -0.0750    -1.1870 C.3   1 <1>   0.1400 
 22 C        7.0660     0.3630     1.1410 C.3   1 <1>   0.1400 
 23 C       -7.8610    -0.1760     0.5340 C.3   1 <1>  -0.2400 
 24 N        7.1900    -0.4670    -0.0890 N.am  1 <1>  -0.6600 
 25 C        8.0500    -1.5250    -0.2430 C.2   1 <1>   0.5690 
 26 O        8.1320    -2.1450    -1.2760 O.2   1 <1>  -0.5700 
 27 C        8.9470    -1.9640     0.8920 C.3   1 <1>  -0.1790 
 28 H        2.6230     1.9520    -0.3640 H     1 <1>   0.3700 
 29 H       -3.0260     0.1200     2.1320 H     1 <1>   0.0800 
 30 H       -2.7710    -1.0510     0.8610 H     1 <1>   0.0800 
 31 H       -2.6980     2.5180    -1.5160 H     1 <1>   0.0800 
 32 H       -2.4960     3.6870    -0.2420 H     1 <1>   0.0800 
 33 H       -3.9460     0.2380    -0.7410 H     1 <1>   0.0800 
 34 H        4.8050     1.7370     0.3280 H     1 <1>   0.0800 
 35 H        1.5100     5.1210    -0.7860 H     1 <1>   0.3700 
 36 H        1.6500     4.1310     0.6250 H     1 <1>   0.3700 
 37 H       -4.7550     2.5700    -0.3180 H     1 <1>   0.0800 
 38 H       -3.9610     2.5310     1.2270 H     1 <1>   0.0800 
 39 H       -5.5110     0.5350     1.8340 H     1 <1>   0.0800 
 40 H       -5.3240    -0.9550     0.9600 H     1 <1>   0.0800 
 41 H        4.1620     0.1890    -1.4720 H     1 <1>   0.0800 
 42 H        4.5740    -1.1700    -0.4750 H     1 <1>   0.0800 
 43 H        5.4270    -0.7120     1.9840 H     1 <1>   0.0800 
 44 H        5.5280     0.9370     2.5180 H     1 <1>   0.0800 
 45 H       -6.4200     0.0930    -1.0280 H     1 <1>   0.0800 
 46 H       -6.7220     1.5220    -0.0760 H     1 <1>   0.0800 
 47 H        6.5020     0.9250    -1.5050 H     1 <1>   0.0800 
 48 H        6.3780    -0.7280    -2.0360 H     1 <1>   0.0800 
 49 H        7.7390     0.0290     1.9100 H     1 <1>   0.0800 
 50 H        7.3210     1.3810     0.9000 H     1 <1>   0.0800 
 51 H       -7.7700    -1.2470     0.5650 H     1 <1>   0.0800 
 52 H       -8.7000     0.0770    -0.0900 H     1 <1>   0.0800 
 53 H       -8.0540     0.1850     1.5290 H     1 <1>   0.0800 
 54 H        9.6200    -1.1700     1.1530 H     1 <1>   0.0800 
 55 H        9.5220    -2.8180     0.5880 H     1 <1>   0.0800 
 56 H        8.3510    -2.2360     1.7420 H     1 <1>   0.0800 
@<TRIPOS>BOND
  1   1   2  1   
  2   1   3  1   
  3   2   4  1   
  4   2   5  2   
  5   3   6  2   
  6   3   7  1   
  7   4   8  am  
  8   4  28  1   
  9   5   6  1   
 10   5   9  1   
 11   6  10  1   
 12   7  11  1   
 13   7  29  1   
 14   7  30  1   
 15   8  12  2   
 16   8  13  1   
 17   9  14  2   
 18   9  15  am  
 19  10  16  1   
 20  10  31  1   
 21  10  32  1   
 22  11  16  1   
 23  11  17  1   
 24  11  33  1   
 25  13  18  1   
 26  13  19  1   
 27  13  34  1   
 28  15  35  1   
 29  15  36  1   
 30  16  37  1   
 31  16  38  1   
 32  17  20  1   
 33  17  39  1   
 34  17  40  1   
 35  18  21  1   
 36  18  41  1   
 37  18  42  1   
 38  19  22  1   
 39  19  43  1   
 40  19  44  1   
 41  20  23  1   
 42  20  45  1   
 43  20  46  1   
 44  21  24  1   
 45  21  47  1   
 46  21  48  1   
 47  22  24  1   
 48  22  49  1   
 49  22  50  1   
 50  23  51  1   
 51  23  52  1   
 52  23  53  1   
 53  24  25  am  
 54  25  26  2   
 55  25  27  1   
 56  27  54  1   
 57  27  55  1   
 58  27  56  1   
@<TRIPOS>SUBSTRUCTURE
  1 ****   2 GROUP 4 **** **** 0

# MOE 2024.06 (io_trps.svl 2023.06)
