@<TRIPOS>MOLECULE
NONAME
56 58 1 0 0 
SMALL
USER_CHARGES


@<TRIPOS>ATOM
  1 O       -0.0010    -0.2360    -0.2140 O.2   1 <1>  -0.5700 
  2 C       -0.2290    -1.4210    -0.0700 C.2   1 <1>   0.6340 
  3 O        0.8030    -2.2530     0.1170 O.3   1 <1>  -0.4300 
  4 C       -1.5630    -1.9820    -0.0970 C.ar  1 <1>   0.0860 
  5 C        2.1370    -1.7870     0.1600 C.3   1 <1>   0.0400 
  6 C       -2.6860    -1.1610    -0.2150 C.ar  1 <1>  -0.1500 
  7 C       -1.7970    -3.3560    -0.0130 C.ar  1 <1>  -0.1500 
  8 C       -3.9760    -1.6580    -0.2480 C.ar  1 <1>   0.1170 
  9 C       -3.0770    -3.8740    -0.0410 C.ar  1 <1>  -0.1500 
 10 N       -5.0330    -0.7440    -0.4150 N.am  1 <1>  -0.5470 
 11 C       -4.1870    -3.0480    -0.1560 C.ar  1 <1>   0.1000 
 12 C       -5.9120    -0.2730     0.5250 C.2   1 <1>   0.5440 
 13 N       -5.4620    -3.6170    -0.1620 N.pl3 1 <1>  -0.8380 
 14 O       -5.8050    -0.6310     1.6830 O.2   1 <1>  -0.5700 
 15 C       -6.9570     0.6550     0.1330 C.ar  1 <1>   0.0860 
 16 C       -5.8670    -4.6080    -1.2010 C.3   1 <1>   0.2090 
 17 C       -6.2550    -3.5580     1.1060 C.3   1 <1>   0.2090 
 18 C       -7.4200     1.6280     1.0180 C.ar  1 <1>  -0.1500 
 19 C       -7.5420     0.6160    -1.1350 C.ar  1 <1>  -0.1500 
 20 C       -6.2240    -5.9780    -0.5820 C.3   1 <1>   0.3430 
 21 C       -6.6040    -4.9600     1.6410 C.3   1 <1>   0.3430 
 22 C       -8.4080     2.5250     0.6560 C.ar  1 <1>  -0.1500 
 23 C       -8.5300     1.5110    -1.5020 C.ar  1 <1>  -0.1500 
 24 N       -7.1810    -5.8640     0.5790 N.4   1 <1>  -0.9590 
 25 C       -8.9690     2.4750    -0.6090 C.ar  1 <1>  -0.1430 
 26 C       -7.5290    -7.2040     1.1380 C.3   1 <1>   0.2630 
 27 C      -10.0550     3.4600    -1.0100 C.3   1 <1>  -0.0170 
 28 C      -11.4380     2.9020    -0.6700 C.3   1 <1>  -0.2400 
 29 H        2.7870    -2.6280     0.3210 H     1 <1>   0.0800 
 30 H        2.2330    -1.0820     0.9680 H     1 <1>   0.0800 
 31 H        2.3690    -1.3110    -0.7770 H     1 <1>   0.0800 
 32 H       -2.5400    -0.0960    -0.2780 H     1 <1>   0.1500 
 33 H       -0.9600    -4.0280     0.0790 H     1 <1>   0.1500 
 34 H       -3.2140    -4.9350     0.0350 H     1 <1>   0.1500 
 35 H       -5.0630    -0.2770    -1.3190 H     1 <1>   0.3700 
 36 H       -5.0680    -4.7320    -1.9120 H     1 <1>   0.0800 
 37 H       -6.7180    -4.2220    -1.7350 H     1 <1>   0.0800 
 38 H       -7.1540    -2.9920     0.9360 H     1 <1>   0.0800 
 39 H       -5.6840    -3.0440     1.8610 H     1 <1>   0.0800 
 40 H       -6.9950     1.6780     2.0060 H     1 <1>   0.1500 
 41 H       -7.2300    -0.1290    -1.8450 H     1 <1>   0.1500 
 42 H       -5.3110    -6.4420    -0.2480 H     1 <1>   0.0800 
 43 H       -6.6490    -6.6050    -1.3490 H     1 <1>   0.0800 
 44 H       -7.3000    -4.8550     2.4560 H     1 <1>   0.0800 
 45 H       -5.7020    -5.3980     2.0340 H     1 <1>   0.0800 
 46 H       -8.7420     3.2640     1.3640 H     1 <1>   0.1500 
 47 H       -8.9630     1.4570    -2.4860 H     1 <1>   0.1500 
 48 H       -8.0370    -5.4090     0.2300 H     1 <1>   0.4500 
 49 H       -6.6450    -7.6950     1.5150 H     1 <1>   0.0800 
 50 H       -7.9700    -7.8260     0.3760 H     1 <1>   0.0800 
 51 H       -8.2350    -7.1010     1.9460 H     1 <1>   0.0800 
 52 H       -9.9950     3.6580    -2.0660 H     1 <1>   0.0800 
 53 H       -9.9070     4.3940    -0.4960 H     1 <1>   0.0800 
 54 H      -11.6040     1.9770    -1.1930 H     1 <1>   0.0800 
 55 H      -12.2020     3.6030    -0.9550 H     1 <1>   0.0800 
 56 H      -11.5140     2.7180     0.3870 H     1 <1>   0.0800 
@<TRIPOS>BOND
  1   1   2  2   
  2   2   3  1   
  3   2   4  1   
  4   3   5  1   
  5   4   6  ar  
  6   4   7  ar  
  7   5  29  1   
  8   5  30  1   
  9   5  31  1   
 10   6   8  ar  
 11   6  32  1   
 12   7   9  ar  
 13   7  33  1   
 14   8  10  1   
 15   8  11  ar  
 16   9  11  ar  
 17   9  34  1   
 18  10  12  am  
 19  10  35  1   
 20  11  13  1   
 21  12  14  2   
 22  12  15  1   
 23  13  16  1   
 24  13  17  1   
 25  15  18  ar  
 26  15  19  ar  
 27  16  20  1   
 28  16  36  1   
 29  16  37  1   
 30  17  21  1   
 31  17  38  1   
 32  17  39  1   
 33  18  22  ar  
 34  18  40  1   
 35  19  23  ar  
 36  19  41  1   
 37  20  24  1   
 38  20  42  1   
 39  20  43  1   
 40  21  24  1   
 41  21  44  1   
 42  21  45  1   
 43  22  25  ar  
 44  22  46  1   
 45  23  25  ar  
 46  23  47  1   
 47  24  26  1   
 48  24  48  1   
 49  25  27  1   
 50  26  49  1   
 51  26  50  1   
 52  26  51  1   
 53  27  28  1   
 54  27  52  1   
 55  27  53  1   
 56  28  54  1   
 57  28  55  1   
 58  28  56  1   
@<TRIPOS>SUBSTRUCTURE
  1 ****  10 GROUP 4 **** **** 0

# MOE 2024.06 (io_trps.svl 2023.06)
