@<TRIPOS>MOLECULE
NONAME
47 48 1 0 0 
SMALL
USER_CHARGES


@<TRIPOS>ATOM
  1 CL      -0.9460    -0.2120     1.2510 Cl    1 <1>  -0.1770 
  2 C       -1.9420     0.9870     0.4640 C.ar  1 <1>   0.1770 
  3 C       -1.5660     2.3190     0.4340 C.ar  1 <1>   0.1770 
  4 C       -3.1230     0.5770    -0.1290 C.ar  1 <1>  -0.1500 
  5 CL      -0.0790     2.8500     1.1820 Cl    1 <1>  -0.1770 
  6 C       -2.3710     3.2530    -0.1930 C.ar  1 <1>  -0.1500 
  7 C       -3.9430     1.5100    -0.7540 C.ar  1 <1>  -0.1440 
  8 C       -3.5570     2.8470    -0.7860 C.ar  1 <1>  -0.1500 
  9 C       -5.2480     1.0720    -1.3980 C.3   1 <1>   0.4870 
 10 N       -6.2360     0.7720    -0.3270 N.4   1 <1>  -0.9590 
 11 C       -7.4430     0.0950    -0.9040 C.3   1 <1>   0.3430 
 12 C       -6.6050     1.9990     0.4410 C.3   1 <1>   0.3430 
 13 C       -8.4510    -0.2960     0.1850 C.3   1 <1>  -0.0190 
 14 C       -7.5670     1.6320     1.5730 C.3   1 <1>  -0.1600 
 15 C       -9.6790    -0.8880    -0.4990 C.2   1 <1>   0.5690 
 16 C       -8.8240     0.9280     1.0440 C.3   1 <1>  -0.1600 
 17 O       -9.9220    -0.4750    -1.6100 O.2   1 <1>  -0.5700 
 18 N      -10.4600    -1.8380     0.1080 N.am  1 <1>  -0.6600 
 19 C      -10.2500    -2.3850     1.4770 C.3   1 <1>   0.1400 
 20 C      -11.6580    -2.3790    -0.5940 C.3   1 <1>   0.1400 
 21 C       -9.4190    -3.6640     1.3950 C.3   1 <1>  -0.2400 
 22 C      -12.8860    -1.5510    -0.2220 C.3   1 <1>  -0.2400 
 23 H       -3.3760    -0.4680    -0.0940 H     1 <1>   0.1500 
 24 H       -2.0640     4.2850    -0.2140 H     1 <1>   0.1500 
 25 H       -4.1690     3.5880    -1.2760 H     1 <1>   0.1500 
 26 H       -5.0690     0.1910    -1.9940 H     1 <1>   0.0800 
 27 H       -5.6230     1.8490    -2.0450 H     1 <1>   0.0800 
 28 H       -5.7820     0.1270     0.3310 H     1 <1>   0.4500 
 29 H       -7.1530    -0.7900    -1.4470 H     1 <1>   0.0800 
 30 H       -7.9310     0.7610    -1.5990 H     1 <1>   0.0800 
 31 H       -7.0800     2.7120    -0.2150 H     1 <1>   0.0800 
 32 H       -5.7210     2.4570     0.8580 H     1 <1>   0.0800 
 33 H       -7.9940    -1.0500     0.7970 H     1 <1>   0.0800 
 34 H       -7.8570     2.5320     2.0880 H     1 <1>   0.0800 
 35 H       -7.0610     1.0050     2.2860 H     1 <1>   0.0800 
 36 H       -9.4480     0.6260     1.8680 H     1 <1>   0.0800 
 37 H       -9.3960     1.6190     0.4450 H     1 <1>   0.0800 
 38 H      -11.2030    -2.6030     1.9300 H     1 <1>   0.0800 
 39 H       -9.7570    -1.6640     2.1030 H     1 <1>   0.0800 
 40 H      -11.8110    -3.4100    -0.3230 H     1 <1>   0.0800 
 41 H      -11.5090    -2.3400    -1.6610 H     1 <1>   0.0800 
 42 H       -9.9350    -4.4110     0.8190 H     1 <1>   0.0800 
 43 H       -9.2600    -4.0540     2.3840 H     1 <1>   0.0800 
 44 H       -8.4620    -3.4710     0.9470 H     1 <1>   0.0800 
 45 H      -13.0760    -1.6000     0.8350 H     1 <1>   0.0800 
 46 H      -13.7470    -1.9320    -0.7400 H     1 <1>   0.0800 
 47 H      -12.7420    -0.5260    -0.5140 H     1 <1>   0.0800 
@<TRIPOS>BOND
  1   1   2  1   
  2   2   3  ar  
  3   2   4  ar  
  4   3   5  1   
  5   3   6  ar  
  6   4   7  ar  
  7   4  23  1   
  8   6   8  ar  
  9   6  24  1   
 10   7   8  ar  
 11   7   9  1   
 12   8  25  1   
 13   9  10  1   
 14   9  26  1   
 15   9  27  1   
 16  10  11  1   
 17  10  12  1   
 18  10  28  1   
 19  11  13  1   
 20  11  29  1   
 21  11  30  1   
 22  12  14  1   
 23  12  31  1   
 24  12  32  1   
 25  13  15  1   
 26  13  16  1   
 27  13  33  1   
 28  14  16  1   
 29  14  34  1   
 30  14  35  1   
 31  15  17  2   
 32  15  18  am  
 33  16  36  1   
 34  16  37  1   
 35  18  19  1   
 36  18  20  1   
 37  19  21  1   
 38  19  38  1   
 39  19  39  1   
 40  20  22  1   
 41  20  40  1   
 42  20  41  1   
 43  21  42  1   
 44  21  43  1   
 45  21  44  1   
 46  22  45  1   
 47  22  46  1   
 48  22  47  1   
@<TRIPOS>SUBSTRUCTURE
  1 ****  10 GROUP 4 **** **** 0

# MOE 2024.06 (io_trps.svl 2023.06)
