@<TRIPOS>MOLECULE
NONAME
53 55 1 0 0 
SMALL
USER_CHARGES


@<TRIPOS>ATOM
  1 O        0.0780    -0.1790    -0.5710 O.2   1 <1>  -0.5700 
  2 C        0.0060    -1.3780    -0.3840 C.2   1 <1>   0.6340 
  3 O        1.1370    -2.0680    -0.1990 O.3   1 <1>  -0.4300 
  4 C       -1.2480    -2.1010    -0.3550 C.ar  1 <1>   0.0860 
  5 C        2.4030    -1.4380    -0.2110 C.3   1 <1>   0.0400 
  6 C       -2.4680    -1.4320    -0.4700 C.ar  1 <1>  -0.1500 
  7 C       -1.3080    -3.4870    -0.2150 C.ar  1 <1>  -0.1500 
  8 C       -3.6930    -2.0790    -0.4500 C.ar  1 <1>   0.1170 
  9 C       -2.5160    -4.1550    -0.1980 C.ar  1 <1>  -0.1500 
 10 N       -4.8320    -1.2580    -0.5850 N.am  1 <1>  -0.5470 
 11 C       -3.7270    -3.4850    -0.3160 C.ar  1 <1>   0.1000 
 12 C       -5.8840    -1.0850     0.2770 C.2   1 <1>   0.5440 
 13 N       -4.8850    -4.2700    -0.2960 N.pl3 1 <1>  -0.8380 
 14 O       -5.9540    -1.7500     1.2940 O.2   1 <1>  -0.5700 
 15 C       -6.9370    -0.1420    -0.0490 C.ar  1 <1>   0.0860 
 16 C       -5.9280    -4.1860    -1.3690 C.3   1 <1>   0.2090 
 17 C       -5.1970    -5.0590     0.9420 C.3   1 <1>   0.2090 
 18 C       -7.6790     0.4740     0.9590 C.ar  1 <1>  -0.1500 
 19 C       -7.2690     0.1720    -1.3690 C.ar  1 <1>  -0.1500 
 20 C       -7.3590    -3.9400    -0.8220 C.3   1 <1>   0.3430 
 21 C       -6.7120    -5.1900     1.2140 C.3   1 <1>   0.3430 
 22 C       -8.7030     1.3560     0.6670 C.ar  1 <1>  -0.1500 
 23 C       -8.2920     1.0540    -1.6640 C.ar  1 <1>  -0.1500 
 24 N       -7.4510    -4.0060     0.6780 N.4   1 <1>  -0.9590 
 25 C       -9.0180     1.6500    -0.6480 C.ar  1 <1>  -0.1430 
 26 C       -8.8370    -3.8600     1.2010 C.3   1 <1>   0.2630 
 27 C      -10.1390     2.6220    -0.9700 C.3   1 <1>  -0.0970 
 28 H        3.1580    -2.1850    -0.0410 H     1 <1>   0.0800 
 29 H        2.4300    -0.6970     0.5700 H     1 <1>   0.0800 
 30 H        2.5510    -0.9720    -1.1700 H     1 <1>   0.0800 
 31 H       -2.4450    -0.3610    -0.5710 H     1 <1>   0.1500 
 32 H       -0.3960    -4.0510    -0.1220 H     1 <1>   0.1500 
 33 H       -2.5210    -5.2250    -0.1010 H     1 <1>   0.1500 
 34 H       -4.7100    -0.4950    -1.2510 H     1 <1>   0.3700 
 35 H       -5.9220    -5.1110    -1.9190 H     1 <1>   0.0800 
 36 H       -5.6710    -3.4080    -2.0650 H     1 <1>   0.0800 
 37 H       -4.7390    -4.5670     1.7840 H     1 <1>   0.0800 
 38 H       -4.7610    -6.0400     0.8640 H     1 <1>   0.0800 
 39 H       -7.4460     0.2630     1.9890 H     1 <1>   0.1500 
 40 H       -6.7300    -0.2760    -2.1850 H     1 <1>   0.1500 
 41 H       -8.0210    -4.6670    -1.2600 H     1 <1>   0.0800 
 42 H       -7.6850    -2.9680    -1.1520 H     1 <1>   0.0800 
 43 H       -6.8670    -5.2780     2.2770 H     1 <1>   0.0800 
 44 H       -7.0790    -6.0880     0.7480 H     1 <1>   0.0800 
 45 H       -9.2540     1.8190     1.4690 H     1 <1>   0.1500 
 46 H       -8.5240     1.2810    -2.6910 H     1 <1>   0.1500 
 47 H       -6.8740    -3.1970     1.0070 H     1 <1>   0.4500 
 48 H       -9.4490    -4.6870     0.8810 H     1 <1>   0.0800 
 49 H       -9.2740    -2.9420     0.8420 H     1 <1>   0.0800 
 50 H       -8.8240    -3.8320     2.2790 H     1 <1>   0.0800 
 51 H      -10.8930     2.5980    -0.2040 H     1 <1>   0.0800 
 52 H      -10.6020     2.3680    -1.9070 H     1 <1>   0.0800 
 53 H       -9.7470     3.6210    -1.0370 H     1 <1>   0.0800 
@<TRIPOS>BOND
  1   1   2  2   
  2   2   3  1   
  3   2   4  1   
  4   3   5  1   
  5   4   6  ar  
  6   4   7  ar  
  7   5  28  1   
  8   5  29  1   
  9   5  30  1   
 10   6   8  ar  
 11   6  31  1   
 12   7   9  ar  
 13   7  32  1   
 14   8  10  1   
 15   8  11  ar  
 16   9  11  ar  
 17   9  33  1   
 18  10  12  am  
 19  10  34  1   
 20  11  13  1   
 21  12  14  2   
 22  12  15  1   
 23  13  16  1   
 24  13  17  1   
 25  15  18  ar  
 26  15  19  ar  
 27  16  20  1   
 28  16  35  1   
 29  16  36  1   
 30  17  21  1   
 31  17  37  1   
 32  17  38  1   
 33  18  22  ar  
 34  18  39  1   
 35  19  23  ar  
 36  19  40  1   
 37  20  24  1   
 38  20  41  1   
 39  20  42  1   
 40  21  24  1   
 41  21  43  1   
 42  21  44  1   
 43  22  25  ar  
 44  22  45  1   
 45  23  25  ar  
 46  23  46  1   
 47  24  26  1   
 48  24  47  1   
 49  25  27  1   
 50  26  48  1   
 51  26  49  1   
 52  26  50  1   
 53  27  51  1   
 54  27  52  1   
 55  27  53  1   
@<TRIPOS>SUBSTRUCTURE
  1 ****  10 GROUP 4 **** **** 0

# MOE 2024.06 (io_trps.svl 2023.06)
