@<TRIPOS>MOLECULE
NONAME
51 52 1 0 0 
SMALL
USER_CHARGES


@<TRIPOS>ATOM
  1 S        0.4010    -0.3510    -1.3130 S.o2  1 <1>   1.4470 
  2 O        0.9500    -0.7250    -2.5990 O.2   1 <1>  -0.6500 
  3 O        0.3270     1.0500    -0.9560 O.2   1 <1>  -0.6500 
  4 N        1.3730    -1.0930    -0.1400 N.am  1 <1>  -0.8490 
  5 C       -1.2170    -1.1300    -1.0620 C.ar  1 <1>  -0.0090 
  6 C        1.6070    -2.5220    -0.4300 C.3   1 <1>   0.1960 
  7 C        2.6640    -0.3950    -0.0060 C.3   1 <1>   0.1960 
  8 C       -1.8840    -1.0100     0.1500 C.ar  1 <1>  -0.1500 
  9 C       -1.8240    -1.8770    -2.0620 C.ar  1 <1>  -0.1500 
 10 C        2.4260    -3.1930     0.6840 C.3   1 <1>   0.1400 
 11 C        3.5380    -1.0070     1.1040 C.3   1 <1>   0.1400 
 12 C       -3.1130    -1.6110     0.3730 C.ar  1 <1>  -0.1440 
 13 C       -3.0500    -2.4830    -1.8560 C.ar  1 <1>  -0.1500 
 14 N        3.7180    -2.4750     0.8920 N.am  1 <1>  -0.6600 
 15 C       -3.7020    -2.3560    -0.6410 C.ar  1 <1>  -0.1430 
 16 C       -3.7880    -1.4350     1.7260 C.3   1 <1>  -0.0970 
 17 C        4.8950    -3.0220     0.4640 C.2   1 <1>   0.6900 
 18 C       -5.0510    -3.0360    -0.4500 C.3   1 <1>  -0.0970 
 19 O        4.9020    -3.9960    -0.2660 O.2   1 <1>  -0.5700 
 20 N        6.0620    -2.4710     0.8740 N.am  1 <1>  -0.7300 
 21 C        7.4030    -2.9540     0.4910 C.3   1 <1>   0.1400 
 22 C        8.3450    -1.7570     0.3590 C.3   1 <1>  -0.1600 
 23 C        9.7530    -2.2040    -0.0550 C.3   1 <1>  -0.1600 
 24 C       10.6940    -1.0040    -0.1890 C.3   1 <1>  -0.2400 
 25 H        2.1350    -2.6330    -1.3640 H     1 <1>   0.0800 
 26 H        0.6640    -3.0340    -0.5180 H     1 <1>   0.0800 
 27 H        2.4900     0.6410     0.2310 H     1 <1>   0.0800 
 28 H        3.1990    -0.4340    -0.9410 H     1 <1>   0.0800 
 29 H       -1.4210    -0.4300     0.9300 H     1 <1>   0.1500 
 30 H       -1.3330    -1.9860    -3.0150 H     1 <1>   0.1500 
 31 H        2.6040    -4.2230     0.4270 H     1 <1>   0.0800 
 32 H        1.8610    -3.1770     1.5990 H     1 <1>   0.0800 
 33 H        3.0650    -0.8440     2.0570 H     1 <1>   0.0800 
 34 H        4.4880    -0.5030     1.1120 H     1 <1>   0.0800 
 35 H       -3.4930    -3.0540    -2.6530 H     1 <1>   0.1500 
 36 H       -3.1890    -0.8280     2.3820 H     1 <1>   0.0800 
 37 H       -3.9350    -2.3920     2.1930 H     1 <1>   0.0800 
 38 H       -4.7410    -0.9540     1.6020 H     1 <1>   0.0800 
 39 H       -5.8050    -2.3010    -0.2310 H     1 <1>   0.0800 
 40 H       -4.9990    -3.7380     0.3620 H     1 <1>   0.0800 
 41 H       -5.3460    -3.5660    -1.3370 H     1 <1>   0.0800 
 42 H        6.0190    -1.8610     1.6850 H     1 <1>   0.3700 
 43 H        7.3450    -3.4810    -0.4480 H     1 <1>   0.0800 
 44 H        7.7640    -3.6350     1.2430 H     1 <1>   0.0800 
 45 H        8.3990    -1.2400     1.3010 H     1 <1>   0.0800 
 46 H        7.9540    -1.0850    -0.3850 H     1 <1>   0.0800 
 47 H        9.7040    -2.7220    -0.9980 H     1 <1>   0.0800 
 48 H       10.1490    -2.8850     0.6800 H     1 <1>   0.0800 
 49 H       10.3290    -0.3200    -0.9350 H     1 <1>   0.0800 
 50 H       11.6740    -1.3370    -0.4830 H     1 <1>   0.0800 
 51 H       10.7780    -0.4830     0.7490 H     1 <1>   0.0800 
@<TRIPOS>BOND
  1   1   2  2   
  2   1   3  2   
  3   1   4  am  
  4   1   5  1   
  5   4   6  1   
  6   4   7  1   
  7   5   8  ar  
  8   5   9  ar  
  9   6  10  1   
 10   6  25  1   
 11   6  26  1   
 12   7  11  1   
 13   7  27  1   
 14   7  28  1   
 15   8  12  ar  
 16   8  29  1   
 17   9  13  ar  
 18   9  30  1   
 19  10  14  1   
 20  10  31  1   
 21  10  32  1   
 22  11  14  1   
 23  11  33  1   
 24  11  34  1   
 25  12  15  ar  
 26  12  16  1   
 27  13  15  ar  
 28  13  35  1   
 29  14  17  am  
 30  15  18  1   
 31  16  36  1   
 32  16  37  1   
 33  16  38  1   
 34  17  19  2   
 35  17  20  am  
 36  18  39  1   
 37  18  40  1   
 38  18  41  1   
 39  20  21  1   
 40  20  42  1   
 41  21  22  1   
 42  21  43  1   
 43  21  44  1   
 44  22  23  1   
 45  22  45  1   
 46  22  46  1   
 47  23  24  1   
 48  23  47  1   
 49  23  48  1   
 50  24  49  1   
 51  24  50  1   
 52  24  51  1   
@<TRIPOS>SUBSTRUCTURE
  1 ****   6 GROUP 4 **** **** 0

# MOE 2024.06 (io_trps.svl 2023.06)
