@<TRIPOS>MOLECULE
NONAME
42 44 1 0 0 
SMALL
USER_CHARGES


@<TRIPOS>ATOM
  1 S       -0.2690     0.2190     1.2650 S.3   1 <1>  -0.0800 
  2 C       -1.9550    -0.0830     0.8270 C.2   1 <1>  -0.0450 
  3 C       -0.5140     1.9510     1.3190 C.2   1 <1>  -0.1100 
  4 C       -2.3970    -1.4410     0.6270 C.2   1 <1>   0.7150 
  5 C       -2.5990     1.1120     0.7470 C.2   1 <1>  -0.1500 
  6 C       -1.7900     2.2540     1.0230 C.2   1 <1>  -0.1500 
  7 O       -1.6380    -2.3850     0.7330 O.2   1 <1>  -0.5700 
  8 N       -3.7110    -1.6450     0.3110 N.am  1 <1>  -0.5470 
  9 C       -4.5130    -2.7580     0.0240 C.ar  1 <1>   0.1170 
 10 C       -5.8520    -2.4800    -0.2880 C.ar  1 <1>   0.1000 
 11 C       -4.0680    -4.0730     0.0320 C.ar  1 <1>  -0.1500 
 12 N       -6.3040    -1.1470    -0.2930 N.pl3 1 <1>  -0.8380 
 13 C       -6.7090    -3.5300    -0.5890 C.ar  1 <1>  -0.1500 
 14 C       -4.9360    -5.1090    -0.2690 C.ar  1 <1>  -0.1500 
 15 C       -7.3440    -0.8100     0.7240 C.3   1 <1>   0.2090 
 16 C       -6.6460    -0.5890    -1.6370 C.3   1 <1>   0.2090 
 17 C       -6.2560    -4.8380    -0.5800 C.ar  1 <1>  -0.1500 
 18 C       -7.5320     0.7150     0.8330 C.3   1 <1>   0.1400 
 19 C       -6.8180     0.9370    -1.5660 C.3   1 <1>   0.1400 
 20 N       -7.8040     1.3330    -0.5070 N.am  1 <1>  -0.6600 
 21 C       -8.8530     2.1630    -0.8000 C.2   1 <1>   0.5690 
 22 O       -9.0360     2.5940    -1.9120 O.2   1 <1>  -0.5700 
 23 C       -9.8320     2.5790     0.2730 C.3   1 <1>  -0.1790 
 24 H        0.3330     2.5650     1.5700 H     1 <1>   0.1500 
 25 H       -3.6380     1.2380     0.4970 H     1 <1>   0.1500 
 26 H       -2.1990     3.2490     0.9880 H     1 <1>   0.1500 
 27 H       -4.2850    -0.8030     0.2410 H     1 <1>   0.3700 
 28 H       -3.0450    -4.2980     0.2710 H     1 <1>   0.1500 
 29 H       -7.7340    -3.3240    -0.8340 H     1 <1>   0.1500 
 30 H       -4.5790    -6.1250    -0.2590 H     1 <1>   0.1500 
 31 H       -7.0480    -1.2050     1.6810 H     1 <1>   0.0800 
 32 H       -8.2810    -1.2640     0.4500 H     1 <1>   0.0800 
 33 H       -7.5590    -1.0320    -1.9950 H     1 <1>   0.0800 
 34 H       -5.8620    -0.8300    -2.3340 H     1 <1>   0.0800 
 35 H       -6.9300    -5.6440    -0.8150 H     1 <1>   0.1500 
 36 H       -6.6340     1.1460     1.2390 H     1 <1>   0.0800 
 37 H       -8.3320     0.9140     1.5210 H     1 <1>   0.0800 
 38 H       -7.1320     1.2960    -2.5310 H     1 <1>   0.0800 
 39 H       -5.8670     1.3880    -1.3450 H     1 <1>   0.0800 
 40 H      -10.3700     1.7210     0.6280 H     1 <1>   0.0800 
 41 H      -10.5360     3.2810    -0.1340 H     1 <1>   0.0800 
 42 H       -9.3100     3.0490     1.0850 H     1 <1>   0.0800 
@<TRIPOS>BOND
  1   1   2  1   
  2   1   3  1   
  3   2   4  1   
  4   2   5  2   
  5   3   6  2   
  6   3  24  1   
  7   4   7  2   
  8   4   8  am  
  9   5   6  1   
 10   5  25  1   
 11   6  26  1   
 12   8   9  1   
 13   8  27  1   
 14   9  10  ar  
 15   9  11  ar  
 16  10  12  1   
 17  10  13  ar  
 18  11  14  ar  
 19  11  28  1   
 20  12  15  1   
 21  12  16  1   
 22  13  17  ar  
 23  13  29  1   
 24  14  17  ar  
 25  14  30  1   
 26  15  18  1   
 27  15  31  1   
 28  15  32  1   
 29  16  19  1   
 30  16  33  1   
 31  16  34  1   
 32  17  35  1   
 33  18  20  1   
 34  18  36  1   
 35  18  37  1   
 36  19  20  1   
 37  19  38  1   
 38  19  39  1   
 39  20  21  am  
 40  21  22  2   
 41  21  23  1   
 42  23  40  1   
 43  23  41  1   
 44  23  42  1   
@<TRIPOS>SUBSTRUCTURE
  1 ****  12 GROUP 4 **** **** 0

# MOE 2024.06 (io_trps.svl 2023.06)
