@<TRIPOS>MOLECULE
NONAME
37 37 1 0 0 
SMALL
USER_CHARGES


@<TRIPOS>ATOM
  1 CL       0.0890    -0.6860    -0.8170 Cl    1 <1>  -0.1770 
  2 C       -1.0040     0.4930    -0.1140 C.ar  1 <1>   0.1770 
  3 C       -0.6030     1.7510     0.3690 C.ar  1 <1>   0.0830 
  4 C       -2.3330     0.1010    -0.0610 C.ar  1 <1>  -0.1500 
  5 O        0.6540     2.2760     0.3890 O.3   1 <1>  -0.3630 
  6 C       -1.5740     2.5890     0.8990 C.ar  1 <1>  -0.1500 
  7 C       -3.2890     0.9500     0.4710 C.ar  1 <1>  -0.1500 
  8 C        1.8020     1.6050    -0.0600 C.3   1 <1>   0.1200 
  9 C       -2.8950     2.1870     0.9450 C.ar  1 <1>   0.1770 
 10 C        2.9940     2.5320     0.1680 C.3   1 <1>  -0.1600 
 11 CL      -4.0930     3.2620     1.6160 Cl    1 <1>  -0.1770 
 12 C        4.2840     1.8660    -0.3060 C.3   1 <1>   0.3430 
 13 N        5.4670     2.7150     0.0170 N.4   1 <1>  -0.9590 
 14 C        5.5150     3.9550    -0.8090 C.3   1 <1>   0.3430 
 15 C        6.7160     1.9160    -0.1120 C.3   1 <1>   0.3430 
 16 C        5.3610     5.1550     0.1150 C.3   1 <1>  -0.2400 
 17 C        7.8580     2.6190     0.6130 C.3   1 <1>  -0.2400 
 18 H       -2.6170    -0.8660    -0.4370 H     1 <1>   0.1500 
 19 H       -1.3010     3.5580     1.2760 H     1 <1>   0.1500 
 20 H       -4.3240     0.6610     0.5190 H     1 <1>   0.1500 
 21 H        1.6780     1.3900    -1.1080 H     1 <1>   0.0800 
 22 H        1.9060     0.6970     0.5090 H     1 <1>   0.0800 
 23 H        3.0610     2.7480     1.2200 H     1 <1>   0.0800 
 24 H        2.8200     3.4420    -0.3780 H     1 <1>   0.0800 
 25 H        4.2360     1.6860    -1.3680 H     1 <1>   0.0800 
 26 H        4.3810     0.9140     0.1910 H     1 <1>   0.0800 
 27 H        5.3890     3.0050     1.0010 H     1 <1>   0.4500 
 28 H        4.7220     3.9530    -1.5400 H     1 <1>   0.0800 
 29 H        6.4550     4.0220    -1.3330 H     1 <1>   0.0800 
 30 H        6.9650     1.7750    -1.1520 H     1 <1>   0.0800 
 31 H        6.5720     0.9440     0.3340 H     1 <1>   0.0800 
 32 H        4.4160     5.1310     0.6290 H     1 <1>   0.0800 
 33 H        5.3950     6.0570    -0.4690 H     1 <1>   0.0800 
 34 H        6.1620     5.1950     0.8310 H     1 <1>   0.0800 
 35 H        8.1000     3.5590     0.1510 H     1 <1>   0.0800 
 36 H        8.7360     1.9990     0.5680 H     1 <1>   0.0800 
 37 H        7.6170     2.7740     1.6490 H     1 <1>   0.0800 
@<TRIPOS>BOND
  1   1   2  1   
  2   2   3  ar  
  3   2   4  ar  
  4   3   5  1   
  5   3   6  ar  
  6   4   7  ar  
  7   4  18  1   
  8   5   8  1   
  9   6   9  ar  
 10   6  19  1   
 11   7   9  ar  
 12   7  20  1   
 13   8  10  1   
 14   8  21  1   
 15   8  22  1   
 16   9  11  1   
 17  10  12  1   
 18  10  23  1   
 19  10  24  1   
 20  12  13  1   
 21  12  25  1   
 22  12  26  1   
 23  13  14  1   
 24  13  15  1   
 25  13  27  1   
 26  14  16  1   
 27  14  28  1   
 28  14  29  1   
 29  15  17  1   
 30  15  30  1   
 31  15  31  1   
 32  16  32  1   
 33  16  33  1   
 34  16  34  1   
 35  17  35  1   
 36  17  36  1   
 37  17  37  1   
@<TRIPOS>SUBSTRUCTURE
  1 ****   8 GROUP 4 **** **** 0

# MOE 2024.06 (io_trps.svl 2023.06)
