@<TRIPOS>MOLECULE
NONAME
37 38 1 0 0 
SMALL
USER_CHARGES


@<TRIPOS>ATOM
  1 CL      -0.1370    -1.0450     2.5410 Cl    1 <1>  -0.1770 
  2 C       -1.5110    -1.5010     1.5710 C.ar  1 <1>   0.1770 
  3 C       -2.3780    -2.4710     2.0330 C.ar  1 <1>  -0.1500 
  4 C       -1.7160    -0.8890     0.3500 C.ar  1 <1>  -0.1500 
  5 C       -3.4700    -2.8280     1.2580 C.ar  1 <1>  -0.1500 
  6 C       -2.8120    -1.2550    -0.4140 C.ar  1 <1>  -0.1500 
  7 C       -3.7120    -2.2230     0.0250 C.ar  1 <1>  -0.0090 
  8 S       -5.1720    -2.6680    -0.9660 S.o2  1 <1>   1.4470 
  9 O       -5.5710    -4.0150    -0.6270 O.2   1 <1>  -0.6500 
 10 O       -4.9300    -2.3100    -2.3450 O.2   1 <1>  -0.6500 
 11 N       -6.3980    -1.6490    -0.3800 N.am  1 <1>  -0.8490 
 12 C       -6.7370    -1.8910     1.0460 C.3   1 <1>   0.2570 
 13 C       -6.2430    -0.2280    -0.7030 C.3   1 <1>   0.1960 
 14 C       -8.1230    -1.3830     1.4500 C.2   1 <1>   0.5690 
 15 C       -7.0800     0.0950    -1.9370 C.3   1 <1>  -0.2400 
 16 O       -8.2660    -0.8880     2.5430 O.2   1 <1>  -0.5700 
 17 N       -9.1360    -1.5020     0.5520 N.am  1 <1>  -0.5790 
 18 C      -10.5250    -1.0660     0.7410 C.3   1 <1>   0.0490 
 19 C      -11.6030    -1.8540     0.0740 C.3   1 <1>  -0.2000 
 20 C      -11.2440    -0.4890    -0.4330 C.3   1 <1>  -0.2000 
 21 H       -2.1960    -2.9410     2.9840 H     1 <1>   0.1500 
 22 H       -1.0240    -0.1410     0.0060 H     1 <1>   0.1500 
 23 H       -4.1400    -3.5930     1.6150 H     1 <1>   0.1500 
 24 H       -2.9670    -0.7830    -1.3720 H     1 <1>   0.1500 
 25 H       -6.0020    -1.4310     1.6820 H     1 <1>   0.0800 
 26 H       -6.7330    -2.9480     1.2480 H     1 <1>   0.0800 
 27 H       -5.2110     0.0160    -0.8880 H     1 <1>   0.0800 
 28 H       -6.5860     0.3900     0.1110 H     1 <1>   0.0800 
 29 H       -6.7560    -0.4880    -2.7810 H     1 <1>   0.0800 
 30 H       -6.9700     1.1350    -2.1840 H     1 <1>   0.0800 
 31 H       -8.1190    -0.0990    -1.7470 H     1 <1>   0.0800 
 32 H       -8.9020    -1.8720    -0.3730 H     1 <1>   0.3700 
 33 H      -10.7150    -0.6540     1.7200 H     1 <1>   0.1000 
 34 H      -12.5420    -1.9760     0.5840 H     1 <1>   0.1000 
 35 H      -11.3310    -2.7180    -0.5070 H     1 <1>   0.1000 
 36 H      -10.7270    -0.4010    -1.3720 H     1 <1>   0.1000 
 37 H      -11.9410     0.3130    -0.2670 H     1 <1>   0.1000 
@<TRIPOS>BOND
  1   1   2  1   
  2   2   3  ar  
  3   2   4  ar  
  4   3   5  ar  
  5   3  21  1   
  6   4   6  ar  
  7   4  22  1   
  8   5   7  ar  
  9   5  23  1   
 10   6   7  ar  
 11   6  24  1   
 12   7   8  1   
 13   8   9  2   
 14   8  10  2   
 15   8  11  am  
 16  11  12  1   
 17  11  13  1   
 18  12  14  1   
 19  12  25  1   
 20  12  26  1   
 21  13  15  1   
 22  13  27  1   
 23  13  28  1   
 24  14  16  2   
 25  14  17  am  
 26  15  29  1   
 27  15  30  1   
 28  15  31  1   
 29  17  18  1   
 30  17  32  1   
 31  18  19  1   
 32  18  20  1   
 33  18  33  1   
 34  19  20  1   
 35  19  34  1   
 36  19  35  1   
 37  20  36  1   
 38  20  37  1   
@<TRIPOS>SUBSTRUCTURE
  1 ****  11 GROUP 4 **** **** 0

# MOE 2024.06 (io_trps.svl 2023.06)
