@<TRIPOS>MOLECULE
NONAME
36 37 1 0 0 
SMALL
USER_CHARGES


@<TRIPOS>ATOM
  1 F        0.2800    -0.3790    -0.9520 F     1 <1>  -0.1900 
  2 C        1.4400    -0.8840    -0.6320 C.ar  1 <1>   0.1900 
  3 C        2.5490    -0.5400    -1.3790 C.ar  1 <1>  -0.1500 
  4 C        1.5220    -1.7460     0.4430 C.ar  1 <1>  -0.1500 
  5 C        3.7760    -1.0790    -1.0330 C.ar  1 <1>  -0.1500 
  6 C        2.7560    -2.2750     0.7740 C.ar  1 <1>  -0.1500 
  7 C        3.9070    -1.9570     0.0480 C.ar  1 <1>   0.0280 
  8 C        5.1700    -2.5360     0.4340 C.2   1 <1>  -0.1780 
  9 C        6.3940    -2.3730    -0.1210 C.2   1 <1>  -0.1360 
 10 C        7.6220    -2.9790     0.3100 C.2   1 <1>   0.6160 
 11 O        7.6470    -3.7290     1.2650 O.2   1 <1>  -0.5700 
 12 N        8.7770    -2.7100    -0.3610 N.am  1 <1>  -0.7300 
 13 C       10.1040    -3.2580    -0.0330 C.3   1 <1>   0.2200 
 14 C       11.0490    -2.0990     0.3000 C.3   1 <1>  -0.1600 
 15 C       10.6150    -4.0660    -1.2300 C.3   1 <1>  -0.1600 
 16 C       12.4790    -2.6020     0.5460 C.3   1 <1>  -0.1600 
 17 C       12.0450    -4.5730    -0.9870 C.3   1 <1>  -0.1600 
 18 C       12.9940    -3.4150    -0.6500 C.3   1 <1>  -0.1600 
 19 H        2.4480     0.1350    -2.2090 H     1 <1>   0.1500 
 20 H        0.6380    -1.9930     1.0040 H     1 <1>   0.1500 
 21 H        4.6360    -0.8090    -1.6150 H     1 <1>   0.1500 
 22 H        2.8290    -2.9480     1.6110 H     1 <1>   0.1500 
 23 H        5.1030    -3.1880     1.2900 H     1 <1>   0.1500 
 24 H        6.5170    -1.7360    -0.9720 H     1 <1>   0.1500 
 25 H        8.7610    -2.0830    -1.1620 H     1 <1>   0.3700 
 26 H       10.0320    -3.9090     0.8240 H     1 <1>   0.0800 
 27 H       11.0610    -1.3960    -0.5140 H     1 <1>   0.0800 
 28 H       10.6940    -1.5960     1.1830 H     1 <1>   0.0800 
 29 H        9.9640    -4.9070    -1.3930 H     1 <1>   0.0800 
 30 H       10.6080    -3.4510    -2.1120 H     1 <1>   0.0800 
 31 H       13.1320    -1.7640     0.7210 H     1 <1>   0.0800 
 32 H       12.4920    -3.2200     1.4280 H     1 <1>   0.0800 
 33 H       12.0390    -5.2770    -0.1720 H     1 <1>   0.0800 
 34 H       12.4000    -5.0880    -1.8640 H     1 <1>   0.0800 
 35 H       13.9720    -3.8060    -0.4250 H     1 <1>   0.0800 
 36 H       13.0880    -2.7700    -1.5060 H     1 <1>   0.0800 
@<TRIPOS>BOND
  1   1   2  1   
  2   2   3  ar  
  3   2   4  ar  
  4   3   5  ar  
  5   3  19  1   
  6   4   6  ar  
  7   4  20  1   
  8   5   7  ar  
  9   5  21  1   
 10   6   7  ar  
 11   6  22  1   
 12   7   8  1   
 13   8   9  2   
 14   8  23  1   
 15   9  10  1   
 16   9  24  1   
 17  10  11  2   
 18  10  12  am  
 19  12  13  1   
 20  12  25  1   
 21  13  14  1   
 22  13  15  1   
 23  13  26  1   
 24  14  16  1   
 25  14  27  1   
 26  14  28  1   
 27  15  17  1   
 28  15  29  1   
 29  15  30  1   
 30  16  18  1   
 31  16  31  1   
 32  16  32  1   
 33  17  18  1   
 34  17  33  1   
 35  17  34  1   
 36  18  35  1   
 37  18  36  1   
@<TRIPOS>SUBSTRUCTURE
  1 ****   9 GROUP 4 **** **** 0

# MOE 2024.06 (io_trps.svl 2023.06)
