@<TRIPOS>MOLECULE
NONAME
44 44 1 0 0 
SMALL
USER_CHARGES


@<TRIPOS>ATOM
  1 O      -12.9870     0.0740     0.0290 O.3   1 <1>  -0.3630 
  2 C      -14.1890    -0.5610     0.1020 C.ar  1 <1>   0.0830 
  3 C      -11.7660    -0.6180     0.1600 C.3   1 <1>   0.1200 
  4 C      -15.3480     0.2030    -0.0580 C.ar  1 <1>  -0.1440 
  5 C      -14.2870    -1.9320     0.3230 C.ar  1 <1>  -0.1500 
  6 C      -10.6350     0.3960     0.0150 C.3   1 <1>   0.1200 
  7 C      -16.5930    -0.4210    -0.0110 C.ar  1 <1>  -0.1440 
  8 C      -15.2500     1.7110    -0.2910 C.3   1 <1>  -0.0960 
  9 C      -15.5250    -2.5400     0.3780 C.ar  1 <1>  -0.1500 
 10 O       -9.4120    -0.2670     0.1450 O.3   1 <1>  -0.5600 
 11 C      -16.6710    -1.7880     0.2100 C.ar  1 <1>  -0.1500 
 12 C      -17.8930     0.3510    -0.2010 C.3   1 <1>  -0.0970 
 13 C       -8.3020     0.5570     0.0320 C.3   1 <1>   0.1200 
 14 C       -7.0620    -0.3280     0.1970 C.3   1 <1>   0.3430 
 15 N       -5.7960     0.4630     0.1020 N.4   1 <1>  -0.9060 
 16 C       -4.5880    -0.3530     0.2850 C.3   1 <1>   0.4230 
 17 C       -3.4260     0.6030     0.5180 C.3   1 <1>  -0.2400 
 18 C       -4.3520    -1.1970    -0.9640 C.3   1 <1>  -0.2400 
 19 H      -11.7110    -1.3580    -0.6180 H     1 <1>   0.0800 
 20 H      -11.7400    -1.0760     1.1330 H     1 <1>   0.0800 
 21 H      -13.4180    -2.5460     0.4540 H     1 <1>   0.1500 
 22 H      -10.7120     1.1410     0.7890 H     1 <1>   0.0800 
 23 H      -10.6810     0.8570    -0.9570 H     1 <1>   0.0800 
 24 H      -14.3160     2.1080     0.0600 H     1 <1>   0.0800 
 25 H      -16.0290     2.2320     0.2340 H     1 <1>   0.0800 
 26 H      -15.3360     1.9190    -1.3420 H     1 <1>   0.0800 
 27 H      -15.6000    -3.6000     0.5500 H     1 <1>   0.1500 
 28 H      -17.6280    -2.2770     0.2520 H     1 <1>   0.1500 
 29 H      -17.8400     0.9550    -1.0880 H     1 <1>   0.0800 
 30 H      -18.0680     0.9860     0.6490 H     1 <1>   0.0800 
 31 H      -18.7280    -0.3170    -0.3030 H     1 <1>   0.0800 
 32 H       -8.3520     1.3010     0.8080 H     1 <1>   0.0800 
 33 H       -8.3200     1.0180    -0.9420 H     1 <1>   0.0800 
 34 H       -7.0800    -1.0840    -0.5710 H     1 <1>   0.0800 
 35 H       -7.1150    -0.8150     1.1570 H     1 <1>   0.0800 
 36 H       -5.7930     1.1980     0.8180 H     1 <1>   0.4500 
 37 H       -5.7310     0.9260    -0.8110 H     1 <1>   0.4500 
 38 H       -4.6990    -0.9950     1.1470 H     1 <1>   0.0800 
 39 H       -3.2820     1.2590    -0.3230 H     1 <1>   0.0800 
 40 H       -2.5200     0.0390     0.6560 H     1 <1>   0.0800 
 41 H       -3.5820     1.1860     1.4080 H     1 <1>   0.0800 
 42 H       -4.2580    -0.5820    -1.8410 H     1 <1>   0.0800 
 43 H       -5.1430    -1.9110    -1.1080 H     1 <1>   0.0800 
 44 H       -3.4380    -1.7530    -0.8520 H     1 <1>   0.0800 
@<TRIPOS>BOND
  1   1   2  1   
  2   1   3  1   
  3   2   4  ar  
  4   2   5  ar  
  5   3   6  1   
  6   3  19  1   
  7   3  20  1   
  8   4   7  ar  
  9   4   8  1   
 10   5   9  ar  
 11   5  21  1   
 12   6  10  1   
 13   6  22  1   
 14   6  23  1   
 15   7  11  ar  
 16   7  12  1   
 17   8  24  1   
 18   8  25  1   
 19   8  26  1   
 20   9  11  ar  
 21   9  27  1   
 22  10  13  1   
 23  11  28  1   
 24  12  29  1   
 25  12  30  1   
 26  12  31  1   
 27  13  14  1   
 28  13  32  1   
 29  13  33  1   
 30  14  15  1   
 31  14  34  1   
 32  14  35  1   
 33  15  16  1   
 34  15  36  1   
 35  15  37  1   
 36  16  17  1   
 37  16  18  1   
 38  16  38  1   
 39  17  39  1   
 40  17  40  1   
 41  17  41  1   
 42  18  42  1   
 43  18  43  1   
 44  18  44  1   
@<TRIPOS>SUBSTRUCTURE
  1 ****   3 GROUP 4 **** **** 0

# MOE 2024.06 (io_trps.svl 2023.06)
