@<TRIPOS>MOLECULE
NONAME
33 34 1 0 0 
SMALL
USER_CHARGES


@<TRIPOS>ATOM
  1 O       -6.1450    -1.1200    -2.9810 O.2   1 <1>  -0.5700 
  2 C       -6.2070    -0.5410    -1.9380 C.2   1 <1>   0.4480 
  3 C       -5.2220    -0.8580    -0.7930 C.3   1 <1>   0.2050 
  4 C       -7.2960     0.4910    -1.7100 C.3   1 <1>  -0.1790 
  5 C       -4.9190     0.4280     0.0210 C.ar  1 <1>  -0.1440 
  6 C       -3.9010    -1.4340    -1.3700 C.3   1 <1>  -0.1600 
  7 C       -5.8220    -1.9960     0.0680 C.3   1 <1>  -0.1600 
  8 C       -5.4320     0.6630     1.2970 C.ar  1 <1>  -0.1500 
  9 C       -4.1230     1.4220    -0.5440 C.ar  1 <1>  -0.1500 
 10 C       -2.9350    -1.8270    -0.2580 C.3   1 <1>   0.3430 
 11 C       -4.8610    -2.4750     1.1630 C.3   1 <1>   0.3430 
 12 C       -5.1230     1.8190     1.9920 C.ar  1 <1>  -0.1500 
 13 C       -3.8120     2.5780     0.1500 C.ar  1 <1>  -0.1500 
 14 N       -3.5660    -2.8950     0.5630 N.4   1 <1>  -0.9060 
 15 C       -4.3070     2.7760     1.4230 C.ar  1 <1>  -0.1500 
 16 H       -7.8330     0.2790    -0.8050 H     1 <1>   0.0800 
 17 H       -7.9870     0.4740    -2.5330 H     1 <1>   0.0800 
 18 H       -6.8680     1.4750    -1.6470 H     1 <1>   0.0800 
 19 H       -3.4240    -0.7260    -2.0220 H     1 <1>   0.0800 
 20 H       -4.1040    -2.2990    -1.9770 H     1 <1>   0.0800 
 21 H       -6.0680    -2.8310    -0.5650 H     1 <1>   0.0800 
 22 H       -6.7480    -1.6790     0.5130 H     1 <1>   0.0800 
 23 H       -6.0940    -0.0230     1.7890 H     1 <1>   0.1500 
 24 H       -3.7350     1.3340    -1.5430 H     1 <1>   0.1500 
 25 H       -2.7160    -0.9650     0.3550 H     1 <1>   0.0800 
 26 H       -2.0120    -2.1840    -0.6870 H     1 <1>   0.0800 
 27 H       -5.3040    -3.3000     1.6980 H     1 <1>   0.0800 
 28 H       -4.6860    -1.6760     1.8660 H     1 <1>   0.0800 
 29 H       -5.5240     1.9830     2.9790 H     1 <1>   0.1500 
 30 H       -3.1900     3.3310    -0.3040 H     1 <1>   0.1500 
 31 H       -2.9170    -3.1790     1.3090 H     1 <1>   0.4500 
 32 H       -3.7190    -3.7220    -0.0290 H     1 <1>   0.4500 
 33 H       -4.0660     3.6760     1.9640 H     1 <1>   0.1500 
@<TRIPOS>BOND
  1   1   2  2   
  2   2   3  1   
  3   2   4  1   
  4   3   5  1   
  5   3   6  1   
  6   3   7  1   
  7   4  16  1   
  8   4  17  1   
  9   4  18  1   
 10   5   8  ar  
 11   5   9  ar  
 12   6  10  1   
 13   6  19  1   
 14   6  20  1   
 15   7  11  1   
 16   7  21  1   
 17   7  22  1   
 18   8  12  ar  
 19   8  23  1   
 20   9  13  ar  
 21   9  24  1   
 22  10  14  1   
 23  10  25  1   
 24  10  26  1   
 25  11  14  1   
 26  11  27  1   
 27  11  28  1   
 28  12  15  ar  
 29  12  29  1   
 30  13  15  ar  
 31  13  30  1   
 32  14  31  1   
 33  14  32  1   
 34  15  33  1   
@<TRIPOS>SUBSTRUCTURE
  1 ****   5 GROUP 4 **** **** 0

# MOE 2024.06 (io_trps.svl 2023.06)
