@<TRIPOS>MOLECULE
NONAME
34 35 1 0 0 
SMALL
USER_CHARGES


@<TRIPOS>ATOM
  1 S       -0.5380     0.8120    -0.1130 S.3   1 <1>  -0.0800 
  2 C       -0.8220    -0.5660    -1.1120 C.2   1 <1>   0.4340 
  3 C        1.0690     0.8370    -0.7810 C.2   1 <1>   0.4420 
  4 S       -2.4370    -1.3390    -1.0500 S.3   1 <1>  -0.2860 
  5 N        0.1740    -0.9130    -1.8200 N.2   1 <1>  -0.3380 
  6 N        1.2650    -0.1060    -1.6300 N.2   1 <1>  -0.3380 
  7 N        2.0020     1.7830    -0.4110 N.am  1 <1>  -0.4940 
  8 C       -3.4110    -0.3490     0.1700 C.3   1 <1>   0.2140 
  9 C        1.9340     2.8350     0.4560 C.2   1 <1>   0.5690 
 10 C       -4.8000    -0.9540     0.2720 C.ar  1 <1>  -0.1440 
 11 O        0.9510     3.1160     1.0900 O.2   1 <1>  -0.5700 
 12 C        3.1770     3.6890     0.6200 C.3   1 <1>  -0.0990 
 13 C       -5.0630    -1.9510     1.1990 C.ar  1 <1>  -0.1500 
 14 C       -5.8180    -0.5130    -0.5600 C.ar  1 <1>  -0.1500 
 15 C        3.4370     4.5850    -0.6020 C.3   1 <1>  -0.1600 
 16 C       -6.3310    -2.4970     1.2980 C.ar  1 <1>  -0.1500 
 17 C       -7.0870    -1.0580    -0.4620 C.ar  1 <1>  -0.1500 
 18 C        4.6900     5.4430    -0.4060 C.3   1 <1>  -0.2400 
 19 C       -7.3440    -2.0500     0.4680 C.ar  1 <1>  -0.1500 
 20 H        2.8910     1.6660    -0.8890 H     1 <1>   0.3700 
 21 H       -3.4500     0.6640    -0.1880 H     1 <1>   0.0800 
 22 H       -2.8950    -0.3920     1.1120 H     1 <1>   0.0800 
 23 H        4.0220     3.0480     0.7960 H     1 <1>   0.0800 
 24 H        3.0510     4.3070     1.4920 H     1 <1>   0.0800 
 25 H       -4.2820    -2.3090     1.8470 H     1 <1>   0.1500 
 26 H       -5.6290     0.2550    -1.2900 H     1 <1>   0.1500 
 27 H        2.5870     5.2300    -0.7560 H     1 <1>   0.0800 
 28 H        3.5570     3.9810    -1.4860 H     1 <1>   0.0800 
 29 H       -6.5300    -3.2700     2.0190 H     1 <1>   0.1500 
 30 H       -7.8730    -0.7130    -1.1100 H     1 <1>   0.1500 
 31 H        4.5810     6.0790     0.4550 H     1 <1>   0.0800 
 32 H        4.8480     6.0660    -1.2690 H     1 <1>   0.0800 
 33 H        5.5590     4.8220    -0.2710 H     1 <1>   0.0800 
 34 H       -8.3300    -2.4750     0.5440 H     1 <1>   0.1500 
@<TRIPOS>BOND
  1   1   2  1   
  2   1   3  1   
  3   2   4  1   
  4   2   5  2   
  5   3   6  2   
  6   3   7  1   
  7   4   8  1   
  8   5   6  1   
  9   7   9  am  
 10   7  20  1   
 11   8  10  1   
 12   8  21  1   
 13   8  22  1   
 14   9  11  2   
 15   9  12  1   
 16  10  13  ar  
 17  10  14  ar  
 18  12  15  1   
 19  12  23  1   
 20  12  24  1   
 21  13  16  ar  
 22  13  25  1   
 23  14  17  ar  
 24  14  26  1   
 25  15  18  1   
 26  15  27  1   
 27  15  28  1   
 28  16  19  ar  
 29  16  29  1   
 30  17  19  ar  
 31  17  30  1   
 32  18  31  1   
 33  18  32  1   
 34  18  33  1   
 35  19  34  1   
@<TRIPOS>SUBSTRUCTURE
  1 ****   1 GROUP 4 **** **** 0

# MOE 2024.06 (io_trps.svl 2023.06)
