@<TRIPOS>MOLECULE
NONAME
37 39 1 0 0 
SMALL
USER_CHARGES


@<TRIPOS>ATOM
  1 CL      -1.0290    -0.4150     1.0970 Cl    1 <1>  -0.1770 
  2 C       -1.6630     1.1690     0.7180 C.ar  1 <1>   0.1770 
  3 C       -3.0140     1.3340     0.5410 C.ar  1 <1>  -0.1500 
  4 C       -0.7640     2.2350     0.6060 C.ar  1 <1>  -0.1500 
  5 C       -3.4990     2.6110     0.2390 C.ar  1 <1>   0.0000 
  6 C       -1.2320     3.4940     0.3080 C.ar  1 <1>  -0.1500 
  7 C       -2.6070     3.6740     0.1250 C.ar  1 <1>  -0.1520 
  8 C       -4.7880     3.1380    -0.0010 C.2   1 <1>  -0.1810 
  9 N       -3.3240     4.8040    -0.1760 N.pl3 1 <1>   0.0330 
 10 C       -4.6450     4.4630    -0.2490 C.2   1 <1>  -0.3020 
 11 C       -6.0500     2.2890     0.0320 C.3   1 <1>   0.0210 
 12 C       -7.3180     3.1170    -0.1720 C.3   1 <1>   0.1400 
 13 N       -8.5130     2.2500    -0.0600 N.am  1 <1>  -0.7300 
 14 C       -9.3660     1.9190    -1.0650 C.2   1 <1>   0.5690 
 15 O       -9.2120     2.3260    -2.1940 O.2   1 <1>  -0.5700 
 16 C      -10.5560     0.9970    -0.7510 C.3   1 <1>   0.2610 
 17 O      -10.6400     0.6720     0.6150 O.3   1 <1>  -0.5600 
 18 C      -10.4860    -0.3600    -1.4420 C.3   1 <1>  -0.1600 
 19 C      -11.4070    -0.4770     0.7810 C.3   1 <1>   0.1200 
 20 C      -11.2870    -1.2670    -0.5200 C.3   1 <1>  -0.1600 
 21 H       -3.6900     0.5060     0.6300 H     1 <1>   0.1500 
 22 H        0.2840     2.0490     0.7550 H     1 <1>   0.1500 
 23 H       -0.5600     4.3290     0.2160 H     1 <1>   0.1500 
 24 H       -2.9260     5.7360    -0.3230 H     1 <1>   0.2700 
 25 H       -5.4000     5.1950    -0.4770 H     1 <1>   0.1500 
 26 H       -6.1020     1.7910     0.9840 H     1 <1>   0.0800 
 27 H       -5.9870     1.5460    -0.7430 H     1 <1>   0.0800 
 28 H       -7.2920     3.5790    -1.1450 H     1 <1>   0.0800 
 29 H       -7.3730     3.8930     0.5720 H     1 <1>   0.0800 
 30 H       -8.7420     1.8730     0.8660 H     1 <1>   0.3700 
 31 H      -11.4680     1.5010    -1.0170 H     1 <1>   0.0800 
 32 H       -9.4610    -0.6830    -1.4890 H     1 <1>   0.0800 
 33 H      -10.8860    -0.3140    -2.4390 H     1 <1>   0.0800 
 34 H      -12.4250    -0.1770     0.9640 H     1 <1>   0.0800 
 35 H      -11.0270    -1.0240     1.6270 H     1 <1>   0.0800 
 36 H      -10.7850    -2.2050    -0.3590 H     1 <1>   0.0800 
 37 H      -12.2670    -1.4610    -0.9200 H     1 <1>   0.0800 
@<TRIPOS>BOND
  1   1   2  1   
  2   2   3  ar  
  3   2   4  ar  
  4   3   5  ar  
  5   3  21  1   
  6   4   6  ar  
  7   4  22  1   
  8   5   7  ar  
  9   5   8  1   
 10   6   7  ar  
 11   6  23  1   
 12   7   9  1   
 13   8  10  2   
 14   8  11  1   
 15   9  10  1   
 16   9  24  1   
 17  10  25  1   
 18  11  12  1   
 19  11  26  1   
 20  11  27  1   
 21  12  13  1   
 22  12  28  1   
 23  12  29  1   
 24  13  14  am  
 25  13  30  1   
 26  14  15  2   
 27  14  16  1   
 28  16  17  1   
 29  16  18  1   
 30  16  31  1   
 31  17  19  1   
 32  18  20  1   
 33  18  32  1   
 34  18  33  1   
 35  19  20  1   
 36  19  34  1   
 37  19  35  1   
 38  20  36  1   
 39  20  37  1   
@<TRIPOS>SUBSTRUCTURE
  1 ****  11 GROUP 4 **** **** 0

# MOE 2024.06 (io_trps.svl 2023.06)
