@<TRIPOS>MOLECULE
NONAME
41 43 1 0 0 
SMALL
USER_CHARGES


@<TRIPOS>ATOM
  1 S       -0.3860     0.1060    -1.2920 S.3   1 <1>  -0.0800 
  2 C       -1.3060     1.4510    -0.6050 C.2   1 <1>  -0.0450 
  3 C        1.0070     1.1190    -1.6030 C.2   1 <1>  -0.1100 
  4 C       -2.6460     1.2130    -0.1300 C.2   1 <1>   0.7150 
  5 C       -0.5310     2.5670    -0.6460 C.2   1 <1>  -0.1500 
  6 C        0.7660     2.3810    -1.2060 C.2   1 <1>  -0.1500 
  7 O       -3.1780     0.1200    -0.1900 O.2   1 <1>  -0.5700 
  8 N       -3.3660     2.2380     0.4010 N.am  1 <1>  -0.7300 
  9 C       -4.8050     2.1640     0.7860 C.3   1 <1>   0.2010 
 10 C       -5.5280     3.5130     0.6710 C.2   1 <1>   0.5690 
 11 O       -4.8500     4.5020     0.4900 O.2   1 <1>  -0.5700 
 12 N       -6.8970     3.5910     0.7720 N.am  1 <1>  -0.6600 
 13 C       -7.8250     2.4330     0.9720 C.3   1 <1>   0.1400 
 14 C       -7.6170     4.8960     0.6240 C.3   1 <1>   0.1400 
 15 C       -8.8530     2.3500    -0.1700 C.3   1 <1>   0.1400 
 16 C       -8.6370     4.8240    -0.5210 C.3   1 <1>   0.1400 
 17 N       -9.5590     3.6570    -0.3420 N.am  1 <1>  -0.6600 
 18 C      -10.8960     3.8320    -0.0350 C.2   1 <1>   0.7150 
 19 O      -11.2670     4.9370     0.3190 O.2   1 <1>  -0.5700 
 20 C      -11.8390     2.7370    -0.1330 C.2   1 <1>   0.0550 
 21 O      -12.7700     2.5460     0.7980 O.3   1 <1>  -0.2800 
 22 C      -11.9760     1.7630    -1.0780 C.2   1 <1>  -0.1500 
 23 C      -13.4870     1.4930     0.4750 C.2   1 <1>  -0.0100 
 24 C      -13.0440     0.9580    -0.6820 C.2   1 <1>  -0.1500 
 25 H        1.8670     0.6570    -2.0550 H     1 <1>   0.1500 
 26 H       -0.8340     3.5370    -0.2930 H     1 <1>   0.1500 
 27 H        1.4600     3.2000    -1.2860 H     1 <1>   0.1500 
 28 H       -3.0150     3.1980     0.3380 H     1 <1>   0.3700 
 29 H       -4.8740     1.8210     1.8020 H     1 <1>   0.0800 
 30 H       -5.2950     1.4510     0.1480 H     1 <1>   0.0800 
 31 H       -8.3500     2.5650     1.9030 H     1 <1>   0.0800 
 32 H       -7.2890     1.5040     1.0320 H     1 <1>   0.0800 
 33 H       -6.9240     5.6960     0.4280 H     1 <1>   0.0800 
 34 H       -8.1310     5.1260     1.5420 H     1 <1>   0.0800 
 35 H       -9.5510     1.5640     0.0540 H     1 <1>   0.0800 
 36 H       -8.3500     2.0980    -1.0880 H     1 <1>   0.0800 
 37 H       -8.1130     4.7200    -1.4540 H     1 <1>   0.0800 
 38 H       -9.1920     5.7460    -0.5620 H     1 <1>   0.0800 
 39 H      -11.3900     1.6280    -1.9700 H     1 <1>   0.1500 
 40 H      -14.2940     1.1940     1.1210 H     1 <1>   0.1500 
 41 H      -13.4190     0.0980    -1.2090 H     1 <1>   0.1500 
@<TRIPOS>BOND
  1   1   2  1   
  2   1   3  1   
  3   2   4  1   
  4   2   5  2   
  5   3   6  2   
  6   3  25  1   
  7   4   7  2   
  8   4   8  am  
  9   5   6  1   
 10   5  26  1   
 11   6  27  1   
 12   8   9  1   
 13   8  28  1   
 14   9  10  1   
 15   9  29  1   
 16   9  30  1   
 17  10  11  2   
 18  10  12  am  
 19  12  13  1   
 20  12  14  1   
 21  13  15  1   
 22  13  31  1   
 23  13  32  1   
 24  14  16  1   
 25  14  33  1   
 26  14  34  1   
 27  15  17  1   
 28  15  35  1   
 29  15  36  1   
 30  16  17  1   
 31  16  37  1   
 32  16  38  1   
 33  17  18  am  
 34  18  19  2   
 35  18  20  1   
 36  20  21  1   
 37  20  22  2   
 38  21  23  1   
 39  22  24  1   
 40  22  39  1   
 41  23  24  2   
 42  23  40  1   
 43  24  41  1   
@<TRIPOS>SUBSTRUCTURE
  1 ****  12 GROUP 4 **** **** 0

# MOE 2024.06 (io_trps.svl 2023.06)
