@<TRIPOS>MOLECULE
NONAME
32 32 1 0 0 
SMALL
USER_CHARGES


@<TRIPOS>ATOM
  1 S       -0.2040    -0.3530     0.2640 S.o2  1 <1>   1.4470 
  2 O       -0.9180    -0.4660     1.5160 O.2   1 <1>  -0.6500 
  3 O       -0.0280    -1.5110    -0.5790 O.2   1 <1>  -0.6500 
  4 N       -1.0200     0.7260    -0.7240 N.am  1 <1>  -0.9140 
  5 C        1.3940     0.4660     0.5320 C.ar  1 <1>  -0.0090 
  6 C       -2.4520     0.6230    -0.6480 C.3   1 <1>   0.2760 
  7 C        2.4370     0.3160    -0.3760 C.ar  1 <1>  -0.1500 
  8 C        1.6070     1.2850     1.6320 C.ar  1 <1>  -0.1500 
  9 C       -2.9940     0.8590    -2.0520 C.3   1 <1>  -0.2400 
 10 C       -2.9660     1.6960     0.3080 C.3   1 <1>  -0.2400 
 11 C        3.6640     0.9460    -0.2140 C.ar  1 <1>  -0.0090 
 12 C        2.8180     1.9240     1.8220 C.ar  1 <1>  -0.1500 
 13 S        5.0030     0.6940    -1.4070 S.o2  1 <1>   1.2040 
 14 C        3.8370     1.7530     0.9030 C.ar  1 <1>  -0.1500 
 15 O        5.9720     1.7580    -1.2760 O.2   1 <1>  -0.6500 
 16 O        4.4320     0.3870    -2.6990 O.2   1 <1>  -0.6500 
 17 C        5.7680    -0.7970    -0.8010 C.3   1 <1>  -0.1350 
 18 H       -0.7690     0.4040    -1.6550 H     1 <1>   0.4200 
 19 H       -2.7550    -0.3580    -0.3120 H     1 <1>   0.0800 
 20 H        2.2850    -0.3100    -1.2410 H     1 <1>   0.1500 
 21 H        0.8130     1.4250     2.3490 H     1 <1>   0.1500 
 22 H       -2.6940     1.8240    -2.4200 H     1 <1>   0.0800 
 23 H       -4.0690     0.8210    -2.0370 H     1 <1>   0.0800 
 24 H       -2.6460     0.0930    -2.7230 H     1 <1>   0.0800 
 25 H       -2.6560     2.6720    -0.0180 H     1 <1>   0.0800 
 26 H       -2.5950     1.5230     1.3020 H     1 <1>   0.0800 
 27 H       -4.0390     1.6690     0.3450 H     1 <1>   0.0800 
 28 H        2.9660     2.5570     2.6810 H     1 <1>   0.1500 
 29 H        4.7770     2.2590     1.0540 H     1 <1>   0.1500 
 30 H        6.1350    -0.6500     0.1960 H     1 <1>   0.0800 
 31 H        6.5920    -1.0660    -1.4320 H     1 <1>   0.0800 
 32 H        5.0630    -1.6050    -0.7970 H     1 <1>   0.0800 
@<TRIPOS>BOND
  1   1   2  2   
  2   1   3  2   
  3   1   4  am  
  4   1   5  1   
  5   4   6  1   
  6   4  18  1   
  7   5   7  ar  
  8   5   8  ar  
  9   6   9  1   
 10   6  10  1   
 11   6  19  1   
 12   7  11  ar  
 13   7  20  1   
 14   8  12  ar  
 15   8  21  1   
 16   9  22  1   
 17   9  23  1   
 18   9  24  1   
 19  10  25  1   
 20  10  26  1   
 21  10  27  1   
 22  11  13  1   
 23  11  14  ar  
 24  12  14  ar  
 25  12  28  1   
 26  13  15  2   
 27  13  16  2   
 28  13  17  1   
 29  14  29  1   
 30  17  30  1   
 31  17  31  1   
 32  17  32  1   
@<TRIPOS>SUBSTRUCTURE
  1 ****   5 GROUP 4 **** **** 0

# MOE 2024.06 (io_trps.svl 2023.06)
