@<TRIPOS>MOLECULE
NONAME
36 37 1 0 0 
SMALL
USER_CHARGES


@<TRIPOS>ATOM
  1 F        1.8750     1.0020     1.9840 F     1 <1>  -0.3400 
  2 C        2.0400     0.9400     0.6700 C.3   1 <1>   0.9600 
  3 F        1.8000    -0.3240     0.3420 F     1 <1>  -0.3400 
  4 O        3.3920     1.1730     0.4410 O.3   1 <1>  -0.5600 
  5 C        1.1550     1.9590    -0.0830 C.3   1 <1>   0.6800 
  6 C        3.5000     2.3140    -0.3650 C.3   1 <1>   0.6200 
  7 F        0.0620     2.3510     0.5890 F     1 <1>  -0.3400 
  8 F        0.6790     1.4690    -1.2380 F     1 <1>  -0.3400 
  9 C        2.1610     3.0710    -0.3150 C.3   1 <1>   0.6800 
 10 F        3.6100     1.7850    -1.5880 F     1 <1>  -0.3400 
 11 C        4.7540     3.1930    -0.0790 C.3   1 <1>   0.7410 
 12 F        2.1260     3.9780     0.6630 F     1 <1>  -0.3400 
 13 F        1.9160     3.7850    -1.4200 F     1 <1>  -0.3400 
 14 F        5.8610     2.5180    -0.4110 F     1 <1>  -0.3400 
 15 F        4.7600     4.2330    -0.9200 F     1 <1>  -0.3400 
 16 C        4.8960     3.6860     1.3870 C.2   1 <1>   0.5690 
 17 O        4.2410     3.1630     2.2570 O.2   1 <1>  -0.5700 
 18 N        5.7220     4.7140     1.7650 N.am  1 <1>  -0.5470 
 19 C        6.5990     5.4980     1.0190 C.ar  1 <1>   0.1170 
 20 C        7.6840     4.9440     0.3490 C.ar  1 <1>  -0.1500 
 21 C        6.4030     6.8700     0.9390 C.ar  1 <1>  -0.1500 
 22 C        8.5390     5.7410    -0.3860 C.ar  1 <1>  -0.1500 
 23 C        7.2630     7.6630     0.2040 C.ar  1 <1>  -0.1500 
 24 C        8.3590     7.1240    -0.4710 C.ar  1 <1>   0.0860 
 25 C        9.2500     7.9750    -1.2320 C.2   1 <1>   0.6340 
 26 O        8.8450     8.8490    -1.9630 O.2   1 <1>  -0.5700 
 27 O       10.5770     7.8400    -1.1300 O.3   1 <1>  -0.4300 
 28 C       11.2220     7.4410     0.0620 C.3   1 <1>   0.0400 
 29 H        5.6170     4.9650     2.7510 H     1 <1>   0.3700 
 30 H        7.8610     3.8850     0.4050 H     1 <1>   0.1500 
 31 H        5.5660     7.3170     1.4470 H     1 <1>   0.1500 
 32 H        9.3620     5.2880    -0.9140 H     1 <1>   0.1500 
 33 H        7.0890     8.7250     0.1410 H     1 <1>   0.1500 
 34 H       12.2640     7.6940    -0.0240 H     1 <1>   0.0800 
 35 H       11.1180     6.3790     0.1880 H     1 <1>   0.0800 
 36 H       10.7880     7.9690     0.8930 H     1 <1>   0.0800 
@<TRIPOS>BOND
  1   1   2  1   
  2   2   3  1   
  3   2   4  1   
  4   2   5  1   
  5   4   6  1   
  6   5   7  1   
  7   5   8  1   
  8   5   9  1   
  9   6   9  1   
 10   6  10  1   
 11   6  11  1   
 12   9  12  1   
 13   9  13  1   
 14  11  14  1   
 15  11  15  1   
 16  11  16  1   
 17  16  17  2   
 18  16  18  am  
 19  18  19  1   
 20  18  29  1   
 21  19  20  ar  
 22  19  21  ar  
 23  20  22  ar  
 24  20  30  1   
 25  21  23  ar  
 26  21  31  1   
 27  22  24  ar  
 28  22  32  1   
 29  23  24  ar  
 30  23  33  1   
 31  24  25  1   
 32  25  26  2   
 33  25  27  1   
 34  27  28  1   
 35  28  34  1   
 36  28  35  1   
 37  28  36  1   
@<TRIPOS>SUBSTRUCTURE
  1 ****  11 GROUP 4 **** **** 0

# MOE 2024.06 (io_trps.svl 2023.06)
