@<TRIPOS>MOLECULE
NONAME
50 52 1 0 0 
SMALL
USER_CHARGES


@<TRIPOS>ATOM
  1 O       -2.7000     0.6070    -0.1240 O.3   1 <1>  -0.3630 
  2 C       -1.5450     1.3170    -0.0310 C.ar  1 <1>   0.0830 
  3 C       -2.7390    -0.6370    -0.7960 C.3   1 <1>   0.0400 
  4 C       -1.5410     2.4160     0.8200 C.ar  1 <1>  -0.1440 
  5 C       -0.3940     0.9960    -0.7460 C.ar  1 <1>  -0.1500 
  6 C       -0.3930     3.1840     0.9560 C.ar  1 <1>  -0.1500 
  7 C       -2.7920     2.7660     1.5980 C.3   1 <1>   0.4870 
  8 C        0.7440     1.7690    -0.6090 C.ar  1 <1>  -0.1500 
  9 C        0.7460     2.8600     0.2410 C.ar  1 <1>  -0.1500 
 10 N       -3.5170     3.8500     0.8820 N.4   1 <1>  -0.9590 
 11 C       -4.6290     4.4280     1.7160 C.3   1 <1>   0.3430 
 12 C       -4.0420     3.3580    -0.4460 C.3   1 <1>   0.3430 
 13 C       -5.3930     5.5530     0.9870 C.3   1 <1>   0.2090 
 14 C       -4.8130     4.4420    -1.2270 C.3   1 <1>   0.2090 
 15 N       -5.8280     5.1320    -0.3760 N.pl3 1 <1>  -0.8380 
 16 C       -7.1640     4.7650    -0.5320 C.ar  1 <1>   0.1000 
 17 C       -8.0870     5.6540    -1.0820 C.ar  1 <1>  -0.1430 
 18 C       -7.5980     3.5040    -0.1330 C.ar  1 <1>  -0.1500 
 19 C       -9.4110     5.2720    -1.2200 C.ar  1 <1>  -0.1500 
 20 C       -7.6570     7.0420    -1.5360 C.3   1 <1>  -0.0970 
 21 C       -8.9200     3.1220    -0.2720 C.ar  1 <1>  -0.1430 
 22 C       -9.8260     4.0140    -0.8180 C.ar  1 <1>  -0.1500 
 23 C       -9.3940     1.7460     0.1620 C.3   1 <1>  -0.0970 
 24 H       -2.5420    -0.4800    -1.8420 H     1 <1>   0.0800 
 25 H       -3.7200    -1.0590    -0.6710 H     1 <1>   0.0800 
 26 H       -2.0040    -1.2940    -0.3630 H     1 <1>   0.0800 
 27 H       -0.3610     0.1550    -1.4130 H     1 <1>   0.1500 
 28 H       -0.3650     4.0330     1.6180 H     1 <1>   0.1500 
 29 H       -2.5120     3.0950     2.5850 H     1 <1>   0.0800 
 30 H       -3.4210     1.8960     1.6960 H     1 <1>   0.0800 
 31 H        1.6350     1.5190    -1.1620 H     1 <1>   0.1500 
 32 H        1.6400     3.4540     0.3460 H     1 <1>   0.1500 
 33 H       -2.8350     4.5880     0.6760 H     1 <1>   0.4500 
 34 H       -4.2350     4.8170     2.6400 H     1 <1>   0.0800 
 35 H       -5.3370     3.6530     1.9590 H     1 <1>   0.0800 
 36 H       -4.7040     2.5240    -0.2830 H     1 <1>   0.0800 
 37 H       -3.2270     3.0060    -1.0560 H     1 <1>   0.0800 
 38 H       -4.7680     6.4250     0.9010 H     1 <1>   0.0800 
 39 H       -6.2580     5.8300     1.5660 H     1 <1>   0.0800 
 40 H       -5.3040     3.9900    -2.0720 H     1 <1>   0.0800 
 41 H       -4.1220     5.1730    -1.6080 H     1 <1>   0.0800 
 42 H       -6.8940     2.8160     0.2890 H     1 <1>   0.1500 
 43 H      -10.1310     5.9500    -1.6420 H     1 <1>   0.1500 
 44 H       -6.8770     6.9580    -2.2710 H     1 <1>   0.0800 
 45 H       -7.2840     7.6000    -0.6970 H     1 <1>   0.0800 
 46 H       -8.4790     7.5820    -1.9700 H     1 <1>   0.0800 
 47 H      -10.8590     3.7350    -0.9330 H     1 <1>   0.1500 
 48 H       -8.5760     1.1500     0.5230 H     1 <1>   0.0800 
 49 H       -9.8470     1.2380    -0.6700 H     1 <1>   0.0800 
 50 H      -10.1220     1.8430     0.9470 H     1 <1>   0.0800 
@<TRIPOS>BOND
  1   1   2  1   
  2   1   3  1   
  3   2   4  ar  
  4   2   5  ar  
  5   3  24  1   
  6   3  25  1   
  7   3  26  1   
  8   4   6  ar  
  9   4   7  1   
 10   5   8  ar  
 11   5  27  1   
 12   6   9  ar  
 13   6  28  1   
 14   7  10  1   
 15   7  29  1   
 16   7  30  1   
 17   8   9  ar  
 18   8  31  1   
 19   9  32  1   
 20  10  11  1   
 21  10  12  1   
 22  10  33  1   
 23  11  13  1   
 24  11  34  1   
 25  11  35  1   
 26  12  14  1   
 27  12  36  1   
 28  12  37  1   
 29  13  15  1   
 30  13  38  1   
 31  13  39  1   
 32  14  15  1   
 33  14  40  1   
 34  14  41  1   
 35  15  16  1   
 36  16  17  ar  
 37  16  18  ar  
 38  17  19  ar  
 39  17  20  1   
 40  18  21  ar  
 41  18  42  1   
 42  19  22  ar  
 43  19  43  1   
 44  20  44  1   
 45  20  45  1   
 46  20  46  1   
 47  21  22  ar  
 48  21  23  1   
 49  22  47  1   
 50  23  48  1   
 51  23  49  1   
 52  23  50  1   
@<TRIPOS>SUBSTRUCTURE
  1 ****  12 GROUP 4 **** **** 0

# MOE 2024.06 (io_trps.svl 2023.06)
