@<TRIPOS>MOLECULE
NONAME
44 45 1 0 0 
SMALL
USER_CHARGES


@<TRIPOS>ATOM
  1 O        0.4000    -0.3220     1.0300 O.3   1 <1>  -0.3630 
  2 C        1.5240    -0.8410     0.4790 C.ar  1 <1>   0.0830 
  3 C       -0.2330     0.8110     0.4790 C.3   1 <1>   0.0400 
  4 C        2.1660    -0.3010    -0.6310 C.ar  1 <1>  -0.1500 
  5 C        2.0430    -1.9780     1.0760 C.ar  1 <1>  -0.1500 
  6 C        3.3140    -0.8940    -1.1250 C.ar  1 <1>  -0.1500 
  7 C        3.1900    -2.5710     0.5810 C.ar  1 <1>  -0.1500 
  8 C        3.8350    -2.0290    -0.5200 C.ar  1 <1>  -0.1430 
  9 C        5.1060    -2.6640    -1.0470 C.3   1 <1>  -0.0170 
 10 C        6.2910    -2.0560    -0.2990 C.3   1 <1>   0.3430 
 11 N        7.5760    -2.6450    -0.7720 N.4   1 <1>  -0.9060 
 12 C        8.7630    -2.1330    -0.0560 C.3   1 <1>   0.4230 
 13 C        9.0290    -0.6850    -0.4980 C.3   1 <1>  -0.1600 
 14 C        9.9160    -3.1050    -0.3350 C.3   1 <1>  -0.1600 
 15 C       10.2900    -0.0410     0.1040 C.3   1 <1>  -0.1600 
 16 C       11.0870    -2.9040     0.6380 C.3   1 <1>  -0.1600 
 17 C       11.5860    -0.6010    -0.4990 C.3   1 <1>  -0.1600 
 18 C       12.1240    -1.8650     0.1880 C.3   1 <1>  -0.1600 
 19 H       -1.1050     1.0260     1.0700 H     1 <1>   0.0800 
 20 H       -0.5230     0.5910    -0.5330 H     1 <1>   0.0800 
 21 H        0.4470     1.6430     0.5150 H     1 <1>   0.0800 
 22 H        1.7850     0.5760    -1.1190 H     1 <1>   0.1500 
 23 H        1.5370    -2.3920     1.9300 H     1 <1>   0.1500 
 24 H        3.7910    -0.4610    -1.9870 H     1 <1>   0.1500 
 25 H        3.5640    -3.4560     1.0650 H     1 <1>   0.1500 
 26 H        5.1900    -2.4740    -2.1030 H     1 <1>   0.0800 
 27 H        5.0650    -3.7270    -0.8880 H     1 <1>   0.0800 
 28 H        6.1690    -2.2370     0.7570 H     1 <1>   0.0800 
 29 H        6.2900    -0.9890    -0.4560 H     1 <1>   0.0800 
 30 H        7.7040    -2.4650    -1.7750 H     1 <1>   0.4500 
 31 H        7.5460    -3.6630    -0.6520 H     1 <1>   0.4500 
 32 H        8.5670    -2.1420     1.0050 H     1 <1>   0.0800 
 33 H        8.1990    -0.0720    -0.1960 H     1 <1>   0.0800 
 34 H        9.1000    -0.6350    -1.5710 H     1 <1>   0.0800 
 35 H       10.2600    -3.0230    -1.3510 H     1 <1>   0.0800 
 36 H        9.5620    -4.1100    -0.1840 H     1 <1>   0.0800 
 37 H       10.3010    -0.1290     1.1770 H     1 <1>   0.0800 
 38 H       10.2570     1.0120    -0.1230 H     1 <1>   0.0800 
 39 H       11.6040    -3.8420     0.7600 H     1 <1>   0.0800 
 40 H       10.7120    -2.6340     1.6120 H     1 <1>   0.0800 
 41 H       12.3500     0.1550    -0.4260 H     1 <1>   0.0800 
 42 H       11.4490    -0.7900    -1.5500 H     1 <1>   0.0800 
 43 H       12.8180    -2.3360    -0.4880 H     1 <1>   0.0800 
 44 H       12.6940    -1.5700     1.0530 H     1 <1>   0.0800 
@<TRIPOS>BOND
  1   1   2  1   
  2   1   3  1   
  3   2   4  ar  
  4   2   5  ar  
  5   3  19  1   
  6   3  20  1   
  7   3  21  1   
  8   4   6  ar  
  9   4  22  1   
 10   5   7  ar  
 11   5  23  1   
 12   6   8  ar  
 13   6  24  1   
 14   7   8  ar  
 15   7  25  1   
 16   8   9  1   
 17   9  10  1   
 18   9  26  1   
 19   9  27  1   
 20  10  11  1   
 21  10  28  1   
 22  10  29  1   
 23  11  12  1   
 24  11  30  1   
 25  11  31  1   
 26  12  13  1   
 27  12  14  1   
 28  12  32  1   
 29  13  15  1   
 30  13  33  1   
 31  13  34  1   
 32  14  16  1   
 33  14  35  1   
 34  14  36  1   
 35  15  17  1   
 36  15  37  1   
 37  15  38  1   
 38  16  18  1   
 39  16  39  1   
 40  16  40  1   
 41  17  18  1   
 42  17  41  1   
 43  17  42  1   
 44  18  43  1   
 45  18  44  1   
@<TRIPOS>SUBSTRUCTURE
  1 ****  10 GROUP 4 **** **** 0

# MOE 2024.06 (io_trps.svl 2023.06)
