@<TRIPOS>MOLECULE
NONAME
39 40 1 0 0 
SMALL
USER_CHARGES


@<TRIPOS>ATOM
  1 S       -0.0180     0.0210    -0.8420 S.3   1 <1>  -0.0800 
  2 C       -1.2660     1.1310    -0.2380 C.2   1 <1>  -0.0450 
  3 C       -1.1850    -0.8820    -1.7800 C.2   1 <1>  -0.1100 
  4 C       -2.4770     0.7760    -0.7610 C.2   1 <1>   0.0630 
  5 C       -0.9100     2.1870     0.6530 C.2   1 <1>   0.8050 
  6 C       -2.4160    -0.3620    -1.6280 C.2   1 <1>  -0.1500 
  7 N       -3.6510     1.4750    -0.4610 N.am  1 <1>  -0.4930 
  8 O       -1.7360     2.9710     1.0950 O.2   1 <1>  -0.5700 
  9 O        0.3710     2.3270     1.0190 O.3   1 <1>  -0.4300 
 10 C       -4.9520     1.3190    -0.8590 C.2   1 <1>   0.5690 
 11 C        0.7900     3.3540     1.8970 C.3   1 <1>   0.0400 
 12 O       -5.3180     0.4500    -1.6120 O.2   1 <1>  -0.5700 
 13 C       -5.9750     2.3070    -0.2970 C.3   1 <1>  -0.0190 
 14 C       -6.6650     1.7320     0.9530 C.3   1 <1>  -0.1600 
 15 C       -7.0330     2.7150    -1.3430 C.3   1 <1>  -0.1600 
 16 C       -7.7080     2.6990     1.5210 C.3   1 <1>   0.1400 
 17 C       -8.0650     3.6780    -0.7520 C.3   1 <1>   0.1400 
 18 N       -8.6830     3.0630     0.4560 N.am  1 <1>  -0.6600 
 19 C      -10.0230     2.8110     0.6140 C.2   1 <1>   0.5690 
 20 O      -10.4780     2.3450     1.6310 O.2   1 <1>  -0.5700 
 21 C      -11.0020     3.1130    -0.4980 C.3   1 <1>  -0.1790 
 22 H       -0.8260    -1.7190    -2.3530 H     1 <1>   0.1500 
 23 H       -3.2960    -0.7500    -2.1080 H     1 <1>   0.1500 
 24 H       -3.4970     2.2540     0.1890 H     1 <1>   0.3700 
 25 H        1.8520     3.2630     2.0430 H     1 <1>   0.0800 
 26 H        0.2780     3.2410     2.8370 H     1 <1>   0.0800 
 27 H        0.5580     4.3080     1.4570 H     1 <1>   0.0800 
 28 H       -5.4480     3.1980    -0.0060 H     1 <1>   0.0800 
 29 H       -5.9330     1.5190     1.7110 H     1 <1>   0.0800 
 30 H       -7.1540     0.8050     0.7030 H     1 <1>   0.0800 
 31 H       -7.5460     1.8410    -1.7060 H     1 <1>   0.0800 
 32 H       -6.5490     3.1810    -2.1830 H     1 <1>   0.0800 
 33 H       -7.2300     3.5940     1.8790 H     1 <1>   0.0800 
 34 H       -8.2090     2.2350     2.3550 H     1 <1>   0.0800 
 35 H       -8.8040     3.9100    -1.4970 H     1 <1>   0.0800 
 36 H       -7.5860     4.5990    -0.4660 H     1 <1>   0.0800 
 37 H      -11.0070     4.1660    -0.7030 H     1 <1>   0.0800 
 38 H      -11.9900     2.8160    -0.1990 H     1 <1>   0.0800 
 39 H      -10.7310     2.5660    -1.3800 H     1 <1>   0.0800 
@<TRIPOS>BOND
  1   1   2  1   
  2   1   3  1   
  3   2   4  2   
  4   2   5  1   
  5   3   6  2   
  6   3  22  1   
  7   4   6  1   
  8   4   7  1   
  9   5   8  2   
 10   5   9  1   
 11   6  23  1   
 12   7  10  am  
 13   7  24  1   
 14   9  11  1   
 15  10  12  2   
 16  10  13  1   
 17  11  25  1   
 18  11  26  1   
 19  11  27  1   
 20  13  14  1   
 21  13  15  1   
 22  13  28  1   
 23  14  16  1   
 24  14  29  1   
 25  14  30  1   
 26  15  17  1   
 27  15  31  1   
 28  15  32  1   
 29  16  18  1   
 30  16  33  1   
 31  16  34  1   
 32  17  18  1   
 33  17  35  1   
 34  17  36  1   
 35  18  19  am  
 36  19  20  2   
 37  19  21  1   
 38  21  37  1   
 39  21  38  1   
 40  21  39  1   
@<TRIPOS>SUBSTRUCTURE
  1 ****  10 GROUP 4 **** **** 0

# MOE 2024.06 (io_trps.svl 2023.06)
