@<TRIPOS>MOLECULE
NONAME
47 50 1 0 0 
SMALL
USER_CHARGES


@<TRIPOS>ATOM
  1 S       -0.5440    -0.9570     2.1540 S.3   1 <1>  -0.2860 
  2 C        0.8900    -0.1170     1.4660 C.2   1 <1>   0.2420 
  3 C       -1.6050     0.4070     2.8400 C.3   1 <1>   0.1310 
  4 N        1.1360     1.1350     1.6130 N.2   1 <1>  -0.3380 
  5 N        1.8040    -0.7590     0.7410 N.pl3 1 <1>   0.0480 
  6 C       -2.9240     0.4570     2.0890 C.2   1 <1>   0.5950 
  7 N        2.2710     1.3610     0.9480 N.2   1 <1>  -0.3380 
  8 C        2.6590     0.2340     0.4400 C.2   1 <1>   0.0060 
  9 C        1.8260    -2.1930     0.3840 C.3   1 <1>   0.0160 
 10 O       -3.8720    -0.0760     2.6170 O.2   1 <1>  -0.5700 
 11 C       -2.9820     1.1330     0.8210 C.2   1 <1>  -0.0860 
 12 C        3.9190     0.0430    -0.4040 C.3   1 <1>   0.1000 
 13 C       -4.1170     1.1850    -0.0410 C.ar  1 <1>   0.0000 
 14 C       -2.0040     1.8500     0.1780 C.2   1 <1>  -0.3020 
 15 C        5.0160     1.0640    -0.0480 C.3   1 <1>  -0.1600 
 16 C        3.5740     0.1320    -1.9000 C.3   1 <1>  -0.1600 
 17 C       -3.7540     1.9300    -1.1580 C.ar  1 <1>  -0.1520 
 18 C       -5.4130     0.6630     0.0310 C.ar  1 <1>  -0.1500 
 19 N       -2.4540     2.3280    -1.0040 N.pl3 1 <1>   0.0330 
 20 C        6.2670     0.8750    -0.9190 C.3   1 <1>  -0.1600 
 21 C        4.8190    -0.0540    -2.7810 C.3   1 <1>  -0.1600 
 22 C       -4.6530     2.1650    -2.2010 C.ar  1 <1>  -0.1500 
 23 C       -6.3030     0.8930    -0.9950 C.ar  1 <1>  -0.1500 
 24 C        5.9160     0.9530    -2.4110 C.3   1 <1>  -0.1600 
 25 C       -5.9230     1.6440    -2.1120 C.ar  1 <1>  -0.1500 
 26 H       -1.0780     1.3370     2.7600 H     1 <1>   0.0800 
 27 H       -1.7750     0.1780     3.8750 H     1 <1>   0.0800 
 28 H        2.1730    -2.7620     1.2280 H     1 <1>   0.0800 
 29 H        2.4770    -2.3580    -0.4540 H     1 <1>   0.0800 
 30 H        0.8330    -2.5120     0.1240 H     1 <1>   0.0800 
 31 H        4.3190    -0.9350    -0.2000 H     1 <1>   0.0800 
 32 H       -0.9980     2.0470     0.5050 H     1 <1>   0.1500 
 33 H        5.2780     0.9610     0.9900 H     1 <1>   0.0800 
 34 H        4.6360     2.0610    -0.1920 H     1 <1>   0.0800 
 35 H        3.1390     1.0970    -2.0990 H     1 <1>   0.0800 
 36 H        2.8430    -0.6140    -2.1530 H     1 <1>   0.0800 
 37 H       -5.7030     0.0860     0.8900 H     1 <1>   0.1500 
 38 H       -1.9280     2.8920    -1.6790 H     1 <1>   0.2700 
 39 H        6.7130    -0.0810    -0.7050 H     1 <1>   0.0800 
 40 H        6.9890     1.6370    -0.6790 H     1 <1>   0.0800 
 41 H        4.5500     0.0730    -3.8160 H     1 <1>   0.0800 
 42 H        5.1980    -1.0540    -2.6600 H     1 <1>   0.0800 
 43 H       -4.3500     2.7440    -3.0550 H     1 <1>   0.1500 
 44 H       -7.3010     0.4940    -0.9440 H     1 <1>   0.1500 
 45 H        6.7970     0.7610    -2.9990 H     1 <1>   0.0800 
 46 H        5.5770     1.9480    -2.6430 H     1 <1>   0.0800 
 47 H       -6.6360     1.8100    -2.9000 H     1 <1>   0.1500 
@<TRIPOS>BOND
  1   1   2  1   
  2   1   3  1   
  3   2   4  2   
  4   2   5  1   
  5   3   6  1   
  6   3  26  1   
  7   3  27  1   
  8   4   7  1   
  9   5   8  1   
 10   5   9  1   
 11   6  10  2   
 12   6  11  1   
 13   7   8  2   
 14   8  12  1   
 15   9  28  1   
 16   9  29  1   
 17   9  30  1   
 18  11  13  1   
 19  11  14  2   
 20  12  15  1   
 21  12  16  1   
 22  12  31  1   
 23  13  17  ar  
 24  13  18  ar  
 25  14  19  1   
 26  14  32  1   
 27  15  20  1   
 28  15  33  1   
 29  15  34  1   
 30  16  21  1   
 31  16  35  1   
 32  16  36  1   
 33  17  19  1   
 34  17  22  ar  
 35  18  23  ar  
 36  18  37  1   
 37  19  38  1   
 38  20  24  1   
 39  20  39  1   
 40  20  40  1   
 41  21  24  1   
 42  21  41  1   
 43  21  42  1   
 44  22  25  ar  
 45  22  43  1   
 46  23  25  ar  
 47  23  44  1   
 48  24  45  1   
 49  24  46  1   
 50  25  47  1   
@<TRIPOS>SUBSTRUCTURE
  1 ****   2 GROUP 4 **** **** 0

# MOE 2024.06 (io_trps.svl 2023.06)
