@<TRIPOS>MOLECULE
NONAME
49 51 1 0 0 
SMALL
USER_CHARGES


@<TRIPOS>ATOM
  1 CL      -2.4700    -1.1990    -0.6240 Cl    1 <1>  -0.1770 
  2 C       -2.0100     0.4170    -0.1460 C.ar  1 <1>   0.1770 
  3 C       -2.7700     1.5230    -0.5390 C.ar  1 <1>   0.0860 
  4 C       -0.8690     0.5440     0.6240 C.ar  1 <1>  -0.1500 
  5 C       -3.9720     1.4070    -1.3380 C.2   1 <1>   0.5440 
  6 C       -2.3160     2.7830    -0.1390 C.ar  1 <1>  -0.1500 
  7 C       -0.4630     1.8050     1.0100 C.ar  1 <1>   0.1770 
  8 O       -4.0830     2.0900    -2.3370 O.2   1 <1>  -0.5700 
  9 N       -5.0350     0.6000    -0.9850 N.am  1 <1>  -0.6600 
 10 C       -1.1750     2.9280     0.6320 C.ar  1 <1>  -0.1500 
 11 CL       0.9700     1.9840     1.9840 Cl    1 <1>  -0.1770 
 12 C       -5.3410     0.2120     0.4100 C.3   1 <1>   0.1400 
 13 C       -6.0200     0.1490    -2.0010 C.3   1 <1>   0.1400 
 14 C       -6.7010     0.8200     0.7730 C.3   1 <1>  -0.1600 
 15 C       -7.3740     0.7660    -1.6540 C.3   1 <1>  -0.1600 
 16 C       -7.8130     0.3870    -0.2170 C.3   1 <1>   0.5640 
 17 N       -9.0970     1.1370     0.1360 N.4   1 <1>  -0.9590 
 18 C       -8.0390    -1.1720    -0.1160 C.2   1 <1>   0.5690 
 19 C      -10.2700     0.6290    -0.6550 C.3   1 <1>   0.3430 
 20 C       -9.0200     2.6330     0.0430 C.3   1 <1>   0.3430 
 21 O       -8.4670    -1.7670    -1.0720 O.2   1 <1>  -0.5700 
 22 N       -7.8530    -1.8790     1.0270 N.am  1 <1>  -0.8000 
 23 C      -11.5690     1.2130    -0.0980 C.3   1 <1>  -0.1600 
 24 C      -10.2900     3.2570     0.6220 C.3   1 <1>  -0.1600 
 25 C      -11.5480     2.7450    -0.0890 C.3   1 <1>  -0.1600 
 26 H       -0.3030    -0.3230     0.9150 H     1 <1>   0.1500 
 27 H       -2.8670     3.6570    -0.4460 H     1 <1>   0.1500 
 28 H       -0.8330     3.9020     0.9370 H     1 <1>   0.1500 
 29 H       -4.5870     0.5870     1.0810 H     1 <1>   0.0800 
 30 H       -5.3500    -0.8630     0.4850 H     1 <1>   0.0800 
 31 H       -6.0680    -0.9280    -2.0020 H     1 <1>   0.0800 
 32 H       -5.7170     0.4590    -2.9880 H     1 <1>   0.0800 
 33 H       -6.5640     1.8850     0.7560 H     1 <1>   0.0800 
 34 H       -6.9540     0.5400     1.7790 H     1 <1>   0.0800 
 35 H       -8.0900     0.4230    -2.3780 H     1 <1>   0.0800 
 36 H       -7.2670     1.8290    -1.7680 H     1 <1>   0.0800 
 37 H       -9.3080     0.9100     1.1130 H     1 <1>   0.4500 
 38 H      -10.3280    -0.4470    -0.6060 H     1 <1>   0.0800 
 39 H      -10.1640     0.9110    -1.6900 H     1 <1>   0.0800 
 40 H       -8.9170     2.9310    -0.9880 H     1 <1>   0.0800 
 41 H       -8.1720     3.0080     0.5900 H     1 <1>   0.0800 
 42 H       -8.0300    -2.8900     1.0030 H     1 <1>   0.3700 
 43 H       -7.4860    -1.5350     1.9160 H     1 <1>   0.3700 
 44 H      -11.7320     0.8400     0.8980 H     1 <1>   0.0800 
 45 H      -12.3920     0.8740    -0.7040 H     1 <1>   0.0800 
 46 H      -10.2350     4.3270     0.5140 H     1 <1>   0.0800 
 47 H      -10.3490     3.0450     1.6750 H     1 <1>   0.0800 
 48 H      -12.4290     3.1220     0.4040 H     1 <1>   0.0800 
 49 H      -11.5610     3.1100    -1.1040 H     1 <1>   0.0800 
@<TRIPOS>BOND
  1   1   2  1   
  2   2   3  ar  
  3   2   4  ar  
  4   3   5  1   
  5   3   6  ar  
  6   4   7  ar  
  7   4  26  1   
  8   5   8  2   
  9   5   9  am  
 10   6  10  ar  
 11   6  27  1   
 12   7  10  ar  
 13   7  11  1   
 14   9  12  1   
 15   9  13  1   
 16  10  28  1   
 17  12  14  1   
 18  12  29  1   
 19  12  30  1   
 20  13  15  1   
 21  13  31  1   
 22  13  32  1   
 23  14  16  1   
 24  14  33  1   
 25  14  34  1   
 26  15  16  1   
 27  15  35  1   
 28  15  36  1   
 29  16  17  1   
 30  16  18  1   
 31  17  19  1   
 32  17  20  1   
 33  17  37  1   
 34  18  21  2   
 35  18  22  am  
 36  19  23  1   
 37  19  38  1   
 38  19  39  1   
 39  20  24  1   
 40  20  40  1   
 41  20  41  1   
 42  22  42  1   
 43  22  43  1   
 44  23  25  1   
 45  23  44  1   
 46  23  45  1   
 47  24  25  1   
 48  24  46  1   
 49  24  47  1   
 50  25  48  1   
 51  25  49  1   
@<TRIPOS>SUBSTRUCTURE
  1 ****  12 GROUP 4 **** **** 0

# MOE 2024.06 (io_trps.svl 2023.06)
