@<TRIPOS>MOLECULE
NONAME
32 34 1 0 0 
SMALL
USER_CHARGES


@<TRIPOS>ATOM
  1 CL      -0.1210     0.0350     1.1640 Cl    1 <1>  -0.1230 
  2 C       -1.2780    -1.0060     0.3430 C.2   1 <1>   0.1230 
  3 C       -2.5930    -0.7320     0.1800 C.2   1 <1>  -0.0260 
  4 C       -1.0120    -2.2370    -0.2560 C.2   1 <1>   0.2030 
  5 N       -3.3810     0.3360     0.5730 N.2   1 <1>  -0.5760 
  6 N       -3.0790    -1.8100    -0.5220 N.pl3 1 <1>   0.6010 
  7 N       -2.1300    -2.7250    -0.7850 N.2   1 <1>  -0.7070 
  8 C        0.3000    -2.8710    -0.2810 C.2   1 <1>   0.7160 
  9 C       -4.6300     0.2820     0.2430 C.2   1 <1>   0.3760 
 10 C       -4.4160    -1.8450    -0.8620 C.2   1 <1>  -0.1810 
 11 O        0.6650    -3.5490    -1.2250 O.2   1 <1>  -0.5700 
 12 N        1.1790    -2.7120     0.7590 N.am  1 <1>  -0.7300 
 13 C       -5.2000    -0.8020    -0.4840 C.2   1 <1>  -0.1360 
 14 C        2.5560    -3.2770     0.8120 C.3   1 <1>   0.1400 
 15 C        3.5340    -2.4710    -0.0560 C.3   1 <1>   0.2000 
 16 O        4.8330    -2.8790     0.2170 O.3   1 <1>  -0.5600 
 17 C        3.5590    -0.9710     0.2170 C.3   1 <1>  -0.1600 
 18 C        5.7330    -1.9070    -0.2060 C.3   1 <1>   0.1200 
 19 C        4.9820    -0.5780    -0.1450 C.3   1 <1>  -0.1600 
 20 H       -5.2820     1.0900     0.5260 H     1 <1>   0.0600 
 21 H       -4.7460    -2.7070    -1.4110 H     1 <1>   0.1500 
 22 H        0.9350    -2.0650     1.5100 H     1 <1>   0.3700 
 23 H       -6.2500    -0.7580    -0.7130 H     1 <1>   0.1500 
 24 H        2.5370    -4.2940     0.4600 H     1 <1>   0.0800 
 25 H        2.8970    -3.2710     1.8320 H     1 <1>   0.0800 
 26 H        3.3460    -2.6640    -1.0990 H     1 <1>   0.0800 
 27 H        3.3780    -0.7860     1.2610 H     1 <1>   0.0800 
 28 H        2.8230    -0.4500    -0.3700 H     1 <1>   0.0800 
 29 H        6.0300    -2.1420    -1.2140 H     1 <1>   0.0800 
 30 H        6.5890    -1.9240     0.4450 H     1 <1>   0.0800 
 31 H        5.4110     0.0750     0.5940 H     1 <1>   0.0800 
 32 H        5.0220    -0.0950    -1.1060 H     1 <1>   0.0800 
@<TRIPOS>BOND
  1   1   2  1   
  2   2   3  2   
  3   2   4  1   
  4   3   5  1   
  5   3   6  1   
  6   4   7  2   
  7   4   8  1   
  8   5   9  2   
  9   6   7  1   
 10   6  10  1   
 11   8  11  2   
 12   8  12  am  
 13   9  13  1   
 14   9  20  1   
 15  10  13  2   
 16  10  21  1   
 17  12  14  1   
 18  12  22  1   
 19  13  23  1   
 20  14  15  1   
 21  14  24  1   
 22  14  25  1   
 23  15  16  1   
 24  15  17  1   
 25  15  26  1   
 26  16  18  1   
 27  17  19  1   
 28  17  27  1   
 29  17  28  1   
 30  18  19  1   
 31  18  29  1   
 32  18  30  1   
 33  19  31  1   
 34  19  32  1   
@<TRIPOS>SUBSTRUCTURE
  1 ****   4 GROUP 4 **** **** 0

# MOE 2024.06 (io_trps.svl 2023.06)
