@<TRIPOS>MOLECULE
NONAME
36 37 1 0 0 
SMALL
USER_CHARGES


@<TRIPOS>ATOM
  1 S       -0.3070    -0.1300     0.3930 S.3   1 <1>  -0.0800 
  2 C        1.0190     0.9550     0.0150 C.2   1 <1>   0.1040 
  3 C       -1.4480     1.2000     0.4880 C.2   1 <1>  -0.1400 
  4 N        2.2870     0.4450    -0.2440 N.am  1 <1>  -0.4940 
  5 C        0.5850     2.2500    -0.0140 C.2   1 <1>  -0.0860 
  6 C       -0.8320     2.3710     0.2570 C.2   1 <1>  -0.1810 
  7 C       -2.8890     0.8530     0.7990 C.3   1 <1>   0.0200 
  8 C        2.8460    -0.7780     0.0090 C.2   1 <1>   0.5690 
  9 C        1.4650     3.3540    -0.2700 C.2   1 <1>   0.7160 
 10 C       -1.5670     3.7060     0.2950 C.3   1 <1>   0.0210 
 11 C       -3.8470     1.4300    -0.2510 C.3   1 <1>  -0.1600 
 12 O        2.3340    -1.6410     0.6730 O.2   1 <1>  -0.5700 
 13 C        4.2160    -1.0350    -0.5670 C.3   1 <1>  -0.1790 
 14 O        1.2610     4.1530    -1.1650 O.2   1 <1>  -0.5700 
 15 N        2.5860     3.4980     0.5010 N.am  1 <1>  -0.7300 
 16 C       -2.7530     3.7410    -0.6790 C.3   1 <1>  -0.1600 
 17 C       -3.9910     2.9610    -0.2040 C.3   1 <1>  -0.1600 
 18 C        3.5680     4.6100     0.4140 C.3   1 <1>   0.0600 
 19 H        2.9110     1.0960    -0.7180 H     1 <1>   0.3700 
 20 H       -3.1420     1.2180     1.7780 H     1 <1>   0.0800 
 21 H       -2.9960    -0.2180     0.8100 H     1 <1>   0.0800 
 22 H       -0.9040     4.5100     0.0410 H     1 <1>   0.0800 
 23 H       -1.9130     3.8900     1.2970 H     1 <1>   0.0800 
 24 H       -4.8180     0.9980    -0.0860 H     1 <1>   0.0800 
 25 H       -3.5230     1.1260    -1.2320 H     1 <1>   0.0800 
 26 H        4.9280    -0.3610    -0.1310 H     1 <1>   0.0800 
 27 H        4.1950    -0.9040    -1.6320 H     1 <1>   0.0800 
 28 H        4.5160    -2.0450    -0.3490 H     1 <1>   0.0800 
 29 H        2.6550     2.8940     1.3240 H     1 <1>   0.3700 
 30 H       -2.4340     3.3800    -1.6420 H     1 <1>   0.0800 
 31 H       -3.0410     4.7700    -0.8050 H     1 <1>   0.0800 
 32 H       -4.2590     3.2720     0.7920 H     1 <1>   0.0800 
 33 H       -4.8110     3.2290    -0.8480 H     1 <1>   0.0800 
 34 H        3.4050     5.1880    -0.4810 H     1 <1>   0.0800 
 35 H        4.5680     4.2140     0.3930 H     1 <1>   0.0800 
 36 H        3.4610     5.2570     1.2670 H     1 <1>   0.0800 
@<TRIPOS>BOND
  1   1   2  1   
  2   1   3  1   
  3   2   4  1   
  4   2   5  2   
  5   3   6  2   
  6   3   7  1   
  7   4   8  am  
  8   4  19  1   
  9   5   6  1   
 10   5   9  1   
 11   6  10  1   
 12   7  11  1   
 13   7  20  1   
 14   7  21  1   
 15   8  12  2   
 16   8  13  1   
 17   9  14  2   
 18   9  15  am  
 19  10  16  1   
 20  10  22  1   
 21  10  23  1   
 22  11  17  1   
 23  11  24  1   
 24  11  25  1   
 25  13  26  1   
 26  13  27  1   
 27  13  28  1   
 28  15  18  1   
 29  15  29  1   
 30  16  17  1   
 31  16  30  1   
 32  16  31  1   
 33  17  32  1   
 34  17  33  1   
 35  18  34  1   
 36  18  35  1   
 37  18  36  1   
@<TRIPOS>SUBSTRUCTURE
  1 ****   5 GROUP 4 **** **** 0

# MOE 2024.06 (io_trps.svl 2023.06)
