@<TRIPOS>MOLECULE
NONAME
52 53 1 0 0 
SMALL
USER_CHARGES


@<TRIPOS>ATOM
  1 S       -0.1100    -0.1850     0.9540 S.o2  1 <1>   1.3330 
  2 O       -0.9690     0.8780     1.4200 O.2   1 <1>  -0.6500 
  3 O        0.7870    -0.8170     1.8980 O.2   1 <1>  -0.6500 
  4 N       -1.0870    -1.3940     0.2860 N.am  1 <1>  -0.8490 
  5 C        0.7920     0.4480    -0.4470 C.3   1 <1>  -0.1350 
  6 C       -2.3900    -1.4300     0.9630 C.3   1 <1>   0.3390 
  7 C       -0.4470    -2.7460     0.2620 C.3   1 <1>   0.2570 
  8 C       -3.3150    -2.4910     0.3780 C.ar  1 <1>  -0.1440 
  9 C        0.9110    -2.8570    -0.4510 C.2   1 <1>   0.5690 
 10 C       -3.8380    -3.4910     1.1850 C.ar  1 <1>  -0.1500 
 11 C       -3.6400    -2.4680    -0.9700 C.ar  1 <1>  -0.1500 
 12 O        0.9400    -3.0640    -1.6400 O.2   1 <1>  -0.5700 
 13 N        2.0520    -2.7170     0.2750 N.am  1 <1>  -0.7300 
 14 C       -4.6740    -4.4560     0.6500 C.ar  1 <1>  -0.1500 
 15 C       -4.4750    -3.4320    -1.5070 C.ar  1 <1>  -0.1500 
 16 C        3.4270    -2.8140    -0.2430 C.3   1 <1>   0.2200 
 17 C       -4.9920    -4.4280    -0.6970 C.ar  1 <1>  -0.1500 
 18 C        3.9970    -4.1530     0.2410 C.3   1 <1>  -0.1600 
 19 C        4.1970    -1.5780     0.2450 C.3   1 <1>  -0.1600 
 20 C        5.3930    -4.5030    -0.3000 C.3   1 <1>  -0.1600 
 21 C        5.3740    -1.1760    -0.6670 C.3   1 <1>  -0.1600 
 22 C        6.5570    -3.9140     0.5190 C.3   1 <1>  -0.1600 
 23 C        6.7570    -1.3900    -0.0350 C.3   1 <1>  -0.1600 
 24 C        7.3340    -2.8030    -0.2020 C.3   1 <1>  -0.1600 
 25 H        1.4360     1.2470    -0.1370 H     1 <1>   0.0800 
 26 H        0.1060     0.8270    -1.1790 H     1 <1>   0.0800 
 27 H        1.3880    -0.3140    -0.9050 H     1 <1>   0.0800 
 28 H       -2.8810    -0.4770     0.8510 H     1 <1>   0.0800 
 29 H       -2.2470    -1.6050     2.0160 H     1 <1>   0.0800 
 30 H       -1.0970    -3.4380    -0.2430 H     1 <1>   0.0800 
 31 H       -0.3260    -3.1000     1.2700 H     1 <1>   0.0800 
 32 H       -3.6010    -3.5260     2.2350 H     1 <1>   0.1500 
 33 H       -3.2350    -1.6990    -1.6060 H     1 <1>   0.1500 
 34 H        1.9760    -2.3680     1.2400 H     1 <1>   0.3700 
 35 H       -5.0770    -5.2300     1.2800 H     1 <1>   0.1500 
 36 H       -4.7200    -3.4080    -2.5540 H     1 <1>   0.1500 
 37 H        3.3880    -2.8130    -1.3200 H     1 <1>   0.0800 
 38 H       -5.6410    -5.1780    -1.1140 H     1 <1>   0.1500 
 39 H        3.3250    -4.9200    -0.1030 H     1 <1>   0.0800 
 40 H        4.0000    -4.1880     1.3160 H     1 <1>   0.0800 
 41 H        4.5250    -1.7260     1.2590 H     1 <1>   0.0800 
 42 H        3.5180    -0.7440     0.2550 H     1 <1>   0.0800 
 43 H        5.4670    -4.2350    -1.3400 H     1 <1>   0.0800 
 44 H        5.4860    -5.5750    -0.2560 H     1 <1>   0.0800 
 45 H        5.2780    -0.1230    -0.8660 H     1 <1>   0.0800 
 46 H        5.3210    -1.6720    -1.6210 H     1 <1>   0.0800 
 47 H        7.2530    -4.7160     0.7000 H     1 <1>   0.0800 
 48 H        6.2290    -3.5740     1.4860 H     1 <1>   0.0800 
 49 H        6.7370    -1.1220     1.0070 H     1 <1>   0.0800 
 50 H        7.4410    -0.7120    -0.5150 H     1 <1>   0.0800 
 51 H        7.4360    -3.0380    -1.2480 H     1 <1>   0.0800 
 52 H        8.3300    -2.7860     0.2070 H     1 <1>   0.0800 
@<TRIPOS>BOND
  1   1   2  2   
  2   1   3  2   
  3   1   4  am  
  4   1   5  1   
  5   4   6  1   
  6   4   7  1   
  7   5  25  1   
  8   5  26  1   
  9   5  27  1   
 10   6   8  1   
 11   6  28  1   
 12   6  29  1   
 13   7   9  1   
 14   7  30  1   
 15   7  31  1   
 16   8  10  ar  
 17   8  11  ar  
 18   9  12  2   
 19   9  13  am  
 20  10  14  ar  
 21  10  32  1   
 22  11  15  ar  
 23  11  33  1   
 24  13  16  1   
 25  13  34  1   
 26  14  17  ar  
 27  14  35  1   
 28  15  17  ar  
 29  15  36  1   
 30  16  18  1   
 31  16  19  1   
 32  16  37  1   
 33  17  38  1   
 34  18  20  1   
 35  18  39  1   
 36  18  40  1   
 37  19  21  1   
 38  19  41  1   
 39  19  42  1   
 40  20  22  1   
 41  20  43  1   
 42  20  44  1   
 43  21  23  1   
 44  21  45  1   
 45  21  46  1   
 46  22  24  1   
 47  22  47  1   
 48  22  48  1   
 49  23  24  1   
 50  23  49  1   
 51  23  50  1   
 52  24  51  1   
 53  24  52  1   
@<TRIPOS>SUBSTRUCTURE
  1 ****   9 GROUP 4 **** **** 0

# MOE 2024.06 (io_trps.svl 2023.06)
