@<TRIPOS>MOLECULE
NONAME
44 45 1 0 0 
SMALL
USER_CHARGES


@<TRIPOS>ATOM
  1 O       -0.8590    -0.4280     0.8000 O.2   1 <1>  -0.5700 
  2 C       -1.9080     0.1090     0.5420 C.2   1 <1>   0.5690 
  3 N       -3.0240    -0.4880     0.0270 N.am  1 <1>  -0.4690 
  4 C       -2.1890     1.5790     0.7590 C.3   1 <1>   0.0390 
  5 C       -4.0350     0.4420    -0.1170 C.2   1 <1>  -0.0290 
  6 C       -3.0690    -1.9360    -0.3000 C.3   1 <1>   0.1400 
  7 C       -3.6390     1.6750     0.2840 C.2   1 <1>  -0.1240 
  8 C       -5.3810    -0.0030    -0.6710 C.3   1 <1>  -0.1020 
  9 C       -3.4370    -2.7480     0.9430 C.3   1 <1>  -0.0160 
 10 C       -4.2690     2.9600     0.3440 C.2   1 <1>   0.7060 
 11 C       -3.5310    -4.2220     0.5880 C.ar  1 <1>  -0.1440 
 12 O       -3.6970     3.9470     0.7650 O.2   1 <1>  -0.5700 
 13 O       -5.5310     3.0850    -0.0780 O.3   1 <1>  -0.4300 
 14 C       -4.7420    -4.7770     0.2090 C.ar  1 <1>  -0.1500 
 15 C       -2.4060    -5.0250     0.6340 C.ar  1 <1>  -0.1500 
 16 C       -6.2050     4.3290    -0.0470 C.3   1 <1>   0.0400 
 17 C       -4.8460    -6.1180    -0.1240 C.ar  1 <1>   0.0820 
 18 C       -2.4880    -6.3650     0.2960 C.ar  1 <1>  -0.1500 
 19 O       -6.1020    -6.5260    -0.4660 O.3   1 <1>  -0.3630 
 20 C       -3.7000    -6.9310    -0.0950 C.ar  1 <1>   0.0820 
 21 C       -6.5500    -7.8290    -0.1640 C.3   1 <1>   0.0400 
 22 O       -3.7840    -8.2430    -0.4640 O.3   1 <1>  -0.3630 
 23 C       -2.6380    -9.0470    -0.6350 C.3   1 <1>   0.0400 
 24 H       -1.5320     2.1800     0.1580 H     1 <1>   0.0800 
 25 H       -2.0920     1.8310     1.7980 H     1 <1>   0.0800 
 26 H       -2.1020    -2.2470    -0.6570 H     1 <1>   0.0800 
 27 H       -3.7830    -2.1160    -1.0830 H     1 <1>   0.0800 
 28 H       -5.7860    -0.7940    -0.0660 H     1 <1>   0.0800 
 29 H       -5.2610    -0.3620    -1.6780 H     1 <1>   0.0800 
 30 H       -6.0940     0.7970    -0.6880 H     1 <1>   0.0800 
 31 H       -4.3790    -2.4090     1.3340 H     1 <1>   0.0800 
 32 H       -2.6860    -2.6060     1.7000 H     1 <1>   0.0800 
 33 H       -5.6290    -4.1720     0.1690 H     1 <1>   0.1500 
 34 H       -1.4580    -4.6090     0.9300 H     1 <1>   0.1500 
 35 H       -7.1990     4.1880    -0.4320 H     1 <1>   0.0800 
 36 H       -5.6670     5.0320    -0.6580 H     1 <1>   0.0800 
 37 H       -6.2470     4.6770     0.9710 H     1 <1>   0.0800 
 38 H       -1.5880    -6.9470     0.3450 H     1 <1>   0.1500 
 39 H       -7.6240    -7.8220    -0.1660 H     1 <1>   0.0800 
 40 H       -6.1830    -8.1110     0.8070 H     1 <1>   0.0800 
 41 H       -6.1890    -8.5030    -0.9200 H     1 <1>   0.0800 
 42 H       -2.9550   -10.0070    -1.0010 H     1 <1>   0.0800 
 43 H       -2.1480    -9.1640     0.3150 H     1 <1>   0.0800 
 44 H       -1.9870    -8.5800    -1.3520 H     1 <1>   0.0800 
@<TRIPOS>BOND
  1   1   2  2   
  2   2   3  am  
  3   2   4  1   
  4   3   5  1   
  5   3   6  1   
  6   4   7  1   
  7   4  24  1   
  8   4  25  1   
  9   5   7  2   
 10   5   8  1   
 11   6   9  1   
 12   6  26  1   
 13   6  27  1   
 14   7  10  1   
 15   8  28  1   
 16   8  29  1   
 17   8  30  1   
 18   9  11  1   
 19   9  31  1   
 20   9  32  1   
 21  10  12  2   
 22  10  13  1   
 23  11  14  ar  
 24  11  15  ar  
 25  13  16  1   
 26  14  17  ar  
 27  14  33  1   
 28  15  18  ar  
 29  15  34  1   
 30  16  35  1   
 31  16  36  1   
 32  16  37  1   
 33  17  19  1   
 34  17  20  ar  
 35  18  20  ar  
 36  18  38  1   
 37  19  21  1   
 38  20  22  1   
 39  21  39  1   
 40  21  40  1   
 41  21  41  1   
 42  22  23  1   
 43  23  42  1   
 44  23  43  1   
 45  23  44  1   
@<TRIPOS>SUBSTRUCTURE
  1 ****   6 GROUP 4 **** **** 0

# MOE 2024.06 (io_trps.svl 2023.06)
