@<TRIPOS>MOLECULE
NONAME
53 55 1 0 0 
SMALL
USER_CHARGES


@<TRIPOS>ATOM
  1 N        0.1540     0.0870    -0.4490 N.4   1 <1>  -0.9590 
  2 C        1.3920     0.9310    -0.5390 C.3   1 <1>   0.4230 
  3 C       -1.1290     0.8360    -0.6710 C.3   1 <1>   0.4230 
  4 C        0.0700    -0.7410     0.8030 C.3   1 <1>   0.3430 
  5 C        2.6470     0.0620    -0.6460 C.3   1 <1>  -0.1600 
  6 C        1.5260     1.9120     0.6320 C.3   1 <1>  -0.1600 
  7 C       -2.2920    -0.1600    -0.7910 C.3   1 <1>  -0.1600 
  8 C       -1.0630     1.6790    -1.9470 C.3   1 <1>  -0.2400 
  9 C       -1.0590    -1.7630     0.6920 C.3   1 <1>  -0.1600 
 10 C        3.8910     0.9380    -0.8060 C.3   1 <1>   0.3430 
 11 C        2.7800     2.7720     0.4650 C.3   1 <1>   0.3430 
 12 C       -2.4020    -1.0800     0.4290 C.3   1 <1>  -0.1600 
 13 N        3.9900     1.9050     0.3310 N.4   1 <1>  -0.9590 
 14 C        5.2070     2.7790     0.2030 C.3   1 <1>   0.3430 
 15 C        6.5110     2.0040     0.4090 C.3   1 <1>  -0.0170 
 16 C        7.6570     2.9930     0.3620 C.ar  1 <1>  -0.1430 
 17 C        8.0910     3.6150     1.5230 C.ar  1 <1>  -0.1500 
 18 C        8.2730     3.2940    -0.8430 C.ar  1 <1>  -0.1500 
 19 C        9.1240     4.5350     1.4780 C.ar  1 <1>  -0.1500 
 20 C        9.3060     4.2140    -0.8880 C.ar  1 <1>  -0.1500 
 21 C        9.7310     4.8360     0.2720 C.ar  1 <1>  -0.1500 
 22 H        0.1810    -0.5880    -1.2240 H     1 <1>   0.4500 
 23 H        1.3400     1.5090    -1.4480 H     1 <1>   0.0800 
 24 H       -1.3200     1.4840     0.1700 H     1 <1>   0.0800 
 25 H       -0.1150    -0.1040     1.6520 H     1 <1>   0.0800 
 26 H        0.9940    -1.2690     0.9690 H     1 <1>   0.0800 
 27 H        2.5720    -0.5780    -1.5080 H     1 <1>   0.0800 
 28 H        2.7770    -0.5570     0.2240 H     1 <1>   0.0800 
 29 H        1.5870     1.3960     1.5730 H     1 <1>   0.0800 
 30 H        0.6750     2.5690     0.6630 H     1 <1>   0.0800 
 31 H       -2.1750    -0.7550    -1.6810 H     1 <1>   0.0800 
 32 H       -3.2160     0.3830    -0.8930 H     1 <1>   0.0800 
 33 H       -0.7720     1.0830    -2.7950 H     1 <1>   0.0800 
 34 H       -0.3990     2.5150    -1.8380 H     1 <1>   0.0800 
 35 H       -2.0360     2.0880    -2.1560 H     1 <1>   0.0800 
 36 H       -1.1220    -2.3220     1.6100 H     1 <1>   0.0800 
 37 H       -0.8400    -2.4650    -0.0950 H     1 <1>   0.0800 
 38 H        3.8390     1.4770    -1.7390 H     1 <1>   0.0800 
 39 H        4.7670     0.3090    -0.8350 H     1 <1>   0.0800 
 40 H        2.8880     3.4220     1.3210 H     1 <1>   0.0800 
 41 H        2.6800     3.3930    -0.4120 H     1 <1>   0.0800 
 42 H       -3.1650    -1.8220     0.2610 H     1 <1>   0.0800 
 43 H       -2.6920    -0.5040     1.2920 H     1 <1>   0.0800 
 44 H        4.1060     1.3760     1.2090 H     1 <1>   0.4500 
 45 H        5.1690     3.5610     0.9450 H     1 <1>   0.0800 
 46 H        5.2270     3.2530    -0.7650 H     1 <1>   0.0800 
 47 H        6.6530     1.2690    -0.3620 H     1 <1>   0.0800 
 48 H        6.5090     1.5100     1.3650 H     1 <1>   0.0800 
 49 H        7.6380     3.3940     2.4740 H     1 <1>   0.1500 
 50 H        7.9650     2.8190    -1.7590 H     1 <1>   0.1500 
 51 H        9.4600     5.0170     2.3800 H     1 <1>   0.1500 
 52 H        9.7840     4.4460    -1.8250 H     1 <1>   0.1500 
 53 H       10.5360     5.5500     0.2370 H     1 <1>   0.1500 
@<TRIPOS>BOND
  1   1   2  1   
  2   1   3  1   
  3   1   4  1   
  4   1  22  1   
  5   2   5  1   
  6   2   6  1   
  7   2  23  1   
  8   3   7  1   
  9   3   8  1   
 10   3  24  1   
 11   4   9  1   
 12   4  25  1   
 13   4  26  1   
 14   5  10  1   
 15   5  27  1   
 16   5  28  1   
 17   6  11  1   
 18   6  29  1   
 19   6  30  1   
 20   7  12  1   
 21   7  31  1   
 22   7  32  1   
 23   8  33  1   
 24   8  34  1   
 25   8  35  1   
 26   9  12  1   
 27   9  36  1   
 28   9  37  1   
 29  10  13  1   
 30  10  38  1   
 31  10  39  1   
 32  11  13  1   
 33  11  40  1   
 34  11  41  1   
 35  12  42  1   
 36  12  43  1   
 37  13  14  1   
 38  13  44  1   
 39  14  15  1   
 40  14  45  1   
 41  14  46  1   
 42  15  16  1   
 43  15  47  1   
 44  15  48  1   
 45  16  17  ar  
 46  16  18  ar  
 47  17  19  ar  
 48  17  49  1   
 49  18  20  ar  
 50  18  50  1   
 51  19  21  ar  
 52  19  51  1   
 53  20  21  ar  
 54  20  52  1   
 55  21  53  1   
@<TRIPOS>SUBSTRUCTURE
  1 ****  13 GROUP 4 **** **** 0

# MOE 2024.06 (io_trps.svl 2023.06)
