@<TRIPOS>MOLECULE
NONAME
43 45 1 0 0 
SMALL
USER_CHARGES


@<TRIPOS>ATOM
  1 CL      -3.6180     1.9890     3.2150 Cl    1 <1>  -0.1770 
  2 C       -3.3020     0.4810     2.3940 C.ar  1 <1>   0.1770 
  3 C       -2.0030     0.1560     2.0500 C.ar  1 <1>  -0.1500 
  4 C       -4.3550    -0.3650     2.1000 C.ar  1 <1>  -0.1500 
  5 C       -1.7570    -1.0410     1.3990 C.ar  1 <1>  -0.1500 
  6 C       -4.1070    -1.5620     1.4490 C.ar  1 <1>  -0.1500 
  7 C       -2.8010    -1.9050     1.0970 C.ar  1 <1>   0.0830 
  8 O       -2.4710    -3.0570     0.4620 O.3   1 <1>  -0.3630 
  9 C       -3.4590    -3.9840     0.0660 C.3   1 <1>   0.1200 
 10 C       -2.7530    -5.1690    -0.5970 C.3   1 <1>   0.2000 
 11 O       -3.6700    -6.2040    -0.8100 O.3   1 <1>  -0.6800 
 12 C       -1.6010    -5.6920     0.2920 C.3   1 <1>   0.3430 
 13 N       -1.2770    -7.1160    -0.0260 N.4   1 <1>  -0.9590 
 14 C       -0.6760    -7.8400     1.1260 C.3   1 <1>   0.4860 
 15 C       -0.4530    -7.2800    -1.2560 C.3   1 <1>   0.3430 
 16 C       -0.3930    -9.2900     0.7640 C.ar  1 <1>  -0.1430 
 17 C       -0.4880    -8.7400    -1.7120 C.3   1 <1>  -0.0170 
 18 C       -0.2910    -9.7120    -0.5580 C.ar  1 <1>  -0.1430 
 19 C       -0.2210   -10.2100     1.7890 C.ar  1 <1>  -0.1500 
 20 C       -0.0190   -11.0410    -0.8380 C.ar  1 <1>  -0.1500 
 21 C        0.0500   -11.5360     1.5030 C.ar  1 <1>  -0.1500 
 22 C        0.1510   -11.9510     0.1890 C.ar  1 <1>  -0.1500 
 23 H       -1.2020     0.8330     2.2890 H     1 <1>   0.1500 
 24 H       -5.3550    -0.0840     2.3800 H     1 <1>   0.1500 
 25 H       -0.7520    -1.3050     1.1240 H     1 <1>   0.1500 
 26 H       -4.9410    -2.2030     1.2310 H     1 <1>   0.1500 
 27 H       -4.1240    -3.4950    -0.6250 H     1 <1>   0.0800 
 28 H       -3.9900    -4.3040     0.9470 H     1 <1>   0.0800 
 29 H       -2.3690    -4.8660    -1.5560 H     1 <1>   0.0800 
 30 H       -4.4150    -5.9080    -1.3780 H     1 <1>   0.4000 
 31 H       -1.9240    -5.6200     1.3170 H     1 <1>   0.0800 
 32 H       -0.7340    -5.0620     0.1810 H     1 <1>   0.0800 
 33 H       -2.1960    -7.5570    -0.2180 H     1 <1>   0.4500 
 34 H       -1.3490    -7.8100     1.9670 H     1 <1>   0.0800 
 35 H        0.2480    -7.3660     1.4130 H     1 <1>   0.0800 
 36 H        0.5660    -6.9950    -1.0480 H     1 <1>   0.0800 
 37 H       -0.8300    -6.6530    -2.0470 H     1 <1>   0.0800 
 38 H        0.2790    -8.8920    -2.4510 H     1 <1>   0.0800 
 39 H       -1.4350    -8.9410    -2.1810 H     1 <1>   0.0800 
 40 H       -0.2940    -9.9100     2.8210 H     1 <1>   0.1500 
 41 H        0.0590   -11.3820    -1.8570 H     1 <1>   0.1500 
 42 H        0.1820   -12.2470     2.3010 H     1 <1>   0.1500 
 43 H        0.3620   -12.9840    -0.0340 H     1 <1>   0.1500 
@<TRIPOS>BOND
  1   1   2  1   
  2   2   3  ar  
  3   2   4  ar  
  4   3   5  ar  
  5   3  23  1   
  6   4   6  ar  
  7   4  24  1   
  8   5   7  ar  
  9   5  25  1   
 10   6   7  ar  
 11   6  26  1   
 12   7   8  1   
 13   8   9  1   
 14   9  10  1   
 15   9  27  1   
 16   9  28  1   
 17  10  11  1   
 18  10  12  1   
 19  10  29  1   
 20  11  30  1   
 21  12  13  1   
 22  12  31  1   
 23  12  32  1   
 24  13  14  1   
 25  13  15  1   
 26  13  33  1   
 27  14  16  1   
 28  14  34  1   
 29  14  35  1   
 30  15  17  1   
 31  15  36  1   
 32  15  37  1   
 33  16  18  ar  
 34  16  19  ar  
 35  17  18  1   
 36  17  38  1   
 37  17  39  1   
 38  18  20  ar  
 39  19  21  ar  
 40  19  40  1   
 41  20  22  ar  
 42  20  41  1   
 43  21  22  ar  
 44  21  42  1   
 45  22  43  1   
@<TRIPOS>SUBSTRUCTURE
  1 ****  12 GROUP 4 **** **** 0

# MOE 2024.06 (io_trps.svl 2023.06)
