@<TRIPOS>MOLECULE
NONAME
38 40 1 0 0 
SMALL
USER_CHARGES


@<TRIPOS>ATOM
  1 CL       0.3220    -2.6810    -3.9030 Cl    1 <1>  -0.1770 
  2 C        0.5110    -3.5120    -2.3790 C.ar  1 <1>   0.1770 
  3 C        1.5070    -3.1090    -1.5090 C.ar  1 <1>  -0.1500 
  4 C       -0.3430    -4.5530    -2.0740 C.ar  1 <1>  -0.1500 
  5 C        1.6770    -3.7550    -0.2860 C.ar  1 <1>   0.1170 
  6 C       -0.1900    -5.2080    -0.8650 C.ar  1 <1>  -0.1500 
  7 N        2.6640    -3.3790     0.6630 N.am  1 <1>  -0.4770 
  8 C        0.8070    -4.8180     0.0140 C.ar  1 <1>   0.0830 
  9 C        2.8440    -4.1440     1.7900 C.2   1 <1>   0.5690 
 10 C        3.4280    -2.0850     0.5270 C.3   1 <1>   0.2010 
 11 O        0.8970    -5.5040     1.1830 O.3   1 <1>  -0.3630 
 12 O        3.5570    -3.8110     2.7090 O.2   1 <1>  -0.5700 
 13 C        2.1370    -5.4910     1.8750 C.3   1 <1>   0.1810 
 14 C        4.5810    -2.1340    -0.4840 C.2   1 <1>   0.5690 
 15 O        4.4260    -1.5150    -1.5130 O.2   1 <1>  -0.5700 
 16 N        5.7470    -2.8250    -0.2460 N.am  1 <1>  -0.6600 
 17 C        6.1030    -3.4180     1.0790 C.3   1 <1>   0.1400 
 18 C        6.7500    -2.9810    -1.3440 C.3   1 <1>   0.1400 
 19 C        7.6220    -3.5400     1.2410 C.3   1 <1>  -0.1600 
 20 C        7.5040    -4.3070    -1.1970 C.3   1 <1>  -0.1600 
 21 C        8.2580    -4.4060     0.1400 C.3   1 <1>  -0.1600 
 22 H        2.1290    -2.2920    -1.8140 H     1 <1>   0.1500 
 23 H       -1.1100    -4.8420    -2.7700 H     1 <1>   0.1500 
 24 H       -0.8420    -6.0210    -0.5990 H     1 <1>   0.1500 
 25 H        3.8180    -1.7760     1.4780 H     1 <1>   0.0800 
 26 H        2.7430    -1.3170     0.2190 H     1 <1>   0.0800 
 27 H        1.9420    -5.7360     2.9020 H     1 <1>   0.0800 
 28 H        2.7630    -6.2480     1.4430 H     1 <1>   0.0800 
 29 H        5.6570    -4.3950     1.1580 H     1 <1>   0.0800 
 30 H        5.7220    -2.8010     1.8740 H     1 <1>   0.0800 
 31 H        7.4430    -2.1570    -1.3060 H     1 <1>   0.0800 
 32 H        6.2540    -2.9580    -2.3000 H     1 <1>   0.0800 
 33 H        7.8490    -3.9570     2.2050 H     1 <1>   0.0800 
 34 H        8.0430    -2.5500     1.2110 H     1 <1>   0.0800 
 35 H        8.1960    -4.4200    -2.0120 H     1 <1>   0.0800 
 36 H        6.7870    -5.1070    -1.2680 H     1 <1>   0.0800 
 37 H        8.2730    -5.4360     0.4520 H     1 <1>   0.0800 
 38 H        9.2800    -4.0930     0.0050 H     1 <1>   0.0800 
@<TRIPOS>BOND
  1   1   2  1   
  2   2   3  ar  
  3   2   4  ar  
  4   3   5  ar  
  5   3  22  1   
  6   4   6  ar  
  7   4  23  1   
  8   5   7  1   
  9   5   8  ar  
 10   6   8  ar  
 11   6  24  1   
 12   7   9  am  
 13   7  10  1   
 14   8  11  1   
 15   9  12  2   
 16   9  13  1   
 17  10  14  1   
 18  10  25  1   
 19  10  26  1   
 20  11  13  1   
 21  13  27  1   
 22  13  28  1   
 23  14  15  2   
 24  14  16  am  
 25  16  17  1   
 26  16  18  1   
 27  17  19  1   
 28  17  29  1   
 29  17  30  1   
 30  18  20  1   
 31  18  31  1   
 32  18  32  1   
 33  19  21  1   
 34  19  33  1   
 35  19  34  1   
 36  20  21  1   
 37  20  35  1   
 38  20  36  1   
 39  21  37  1   
 40  21  38  1   
@<TRIPOS>SUBSTRUCTURE
  1 ****   7 GROUP 4 **** **** 0

# MOE 2024.06 (io_trps.svl 2023.06)
