@<TRIPOS>MOLECULE
NONAME
41 42 1 0 0 
SMALL
USER_CHARGES


@<TRIPOS>ATOM
  1 O       -0.4870     0.3720     0.5880 O.3   1 <1>  -0.3630 
  2 C        0.2590    -0.7000     0.2230 C.ar  1 <1>   0.0830 
  3 C       -1.0170     1.2620    -0.3770 C.3   1 <1>   0.1200 
  4 C        0.8600    -1.4170     1.2440 C.ar  1 <1>  -0.1500 
  5 C        0.4550    -1.0930    -1.0990 C.ar  1 <1>  -0.1500 
  6 C       -1.6030     2.4930     0.3320 C.3   1 <1>   0.2000 
  7 C        1.6580    -2.5110     0.9580 C.ar  1 <1>  -0.1500 
  8 C        1.2540    -2.1870    -1.3830 C.ar  1 <1>  -0.1500 
  9 O       -2.4770     3.1270    -0.5480 O.3   1 <1>  -0.6800 
 10 C       -0.5510     3.5210     0.8000 C.3   1 <1>   0.2090 
 11 C        1.8560    -2.8950    -0.3570 C.ar  1 <1>  -0.1500 
 12 N        0.6170     2.8870     1.4690 N.pl3 1 <1>  -0.8690 
 13 C        1.8730     3.1230     0.9270 C.ar  1 <1>   0.1000 
 14 C        2.6600     2.0580     0.5130 C.ar  1 <1>  -0.1500 
 15 C        2.3690     4.4100     0.7790 C.ar  1 <1>  -0.1500 
 16 C        3.9040     2.2580    -0.0610 C.ar  1 <1>  -0.1430 
 17 C        3.6100     4.6230     0.2100 C.ar  1 <1>  -0.1500 
 18 C        4.3860     3.5550    -0.2170 C.ar  1 <1>  -0.1430 
 19 C        4.7110     1.0460    -0.5040 C.3   1 <1>  -0.0970 
 20 C        5.7470     3.8280    -0.8390 C.3   1 <1>  -0.0970 
 21 H       -1.7860     0.7350    -0.9130 H     1 <1>   0.0800 
 22 H       -0.2220     1.5590    -1.0400 H     1 <1>   0.0800 
 23 H        0.7030    -1.1130     2.2640 H     1 <1>   0.1500 
 24 H       -0.0010    -0.5650    -1.9140 H     1 <1>   0.1500 
 25 H       -2.1930     2.1690     1.1720 H     1 <1>   0.0800 
 26 H        2.1230    -3.0610     1.7570 H     1 <1>   0.1500 
 27 H        1.4070    -2.4910    -2.4040 H     1 <1>   0.1500 
 28 H       -2.0020     3.4580    -1.3350 H     1 <1>   0.4000 
 29 H       -1.0120     4.2060     1.4900 H     1 <1>   0.0800 
 30 H       -0.2020     4.0790    -0.0510 H     1 <1>   0.0800 
 31 H        2.4760    -3.7460    -0.5810 H     1 <1>   0.1500 
 32 H        0.4390     1.8790     1.6020 H     1 <1>   0.4000 
 33 H        2.2860     1.0620     0.6440 H     1 <1>   0.1500 
 34 H        1.7790     5.2410     1.1170 H     1 <1>   0.1500 
 35 H        3.9720     5.6300     0.1050 H     1 <1>   0.1500 
 36 H        4.1640     0.1360    -0.3330 H     1 <1>   0.0800 
 37 H        5.6310     0.9960     0.0490 H     1 <1>   0.0800 
 38 H        4.9320     1.1130    -1.5530 H     1 <1>   0.0800 
 39 H        6.5170     3.3440    -0.2660 H     1 <1>   0.0800 
 40 H        5.9560     4.8820    -0.8630 H     1 <1>   0.0800 
 41 H        5.7720     3.4550    -1.8470 H     1 <1>   0.0800 
@<TRIPOS>BOND
  1   1   2  1   
  2   1   3  1   
  3   2   4  ar  
  4   2   5  ar  
  5   3   6  1   
  6   3  21  1   
  7   3  22  1   
  8   4   7  ar  
  9   4  23  1   
 10   5   8  ar  
 11   5  24  1   
 12   6   9  1   
 13   6  10  1   
 14   6  25  1   
 15   7  11  ar  
 16   7  26  1   
 17   8  11  ar  
 18   8  27  1   
 19   9  28  1   
 20  10  12  1   
 21  10  29  1   
 22  10  30  1   
 23  11  31  1   
 24  12  13  1   
 25  12  32  1   
 26  13  14  ar  
 27  13  15  ar  
 28  14  16  ar  
 29  14  33  1   
 30  15  17  ar  
 31  15  34  1   
 32  16  18  ar  
 33  16  19  1   
 34  17  18  ar  
 35  17  35  1   
 36  18  20  1   
 37  19  36  1   
 38  19  37  1   
 39  19  38  1   
 40  20  39  1   
 41  20  40  1   
 42  20  41  1   
@<TRIPOS>SUBSTRUCTURE
  1 ****  14 GROUP 4 **** **** 0

# MOE 2024.06 (io_trps.svl 2023.06)
