@<TRIPOS>MOLECULE
NONAME
42 43 1 0 0 
SMALL
USER_CHARGES


@<TRIPOS>ATOM
  1 CL      -0.2920    -0.2870    -0.4360 Cl    1 <1>  -0.1770 
  2 C       -2.0290    -0.1030    -0.3960 C.ar  1 <1>   0.1770 
  3 C       -2.6200     0.9220    -1.1120 C.ar  1 <1>  -0.1500 
  4 C       -2.7870    -0.9860     0.3520 C.ar  1 <1>  -0.1500 
  5 C       -3.9960     1.0610    -1.0760 C.ar  1 <1>  -0.1500 
  6 C       -4.1630    -0.8380     0.3810 C.ar  1 <1>  -0.1500 
  7 C       -4.7800     0.1870    -0.3330 C.ar  1 <1>   0.1000 
  8 N       -6.1590     0.3530    -0.3190 N.pl3 1 <1>  -0.8380 
  9 C       -6.9560    -0.6930    -1.0290 C.3   1 <1>   0.2090 
 10 C       -6.7660     0.7550     0.9890 C.3   1 <1>   0.2090 
 11 C       -8.4230    -0.2600    -1.1980 C.3   1 <1>   0.1400 
 12 C       -8.2370     1.1780     0.8270 C.3   1 <1>   0.1400 
 13 N       -9.0220     0.1300     0.1120 N.am  1 <1>  -0.6600 
 14 C      -10.3330    -0.1110     0.4290 C.2   1 <1>   0.6900 
 15 O      -10.9600     0.7190     1.0650 O.2   1 <1>  -0.5700 
 16 N      -10.9400    -1.2800     0.0430 N.am  1 <1>  -0.6600 
 17 C      -10.2950    -2.5910     0.3110 C.3   1 <1>   0.1400 
 18 C      -12.3970    -1.3100    -0.2460 C.3   1 <1>   0.1400 
 19 C      -10.5470    -3.0100     1.7580 C.3   1 <1>  -0.2400 
 20 C      -12.6080    -1.5800    -1.7330 C.3   1 <1>  -0.2400 
 21 H       -2.0100     1.5950    -1.6860 H     1 <1>   0.1500 
 22 H       -2.3030    -1.7740     0.8990 H     1 <1>   0.1500 
 23 H       -4.4820     1.8490    -1.6230 H     1 <1>   0.1500 
 24 H       -4.7660    -1.5150     0.9560 H     1 <1>   0.1500 
 25 H       -6.9200    -1.6120    -0.4720 H     1 <1>   0.0800 
 26 H       -6.5230    -0.8700    -1.9980 H     1 <1>   0.0800 
 27 H       -6.2040     1.5740     1.4040 H     1 <1>   0.0800 
 28 H       -6.7140    -0.0690     1.6790 H     1 <1>   0.0800 
 29 H       -8.9880    -1.0550    -1.6510 H     1 <1>   0.0800 
 30 H       -8.4590     0.5860    -1.8610 H     1 <1>   0.0800 
 31 H       -8.2830     2.0960     0.2670 H     1 <1>   0.0800 
 32 H       -8.6640     1.3580     1.7980 H     1 <1>   0.0800 
 33 H       -9.2340    -2.5150     0.1510 H     1 <1>   0.0800 
 34 H      -10.6830    -3.3330    -0.3640 H     1 <1>   0.0800 
 35 H      -12.8450    -0.3630     0.0080 H     1 <1>   0.0800 
 36 H      -12.8760    -2.0710     0.3450 H     1 <1>   0.0800 
 37 H      -10.1600    -2.2670     2.4310 H     1 <1>   0.0800 
 38 H      -10.0510    -3.9420     1.9570 H     1 <1>   0.0800 
 39 H      -11.5980    -3.1400     1.9400 H     1 <1>   0.0800 
 40 H      -12.1320    -0.8120    -2.3160 H     1 <1>   0.0800 
 41 H      -13.6600    -1.5720    -1.9540 H     1 <1>   0.0800 
 42 H      -12.2090    -2.5390    -2.0060 H     1 <1>   0.0800 
@<TRIPOS>BOND
  1   1   2  1   
  2   2   3  ar  
  3   2   4  ar  
  4   3   5  ar  
  5   3  21  1   
  6   4   6  ar  
  7   4  22  1   
  8   5   7  ar  
  9   5  23  1   
 10   6   7  ar  
 11   6  24  1   
 12   7   8  1   
 13   8   9  1   
 14   8  10  1   
 15   9  11  1   
 16   9  25  1   
 17   9  26  1   
 18  10  12  1   
 19  10  27  1   
 20  10  28  1   
 21  11  13  1   
 22  11  29  1   
 23  11  30  1   
 24  12  13  1   
 25  12  31  1   
 26  12  32  1   
 27  13  14  am  
 28  14  15  2   
 29  14  16  am  
 30  16  17  1   
 31  16  18  1   
 32  17  19  1   
 33  17  33  1   
 34  17  34  1   
 35  18  20  1   
 36  18  35  1   
 37  18  36  1   
 38  19  37  1   
 39  19  38  1   
 40  19  39  1   
 41  20  40  1   
 42  20  41  1   
 43  20  42  1   
@<TRIPOS>SUBSTRUCTURE
  1 ****   9 GROUP 4 **** **** 0

# MOE 2024.06 (io_trps.svl 2023.06)
