@<TRIPOS>MOLECULE
NONAME
31 31 1 0 0 
SMALL
USER_CHARGES


@<TRIPOS>ATOM
  1 S       -0.3150     0.0210    -0.7520 S.o2  1 <1>   1.4470 
  2 O       -1.2970     0.1800    -1.7990 O.2   1 <1>  -0.6500 
  3 O        0.9210     0.7670    -0.7840 O.2   1 <1>  -0.6500 
  4 N       -1.0280     0.4950     0.6920 N.am  1 <1>  -0.9140 
  5 C        0.0140    -1.7420    -0.4790 C.ar  1 <1>  -0.0090 
  6 C       -1.6400     1.8270     0.6470 C.3   1 <1>   0.1960 
  7 C       -1.0290    -2.6280    -0.2300 C.ar  1 <1>  -0.1500 
  8 C        1.3100    -2.2490    -0.5080 C.ar  1 <1>  -0.1500 
  9 C       -3.0720     1.7890     0.1030 C.3   1 <1>   0.1200 
 10 C       -0.7970    -3.9760    -0.0130 C.ar  1 <1>  -0.1500 
 11 C        1.5580    -3.5940    -0.2940 C.ar  1 <1>  -0.1500 
 12 O       -3.6670     3.0240     0.3550 O.3   1 <1>  -0.5600 
 13 C        0.5030    -4.4520    -0.0470 C.ar  1 <1>   0.1010 
 14 C       -4.9620     3.1330    -0.1410 C.3   1 <1>   0.0400 
 15 S        0.9010    -6.1860     0.2250 S.3   1 <1>  -0.3310 
 16 C       -0.7000    -7.0650     0.5030 C.3   1 <1>  -0.0100 
 17 H       -0.2270     0.5810     1.3150 H     1 <1>   0.4200 
 18 H       -1.0410     2.4990     0.0540 H     1 <1>   0.0800 
 19 H       -1.6840     2.2100     1.6530 H     1 <1>   0.0800 
 20 H       -2.0390    -2.2530    -0.2060 H     1 <1>   0.1500 
 21 H        2.1370    -1.5860    -0.7020 H     1 <1>   0.1500 
 22 H       -3.6410     1.0280     0.6060 H     1 <1>   0.0800 
 23 H       -3.0760     1.6200    -0.9600 H     1 <1>   0.0800 
 24 H       -1.6260    -4.6300     0.1760 H     1 <1>   0.1500 
 25 H        2.5620    -3.9810    -0.3170 H     1 <1>   0.1500 
 26 H       -5.3340     4.1110     0.1060 H     1 <1>   0.0800 
 27 H       -5.5830     2.3820     0.3170 H     1 <1>   0.0800 
 28 H       -4.9450     3.0100    -1.2100 H     1 <1>   0.0800 
 29 H       -0.4750    -8.1050     0.6590 H     1 <1>   0.0800 
 30 H       -1.3080    -6.9340    -0.3740 H     1 <1>   0.0800 
 31 H       -1.1650    -6.6410     1.3750 H     1 <1>   0.0800 
@<TRIPOS>BOND
  1   1   2  2   
  2   1   3  2   
  3   1   4  am  
  4   1   5  1   
  5   4   6  1   
  6   4  17  1   
  7   5   7  ar  
  8   5   8  ar  
  9   6   9  1   
 10   6  18  1   
 11   6  19  1   
 12   7  10  ar  
 13   7  20  1   
 14   8  11  ar  
 15   8  21  1   
 16   9  12  1   
 17   9  22  1   
 18   9  23  1   
 19  10  13  ar  
 20  10  24  1   
 21  11  13  ar  
 22  11  25  1   
 23  12  14  1   
 24  13  15  1   
 25  14  26  1   
 26  14  27  1   
 27  14  28  1   
 28  15  16  1   
 29  16  29  1   
 30  16  30  1   
 31  16  31  1   
@<TRIPOS>SUBSTRUCTURE
  1 ****   5 GROUP 4 **** **** 0

# MOE 2024.06 (io_trps.svl 2023.06)
