@<TRIPOS>MOLECULE
NONAME
44 46 1 0 0 
SMALL
USER_CHARGES


@<TRIPOS>ATOM
  1 O        2.1140    -0.1780    -1.0110 O.2   1 <1>  -0.5700 
  2 C        2.0940    -1.2460    -0.4600 C.2   1 <1>   0.6590 
  3 O        2.9800    -1.6410     0.4390 O.3   1 <1>  -0.4300 
  4 C        1.0870    -2.3790    -0.6370 C.3   1 <1>   0.0610 
  5 C        2.6330    -2.9600     0.8590 C.3   1 <1>   0.3410 
  6 C        1.0780    -2.8890     0.8180 C.3   1 <1>   0.0000 
  7 C        1.8780    -3.4650    -1.3970 C.3   1 <1>  -0.1600 
  8 C       -0.2600    -2.0130    -1.2850 C.3   1 <1>  -0.2400 
  9 C        3.3170    -3.3750     2.1890 C.2   1 <1>   0.6590 
 10 C        2.9620    -3.8530    -0.3660 C.3   1 <1>  -0.1600 
 11 C        0.4470    -1.8770     1.8170 C.3   1 <1>  -0.2400 
 12 C        0.3330    -4.2340     1.0390 C.3   1 <1>  -0.2400 
 13 O        2.6920    -3.5380     3.2060 O.2   1 <1>  -0.5700 
 14 O        4.6260    -3.6330     2.1930 O.3   1 <1>  -0.2330 
 15 C        5.5830    -2.9470     1.5280 C.ar  1 <1>   0.0830 
 16 C        6.5150    -3.6400     0.7420 C.ar  1 <1>   0.0860 
 17 C        5.6530    -1.5680     1.6740 C.ar  1 <1>  -0.1500 
 18 C        6.4600    -5.0740     0.5580 C.2   1 <1>   0.6340 
 19 C        7.5110    -2.8840     0.1170 C.ar  1 <1>  -0.1500 
 20 C        6.6430    -0.8490     1.0340 C.ar  1 <1>  -0.1500 
 21 O        5.4260    -5.7060     0.4800 O.2   1 <1>  -0.5700 
 22 O        7.6220    -5.7250     0.4400 O.3   1 <1>  -0.4300 
 23 C        7.5750    -1.5100     0.2550 C.ar  1 <1>  -0.1500 
 24 C        7.6770    -7.1270     0.2580 C.3   1 <1>   0.0400 
 25 H        2.3150    -3.0680    -2.2990 H     1 <1>   0.0800 
 26 H        1.2580    -4.3060    -1.6520 H     1 <1>   0.0800 
 27 H       -0.0990    -1.6730    -2.2930 H     1 <1>   0.0800 
 28 H       -0.7390    -1.2200    -0.7390 H     1 <1>   0.0800 
 29 H       -0.9150    -2.8650    -1.3090 H     1 <1>   0.0800 
 30 H        2.8930    -4.8970    -0.1120 H     1 <1>   0.0800 
 31 H        3.9520    -3.6570    -0.7380 H     1 <1>   0.0800 
 32 H        0.9160    -0.9100     1.8000 H     1 <1>   0.0800 
 33 H        0.5190    -2.2480     2.8240 H     1 <1>   0.0800 
 34 H       -0.5980    -1.7410     1.6010 H     1 <1>   0.0800 
 35 H        0.6720    -5.0330     0.4090 H     1 <1>   0.0800 
 36 H       -0.7200    -4.1050     0.8620 H     1 <1>   0.0800 
 37 H        0.4550    -4.5580     2.0580 H     1 <1>   0.0800 
 38 H        4.9380    -1.0500     2.2910 H     1 <1>   0.1500 
 39 H        8.2450    -3.3840    -0.4910 H     1 <1>   0.1500 
 40 H        6.6900     0.2220     1.1420 H     1 <1>   0.1500 
 41 H        8.3490    -0.9510    -0.2430 H     1 <1>   0.1500 
 42 H        8.7090    -7.4220     0.1930 H     1 <1>   0.0800 
 43 H        7.1600    -7.3810    -0.6510 H     1 <1>   0.0800 
 44 H        7.2070    -7.6050     1.1000 H     1 <1>   0.0800 
@<TRIPOS>BOND
  1   1   2  2   
  2   2   3  1   
  3   2   4  1   
  4   3   5  1   
  5   4   6  1   
  6   4   7  1   
  7   4   8  1   
  8   5   6  1   
  9   5   9  1   
 10   5  10  1   
 11   6  11  1   
 12   6  12  1   
 13   7  10  1   
 14   7  25  1   
 15   7  26  1   
 16   8  27  1   
 17   8  28  1   
 18   8  29  1   
 19   9  13  2   
 20   9  14  1   
 21  10  30  1   
 22  10  31  1   
 23  11  32  1   
 24  11  33  1   
 25  11  34  1   
 26  12  35  1   
 27  12  36  1   
 28  12  37  1   
 29  14  15  1   
 30  15  16  ar  
 31  15  17  ar  
 32  16  18  1   
 33  16  19  ar  
 34  17  20  ar  
 35  17  38  1   
 36  18  21  2   
 37  18  22  1   
 38  19  23  ar  
 39  19  39  1   
 40  20  23  ar  
 41  20  40  1   
 42  22  24  1   
 43  23  41  1   
 44  24  42  1   
 45  24  43  1   
 46  24  44  1   
@<TRIPOS>SUBSTRUCTURE
  1 ****   5 GROUP 4 **** **** 0

# MOE 2024.06 (io_trps.svl 2023.06)
