@<TRIPOS>MOLECULE
NONAME
44 45 1 0 0 
SMALL
USER_CHARGES


@<TRIPOS>ATOM
  1 F       -0.4710     0.4370     0.2380 F     1 <1>  -0.3400 
  2 C       -0.1870     1.5780     0.8770 C.3   1 <1>   0.7410 
  3 F       -1.1910     1.6790     1.7610 F     1 <1>  -0.3400 
  4 C       -0.3180     2.7770    -0.1070 C.2   1 <1>   0.5690 
  5 C        1.1680     1.4080     1.6370 C.3   1 <1>   0.6800 
  6 O        0.5360     3.6350    -0.0790 O.2   1 <1>  -0.5700 
  7 N       -1.3640     2.9080    -1.0080 N.am  1 <1>  -0.6600 
  8 F        1.5830     2.5700     2.1550 F     1 <1>  -0.3400 
  9 F        0.9320     0.6890     2.7470 F     1 <1>  -0.3400 
 10 C        2.3440     0.7120     0.8890 C.3   1 <1>   0.6800 
 11 C       -1.3830     3.9980    -2.0380 C.3   1 <1>   0.1400 
 12 C       -2.5880     2.0450    -1.0740 C.3   1 <1>   0.1400 
 13 F        2.0330    -0.5700     0.6680 F     1 <1>  -0.3400 
 14 F        3.3850     0.6110     1.7310 F     1 <1>  -0.3400 
 15 C        2.8430     1.3430    -0.4230 C.3   1 <1>   0.7410 
 16 C       -2.7240     4.7470    -2.0180 C.3   1 <1>   0.1200 
 17 C       -3.8630     2.9060    -1.1180 C.3   1 <1>   0.1200 
 18 F        3.1430     2.6340    -0.2540 F     1 <1>  -0.3400 
 19 F        1.8450     1.3780    -1.3130 F     1 <1>  -0.3400 
 20 C        4.0580     0.5780    -1.0210 C.2   1 <1>   0.5690 
 21 O       -3.7890     3.8490    -2.1480 O.3   1 <1>  -0.5600 
 22 O        3.8200    -0.2960    -1.8300 O.2   1 <1>  -0.5700 
 23 N        5.3840     0.8310    -0.6900 N.am  1 <1>  -0.6600 
 24 C        5.9070     1.7480     0.3750 C.3   1 <1>   0.1400 
 25 C        6.5060     0.1870    -1.4450 C.3   1 <1>   0.1400 
 26 C        6.9090     2.7450    -0.2280 C.3   1 <1>   0.1200 
 27 C        7.4930     1.2530    -1.9490 C.3   1 <1>   0.1200 
 28 O        7.9330     2.0620    -0.8940 O.3   1 <1>  -0.5600 
 29 H       -1.2370     3.5650    -3.0120 H     1 <1>   0.0800 
 30 H       -0.5870     4.7030    -1.8710 H     1 <1>   0.0800 
 31 H       -2.6560     1.3900    -0.2270 H     1 <1>   0.0800 
 32 H       -2.5450     1.4370    -1.9610 H     1 <1>   0.0800 
 33 H       -2.7750     5.4380    -2.8410 H     1 <1>   0.0800 
 34 H       -2.8400     5.2940    -1.0990 H     1 <1>   0.0800 
 35 H       -4.0050     3.4230    -0.1850 H     1 <1>   0.0800 
 36 H       -4.7230     2.2860    -1.3030 H     1 <1>   0.0800 
 37 H        6.4130     1.1610     1.1220 H     1 <1>   0.0800 
 38 H        5.1270     2.2890     0.8720 H     1 <1>   0.0800 
 39 H        6.1380    -0.3720    -2.2880 H     1 <1>   0.0800 
 40 H        7.0240    -0.4990    -0.7970 H     1 <1>   0.0800 
 41 H        7.3610     3.3350     0.5490 H     1 <1>   0.0800 
 42 H        6.4200     3.4040    -0.9250 H     1 <1>   0.0800 
 43 H        7.0280     1.8770    -2.6930 H     1 <1>   0.0800 
 44 H        8.3570     0.7830    -2.3840 H     1 <1>   0.0800 
@<TRIPOS>BOND
  1   1   2  1   
  2   2   3  1   
  3   2   4  1   
  4   2   5  1   
  5   4   6  2   
  6   4   7  am  
  7   5   8  1   
  8   5   9  1   
  9   5  10  1   
 10   7  11  1   
 11   7  12  1   
 12  10  13  1   
 13  10  14  1   
 14  10  15  1   
 15  11  16  1   
 16  11  29  1   
 17  11  30  1   
 18  12  17  1   
 19  12  31  1   
 20  12  32  1   
 21  15  18  1   
 22  15  19  1   
 23  15  20  1   
 24  16  21  1   
 25  16  33  1   
 26  16  34  1   
 27  17  21  1   
 28  17  35  1   
 29  17  36  1   
 30  20  22  2   
 31  20  23  am  
 32  23  24  1   
 33  23  25  1   
 34  24  26  1   
 35  24  37  1   
 36  24  38  1   
 37  25  27  1   
 38  25  39  1   
 39  25  40  1   
 40  26  28  1   
 41  26  41  1   
 42  26  42  1   
 43  27  28  1   
 44  27  43  1   
 45  27  44  1   
@<TRIPOS>SUBSTRUCTURE
  1 ****  19 GROUP 4 **** **** 0

# MOE 2024.06 (io_trps.svl 2023.06)
