@<TRIPOS>MOLECULE
NONAME
39 40 1 0 0 
SMALL
USER_CHARGES


@<TRIPOS>ATOM
  1 O       -1.7120     0.0810    -2.7170 O.2   1 <1>  -0.5700 
  2 C       -2.4090    -0.5940    -1.9880 C.2   1 <1>   0.7060 
  3 O       -3.6270    -0.1480    -1.6780 O.3   1 <1>  -0.2330 
  4 C       -1.9930    -1.8420    -1.4430 C.2   1 <1>  -0.1360 
  5 C       -4.4890    -0.8230    -0.8760 C.ar  1 <1>   0.0820 
  6 C       -2.7950    -2.5690    -0.6340 C.2   1 <1>  -0.1670 
  7 C       -4.1020    -2.0560    -0.3220 C.ar  1 <1>   0.0280 
  8 C       -5.7420    -0.2700    -0.6180 C.ar  1 <1>  -0.1440 
  9 C       -2.3310    -3.9020    -0.0620 C.3   1 <1>  -0.1020 
 10 C       -5.0180    -2.7110     0.5040 C.ar  1 <1>  -0.1500 
 11 C       -6.6290    -0.9460     0.2110 C.ar  1 <1>   0.0830 
 12 C       -6.1600     1.0710    -1.2260 C.3   1 <1>  -0.0960 
 13 C       -6.2570    -2.1690     0.7690 C.ar  1 <1>  -0.1500 
 14 O       -7.8360    -0.3770     0.4480 O.3   1 <1>  -0.3630 
 15 C       -8.8710    -1.0470     1.1500 C.3   1 <1>   0.1810 
 16 C      -10.1400    -0.2110     1.1790 C.2   1 <1>   0.6590 
 17 O      -10.6260     0.1550     2.2200 O.2   1 <1>  -0.5700 
 18 O      -10.6890     0.0640     0.0010 O.3   1 <1>  -0.4300 
 19 C      -11.8500     0.8470    -0.1340 C.3   1 <1>   0.2000 
 20 C      -12.5260     0.4340    -1.4380 C.3   1 <1>  -0.2400 
 21 C      -11.4380     2.3190    -0.1570 C.3   1 <1>  -0.2400 
 22 H       -1.0060    -2.1560    -1.7220 H     1 <1>   0.1500 
 23 H       -2.9860    -4.6920    -0.3820 H     1 <1>   0.0800 
 24 H       -2.3250    -3.8620     1.0130 H     1 <1>   0.0800 
 25 H       -1.3350    -4.1360    -0.3940 H     1 <1>   0.0800 
 26 H       -4.7620    -3.6540     0.9480 H     1 <1>   0.1500 
 27 H       -5.5060     1.3810    -2.0200 H     1 <1>   0.0800 
 28 H       -6.1560     1.8280    -0.4630 H     1 <1>   0.0800 
 29 H       -7.1530     0.9990    -1.6310 H     1 <1>   0.0800 
 30 H       -6.9210    -2.7110     1.4150 H     1 <1>   0.1500 
 31 H       -8.5380    -1.2240     2.1560 H     1 <1>   0.0800 
 32 H       -9.0700    -1.9780     0.6530 H     1 <1>   0.0800 
 33 H      -12.5070     0.6480     0.6980 H     1 <1>   0.0800 
 34 H      -11.8670     0.6020    -2.2720 H     1 <1>   0.0800 
 35 H      -13.4210     1.0100    -1.5860 H     1 <1>   0.0800 
 36 H      -12.7950    -0.6060    -1.3990 H     1 <1>   0.0800 
 37 H      -10.7530     2.5050    -0.9650 H     1 <1>   0.0800 
 38 H      -10.9740     2.5870     0.7750 H     1 <1>   0.0800 
 39 H      -12.3050     2.9400    -0.2900 H     1 <1>   0.0800 
@<TRIPOS>BOND
  1   1   2  2   
  2   2   3  1   
  3   2   4  1   
  4   3   5  1   
  5   4   6  2   
  6   4  22  1   
  7   5   7  ar  
  8   5   8  ar  
  9   6   7  1   
 10   6   9  1   
 11   7  10  ar  
 12   8  11  ar  
 13   8  12  1   
 14   9  23  1   
 15   9  24  1   
 16   9  25  1   
 17  10  13  ar  
 18  10  26  1   
 19  11  13  ar  
 20  11  14  1   
 21  12  27  1   
 22  12  28  1   
 23  12  29  1   
 24  13  30  1   
 25  14  15  1   
 26  15  16  1   
 27  15  31  1   
 28  15  32  1   
 29  16  17  2   
 30  16  18  1   
 31  18  19  1   
 32  19  20  1   
 33  19  21  1   
 34  19  33  1   
 35  20  34  1   
 36  20  35  1   
 37  20  36  1   
 38  21  37  1   
 39  21  38  1   
 40  21  39  1   
@<TRIPOS>SUBSTRUCTURE
  1 ****  11 GROUP 4 **** **** 0

# MOE 2024.06 (io_trps.svl 2023.06)
