@<TRIPOS>MOLECULE
NONAME
40 42 1 0 0 
SMALL
USER_CHARGES


@<TRIPOS>ATOM
  1 CL      -2.0600    -0.4600    -3.3140 Cl    1 <1>  -0.1770 
  2 C       -3.2560    -0.2470    -2.0620 C.ar  1 <1>   0.1770 
  3 C       -4.2920    -1.1530    -1.9490 C.ar  1 <1>  -0.1500 
  4 C       -3.1530     0.8260    -1.1980 C.ar  1 <1>  -0.1500 
  5 C       -5.2370    -0.9770    -0.9530 C.ar  1 <1>  -0.1500 
  6 C       -4.1030     0.9900    -0.2060 C.ar  1 <1>  -0.1500 
  7 C       -5.1660     0.0950    -0.0600 C.ar  1 <1>   0.0530 
  8 C       -6.1560     0.2730     0.9800 C.2   1 <1>   0.0870 
  9 O       -7.2480    -0.4800     0.9980 O.3   1 <1>  -0.2800 
 10 C       -6.2060     1.1270     2.0370 C.2   1 <1>  -0.1500 
 11 C       -7.9930    -0.1340     2.0280 C.2   1 <1>  -0.0400 
 12 C       -7.3970     0.8620     2.7170 C.2   1 <1>  -0.1500 
 13 C       -9.3140    -0.8490     2.2720 C.3   1 <1>   0.2900 
 14 N      -10.2380    -0.7090     1.1230 N.3   1 <1>  -0.8100 
 15 C      -10.5060     0.7000     0.7650 C.3   1 <1>   0.1100 
 16 C      -11.4800    -1.4770     1.3160 C.3   1 <1>   0.1100 
 17 C      -11.3940     0.7940    -0.4910 C.3   1 <1>   0.3430 
 18 C      -12.3790    -1.4030     0.0630 C.3   1 <1>   0.3430 
 19 N      -12.6760     0.0200    -0.3300 N.4   1 <1>  -0.9590 
 20 C      -13.4970     0.0760    -1.5750 C.3   1 <1>   0.2630 
 21 H       -4.3550    -1.9810    -2.6310 H     1 <1>   0.1500 
 22 H       -2.3380     1.5190    -1.3050 H     1 <1>   0.1500 
 23 H       -6.0430    -1.6840    -0.8620 H     1 <1>   0.1500 
 24 H       -4.0200     1.8280     0.4620 H     1 <1>   0.1500 
 25 H       -5.4860     1.8700     2.3260 H     1 <1>   0.1500 
 26 H       -7.7340     1.3690     3.6040 H     1 <1>   0.1500 
 27 H       -9.7730    -0.4540     3.1630 H     1 <1>   0.0800 
 28 H       -9.1040    -1.8920     2.4350 H     1 <1>   0.0800 
 29 H       -9.5770     1.2010     0.5490 H     1 <1>   0.0800 
 30 H      -10.9750     1.2110     1.5880 H     1 <1>   0.0800 
 31 H      -12.0170    -1.1060     2.1720 H     1 <1>   0.0800 
 32 H      -11.2330    -2.5100     1.4990 H     1 <1>   0.0800 
 33 H      -10.8360     0.4010    -1.3250 H     1 <1>   0.0800 
 34 H      -11.6110     1.8290    -0.6940 H     1 <1>   0.0800 
 35 H      -13.2970    -1.9320     0.2540 H     1 <1>   0.0800 
 36 H      -11.8690    -1.9010    -0.7450 H     1 <1>   0.0800 
 37 H      -13.1990     0.4520     0.4440 H     1 <1>   0.4500 
 38 H      -12.9600    -0.3710    -2.3960 H     1 <1>   0.0800 
 39 H      -13.7240     1.1000    -1.8280 H     1 <1>   0.0800 
 40 H      -14.4240    -0.4560    -1.4380 H     1 <1>   0.0800 
@<TRIPOS>BOND
  1   1   2  1   
  2   2   3  ar  
  3   2   4  ar  
  4   3   5  ar  
  5   3  21  1   
  6   4   6  ar  
  7   4  22  1   
  8   5   7  ar  
  9   5  23  1   
 10   6   7  ar  
 11   6  24  1   
 12   7   8  1   
 13   8   9  1   
 14   8  10  2   
 15   9  11  1   
 16  10  12  1   
 17  10  25  1   
 18  11  12  2   
 19  11  13  1   
 20  12  26  1   
 21  13  14  1   
 22  13  27  1   
 23  13  28  1   
 24  14  15  1   
 25  14  16  1   
 26  15  17  1   
 27  15  29  1   
 28  15  30  1   
 29  16  18  1   
 30  16  31  1   
 31  16  32  1   
 32  17  19  1   
 33  17  33  1   
 34  17  34  1   
 35  18  19  1   
 36  18  35  1   
 37  18  36  1   
 38  19  20  1   
 39  19  37  1   
 40  20  38  1   
 41  20  39  1   
 42  20  40  1   
@<TRIPOS>SUBSTRUCTURE
  1 ****   9 GROUP 4 **** **** 0

# MOE 2024.06 (io_trps.svl 2023.06)
