@<TRIPOS>MOLECULE
NONAME
22 23 1 0 0 
SMALL
USER_CHARGES


@<TRIPOS>ATOM
  1 O       -5.1770     3.3450     0.1360 O.co2 1 <1>  -0.9000 
  2 C       -5.2920     2.4340     0.9520 C.2   1 <1>   0.9060 
  3 O       -4.3080     1.8160     1.3680 O.co2 1 <1>  -0.9000 
  4 C       -6.5970     1.7030     1.0460 C.3   1 <1>  -0.1860 
  5 C       -6.5530     0.5040     0.0640 C.3   1 <1>   0.4230 
  6 C       -7.8570     2.4760     0.5990 C.3   1 <1>   0.0580 
  7 N       -5.3230     0.5320    -0.7680 N.4   1 <1>  -0.8530 
  8 C       -7.8260     0.7030    -0.7930 C.3   1 <1>   0.0580 
  9 C       -9.0180     1.5700     0.9700 C.2   1 <1>  -0.2880 
 10 C       -7.8730     2.2260    -0.9090 C.3   1 <1>  -0.1600 
 11 C       -9.0010     0.5220     0.1500 C.2   1 <1>  -0.2880 
 12 H       -6.7170     1.3620     2.0570 H     1 <1>   0.0800 
 13 H       -6.6090    -0.4230     0.6110 H     1 <1>   0.0800 
 14 H       -7.9370     3.5070     0.9030 H     1 <1>   0.0800 
 15 H       -5.2850     1.4360    -1.2650 H     1 <1>   0.4500 
 16 H       -5.1590    -0.2670    -1.3740 H     1 <1>   0.4500 
 17 H       -4.5400     0.6570    -0.0830 H     1 <1>   0.4500 
 18 H       -7.8950     0.1570    -1.7170 H     1 <1>   0.0800 
 19 H       -9.6710     1.8250     1.7890 H     1 <1>   0.1500 
 20 H       -7.0330     2.6600    -1.4230 H     1 <1>   0.0800 
 21 H       -8.7880     2.5740    -1.3610 H     1 <1>   0.0800 
 22 H       -9.6410    -0.3430     0.0940 H     1 <1>   0.1500 
@<TRIPOS>BOND
  1   1   2  ar  
  2   2   3  ar  
  3   2   4  1   
  4   4   5  1   
  5   4   6  1   
  6   4  12  1   
  7   5   7  1   
  8   5   8  1   
  9   5  13  1   
 10   6   9  1   
 11   6  10  1   
 12   6  14  1   
 13   7  15  1   
 14   7  16  1   
 15   7  17  1   
 16   8  10  1   
 17   8  11  1   
 18   8  18  1   
 19   9  11  2   
 20   9  19  1   
 21  10  20  1   
 22  10  21  1   
 23  11  22  1   
@<TRIPOS>SUBSTRUCTURE
  1 ****   4 GROUP 4 **** **** 0

# MOE 2024.06 (io_trps.svl 2023.06)
