@<TRIPOS>MOLECULE
NONAME
29 31 1 0 0 
SMALL
USER_CHARGES


@<TRIPOS>ATOM
  1 O       -1.7970     1.3300    -2.3230 O.co2 1 <1>  -0.9000 
  2 C       -2.8150     0.7660    -1.8920 C.2   1 <1>   1.0500 
  3 O       -2.9100    -0.4670    -2.0020 O.co2 1 <1>  -0.9000 
  4 C       -3.8430     1.5800    -1.2790 C.2   1 <1>  -0.4000 
  5 C       -5.0450     1.3110    -0.7190 C.2   1 <1>  -0.2760 
  6 C       -5.9420     2.4010    -0.1360 C.3   1 <1>   0.0580 
  7 C       -5.6860    -0.0710    -0.5780 C.3   1 <1>   0.0580 
  8 C       -6.1770     2.1020     1.3550 C.3   1 <1>  -0.1600 
  9 C       -7.2860     2.3890    -0.8850 C.3   1 <1>  -0.1600 
 10 C       -5.9250    -0.3510     0.9150 C.3   1 <1>  -0.1600 
 11 C       -7.0320    -0.0650    -1.3230 C.3   1 <1>  -0.1600 
 12 C       -6.8490     0.7250     1.5180 C.3   1 <1>  -0.0800 
 13 C       -7.9630     1.0130    -0.7340 C.3   1 <1>  -0.0800 
 14 C       -8.1930     0.7210     0.7630 C.3   1 <1>  -0.1600 
 15 H       -3.5180     2.5980    -1.3100 H     1 <1>   0.1500 
 16 H       -5.4750     3.3640    -0.2440 H     1 <1>   0.0800 
 17 H       -5.0570    -0.8390    -0.9880 H     1 <1>   0.0800 
 18 H       -6.7960     2.8680     1.7870 H     1 <1>   0.0800 
 19 H       -5.2310     2.1080     1.8670 H     1 <1>   0.0800 
 20 H       -7.1080     2.5930    -1.9270 H     1 <1>   0.0800 
 21 H       -7.9260     3.1600    -0.4990 H     1 <1>   0.0800 
 22 H       -4.9760    -0.3500     1.4230 H     1 <1>   0.0800 
 23 H       -6.3630    -1.3260     1.0340 H     1 <1>   0.0800 
 24 H       -7.4910    -1.0340    -1.2470 H     1 <1>   0.0800 
 25 H       -6.8500     0.1340    -2.3650 H     1 <1>   0.0800 
 26 H       -7.0120     0.5200     2.5620 H     1 <1>   0.0800 
 27 H       -8.9020     1.0080    -1.2590 H     1 <1>   0.0800 
 28 H       -8.8470     1.4650     1.1820 H     1 <1>   0.0800 
 29 H       -8.6700    -0.2360     0.8760 H     1 <1>   0.0800 
@<TRIPOS>BOND
  1   1   2  ar  
  2   2   3  ar  
  3   2   4  1   
  4   4   5  2   
  5   4  15  1   
  6   5   6  1   
  7   5   7  1   
  8   6   8  1   
  9   6   9  1   
 10   6  16  1   
 11   7  10  1   
 12   7  11  1   
 13   7  17  1   
 14   8  12  1   
 15   8  18  1   
 16   8  19  1   
 17   9  13  1   
 18   9  20  1   
 19   9  21  1   
 20  10  12  1   
 21  10  22  1   
 22  10  23  1   
 23  11  13  1   
 24  11  24  1   
 25  11  25  1   
 26  12  14  1   
 27  12  26  1   
 28  13  14  1   
 29  13  27  1   
 30  14  28  1   
 31  14  29  1   
@<TRIPOS>SUBSTRUCTURE
  1 ****   5 GROUP 4 **** **** 0

# MOE 2024.06 (io_trps.svl 2023.06)
