@<TRIPOS>MOLECULE
NONAME
50 52 1 0 0 
SMALL
USER_CHARGES


@<TRIPOS>ATOM
  1 S        0.3710    -0.3130    -0.5620 S.o2  1 <1>   1.4470 
  2 O        1.0060    -1.0660    -1.6190 O.2   1 <1>  -0.6500 
  3 O        1.0810    -0.1100     0.6810 O.2   1 <1>  -0.6500 
  4 N        0.1540     1.2790    -1.2080 N.am  1 <1>  -0.6930 
  5 C       -1.3150    -0.9240    -0.2870 C.ar  1 <1>  -0.0090 
  6 C       -0.9410     2.0730    -0.8830 C.ar  1 <1>   0.1990 
  7 C        1.1310     1.7540    -2.2380 C.3   1 <1>   0.2570 
  8 C       -1.9230    -1.7930    -1.1860 C.ar  1 <1>  -0.1500 
  9 C       -2.0530    -0.5160     0.8180 C.ar  1 <1>  -0.1500 
 10 C       -0.9090     3.0170     0.1470 C.ar  1 <1>  -0.1430 
 11 C       -2.1130     1.9150    -1.6130 C.ar  1 <1>  -0.1500 
 12 C        2.5150     2.1580    -1.7130 C.2   1 <1>   0.5690 
 13 C       -3.2190    -2.2380    -0.9900 C.ar  1 <1>  -0.1500 
 14 C       -3.3490    -0.9560     1.0190 C.ar  1 <1>  -0.1500 
 15 C       -2.0440     3.7610     0.4270 C.ar  1 <1>  -0.1500 
 16 C        0.3450     3.2630     0.9760 C.3   1 <1>  -0.0960 
 17 C       -3.2390     2.6600    -1.3250 C.ar  1 <1>  -0.1500 
 18 O        3.1890     2.8760    -2.4160 O.2   1 <1>  -0.5700 
 19 N        2.9600     1.7250    -0.4990 N.am  1 <1>  -0.5790 
 20 C       -3.9400    -1.8200     0.1140 C.ar  1 <1>  -0.1430 
 21 C       -3.2110     3.5870    -0.2990 C.ar  1 <1>  -0.1430 
 22 C        4.2530     2.0430     0.1150 C.3   1 <1>   0.0490 
 23 C       -5.3620    -2.3050     0.3330 C.3   1 <1>  -0.0970 
 24 C       -4.4440     4.4110     0.0250 C.3   1 <1>  -0.0970 
 25 C        4.8960     0.9940     0.9590 C.3   1 <1>  -0.2000 
 26 C        4.2950     2.2110     1.5970 C.3   1 <1>  -0.2000 
 27 H        0.7140     2.6120    -2.7340 H     1 <1>   0.0800 
 28 H        1.2650     0.9920    -2.9840 H     1 <1>   0.0800 
 29 H       -1.3770    -2.1280    -2.0520 H     1 <1>   0.1500 
 30 H       -1.6100     0.1610     1.5290 H     1 <1>   0.1500 
 31 H       -2.1440     1.1960    -2.4110 H     1 <1>   0.1500 
 32 H       -3.6630    -2.9130    -1.7010 H     1 <1>   0.1500 
 33 H       -3.8960    -0.6210     1.8840 H     1 <1>   0.1500 
 34 H       -2.0250     4.4900     1.2180 H     1 <1>   0.1500 
 35 H        0.6940     2.3450     1.4110 H     1 <1>   0.0800 
 36 H        0.1510     3.9550     1.7750 H     1 <1>   0.0800 
 37 H        1.1190     3.6770     0.3570 H     1 <1>   0.0800 
 38 H       -4.1360     2.5150    -1.9010 H     1 <1>   0.1500 
 39 H        2.3570     1.1230     0.0770 H     1 <1>   0.3700 
 40 H        4.8790     2.6710    -0.5000 H     1 <1>   0.1000 
 41 H       -5.8360    -2.5220    -0.6070 H     1 <1>   0.0800 
 42 H       -5.9420    -1.5540     0.8390 H     1 <1>   0.0800 
 43 H       -5.3530    -3.1980     0.9320 H     1 <1>   0.0800 
 44 H       -4.4110     5.3410    -0.5130 H     1 <1>   0.0800 
 45 H       -4.4900     4.6200     1.0780 H     1 <1>   0.0800 
 46 H       -5.3370     3.8800    -0.2540 H     1 <1>   0.0800 
 47 H        5.9670     0.9030     0.9420 H     1 <1>   0.1000 
 48 H        4.3990     0.0450     1.0690 H     1 <1>   0.1000 
 49 H        3.3840     2.1030     2.1600 H     1 <1>   0.1000 
 50 H        4.9590     2.9460     2.0150 H     1 <1>   0.1000 
@<TRIPOS>BOND
  1   1   2  2   
  2   1   3  2   
  3   1   4  am  
  4   1   5  1   
  5   4   6  1   
  6   4   7  1   
  7   5   8  ar  
  8   5   9  ar  
  9   6  10  ar  
 10   6  11  ar  
 11   7  12  1   
 12   7  27  1   
 13   7  28  1   
 14   8  13  ar  
 15   8  29  1   
 16   9  14  ar  
 17   9  30  1   
 18  10  15  ar  
 19  10  16  1   
 20  11  17  ar  
 21  11  31  1   
 22  12  18  2   
 23  12  19  am  
 24  13  20  ar  
 25  13  32  1   
 26  14  20  ar  
 27  14  33  1   
 28  15  21  ar  
 29  15  34  1   
 30  16  35  1   
 31  16  36  1   
 32  16  37  1   
 33  17  21  ar  
 34  17  38  1   
 35  19  22  1   
 36  19  39  1   
 37  20  23  1   
 38  21  24  1   
 39  22  25  1   
 40  22  26  1   
 41  22  40  1   
 42  23  41  1   
 43  23  42  1   
 44  23  43  1   
 45  24  44  1   
 46  24  45  1   
 47  24  46  1   
 48  25  26  1   
 49  25  47  1   
 50  25  48  1   
 51  26  49  1   
 52  26  50  1   
@<TRIPOS>SUBSTRUCTURE
  1 ****   4 GROUP 4 **** **** 0

# MOE 2024.06 (io_trps.svl 2023.06)
