@<TRIPOS>MOLECULE
NONAME
46 47 1 0 0 
SMALL
USER_CHARGES


@<TRIPOS>ATOM
  1 S        0.4720    -0.3680    -0.7610 S.o2  1 <1>   1.3330 
  2 O        1.6290    -0.7980    -1.5170 O.2   1 <1>  -0.6500 
  3 O       -0.6970     0.0800    -1.4790 O.2   1 <1>  -0.6500 
  4 N        0.0850    -1.5950     0.3510 N.am  1 <1>  -0.8490 
  5 C        0.9300     0.9740     0.3160 C.3   1 <1>  -0.1350 
  6 C       -1.1620    -2.3540     0.1650 C.3   1 <1>   0.2760 
  7 C        1.2230    -2.5080     0.6700 C.3   1 <1>   0.2570 
  8 C       -1.2960    -3.0090    -1.2210 C.3   1 <1>  -0.1600 
  9 C       -2.4020    -1.5290     0.5420 C.3   1 <1>  -0.1600 
 10 C        2.4700    -1.8730     1.3090 C.2   1 <1>   0.5690 
 11 C       -2.5720    -3.8620    -1.2950 C.3   1 <1>  -0.1600 
 12 C       -3.6710    -2.3910     0.4620 C.3   1 <1>  -0.1600 
 13 O        2.5690    -1.8530     2.5130 O.2   1 <1>  -0.5700 
 14 N        3.4430    -1.3710     0.5070 N.am  1 <1>  -0.7300 
 15 C       -3.8130    -3.0370    -0.9240 C.3   1 <1>  -0.1600 
 16 C        4.7420    -0.8280     0.9340 C.3   1 <1>   0.2200 
 17 C        4.8530     0.6170     0.4670 C.3   1 <1>  -0.1600 
 18 C        5.8380    -1.5290     0.1410 C.3   1 <1>  -0.1600 
 19 C        5.2120     0.5410    -1.0210 C.3   1 <1>  -0.1600 
 20 C        5.8810    -0.8260    -1.2220 C.3   1 <1>  -0.1600 
 21 H        1.7130     0.6810     0.9840 H     1 <1>   0.0800 
 22 H        0.0830     1.2750     0.9000 H     1 <1>   0.0800 
 23 H        1.2630     1.8120    -0.2630 H     1 <1>   0.0800 
 24 H       -1.1520    -3.1620     0.8780 H     1 <1>   0.0800 
 25 H        1.5290    -3.0190    -0.2250 H     1 <1>   0.0800 
 26 H        0.8880    -3.2570     1.3650 H     1 <1>   0.0800 
 27 H       -0.4450    -3.6330    -1.4220 H     1 <1>   0.0800 
 28 H       -1.3560    -2.2600    -1.9900 H     1 <1>   0.0800 
 29 H       -2.5270    -0.6950    -0.1200 H     1 <1>   0.0800 
 30 H       -2.2890    -1.1530     1.5440 H     1 <1>   0.0800 
 31 H       -2.4860    -4.6980    -0.6220 H     1 <1>   0.0800 
 32 H       -2.6860    -4.2520    -2.2920 H     1 <1>   0.0800 
 33 H       -4.5340    -1.7790     0.6630 H     1 <1>   0.0800 
 34 H       -3.6320    -3.1610     1.2130 H     1 <1>   0.0800 
 35 H        3.2540    -1.2800    -0.5020 H     1 <1>   0.3700 
 36 H       -4.6840    -3.6700    -0.9380 H     1 <1>   0.0800 
 37 H       -3.9580    -2.2650    -1.6610 H     1 <1>   0.0800 
 38 H        4.8700    -0.9320     1.9990 H     1 <1>   0.0800 
 39 H        5.6640     1.0840     0.9980 H     1 <1>   0.0800 
 40 H        3.9570     1.1810     0.6510 H     1 <1>   0.0800 
 41 H        5.6670    -2.5880     0.0580 H     1 <1>   0.0800 
 42 H        6.7750    -1.3710     0.6450 H     1 <1>   0.0800 
 43 H        5.8650     1.3480    -1.3050 H     1 <1>   0.0800 
 44 H        4.3150     0.5920    -1.6160 H     1 <1>   0.0800 
 45 H        5.3270    -1.3950    -1.9490 H     1 <1>   0.0800 
 46 H        6.8960    -0.7190    -1.5650 H     1 <1>   0.0800 
@<TRIPOS>BOND
  1   1   2  2   
  2   1   3  2   
  3   1   4  am  
  4   1   5  1   
  5   4   6  1   
  6   4   7  1   
  7   5  21  1   
  8   5  22  1   
  9   5  23  1   
 10   6   8  1   
 11   6   9  1   
 12   6  24  1   
 13   7  10  1   
 14   7  25  1   
 15   7  26  1   
 16   8  11  1   
 17   8  27  1   
 18   8  28  1   
 19   9  12  1   
 20   9  29  1   
 21   9  30  1   
 22  10  13  2   
 23  10  14  am  
 24  11  15  1   
 25  11  31  1   
 26  11  32  1   
 27  12  15  1   
 28  12  33  1   
 29  12  34  1   
 30  14  16  1   
 31  14  35  1   
 32  15  36  1   
 33  15  37  1   
 34  16  17  1   
 35  16  18  1   
 36  16  38  1   
 37  17  19  1   
 38  17  39  1   
 39  17  40  1   
 40  18  20  1   
 41  18  41  1   
 42  18  42  1   
 43  19  20  1   
 44  19  43  1   
 45  19  44  1   
 46  20  45  1   
 47  20  46  1   
@<TRIPOS>SUBSTRUCTURE
  1 ****   4 GROUP 4 **** **** 0

# MOE 2024.06 (io_trps.svl 2023.06)
