@<TRIPOS>MOLECULE
NONAME
33 35 1 0 0 
SMALL
USER_CHARGES


@<TRIPOS>ATOM
  1 F       -1.4190    -0.8060     0.9180 F     1 <1>  -0.1900 
  2 C       -0.8440    -1.9800     0.9240 C.ar  1 <1>   0.1900 
  3 C        0.4580    -2.0870     0.4850 C.ar  1 <1>  -0.1500 
  4 C       -1.5710    -3.0660     1.3700 C.ar  1 <1>  -0.1500 
  5 C        1.0960    -3.3290     0.4800 C.ar  1 <1>   0.0280 
  6 C       -0.9550    -4.3050     1.3700 C.ar  1 <1>  -0.1500 
  7 C        0.3540    -4.4250     0.9310 C.ar  1 <1>  -0.1500 
  8 C        2.4540    -3.5330     0.0350 C.2   1 <1>  -0.1780 
  9 C        3.4580    -2.6650    -0.2390 C.2   1 <1>  -0.0380 
 10 N        3.3990    -1.2750    -0.1400 N.pl3 1 <1>  -0.8380 
 11 C        4.8400    -3.1690    -0.7030 C.3   1 <1>   0.3380 
 12 C        4.3720    -0.7480     0.8640 C.3   1 <1>   0.2090 
 13 C        3.6660    -0.6200    -1.4570 C.3   1 <1>   0.2090 
 14 O        5.3570    -3.9860     0.2840 O.3   1 <1>  -0.6800 
 15 C        5.7640    -1.9400    -0.8990 C.3   1 <1>  -0.0800 
 16 C        5.8070    -1.1200     0.4170 C.3   1 <1>  -0.1600 
 17 C        5.0760    -1.0320    -1.9470 C.3   1 <1>  -0.1600 
 18 H        0.9660    -1.2070     0.1460 H     1 <1>   0.1500 
 19 H       -2.5840    -2.9410     1.7050 H     1 <1>   0.1500 
 20 H       -1.4930    -5.1730     1.7110 H     1 <1>   0.1500 
 21 H        0.8140    -5.3970     0.9410 H     1 <1>   0.1500 
 22 H        2.6880    -4.5750    -0.0880 H     1 <1>   0.1500 
 23 H        4.7600    -3.7430    -1.6090 H     1 <1>   0.0800 
 24 H        4.2640     0.3200     0.9500 H     1 <1>   0.0800 
 25 H        4.1550    -1.1850     1.8240 H     1 <1>   0.0800 
 26 H        2.9180    -0.9350    -2.1640 H     1 <1>   0.0800 
 27 H        3.5990     0.4500    -1.3500 H     1 <1>   0.0800 
 28 H        5.0420    -3.6300     1.1350 H     1 <1>   0.4000 
 29 H        6.7440    -2.2400    -1.2250 H     1 <1>   0.0800 
 30 H        6.3790    -0.2210     0.2740 H     1 <1>   0.0800 
 31 H        6.2910    -1.6810     1.1960 H     1 <1>   0.0800 
 32 H        4.9860    -1.5530    -2.8830 H     1 <1>   0.0800 
 33 H        5.6660    -0.1500    -2.1240 H     1 <1>   0.0800 
@<TRIPOS>BOND
  1   1   2  1   
  2   2   3  ar  
  3   2   4  ar  
  4   3   5  ar  
  5   3  18  1   
  6   4   6  ar  
  7   4  19  1   
  8   5   7  ar  
  9   5   8  1   
 10   6   7  ar  
 11   6  20  1   
 12   7  21  1   
 13   8   9  2   
 14   8  22  1   
 15   9  10  1   
 16   9  11  1   
 17  10  12  1   
 18  10  13  1   
 19  11  14  1   
 20  11  15  1   
 21  11  23  1   
 22  12  16  1   
 23  12  24  1   
 24  12  25  1   
 25  13  17  1   
 26  13  26  1   
 27  13  27  1   
 28  14  28  1   
 29  15  16  1   
 30  15  17  1   
 31  15  29  1   
 32  16  30  1   
 33  16  31  1   
 34  17  32  1   
 35  17  33  1   
@<TRIPOS>SUBSTRUCTURE
  1 ****   9 GROUP 4 **** **** 0

# MOE 2024.06 (io_trps.svl 2023.06)
