@<TRIPOS>MOLECULE
NONAME
52 53 1 0 0 
SMALL
USER_CHARGES


@<TRIPOS>ATOM
  1 S        1.2110     1.1790    -0.8060 S.o2  1 <1>   1.3330 
  2 O        2.1120     1.8050    -1.7420 O.2   1 <1>  -0.6500 
  3 O        1.7010     0.2520     0.1820 O.2   1 <1>  -0.6500 
  4 N        0.4040     2.4670     0.0130 N.am  1 <1>  -0.6930 
  5 C       -0.0990     0.4160    -1.7410 C.3   1 <1>  -0.1350 
  6 C       -0.8970     2.3190     0.4840 C.ar  1 <1>   0.1990 
  7 C        1.2910     3.4500     0.7070 C.3   1 <1>   0.2570 
  8 C       -1.9550     3.0700    -0.0440 C.ar  1 <1>  -0.1440 
  9 C       -1.1530     1.3950     1.4890 C.ar  1 <1>  -0.1500 
 10 C        2.0480     2.9000     1.9300 C.2   1 <1>   0.5690 
 11 C       -3.2440     2.8870     0.4520 C.ar  1 <1>  -0.1440 
 12 C       -1.7030     4.0910    -1.1580 C.3   1 <1>  -0.0970 
 13 C       -2.4320     1.2100     1.9710 C.ar  1 <1>  -0.1500 
 14 O        1.4120     2.5010     2.8750 O.2   1 <1>  -0.5700 
 15 N        3.4020     2.8820     2.0400 N.am  1 <1>  -0.7300 
 16 C       -3.4730     1.9550     1.4520 C.ar  1 <1>  -0.1500 
 17 C       -4.4330     3.6880    -0.0650 C.3   1 <1>  -0.0970 
 18 C        4.5020     3.5290     1.2940 C.3   1 <1>   0.2200 
 19 C        4.3330     5.0540     1.3310 C.3   1 <1>  -0.1600 
 20 C        4.6580     2.9100    -0.1010 C.3   1 <1>  -0.1600 
 21 C        5.4720     5.8340     0.6530 C.3   1 <1>  -0.1600 
 22 C        6.0540     3.1610    -0.6920 C.3   1 <1>  -0.1600 
 23 C        5.4450     5.7060    -0.8770 C.3   1 <1>  -0.1600 
 24 C        6.2060     4.4950    -1.4420 C.3   1 <1>  -0.1600 
 25 H        0.2970    -0.3750    -2.3470 H     1 <1>   0.0800 
 26 H       -0.5680     1.1390    -2.3790 H     1 <1>   0.0800 
 27 H       -0.8380     0.0050    -1.0810 H     1 <1>   0.0800 
 28 H        0.6860     4.2690     1.0500 H     1 <1>   0.0800 
 29 H        1.9840     3.8430    -0.0070 H     1 <1>   0.0800 
 30 H       -0.3390     0.8240     1.9020 H     1 <1>   0.1500 
 31 H       -0.7820     3.9060    -1.6780 H     1 <1>   0.0800 
 32 H       -1.6630     5.0790    -0.7370 H     1 <1>   0.0800 
 33 H       -2.4880     4.0570    -1.8900 H     1 <1>   0.0800 
 34 H       -2.6140     0.4920     2.7520 H     1 <1>   0.1500 
 35 H        3.7180     2.3940     2.8800 H     1 <1>   0.3700 
 36 H       -4.4650     1.8030     1.8400 H     1 <1>   0.1500 
 37 H       -4.2070     4.7380    -0.0590 H     1 <1>   0.0800 
 38 H       -5.3000     3.5330     0.5510 H     1 <1>   0.0800 
 39 H       -4.6720     3.3830    -1.0680 H     1 <1>   0.0800 
 40 H        5.4030     3.3030     1.8400 H     1 <1>   0.0800 
 41 H        4.2940     5.3560     2.3630 H     1 <1>   0.0800 
 42 H        3.4030     5.3390     0.8750 H     1 <1>   0.0800 
 43 H        3.9160     3.2820    -0.7800 H     1 <1>   0.0800 
 44 H        4.5240     1.8450    -0.0130 H     1 <1>   0.0800 
 45 H        6.4290     5.5310     1.0420 H     1 <1>   0.0800 
 46 H        5.3440     6.8740     0.8990 H     1 <1>   0.0800 
 47 H        6.2760     2.3690    -1.3870 H     1 <1>   0.0800 
 48 H        6.7930     3.1010     0.0880 H     1 <1>   0.0800 
 49 H        5.8850     6.5920    -1.3020 H     1 <1>   0.0800 
 50 H        4.4250     5.6780    -1.2190 H     1 <1>   0.0800 
 51 H        5.8810     4.3520    -2.4580 H     1 <1>   0.0800 
 52 H        7.2550     4.7330    -1.4830 H     1 <1>   0.0800 
@<TRIPOS>BOND
  1   1   2  2   
  2   1   3  2   
  3   1   4  am  
  4   1   5  1   
  5   4   6  1   
  6   4   7  1   
  7   5  25  1   
  8   5  26  1   
  9   5  27  1   
 10   6   8  ar  
 11   6   9  ar  
 12   7  10  1   
 13   7  28  1   
 14   7  29  1   
 15   8  11  ar  
 16   8  12  1   
 17   9  13  ar  
 18   9  30  1   
 19  10  14  2   
 20  10  15  am  
 21  11  16  ar  
 22  11  17  1   
 23  12  31  1   
 24  12  32  1   
 25  12  33  1   
 26  13  16  ar  
 27  13  34  1   
 28  15  18  1   
 29  15  35  1   
 30  16  36  1   
 31  17  37  1   
 32  17  38  1   
 33  17  39  1   
 34  18  19  1   
 35  18  20  1   
 36  18  40  1   
 37  19  21  1   
 38  19  41  1   
 39  19  42  1   
 40  20  22  1   
 41  20  43  1   
 42  20  44  1   
 43  21  23  1   
 44  21  45  1   
 45  21  46  1   
 46  22  24  1   
 47  22  47  1   
 48  22  48  1   
 49  23  24  1   
 50  23  49  1   
 51  23  50  1   
 52  24  51  1   
 53  24  52  1   
@<TRIPOS>SUBSTRUCTURE
  1 ****   7 GROUP 4 **** **** 0

# MOE 2024.06 (io_trps.svl 2023.06)
