@<TRIPOS>MOLECULE
NONAME
36 38 1 0 0 
SMALL
USER_CHARGES


@<TRIPOS>ATOM
  1 S       -0.1930     0.5390    -0.0440 S.3   1 <1>  -0.0800 
  2 C        1.1240    -0.6100    -0.1610 C.2   1 <1>   0.4620 
  3 C       -1.3670    -0.7620    -0.0840 C.2   1 <1>  -0.0450 
  4 N        0.7120    -1.8300    -0.2120 N.2   1 <1>  -0.5650 
  5 N        2.4390    -0.1920    -0.1600 N.pl3 1 <1>  -0.5530 
  6 C       -0.6530    -1.9140    -0.1750 C.2   1 <1>   0.0460 
  7 C       -2.7610    -0.4340    -0.0200 C.2   1 <1>   0.8050 
  8 C        3.0400     1.0720    -0.2420 C.ar  1 <1>   0.1000 
  9 C        3.4940    -1.2000     0.1190 C.3   1 <1>   0.2090 
 10 C       -1.2110    -3.3230    -0.2410 C.3   1 <1>  -0.0590 
 11 O       -3.6480    -1.2670    -0.0330 O.2   1 <1>  -0.5700 
 12 O       -3.1040     0.8560     0.0580 O.3   1 <1>  -0.4300 
 13 C        4.3700     1.0130     0.1210 C.ar  1 <1>  -0.1440 
 14 C        2.5070     2.2920    -0.6420 C.ar  1 <1>  -0.1500 
 15 C        4.7550    -0.4010     0.4730 C.3   1 <1>  -0.0170 
 16 C       -4.4510     1.2650     0.1260 C.3   1 <1>   0.1200 
 17 C        5.1760     2.1350     0.1270 C.ar  1 <1>  -0.1500 
 18 C        3.3020     3.4270    -0.6400 C.ar  1 <1>  -0.1500 
 19 C       -4.4770     2.7880     0.2040 C.3   1 <1>  -0.2400 
 20 C        4.6320     3.3510    -0.2530 C.ar  1 <1>  -0.1500 
 21 H        3.6530    -1.7930    -0.7650 H     1 <1>   0.0800 
 22 H        3.1980    -1.8370     0.9340 H     1 <1>   0.0800 
 23 H       -2.2830    -3.3340    -0.2120 H     1 <1>   0.0800 
 24 H       -0.8400    -3.8950     0.5900 H     1 <1>   0.0800 
 25 H       -0.8880    -3.7930    -1.1520 H     1 <1>   0.0800 
 26 H        1.4890     2.3690    -0.9650 H     1 <1>   0.1500 
 27 H        5.5990    -0.7370    -0.1010 H     1 <1>   0.0800 
 28 H        4.9690    -0.4810     1.5230 H     1 <1>   0.0800 
 29 H       -4.8990     0.8260     1.0020 H     1 <1>   0.0800 
 30 H       -4.9610     0.9150    -0.7560 H     1 <1>   0.0800 
 31 H        6.2090     2.0670     0.4200 H     1 <1>   0.1500 
 32 H        2.8870     4.3710    -0.9440 H     1 <1>   0.1500 
 33 H       -3.9550     3.1230     1.0830 H     1 <1>   0.0800 
 34 H       -5.4940     3.1320     0.2580 H     1 <1>   0.0800 
 35 H       -4.0180     3.2120    -0.6710 H     1 <1>   0.0800 
 36 H        5.2430     4.2370    -0.2520 H     1 <1>   0.1500 
@<TRIPOS>BOND
  1   1   2  1   
  2   1   3  1   
  3   2   4  2   
  4   2   5  1   
  5   3   6  2   
  6   3   7  1   
  7   4   6  1   
  8   5   8  1   
  9   5   9  1   
 10   6  10  1   
 11   7  11  2   
 12   7  12  1   
 13   8  13  ar  
 14   8  14  ar  
 15   9  15  1   
 16   9  21  1   
 17   9  22  1   
 18  10  23  1   
 19  10  24  1   
 20  10  25  1   
 21  12  16  1   
 22  13  15  1   
 23  13  17  ar  
 24  14  18  ar  
 25  14  26  1   
 26  15  27  1   
 27  15  28  1   
 28  16  19  1   
 29  16  29  1   
 30  16  30  1   
 31  17  20  ar  
 32  17  31  1   
 33  18  20  ar  
 34  18  32  1   
 35  19  33  1   
 36  19  34  1   
 37  19  35  1   
 38  20  36  1   
@<TRIPOS>SUBSTRUCTURE
  1 ****   1 GROUP 4 **** **** 0

# MOE 2024.06 (io_trps.svl 2023.06)
