@<TRIPOS>MOLECULE
NONAME
53 55 1 0 0 
SMALL
USER_CHARGES


@<TRIPOS>ATOM
  1 O        0.1470     0.0130     0.1720 O.2   1 <1>  -0.5700 
  2 C       -1.0650     0.0340     0.0870 C.2   1 <1>   0.6340 
  3 O       -1.7340    -1.1230     0.1540 O.3   1 <1>  -0.4300 
  4 C       -1.8250     1.2540    -0.0810 C.ar  1 <1>   0.0860 
  5 C       -1.0680    -2.3590     0.3190 C.3   1 <1>   0.0400 
  6 C       -1.1890     2.4940    -0.1470 C.ar  1 <1>  -0.1500 
  7 C       -3.2160     1.2610    -0.1830 C.ar  1 <1>  -0.1500 
  8 C       -1.8690     3.6910    -0.2960 C.ar  1 <1>   0.1170 
  9 C       -3.9160     2.4390    -0.3420 C.ar  1 <1>  -0.1500 
 10 N       -1.0610     4.8470    -0.3370 N.am  1 <1>  -0.5470 
 11 C       -3.2770     3.6710    -0.4020 C.ar  1 <1>   0.1000 
 12 C       -0.9590     5.8570     0.5750 C.2   1 <1>   0.5690 
 13 N       -4.0920     4.7920    -0.5700 N.pl3 1 <1>  -0.8380 
 14 O       -1.8740     6.2260     1.2720 O.2   1 <1>  -0.5700 
 15 C        0.3780     6.5740     0.7080 C.3   1 <1>   0.0440 
 16 C       -5.0730     5.1400     0.5020 C.3   1 <1>   0.2090 
 17 C       -3.8380     5.8040    -1.6370 C.3   1 <1>   0.2090 
 18 C        1.4350     6.0150    -0.2400 C.ar  1 <1>  -0.1430 
 19 C       -4.9050     6.5890     1.0020 C.3   1 <1>   0.3430 
 20 C       -3.7180     7.2320    -1.0620 C.3   1 <1>   0.3430 
 21 C        2.1320     4.8650     0.1010 C.ar  1 <1>  -0.1500 
 22 C        1.6870     6.6290    -1.4580 C.ar  1 <1>  -0.1500 
 23 N       -4.8400     7.5950    -0.1210 N.4   1 <1>  -0.9590 
 24 C        3.0610     4.3280    -0.7710 C.ar  1 <1>  -0.1500 
 25 C        2.6180     6.0920    -2.3290 C.ar  1 <1>  -0.1500 
 26 C       -4.6470     8.9680     0.4280 C.3   1 <1>   0.2630 
 27 C        3.3030     4.9400    -1.9880 C.ar  1 <1>  -0.1500 
 28 H       -1.8030    -3.1430     0.3450 H     1 <1>   0.0800 
 29 H       -0.5160    -2.3360     1.2430 H     1 <1>   0.0800 
 30 H       -0.3970    -2.5070    -0.5110 H     1 <1>   0.0800 
 31 H       -0.1150     2.5110    -0.0720 H     1 <1>   0.1500 
 32 H       -3.7560     0.3310    -0.1420 H     1 <1>   0.1500 
 33 H       -4.9870     2.4050    -0.4300 H     1 <1>   0.1500 
 34 H       -0.1890     4.7070    -0.8600 H     1 <1>   0.3700 
 35 H        0.7170     6.4730     1.7220 H     1 <1>   0.0800 
 36 H        0.2300     7.6210     0.5190 H     1 <1>   0.0800 
 37 H       -4.9440     4.4700     1.3360 H     1 <1>   0.0800 
 38 H       -6.0700     5.0020     0.1240 H     1 <1>   0.0800 
 39 H       -4.6480     5.7700    -2.3450 H     1 <1>   0.0800 
 40 H       -2.9360     5.5530    -2.1670 H     1 <1>   0.0800 
 41 H       -4.0030     6.6400     1.5870 H     1 <1>   0.0800 
 42 H       -5.7260     6.8250     1.6580 H     1 <1>   0.0800 
 43 H       -3.6860     7.9320    -1.8800 H     1 <1>   0.0800 
 44 H       -2.7810     7.3020    -0.5390 H     1 <1>   0.0800 
 45 H        1.9570     4.3770     1.0460 H     1 <1>   0.1500 
 46 H        1.1650     7.5270    -1.7390 H     1 <1>   0.1500 
 47 H       -5.7240     7.5430    -0.6430 H     1 <1>   0.4500 
 48 H        3.5980     3.4330    -0.5030 H     1 <1>   0.1500 
 49 H        2.8130     6.5700    -3.2740 H     1 <1>   0.1500 
 50 H       -3.7230     9.0190     0.9830 H     1 <1>   0.0800 
 51 H       -5.4590     9.2260     1.0880 H     1 <1>   0.0800 
 52 H       -4.6110     9.6910    -0.3710 H     1 <1>   0.0800 
 53 H        4.0270     4.5210    -2.6660 H     1 <1>   0.1500 
@<TRIPOS>BOND
  1   1   2  2   
  2   2   3  1   
  3   2   4  1   
  4   3   5  1   
  5   4   6  ar  
  6   4   7  ar  
  7   5  28  1   
  8   5  29  1   
  9   5  30  1   
 10   6   8  ar  
 11   6  31  1   
 12   7   9  ar  
 13   7  32  1   
 14   8  10  1   
 15   8  11  ar  
 16   9  11  ar  
 17   9  33  1   
 18  10  12  am  
 19  10  34  1   
 20  11  13  1   
 21  12  14  2   
 22  12  15  1   
 23  13  16  1   
 24  13  17  1   
 25  15  18  1   
 26  15  35  1   
 27  15  36  1   
 28  16  19  1   
 29  16  37  1   
 30  16  38  1   
 31  17  20  1   
 32  17  39  1   
 33  17  40  1   
 34  18  21  ar  
 35  18  22  ar  
 36  19  23  1   
 37  19  41  1   
 38  19  42  1   
 39  20  23  1   
 40  20  43  1   
 41  20  44  1   
 42  21  24  ar  
 43  21  45  1   
 44  22  25  ar  
 45  22  46  1   
 46  23  26  1   
 47  23  47  1   
 48  24  27  ar  
 49  24  48  1   
 50  25  27  ar  
 51  25  49  1   
 52  26  50  1   
 53  26  51  1   
 54  26  52  1   
 55  27  53  1   
@<TRIPOS>SUBSTRUCTURE
  1 ****   8 GROUP 4 **** **** 0

# MOE 2024.06 (io_trps.svl 2023.06)
