@<TRIPOS>MOLECULE
NONAME
43 45 1 0 0 
SMALL
USER_CHARGES


@<TRIPOS>ATOM
  1 O       -2.2400     1.9530    -1.0130 O.3   1 <1>  -0.5600 
  2 C       -2.1430     0.5840    -0.7190 C.3   1 <1>   0.1200 
  3 C       -2.7070     2.7370     0.0510 C.3   1 <1>   0.1200 
  4 C       -3.4980     0.0160    -0.2340 C.3   1 <1>   0.3430 
  5 C       -4.1190     2.2860     0.4940 C.3   1 <1>   0.3430 
  6 N       -4.5730     1.0660    -0.2640 N.4   1 <1>  -0.9590 
  7 C       -5.9000     0.5250     0.1750 C.3   1 <1>   0.3430 
  8 C       -7.0600     1.4800    -0.1220 C.3   1 <1>   0.1200 
  9 O       -8.2330     0.8650     0.3480 O.3   1 <1>  -0.3630 
 10 C       -9.4440     1.4600     0.2270 C.ar  1 <1>   0.0820 
 11 C      -10.5310     0.7770     0.7480 C.ar  1 <1>  -0.1500 
 12 C       -9.6470     2.6960    -0.3810 C.ar  1 <1>  -0.1500 
 13 C      -11.8010     1.3150     0.6670 C.ar  1 <1>  -0.1500 
 14 C      -10.9220     3.2260    -0.4580 C.ar  1 <1>  -0.1500 
 15 C      -12.0210     2.5490     0.0630 C.ar  1 <1>   0.0000 
 16 C      -13.3500     3.1100    -0.0230 C.ar  1 <1>   0.0000 
 17 C      -14.3730     2.4320    -0.6800 C.ar  1 <1>  -0.1500 
 18 C      -13.6460     4.3440     0.5490 C.ar  1 <1>  -0.1500 
 19 C      -15.6460     2.9660    -0.7650 C.ar  1 <1>  -0.1500 
 20 C      -14.9170     4.8840     0.4670 C.ar  1 <1>  -0.1500 
 21 C      -15.9210     4.1950    -0.1910 C.ar  1 <1>  -0.1500 
 22 H       -1.3800     0.4440     0.0280 H     1 <1>   0.0800 
 23 H       -1.8290     0.0800    -1.6170 H     1 <1>   0.0800 
 24 H       -2.7300     3.7610    -0.2790 H     1 <1>   0.0800 
 25 H       -2.0080     2.6630     0.8670 H     1 <1>   0.0800 
 26 H       -3.3780    -0.3600     0.7690 H     1 <1>   0.0800 
 27 H       -3.7730    -0.8160    -0.8610 H     1 <1>   0.0800 
 28 H       -4.8080     3.0990     0.3330 H     1 <1>   0.0800 
 29 H       -4.1030     2.0800     1.5510 H     1 <1>   0.0800 
 30 H       -4.6160     1.3590    -1.2530 H     1 <1>   0.4500 
 31 H       -5.8760     0.3260     1.2340 H     1 <1>   0.0800 
 32 H       -6.0940    -0.4030    -0.3380 H     1 <1>   0.0800 
 33 H       -7.1660     1.6380    -1.1810 H     1 <1>   0.0800 
 34 H       -6.9460     2.4130     0.4000 H     1 <1>   0.0800 
 35 H      -10.3790    -0.1780     1.2180 H     1 <1>   0.1500 
 36 H       -8.8370     3.2600    -0.8010 H     1 <1>   0.1500 
 37 H      -12.6380     0.7770     1.0790 H     1 <1>   0.1500 
 38 H      -11.0800     4.1790    -0.9320 H     1 <1>   0.1500 
 39 H      -14.1640     1.4780    -1.1310 H     1 <1>   0.1500 
 40 H      -12.8720     4.8820     1.0650 H     1 <1>   0.1500 
 41 H      -16.4230     2.4270    -1.2780 H     1 <1>   0.1500 
 42 H      -15.1260     5.8390     0.9160 H     1 <1>   0.1500 
 43 H      -16.9100     4.6120    -0.2560 H     1 <1>   0.1500 
@<TRIPOS>BOND
  1   1   2  1   
  2   1   3  1   
  3   2   4  1   
  4   2  22  1   
  5   2  23  1   
  6   3   5  1   
  7   3  24  1   
  8   3  25  1   
  9   4   6  1   
 10   4  26  1   
 11   4  27  1   
 12   5   6  1   
 13   5  28  1   
 14   5  29  1   
 15   6   7  1   
 16   6  30  1   
 17   7   8  1   
 18   7  31  1   
 19   7  32  1   
 20   8   9  1   
 21   8  33  1   
 22   8  34  1   
 23   9  10  1   
 24  10  11  ar  
 25  10  12  ar  
 26  11  13  ar  
 27  11  35  1   
 28  12  14  ar  
 29  12  36  1   
 30  13  15  ar  
 31  13  37  1   
 32  14  15  ar  
 33  14  38  1   
 34  15  16  1   
 35  16  17  ar  
 36  16  18  ar  
 37  17  19  ar  
 38  17  39  1   
 39  18  20  ar  
 40  18  40  1   
 41  19  21  ar  
 42  19  41  1   
 43  20  21  ar  
 44  20  42  1   
 45  21  43  1   
@<TRIPOS>SUBSTRUCTURE
  1 ****  12 GROUP 4 **** **** 0

# MOE 2024.06 (io_trps.svl 2023.06)
