@<TRIPOS>MOLECULE
NONAME
44 46 1 0 0 
SMALL
USER_CHARGES


@<TRIPOS>ATOM
  1 BR      -1.2840    -4.2870    -2.4680 Br    1 <1>  -0.0580 
  2 C       -3.0290    -4.4380    -1.6770 C.2   1 <1>   0.1980 
  3 O       -3.4220    -3.4880    -0.8680 O.3   1 <1>  -0.2800 
  4 C       -3.9460    -5.4110    -1.8350 C.2   1 <1>  -0.1500 
  5 C       -4.6490    -3.8090    -0.4500 C.2   1 <1>   0.0550 
  6 C       -5.0100    -4.9980    -1.0290 C.2   1 <1>  -0.1500 
  7 C       -5.3750    -2.9530     0.4610 C.2   1 <1>   0.7150 
  8 O       -4.9110    -1.9100     0.8860 O.2   1 <1>  -0.5700 
  9 N       -6.6410    -3.2980     0.8450 N.am  1 <1>  -0.7300 
 10 C       -7.5710    -2.4460     1.6320 C.3   1 <1>   0.1400 
 11 C       -8.7080    -1.8880     0.7380 C.3   1 <1>   0.1430 
 12 C       -9.3720    -3.0940     0.0250 C.ar  1 <1>  -0.1430 
 13 C       -9.7500    -1.1500     1.6100 C.3   1 <1>  -0.1600 
 14 C       -8.1440    -0.8420    -0.2560 C.3   1 <1>  -0.1600 
 15 C       -9.2630    -3.3100    -1.3470 C.ar  1 <1>  -0.1500 
 16 C      -10.0790    -4.0320     0.7730 C.ar  1 <1>  -0.1500 
 17 C       -9.2070     0.1590     2.1980 C.3   1 <1>   0.1200 
 18 C       -7.6760     0.4410     0.4390 C.3   1 <1>   0.1200 
 19 C       -9.8420    -4.4160    -1.9430 C.ar  1 <1>  -0.1500 
 20 C      -10.6610    -5.1390     0.1800 C.ar  1 <1>  -0.1500 
 21 O       -8.7360     0.9710     1.1710 O.3   1 <1>  -0.5600 
 22 C      -10.5430    -5.3390    -1.1900 C.ar  1 <1>   0.0830 
 23 O      -11.0770    -6.3950    -1.8520 O.3   1 <1>  -0.3620 
 24 C      -11.8870    -7.3410    -1.1910 C.3   1 <1>   0.0400 
 25 H       -3.8900    -6.3020    -2.4340 H     1 <1>   0.1500 
 26 H       -5.9310    -5.5400    -0.9100 H     1 <1>   0.1500 
 27 H       -7.1020    -4.0670     0.3560 H     1 <1>   0.3700 
 28 H       -7.0250    -1.6480     2.1030 H     1 <1>   0.0800 
 29 H       -7.9930    -3.0480     2.4160 H     1 <1>   0.0800 
 30 H      -10.0810    -1.7710     2.4200 H     1 <1>   0.0800 
 31 H      -10.6120    -0.9170     1.0100 H     1 <1>   0.0800 
 32 H       -8.9080    -0.5640    -0.9590 H     1 <1>   0.0800 
 33 H       -7.3180    -1.2480    -0.8110 H     1 <1>   0.0800 
 34 H       -8.7280    -2.6320    -1.9860 H     1 <1>   0.1500 
 35 H      -10.1850    -3.9190     1.8360 H     1 <1>   0.1500 
 36 H       -8.4050    -0.0130     2.8950 H     1 <1>   0.0800 
 37 H       -9.9920     0.6970     2.7010 H     1 <1>   0.0800 
 38 H       -7.3860     1.1770    -0.2910 H     1 <1>   0.0800 
 39 H       -6.8430     0.2670     1.0990 H     1 <1>   0.0800 
 40 H       -9.7530    -4.5700    -3.0040 H     1 <1>   0.1500 
 41 H      -11.1980    -5.8340     0.7980 H     1 <1>   0.1500 
 42 H      -12.2210    -8.0590    -1.9180 H     1 <1>   0.0800 
 43 H      -12.7330    -6.8370    -0.7610 H     1 <1>   0.0800 
 44 H      -11.3030    -7.8340    -0.4340 H     1 <1>   0.0800 
@<TRIPOS>BOND
  1   1   2  1   
  2   2   3  1   
  3   2   4  2   
  4   3   5  1   
  5   4   6  1   
  6   4  25  1   
  7   5   6  2   
  8   5   7  1   
  9   6  26  1   
 10   7   8  2   
 11   7   9  am  
 12   9  10  1   
 13   9  27  1   
 14  10  11  1   
 15  10  28  1   
 16  10  29  1   
 17  11  12  1   
 18  11  13  1   
 19  11  14  1   
 20  12  15  ar  
 21  12  16  ar  
 22  13  17  1   
 23  13  30  1   
 24  13  31  1   
 25  14  18  1   
 26  14  32  1   
 27  14  33  1   
 28  15  19  ar  
 29  15  34  1   
 30  16  20  ar  
 31  16  35  1   
 32  17  21  1   
 33  17  36  1   
 34  17  37  1   
 35  18  21  1   
 36  18  38  1   
 37  18  39  1   
 38  19  22  ar  
 39  19  40  1   
 40  20  22  ar  
 41  20  41  1   
 42  22  23  1   
 43  23  24  1   
 44  24  42  1   
 45  24  43  1   
 46  24  44  1   
@<TRIPOS>SUBSTRUCTURE
  1 ****   9 GROUP 4 **** **** 0

# MOE 2024.06 (io_trps.svl 2023.06)
