@<TRIPOS>MOLECULE
NONAME
51 54 1 0 0 
SMALL
USER_CHARGES


@<TRIPOS>ATOM
  1 CL      -0.9130    -1.7200     2.9480 Cl    1 <1>  -0.1770 
  2 C       -1.7030    -2.3620     1.5230 C.ar  1 <1>   0.1770 
  3 C       -2.1810    -1.5140     0.5300 C.ar  1 <1>   0.0830 
  4 C       -1.8400    -3.7320     1.4130 C.ar  1 <1>  -0.1500 
  5 O       -2.0580    -0.1680     0.6130 O.3   1 <1>  -0.3630 
  6 C       -2.8220    -2.0510    -0.5730 C.ar  1 <1>  -0.1500 
  7 C       -2.4800    -4.2680     0.3010 C.ar  1 <1>   0.0830 
  8 C       -0.7980     0.3630     0.2700 C.3   1 <1>   0.0400 
  9 C       -2.9910    -3.4240    -0.6940 C.ar  1 <1>   0.1170 
 10 O       -2.6400    -5.6130     0.1320 O.3   1 <1>  -0.3630 
 11 N       -3.6570    -3.9660    -1.8050 N.am  1 <1>  -0.5470 
 12 C       -2.6320    -6.4780     1.2480 C.3   1 <1>   0.0400 
 13 C       -4.9270    -3.7980    -2.2610 C.2   1 <1>   0.5690 
 14 O       -5.2780    -4.3960    -3.2470 O.2   1 <1>  -0.5700 
 15 C       -5.9260    -2.8790    -1.5700 C.3   1 <1>  -0.0990 
 16 C       -6.8200    -3.5540    -0.5020 C.3   1 <1>   0.0000 
 17 C       -7.7650    -2.4870     0.1010 C.3   1 <1>  -0.1600 
 18 C       -7.6860    -4.6770    -1.1210 C.3   1 <1>  -0.1600 
 19 C       -5.9820    -4.1620     0.6470 C.3   1 <1>  -0.1600 
 20 C       -8.6860    -3.1060     1.1690 C.3   1 <1>  -0.0800 
 21 C       -8.6060    -5.3070    -0.0580 C.3   1 <1>  -0.0800 
 22 C       -6.8920    -4.7890     1.7200 C.3   1 <1>  -0.0800 
 23 C       -9.5290    -4.2210     0.5250 C.3   1 <1>  -0.1600 
 24 C       -7.8210    -3.7040     2.2940 C.3   1 <1>  -0.1600 
 25 C       -7.7420    -5.8970     1.0730 C.3   1 <1>  -0.1600 
 26 H       -1.4410    -4.3500     2.1940 H     1 <1>   0.1500 
 27 H       -3.1850    -1.3920    -1.3400 H     1 <1>   0.1500 
 28 H       -0.8510     1.4340     0.3530 H     1 <1>   0.0800 
 29 H       -0.5640     0.0830    -0.7420 H     1 <1>   0.0800 
 30 H       -0.0540    -0.0180     0.9470 H     1 <1>   0.0800 
 31 H       -3.2060    -4.7820    -2.2210 H     1 <1>   0.3700 
 32 H       -1.6320    -6.5400     1.6380 H     1 <1>   0.0800 
 33 H       -2.9540    -7.4490     0.9180 H     1 <1>   0.0800 
 34 H       -3.3140    -6.1000     1.9890 H     1 <1>   0.0800 
 35 H       -6.5590    -2.4660    -2.3350 H     1 <1>   0.0800 
 36 H       -5.4090    -2.0540    -1.1240 H     1 <1>   0.0800 
 37 H       -8.3690    -2.0520    -0.6760 H     1 <1>   0.0800 
 38 H       -7.1880    -1.6960     0.5470 H     1 <1>   0.0800 
 39 H       -7.0570    -5.4440    -1.5370 H     1 <1>   0.0800 
 40 H       -8.2830    -4.2800    -1.9230 H     1 <1>   0.0800 
 41 H       -5.3670    -3.4030     1.0970 H     1 <1>   0.0800 
 42 H       -5.3330    -4.9280     0.2610 H     1 <1>   0.0800 
 43 H       -9.3340    -2.3470     1.5740 H     1 <1>   0.0800 
 44 H       -9.1990    -6.0860    -0.5070 H     1 <1>   0.0800 
 45 H       -6.2890    -5.2060     2.5080 H     1 <1>   0.0800 
 46 H      -10.1430    -3.8090    -0.2560 H     1 <1>   0.0800 
 47 H      -10.1830    -4.6550     1.2610 H     1 <1>   0.0800 
 48 H       -8.4540    -4.1310     3.0520 H     1 <1>   0.0800 
 49 H       -7.2350    -2.9290     2.7550 H     1 <1>   0.0800 
 50 H       -7.1000    -6.6640     0.6760 H     1 <1>   0.0800 
 51 H       -8.3750    -6.3520     1.8150 H     1 <1>   0.0800 
@<TRIPOS>BOND
  1   1   2  1   
  2   2   3  ar  
  3   2   4  ar  
  4   3   5  1   
  5   3   6  ar  
  6   4   7  ar  
  7   4  26  1   
  8   5   8  1   
  9   6   9  ar  
 10   6  27  1   
 11   7   9  ar  
 12   7  10  1   
 13   8  28  1   
 14   8  29  1   
 15   8  30  1   
 16   9  11  1   
 17  10  12  1   
 18  11  13  am  
 19  11  31  1   
 20  12  32  1   
 21  12  33  1   
 22  12  34  1   
 23  13  14  2   
 24  13  15  1   
 25  15  16  1   
 26  15  35  1   
 27  15  36  1   
 28  16  17  1   
 29  16  18  1   
 30  16  19  1   
 31  17  20  1   
 32  17  37  1   
 33  17  38  1   
 34  18  21  1   
 35  18  39  1   
 36  18  40  1   
 37  19  22  1   
 38  19  41  1   
 39  19  42  1   
 40  20  23  1   
 41  20  24  1   
 42  20  43  1   
 43  21  23  1   
 44  21  25  1   
 45  21  44  1   
 46  22  24  1   
 47  22  25  1   
 48  22  45  1   
 49  23  46  1   
 50  23  47  1   
 51  24  48  1   
 52  24  49  1   
 53  25  50  1   
 54  25  51  1   
@<TRIPOS>SUBSTRUCTURE
  1 ****  19 GROUP 4 **** **** 0

# MOE 2024.06 (io_trps.svl 2023.06)
