@<TRIPOS>MOLECULE
NONAME
54 56 1 0 0 
SMALL
USER_CHARGES


@<TRIPOS>ATOM
  1 F        2.1050     4.0340     0.6470 F     1 <1>  -0.3400 
  2 C        2.1680     2.7110     0.7240 C.3   1 <1>   1.1640 
  3 F        2.3030     2.4180     2.0130 F     1 <1>  -0.3400 
  4 F        0.9710     2.2590     0.3660 F     1 <1>  -0.3400 
  5 C        3.2940     2.1370    -0.1500 C.ar  1 <1>  -0.1440 
  6 C        4.4600     1.6230     0.4070 C.ar  1 <1>  -0.1500 
  7 C        3.1620     2.1280    -1.5350 C.ar  1 <1>  -0.1500 
  8 C        5.4760     1.1070    -0.3850 C.ar  1 <1>   0.1000 
  9 C        4.1670     1.6160    -2.3370 C.ar  1 <1>  -0.1500 
 10 N        6.6220     0.6010     0.2150 N.pl3 1 <1>  -0.8380 
 11 C        5.3180     1.1090    -1.7650 C.ar  1 <1>  -0.1500 
 12 C        7.8900     1.3500    -0.0360 C.3   1 <1>   0.2090 
 13 C        6.7790    -0.8830     0.1830 C.3   1 <1>   0.2090 
 14 C        9.0010     0.8900     0.9320 C.3   1 <1>   0.3430 
 15 C        7.8910    -1.3390     1.1530 C.3   1 <1>   0.3430 
 16 N        9.1880    -0.6090     0.9260 N.4   1 <1>  -0.9590 
 17 C       10.2660    -1.0420     1.8480 C.3   1 <1>   0.4860 
 18 C       11.5700    -0.4500     1.3520 C.ar  1 <1>  -0.1430 
 19 C       12.0210    -0.7260     0.0640 C.ar  1 <1>   0.0830 
 20 C       12.3090     0.3860     2.1710 C.ar  1 <1>  -0.1500 
 21 O       11.2950    -1.5850    -0.6930 O.3   1 <1>  -0.3630 
 22 C       13.1710    -0.1150    -0.4340 C.ar  1 <1>  -0.1430 
 23 C       13.4760     0.9590     1.7040 C.ar  1 <1>  -0.1500 
 24 C       11.8430    -2.8780    -0.8730 C.3   1 <1>   0.0400 
 25 C       13.9110     0.7170     0.4030 C.ar  1 <1>   0.0830 
 26 C       13.6310    -0.3180    -1.8790 C.3   1 <1>  -0.0970 
 27 O       15.0490     1.2680    -0.0960 O.3   1 <1>  -0.3630 
 28 C       15.9190     2.0480     0.6940 C.3   1 <1>   0.0400 
 29 H        4.6050     1.6150     1.4730 H     1 <1>   0.1500 
 30 H        2.2710     2.5210    -1.9980 H     1 <1>   0.1500 
 31 H        4.0510     1.6150    -3.4080 H     1 <1>   0.1500 
 32 H        6.0940     0.7120    -2.3920 H     1 <1>   0.1500 
 33 H        7.7120     2.4030     0.0990 H     1 <1>   0.0800 
 34 H        8.2090     1.1960    -1.0530 H     1 <1>   0.0800 
 35 H        7.0150    -1.2010    -0.8180 H     1 <1>   0.0800 
 36 H        5.8470    -1.3430     0.4660 H     1 <1>   0.0800 
 37 H        8.7350     1.2160     1.9230 H     1 <1>   0.0800 
 38 H        9.9240     1.3760     0.6600 H     1 <1>   0.0800 
 39 H        8.0410    -2.4000     1.0400 H     1 <1>   0.0800 
 40 H        7.5480    -1.1570     2.1580 H     1 <1>   0.0800 
 41 H        9.5550    -0.8570    -0.0100 H     1 <1>   0.4500 
 42 H       10.3450    -2.1160     1.8470 H     1 <1>   0.0800 
 43 H       10.0590    -0.7090     2.8520 H     1 <1>   0.0800 
 44 H       11.9910     0.6030     3.1780 H     1 <1>   0.1500 
 45 H       14.0340     1.5970     2.3650 H     1 <1>   0.1500 
 46 H       12.7940    -2.8020    -1.3690 H     1 <1>   0.0800 
 47 H       11.1660    -3.4540    -1.4790 H     1 <1>   0.0800 
 48 H       11.9690    -3.3440     0.0880 H     1 <1>   0.0800 
 49 H       12.8360    -0.6810    -2.5030 H     1 <1>   0.0800 
 50 H       14.4490    -1.0150    -1.9060 H     1 <1>   0.0800 
 51 H       13.9670     0.6140    -2.2980 H     1 <1>   0.0800 
 52 H       16.7580     2.3320     0.0840 H     1 <1>   0.0800 
 53 H       16.2580     1.4580     1.5270 H     1 <1>   0.0800 
 54 H       15.3980     2.9280     1.0270 H     1 <1>   0.0800 
@<TRIPOS>BOND
  1   1   2  1   
  2   2   3  1   
  3   2   4  1   
  4   2   5  1   
  5   5   6  ar  
  6   5   7  ar  
  7   6   8  ar  
  8   6  29  1   
  9   7   9  ar  
 10   7  30  1   
 11   8  10  1   
 12   8  11  ar  
 13   9  11  ar  
 14   9  31  1   
 15  10  12  1   
 16  10  13  1   
 17  11  32  1   
 18  12  14  1   
 19  12  33  1   
 20  12  34  1   
 21  13  15  1   
 22  13  35  1   
 23  13  36  1   
 24  14  16  1   
 25  14  37  1   
 26  14  38  1   
 27  15  16  1   
 28  15  39  1   
 29  15  40  1   
 30  16  17  1   
 31  16  41  1   
 32  17  18  1   
 33  17  42  1   
 34  17  43  1   
 35  18  19  ar  
 36  18  20  ar  
 37  19  21  1   
 38  19  22  ar  
 39  20  23  ar  
 40  20  44  1   
 41  21  24  1   
 42  22  25  ar  
 43  22  26  1   
 44  23  25  ar  
 45  23  45  1   
 46  24  46  1   
 47  24  47  1   
 48  24  48  1   
 49  25  27  1   
 50  26  49  1   
 51  26  50  1   
 52  26  51  1   
 53  27  28  1   
 54  28  52  1   
 55  28  53  1   
 56  28  54  1   
@<TRIPOS>SUBSTRUCTURE
  1 ****  12 GROUP 4 **** **** 0

# MOE 2024.06 (io_trps.svl 2023.06)
