@<TRIPOS>MOLECULE
NONAME
48 50 1 0 0 
SMALL
USER_CHARGES


@<TRIPOS>ATOM
  1 F        0.8510    -0.2890     0.1830 F     1 <1>  -0.1900 
  2 C        1.9080    -1.0090    -0.0930 C.ar  1 <1>   0.1900 
  3 C        2.4760    -0.9060    -1.3480 C.ar  1 <1>  -0.1500 
  4 C        2.4170    -1.8450     0.8820 C.ar  1 <1>  -0.1500 
  5 C        3.5940    -1.6720    -1.6300 C.ar  1 <1>  -0.1500 
  6 C        3.5370    -2.6030     0.5850 C.ar  1 <1>  -0.1500 
  7 C        4.1370    -2.5250    -0.6720 C.ar  1 <1>   0.1000 
  8 N        5.2700    -3.2710    -0.9890 N.pl3 1 <1>  -0.8380 
  9 C        6.5670    -2.5530    -1.1750 C.3   1 <1>   0.2090 
 10 C        5.3430    -4.7270    -0.6600 C.3   1 <1>   0.2090 
 11 C        7.5560    -2.8780    -0.0370 C.3   1 <1>   0.3430 
 12 C        6.3710    -5.0080     0.4580 C.3   1 <1>   0.3430 
 13 N        7.7070    -4.3640     0.1960 N.4   1 <1>  -0.9590 
 14 C        8.6910    -4.6550     1.2720 C.3   1 <1>   0.4860 
 15 C       10.0440    -4.1520     0.8180 C.ar  1 <1>  -0.1430 
 16 C       10.5740    -2.9870     1.3500 C.ar  1 <1>  -0.1500 
 17 C       10.7630    -4.8420    -0.1450 C.ar  1 <1>  -0.1500 
 18 C       11.7980    -2.5040     0.9170 C.ar  1 <1>   0.0830 
 19 C       11.9880    -4.3710    -0.5870 C.ar  1 <1>   0.0830 
 20 O       12.2210    -1.3520     1.4910 O.3   1 <1>  -0.3630 
 21 C       12.5100    -3.1970    -0.0560 C.ar  1 <1>  -0.1500 
 22 O       12.6050    -5.1140    -1.5370 O.3   1 <1>  -0.3630 
 23 C       13.4940    -0.8100     1.2080 C.3   1 <1>   0.0400 
 24 C       13.8980    -4.7920    -2.0030 C.3   1 <1>   0.0400 
 25 H        2.0490    -0.2460    -2.0810 H     1 <1>   0.1500 
 26 H        1.9430    -1.8950     1.8450 H     1 <1>   0.1500 
 27 H        4.0500    -1.6170    -2.6010 H     1 <1>   0.1500 
 28 H        3.9440    -3.2510     1.3360 H     1 <1>   0.1500 
 29 H        6.3930    -1.4900    -1.1980 H     1 <1>   0.0800 
 30 H        6.9940    -2.8340    -2.1210 H     1 <1>   0.0800 
 31 H        5.6170    -5.2700    -1.5480 H     1 <1>   0.0800 
 32 H        4.3720    -5.0800    -0.3560 H     1 <1>   0.0800 
 33 H        7.1980    -2.4060     0.8630 H     1 <1>   0.0800 
 34 H        8.5130    -2.4430    -0.2780 H     1 <1>   0.0800 
 35 H        6.4890    -6.0740     0.5610 H     1 <1>   0.0800 
 36 H        5.9670    -4.6310     1.3830 H     1 <1>   0.0800 
 37 H        8.0940    -4.7550    -0.6720 H     1 <1>   0.4500 
 38 H        8.7480    -5.7160     1.4500 H     1 <1>   0.0800 
 39 H        8.4020    -4.1660     2.1890 H     1 <1>   0.0800 
 40 H       10.0540    -2.4280     2.1090 H     1 <1>   0.1500 
 41 H       10.3950    -5.7590    -0.5730 H     1 <1>   0.1500 
 42 H       13.4560    -2.8270    -0.3960 H     1 <1>   0.1500 
 43 H       13.6210     0.0740     1.8060 H     1 <1>   0.0800 
 44 H       13.5420    -0.5540     0.1640 H     1 <1>   0.0800 
 45 H       14.2470    -1.5340     1.4640 H     1 <1>   0.0800 
 46 H       14.1920    -5.5390    -2.7190 H     1 <1>   0.0800 
 47 H       14.5810    -4.7970    -1.1720 H     1 <1>   0.0800 
 48 H       13.8700    -3.8260    -2.4750 H     1 <1>   0.0800 
@<TRIPOS>BOND
  1   1   2  1   
  2   2   3  ar  
  3   2   4  ar  
  4   3   5  ar  
  5   3  25  1   
  6   4   6  ar  
  7   4  26  1   
  8   5   7  ar  
  9   5  27  1   
 10   6   7  ar  
 11   6  28  1   
 12   7   8  1   
 13   8   9  1   
 14   8  10  1   
 15   9  11  1   
 16   9  29  1   
 17   9  30  1   
 18  10  12  1   
 19  10  31  1   
 20  10  32  1   
 21  11  13  1   
 22  11  33  1   
 23  11  34  1   
 24  12  13  1   
 25  12  35  1   
 26  12  36  1   
 27  13  14  1   
 28  13  37  1   
 29  14  15  1   
 30  14  38  1   
 31  14  39  1   
 32  15  16  ar  
 33  15  17  ar  
 34  16  18  ar  
 35  16  40  1   
 36  17  19  ar  
 37  17  41  1   
 38  18  20  1   
 39  18  21  ar  
 40  19  21  ar  
 41  19  22  1   
 42  20  23  1   
 43  21  42  1   
 44  22  24  1   
 45  23  43  1   
 46  23  44  1   
 47  23  45  1   
 48  24  46  1   
 49  24  47  1   
 50  24  48  1   
@<TRIPOS>SUBSTRUCTURE
  1 ****  11 GROUP 4 **** **** 0

# MOE 2024.06 (io_trps.svl 2023.06)
