@<TRIPOS>MOLECULE
NONAME
57 58 1 0 0 
SMALL
USER_CHARGES


@<TRIPOS>ATOM
  1 O       -5.9300     2.4790     2.2760 O.2   1 <1>  -0.5700 
  2 C       -5.2510     2.7460     1.3130 C.2   1 <1>   0.5690 
  3 N       -5.4780     2.2780     0.0530 N.am  1 <1>  -0.5470 
  4 C       -4.0380     3.6620     1.4840 C.3   1 <1>   0.1710 
  5 C       -6.4460     1.3900    -0.4450 C.ar  1 <1>   0.1170 
  6 N       -2.9260     3.3770     0.5210 N.3   1 <1>  -0.8100 
  7 C       -6.0210     0.2380    -1.1120 C.ar  1 <1>  -0.1430 
  8 C       -7.8170     1.6380    -0.3230 C.ar  1 <1>  -0.1430 
  9 C       -2.0090     4.5290     0.4390 C.3   1 <1>   0.1100 
 10 C       -2.2180     2.1480     0.9260 C.3   1 <1>   0.0300 
 11 C       -6.9500    -0.6490    -1.6270 C.ar  1 <1>  -0.1500 
 12 C       -4.5390    -0.0780    -1.2780 C.3   1 <1>  -0.0970 
 13 C       -8.7290     0.7330    -0.8420 C.ar  1 <1>  -0.1500 
 14 C       -8.3630     2.8860     0.3590 C.3   1 <1>  -0.0970 
 15 C       -1.1190     4.4510    -0.8050 C.3   1 <1>  -0.0170 
 16 C       -8.3060    -0.4100    -1.4960 C.ar  1 <1>  -0.1430 
 17 C       -0.2950     5.7230    -0.9350 C.ar  1 <1>  -0.1430 
 18 C       -9.3180    -1.3910    -2.0570 C.3   1 <1>  -0.0970 
 19 C        0.9440     5.8230    -0.3210 C.ar  1 <1>  -0.1500 
 20 C       -0.7800     6.7940    -1.6640 C.ar  1 <1>  -0.1500 
 21 C        1.7090     6.9830    -0.4260 C.ar  1 <1>   0.0830 
 22 C       -0.0370     7.9550    -1.7690 C.ar  1 <1>  -0.1500 
 23 O        2.9440     7.0620     0.1500 O.3   1 <1>  -0.3620 
 24 C        1.1970     8.0720    -1.1510 C.ar  1 <1>   0.0830 
 25 C        3.6860     5.9030     0.4610 C.3   1 <1>   0.0400 
 26 O        1.8130     9.2760    -1.3220 O.3   1 <1>  -0.3630 
 27 C        2.6450     9.8180    -0.3200 C.3   1 <1>   0.0400 
 28 H       -4.6900     2.4750    -0.5680 H     1 <1>   0.3700 
 29 H       -3.6800     3.5850     2.4960 H     1 <1>   0.0800 
 30 H       -4.3910     4.6670     1.3370 H     1 <1>   0.0800 
 31 H       -1.4030     4.5920     1.3270 H     1 <1>   0.0800 
 32 H       -2.5850     5.4370     0.3680 H     1 <1>   0.0800 
 33 H       -2.9150     1.3380     1.0540 H     1 <1>   0.0800 
 34 H       -1.6970     2.3010     1.8570 H     1 <1>   0.0800 
 35 H       -1.5090     1.8580     0.1710 H     1 <1>   0.0800 
 36 H       -6.6220    -1.5390    -2.1340 H     1 <1>   0.1500 
 37 H       -4.0380     0.7330    -1.7750 H     1 <1>   0.0800 
 38 H       -4.3960    -0.9700    -1.8610 H     1 <1>   0.0800 
 39 H       -4.0930    -0.2310    -0.3120 H     1 <1>   0.0800 
 40 H       -9.7830     0.9200    -0.7370 H     1 <1>   0.1500 
 41 H       -8.3830     2.7370     1.4230 H     1 <1>   0.0800 
 42 H       -9.3620     3.0990     0.0250 H     1 <1>   0.0800 
 43 H       -7.7490     3.7390     0.1360 H     1 <1>   0.0800 
 44 H       -1.7360     4.3310    -1.6770 H     1 <1>   0.0800 
 45 H       -0.4570     3.6080    -0.7410 H     1 <1>   0.0800 
 46 H       -8.9160    -1.8950    -2.9170 H     1 <1>   0.0800 
 47 H      -10.2150    -0.8780    -2.3530 H     1 <1>   0.0800 
 48 H       -9.5660    -2.1220    -1.3090 H     1 <1>   0.0800 
 49 H        1.3020     4.9840     0.2440 H     1 <1>   0.1500 
 50 H       -1.7370     6.7330    -2.1530 H     1 <1>   0.1500 
 51 H       -0.4150     8.7880    -2.3340 H     1 <1>   0.1500 
 52 H        4.6860     6.2060     0.7110 H     1 <1>   0.0800 
 53 H        3.7040     5.2580    -0.3990 H     1 <1>   0.0800 
 54 H        3.2340     5.4130     1.3050 H     1 <1>   0.0800 
 55 H        2.7220    10.8770    -0.4850 H     1 <1>   0.0800 
 56 H        3.6170     9.3660    -0.3950 H     1 <1>   0.0800 
 57 H        2.2070     9.6240     0.6440 H     1 <1>   0.0800 
@<TRIPOS>BOND
  1   1   2  2   
  2   2   3  am  
  3   2   4  1   
  4   3   5  1   
  5   3  28  1   
  6   4   6  1   
  7   4  29  1   
  8   4  30  1   
  9   5   7  ar  
 10   5   8  ar  
 11   6   9  1   
 12   6  10  1   
 13   7  11  ar  
 14   7  12  1   
 15   8  13  ar  
 16   8  14  1   
 17   9  15  1   
 18   9  31  1   
 19   9  32  1   
 20  10  33  1   
 21  10  34  1   
 22  10  35  1   
 23  11  16  ar  
 24  11  36  1   
 25  12  37  1   
 26  12  38  1   
 27  12  39  1   
 28  13  16  ar  
 29  13  40  1   
 30  14  41  1   
 31  14  42  1   
 32  14  43  1   
 33  15  17  1   
 34  15  44  1   
 35  15  45  1   
 36  16  18  1   
 37  17  19  ar  
 38  17  20  ar  
 39  18  46  1   
 40  18  47  1   
 41  18  48  1   
 42  19  21  ar  
 43  19  49  1   
 44  20  22  ar  
 45  20  50  1   
 46  21  23  1   
 47  21  24  ar  
 48  22  24  ar  
 49  22  51  1   
 50  23  25  1   
 51  24  26  1   
 52  25  52  1   
 53  25  53  1   
 54  25  54  1   
 55  26  27  1   
 56  27  55  1   
 57  27  56  1   
 58  27  57  1   
@<TRIPOS>SUBSTRUCTURE
  1 ****   6 GROUP 4 **** **** 0

# MOE 2024.06 (io_trps.svl 2023.06)
