@<TRIPOS>MOLECULE
NONAME
38 40 1 0 0 
SMALL
USER_CHARGES


@<TRIPOS>ATOM
  1 CL       0.3730    -0.1570     2.0330 Cl    1 <1>  -0.1770 
  2 C        1.3620     0.7880     0.9480 C.ar  1 <1>   0.1770 
  3 C        0.8730     1.9830     0.4340 C.ar  1 <1>  -0.1440 
  4 C        2.6160     0.3110     0.6180 C.ar  1 <1>  -0.1500 
  5 C        1.6720     2.7240    -0.4330 C.ar  1 <1>  -0.1500 
  6 C       -0.5080     2.4780     0.8240 C.3   1 <1>   0.4870 
  7 C        3.3800     1.0670    -0.2480 C.ar  1 <1>   0.1900 
  8 C        2.9340     2.2630    -0.7790 C.ar  1 <1>  -0.1500 
  9 N       -1.4680     2.1770    -0.2710 N.4   1 <1>  -0.9590 
 10 F        4.5660     0.6360    -0.5780 F     1 <1>  -0.1900 
 11 C       -2.7730     2.9150    -0.0600 C.3   1 <1>   0.3430 
 12 C       -1.6990     0.6840    -0.4070 C.3   1 <1>   0.3430 
 13 C       -3.8300     2.5650    -1.1280 C.3   1 <1>   0.2090 
 14 C       -2.7740     0.3280    -1.4560 C.3   1 <1>   0.2090 
 15 N       -4.0240     1.0870    -1.1690 N.pl3 1 <1>  -0.8380 
 16 C       -4.9870     0.4920    -0.3880 C.ar  1 <1>   0.7200 
 17 N       -5.3400    -0.7430    -0.7220 N.ar  1 <1>  -0.6200 
 18 N       -5.4370     1.1950     0.6490 N.ar  1 <1>  -0.6200 
 19 C       -6.2630    -1.3010     0.0230 C.ar  1 <1>   0.1600 
 20 C       -6.3600     0.6110     1.3780 C.ar  1 <1>   0.1600 
 21 C       -6.8160    -0.6550     1.1010 C.ar  1 <1>  -0.1500 
 22 H        2.9890    -0.6140     1.0190 H     1 <1>   0.1500 
 23 H        1.3330     3.6620    -0.8420 H     1 <1>   0.1500 
 24 H       -0.4610     3.5420     0.9900 H     1 <1>   0.0800 
 25 H       -0.8310     2.0120     1.7410 H     1 <1>   0.0800 
 26 H        3.5700     2.8190    -1.4460 H     1 <1>   0.1500 
 27 H       -1.0520     2.5010    -1.1520 H     1 <1>   0.4500 
 28 H       -2.6030     3.9790    -0.0720 H     1 <1>   0.0800 
 29 H       -3.1850     2.6550     0.9020 H     1 <1>   0.0800 
 30 H       -2.0220     0.2840     0.5410 H     1 <1>   0.0800 
 31 H       -0.7780     0.1910    -0.6710 H     1 <1>   0.0800 
 32 H       -3.5120     2.9130    -2.0950 H     1 <1>   0.0800 
 33 H       -4.7600     3.0580    -0.8990 H     1 <1>   0.0800 
 34 H       -2.9570    -0.7330    -1.4300 H     1 <1>   0.0800 
 35 H       -2.4260     0.5700    -2.4440 H     1 <1>   0.0800 
 36 H       -6.5850    -2.2970    -0.2310 H     1 <1>   0.1500 
 37 H       -6.7650     1.1520     2.2170 H     1 <1>   0.1500 
 38 H       -7.5740    -1.1220     1.7030 H     1 <1>   0.1500 
@<TRIPOS>BOND
  1   1   2  1   
  2   2   3  ar  
  3   2   4  ar  
  4   3   5  ar  
  5   3   6  1   
  6   4   7  ar  
  7   4  22  1   
  8   5   8  ar  
  9   5  23  1   
 10   6   9  1   
 11   6  24  1   
 12   6  25  1   
 13   7   8  ar  
 14   7  10  1   
 15   8  26  1   
 16   9  11  1   
 17   9  12  1   
 18   9  27  1   
 19  11  13  1   
 20  11  28  1   
 21  11  29  1   
 22  12  14  1   
 23  12  30  1   
 24  12  31  1   
 25  13  15  1   
 26  13  32  1   
 27  13  33  1   
 28  14  15  1   
 29  14  34  1   
 30  14  35  1   
 31  15  16  1   
 32  16  17  ar  
 33  16  18  ar  
 34  17  19  ar  
 35  18  20  ar  
 36  19  21  ar  
 37  19  36  1   
 38  20  21  ar  
 39  20  37  1   
 40  21  38  1   
@<TRIPOS>SUBSTRUCTURE
  1 ****  12 GROUP 4 **** **** 0

# MOE 2024.06 (io_trps.svl 2023.06)
