@<TRIPOS>MOLECULE
NONAME
29 31 1 0 0 
SMALL
USER_CHARGES


@<TRIPOS>ATOM
  1 O        0.3400     0.2570    -0.9230 O.co2 1 <1>  -0.9000 
  2 C       -0.2440     1.2670    -1.3390 C.2   1 <1>   0.9060 
  3 O        0.2430     1.9680    -2.2370 O.co2 1 <1>  -0.9000 
  4 C       -1.6110     1.6730    -0.7420 C.3   1 <1>  -0.1060 
  5 C       -1.5630     3.1430    -0.2490 C.3   1 <1>  -0.1600 
  6 C       -2.0240     0.7810     0.4610 C.3   1 <1>  -0.1600 
  7 C       -2.7180     1.5560    -1.8220 C.3   1 <1>  -0.1600 
  8 C       -2.9310     3.5590     0.3060 C.3   1 <1>   0.2800 
  9 C       -3.3910     1.2070     1.0330 C.3   1 <1>  -0.0800 
 10 C       -4.0890     1.9890    -1.2670 C.3   1 <1>  -0.0800 
 11 O       -2.8600     4.8670     0.7260 O.3   1 <1>  -0.6800 
 12 C       -3.3080     2.6730     1.5000 C.3   1 <1>  -0.1600 
 13 C       -3.9990     3.4510    -0.7910 C.3   1 <1>  -0.1600 
 14 C       -4.4580     1.0860    -0.0730 C.3   1 <1>  -0.1600 
 15 H       -1.2860     3.7770    -1.0720 H     1 <1>   0.0800 
 16 H       -0.8100     3.2320     0.5140 H     1 <1>   0.0800 
 17 H       -2.0650    -0.2470     0.1430 H     1 <1>   0.0800 
 18 H       -1.2690     0.8440     1.2250 H     1 <1>   0.0800 
 19 H       -2.7650     0.5390    -2.1700 H     1 <1>   0.0800 
 20 H       -2.4540     2.1700    -2.6670 H     1 <1>   0.0800 
 21 H       -3.6500     0.5730     1.8630 H     1 <1>   0.0800 
 22 H       -4.8360     1.9000    -2.0370 H     1 <1>   0.0800 
 23 H       -2.4190     5.3820     0.0270 H     1 <1>   0.4000 
 24 H       -4.2560     2.9840     1.9000 H     1 <1>   0.0800 
 25 H       -2.5620     2.7650     2.2690 H     1 <1>   0.0800 
 26 H       -4.9520     3.7660    -0.4050 H     1 <1>   0.0800 
 27 H       -3.7380     4.0810    -1.6230 H     1 <1>   0.0800 
 28 H       -5.4200     1.3680     0.3150 H     1 <1>   0.0800 
 29 H       -4.5220     0.0630    -0.4010 H     1 <1>   0.0800 
@<TRIPOS>BOND
  1   1   2  ar  
  2   2   3  ar  
  3   2   4  1   
  4   4   5  1   
  5   4   6  1   
  6   4   7  1   
  7   5   8  1   
  8   5  15  1   
  9   5  16  1   
 10   6   9  1   
 11   6  17  1   
 12   6  18  1   
 13   7  10  1   
 14   7  19  1   
 15   7  20  1   
 16   8  11  1   
 17   8  12  1   
 18   8  13  1   
 19   9  12  1   
 20   9  14  1   
 21   9  21  1   
 22  10  13  1   
 23  10  14  1   
 24  10  22  1   
 25  11  23  1   
 26  12  24  1   
 27  12  25  1   
 28  13  26  1   
 29  13  27  1   
 30  14  28  1   
 31  14  29  1   
@<TRIPOS>SUBSTRUCTURE
  1 ****   4 GROUP 4 **** **** 0

# MOE 2024.06 (io_trps.svl 2023.06)
