@<TRIPOS>MOLECULE
NONAME
45 47 1 0 0 
SMALL
USER_CHARGES


@<TRIPOS>ATOM
  1 O       -3.7480    -0.8040     1.8220 O.co2 1 <1>  -0.9000 
  2 C       -3.8030     0.3930     2.1200 C.2   1 <1>   0.9060 
  3 O       -4.4790     0.7900     3.0770 O.co2 1 <1>  -0.9000 
  4 C       -3.0620     1.4430     1.3010 C.3   1 <1>  -0.1860 
  5 C       -4.0140     2.3160     0.4440 C.3   1 <1>  -0.0190 
  6 C       -1.8930     0.8910     0.4500 C.3   1 <1>  -0.1600 
  7 C       -4.7480     1.5330    -0.6750 C.2   1 <1>   0.5690 
  8 C       -3.2350     3.5550    -0.0880 C.3   1 <1>  -0.1600 
  9 C       -1.3250     1.9230    -0.5450 C.3   1 <1>  -0.1600 
 10 O       -4.2770     1.5600    -1.7930 O.2   1 <1>  -0.5700 
 11 N       -5.9340     0.8650    -0.4580 N.am  1 <1>  -0.6600 
 12 C       -1.7060     3.3650    -0.1830 C.3   1 <1>  -0.1600 
 13 C       -6.5320    -0.0010    -1.5220 C.3   1 <1>   0.1400 
 14 C       -6.6110     0.6670     0.8670 C.3   1 <1>   0.1400 
 15 C       -8.0500     0.2060    -1.6350 C.3   1 <1>   0.2090 
 16 C       -8.1400     0.8110     0.7720 C.3   1 <1>   0.2090 
 17 N       -8.7290    -0.0170    -0.3240 N.pl3 1 <1>  -0.8380 
 18 C      -10.0930    -0.2320    -0.3030 C.ar  1 <1>   0.4100 
 19 N      -10.8170     0.3070    -1.2800 N.ar  1 <1>  -0.6200 
 20 C      -10.6500    -0.9870     0.7270 C.ar  1 <1>  -0.1500 
 21 C      -12.1200     0.0920    -1.2200 C.ar  1 <1>   0.1600 
 22 C      -12.0070    -1.2020     0.7780 C.ar  1 <1>  -0.1500 
 23 C      -12.7580    -0.6390    -0.2340 C.ar  1 <1>  -0.1500 
 24 H       -2.6320     2.0870     2.0440 H     1 <1>   0.0800 
 25 H       -4.7660     2.7120     1.0970 H     1 <1>   0.0800 
 26 H       -2.2310     0.0300    -0.1030 H     1 <1>   0.0800 
 27 H       -1.1180     0.5560     1.1160 H     1 <1>   0.0800 
 28 H       -3.4220     4.3860     0.5680 H     1 <1>   0.0800 
 29 H       -3.6190     3.8360    -1.0540 H     1 <1>   0.0800 
 30 H       -1.7080     1.7060    -1.5270 H     1 <1>   0.0800 
 31 H       -0.2550     1.8250    -0.5910 H     1 <1>   0.0800 
 32 H       -1.2610     3.6060     0.7670 H     1 <1>   0.0800 
 33 H       -1.3030     4.0440    -0.9130 H     1 <1>   0.0800 
 34 H       -6.3340    -1.0300    -1.2800 H     1 <1>   0.0800 
 35 H       -6.0830     0.2050    -2.4770 H     1 <1>   0.0800 
 36 H       -6.2700     1.3790     1.5900 H     1 <1>   0.0800 
 37 H       -6.3690    -0.3150     1.2400 H     1 <1>   0.0800 
 38 H       -8.4480    -0.4790    -2.3630 H     1 <1>   0.0800 
 39 H       -8.2480     1.2080    -1.9750 H     1 <1>   0.0800 
 40 H       -8.3790     1.8450     0.5940 H     1 <1>   0.0800 
 41 H       -8.5710     0.5310     1.7170 H     1 <1>   0.0800 
 42 H       -9.9970    -1.4000     1.4710 H     1 <1>   0.1500 
 43 H      -12.7150     0.5250    -2.0050 H     1 <1>   0.1500 
 44 H      -12.4600    -1.7810     1.5630 H     1 <1>   0.1500 
 45 H      -13.8250    -0.7660    -0.2580 H     1 <1>   0.1500 
@<TRIPOS>BOND
  1   1   2  ar  
  2   2   3  ar  
  3   2   4  1   
  4   4   5  1   
  5   4   6  1   
  6   4  24  1   
  7   5   7  1   
  8   5   8  1   
  9   5  25  1   
 10   6   9  1   
 11   6  26  1   
 12   6  27  1   
 13   7  10  2   
 14   7  11  am  
 15   8  12  1   
 16   8  28  1   
 17   8  29  1   
 18   9  12  1   
 19   9  30  1   
 20   9  31  1   
 21  11  13  1   
 22  11  14  1   
 23  12  32  1   
 24  12  33  1   
 25  13  15  1   
 26  13  34  1   
 27  13  35  1   
 28  14  16  1   
 29  14  36  1   
 30  14  37  1   
 31  15  17  1   
 32  15  38  1   
 33  15  39  1   
 34  16  17  1   
 35  16  40  1   
 36  16  41  1   
 37  17  18  1   
 38  18  19  ar  
 39  18  20  ar  
 40  19  21  ar  
 41  20  22  ar  
 42  20  42  1   
 43  21  23  ar  
 44  21  43  1   
 45  22  23  ar  
 46  22  44  1   
 47  23  45  1   
@<TRIPOS>SUBSTRUCTURE
  1 ****  11 GROUP 4 **** **** 0

# MOE 2024.06 (io_trps.svl 2023.06)
