@<TRIPOS>MOLECULE
NONAME
45 46 1 0 0 
SMALL
USER_CHARGES


@<TRIPOS>ATOM
  1 CL       0.6210     1.5260    -2.5530 Cl    1 <1>  -0.1770 
  2 C        1.2210     2.5300    -1.2510 C.ar  1 <1>   0.1770 
  3 C        0.4000     3.4730    -0.6450 C.ar  1 <1>   0.0830 
  4 C        2.5330     2.3470    -0.8560 C.ar  1 <1>  -0.1500 
  5 O       -0.8860     3.5950    -1.0580 O.3   1 <1>  -0.3630 
  6 C        0.9350     4.2690     0.3780 C.ar  1 <1>   0.0830 
  7 C        3.0580     3.1230     0.1670 C.ar  1 <1>  -0.1440 
  8 C       -1.8120     2.7160    -0.4570 C.3   1 <1>   0.0400 
  9 O        0.2740     5.2520     1.0470 O.3   1 <1>  -0.3630 
 10 C        2.2490     4.0720     0.7770 C.ar  1 <1>  -0.1500 
 11 C        4.4950     2.9520     0.6070 C.3   1 <1>   0.4860 
 12 C       -0.7380     6.0130     0.4210 C.3   1 <1>   0.0400 
 13 N        5.2910     3.9170    -0.1780 N.4   1 <1>  -0.9060 
 14 C        6.7470     3.8670     0.1380 C.3   1 <1>   0.3430 
 15 C        7.5360     4.8980    -0.6800 C.3   1 <1>   0.1100 
 16 N        8.9340     4.9130    -0.2390 N.3   1 <1>  -0.8100 
 17 C        9.5950     6.1900    -0.6020 C.3   1 <1>   0.1100 
 18 C        9.7270     3.7880    -0.7940 C.3   1 <1>   0.1100 
 19 C       11.0760     6.1990    -0.1820 C.3   1 <1>   0.1200 
 20 C       11.2030     3.8750    -0.3630 C.3   1 <1>   0.1200 
 21 O       11.7430     5.1060    -0.7410 O.3   1 <1>  -0.5600 
 22 H        3.1170     1.5950    -1.3580 H     1 <1>   0.1500 
 23 H       -2.7880     2.9370    -0.8490 H     1 <1>   0.0800 
 24 H       -1.7980     2.8690     0.6080 H     1 <1>   0.0800 
 25 H       -1.5430     1.7030    -0.6950 H     1 <1>   0.0800 
 26 H        2.6190     4.6860     1.5810 H     1 <1>   0.1500 
 27 H        4.8230     1.9430     0.4150 H     1 <1>   0.0800 
 28 H        4.5850     3.1550     1.6620 H     1 <1>   0.0800 
 29 H       -0.8640     6.9250     0.9750 H     1 <1>   0.0800 
 30 H       -1.6560     5.4540     0.4360 H     1 <1>   0.0800 
 31 H       -0.4440     6.2340    -0.5900 H     1 <1>   0.0800 
 32 H        4.9160     4.8560     0.0070 H     1 <1>   0.4500 
 33 H        5.1250     3.7340    -1.1750 H     1 <1>   0.4500 
 34 H        7.1350     2.8840    -0.0730 H     1 <1>   0.0800 
 35 H        6.9000     4.0780     1.1840 H     1 <1>   0.0800 
 36 H        7.1090     5.8710    -0.5050 H     1 <1>   0.0800 
 37 H        7.4860     4.6800    -1.7330 H     1 <1>   0.0800 
 38 H        9.0950     7.0080    -0.1130 H     1 <1>   0.0800 
 39 H        9.5390     6.3480    -1.6660 H     1 <1>   0.0800 
 40 H        9.6890     3.8010    -1.8710 H     1 <1>   0.0800 
 41 H        9.3280     2.8500    -0.4530 H     1 <1>   0.0800 
 42 H       11.1700     6.1510     0.8890 H     1 <1>   0.0800 
 43 H       11.5600     7.0930    -0.5340 H     1 <1>   0.0800 
 44 H       11.7810     3.1040    -0.8420 H     1 <1>   0.0800 
 45 H       11.2980     3.7690     0.7040 H     1 <1>   0.0800 
@<TRIPOS>BOND
  1   1   2  1   
  2   2   3  ar  
  3   2   4  ar  
  4   3   5  1   
  5   3   6  ar  
  6   4   7  ar  
  7   4  22  1   
  8   5   8  1   
  9   6   9  1   
 10   6  10  ar  
 11   7  10  ar  
 12   7  11  1   
 13   8  23  1   
 14   8  24  1   
 15   8  25  1   
 16   9  12  1   
 17  10  26  1   
 18  11  13  1   
 19  11  27  1   
 20  11  28  1   
 21  12  29  1   
 22  12  30  1   
 23  12  31  1   
 24  13  14  1   
 25  13  32  1   
 26  13  33  1   
 27  14  15  1   
 28  14  34  1   
 29  14  35  1   
 30  15  16  1   
 31  15  36  1   
 32  15  37  1   
 33  16  17  1   
 34  16  18  1   
 35  17  19  1   
 36  17  38  1   
 37  17  39  1   
 38  18  20  1   
 39  18  40  1   
 40  18  41  1   
 41  19  21  1   
 42  19  42  1   
 43  19  43  1   
 44  20  21  1   
 45  20  44  1   
 46  20  45  1   
@<TRIPOS>SUBSTRUCTURE
  1 ****  13 GROUP 4 **** **** 0

# MOE 2024.06 (io_trps.svl 2023.06)
