@<TRIPOS>MOLECULE
NONAME
46 48 1 0 0 
SMALL
USER_CHARGES


@<TRIPOS>ATOM
  1 O        0.6570    -1.2830     2.2690 O.2   1 <1>  -0.5700 
  2 C        1.0300    -1.6830     1.1940 C.2   1 <1>   0.5690 
  3 N        0.1700    -2.0910     0.2290 N.am  1 <1>  -0.7300 
  4 C        2.5120    -1.7140     0.8980 C.3   1 <1>  -0.0990 
  5 C       -1.2960    -2.1050     0.3500 C.3   1 <1>   0.2200 
  6 C        3.0150    -0.3200     0.4860 C.3   1 <1>  -0.0160 
  7 C       -1.7960    -3.5390     0.1510 C.3   1 <1>  -0.1600 
  8 C       -1.8890    -1.1570    -0.6970 C.3   1 <1>  -0.1600 
  9 C        4.5000    -0.2530     0.1200 C.ar  1 <1>   0.1670 
 10 C       -3.3310    -3.5980     0.1610 C.3   1 <1>  -0.1600 
 11 C       -3.4240    -1.2110    -0.6890 C.3   1 <1>  -0.1600 
 12 N        5.1770    -1.3600     0.0540 N.ar  1 <1>  -0.6200 
 13 C        5.0700     1.0290    -0.1410 C.ar  1 <1>   0.3930 
 14 C       -3.9300    -2.6470    -0.8850 C.3   1 <1>  -0.1600 
 15 C        6.4860    -1.2030    -0.2750 C.ar  1 <1>   0.3100 
 16 O        4.2570     2.1050    -0.0530 O.3   1 <1>  -0.3630 
 17 N        6.3200     1.2140    -0.4620 N.ar  1 <1>  -0.6200 
 18 C        7.0480     0.0720    -0.5290 C.ar  1 <1>   0.3100 
 19 C        7.3090    -2.3350    -0.3660 C.ar  1 <1>  -0.1500 
 20 C        4.7370     3.4160    -0.2820 C.3   1 <1>   0.0400 
 21 C        8.4090     0.1520    -0.8640 C.ar  1 <1>  -0.1500 
 22 C        8.6370    -2.2280    -0.6960 C.ar  1 <1>  -0.1500 
 23 C        9.1920    -0.9710    -0.9470 C.ar  1 <1>  -0.1500 
 24 H        0.5330    -2.4210    -0.6650 H     1 <1>   0.3700 
 25 H        2.7060    -2.4240     0.1160 H     1 <1>   0.0800 
 26 H        3.0330    -2.0380     1.7810 H     1 <1>   0.0800 
 27 H       -1.5820    -1.7660     1.3330 H     1 <1>   0.0800 
 28 H        2.8310     0.3590     1.3010 H     1 <1>   0.0800 
 29 H        2.4440     0.0230    -0.3590 H     1 <1>   0.0800 
 30 H       -1.4130    -4.1610     0.9410 H     1 <1>   0.0800 
 31 H       -1.4390    -3.9200    -0.7900 H     1 <1>   0.0800 
 32 H       -1.5350    -1.4320    -1.6750 H     1 <1>   0.0800 
 33 H       -1.5680    -0.1520    -0.4860 H     1 <1>   0.0800 
 34 H       -3.6910    -3.3230     1.1380 H     1 <1>   0.0800 
 35 H       -3.6560    -4.6050    -0.0380 H     1 <1>   0.0800 
 36 H       -3.8120    -0.5810    -1.4700 H     1 <1>   0.0800 
 37 H       -3.7870    -0.8320     0.2510 H     1 <1>   0.0800 
 38 H       -5.0040    -2.6630    -0.8130 H     1 <1>   0.0800 
 39 H       -3.6620    -2.9880    -1.8710 H     1 <1>   0.0800 
 40 H        6.8640    -3.2930    -0.1690 H     1 <1>   0.1500 
 41 H        3.9210     4.1040    -0.1530 H     1 <1>   0.0800 
 42 H        5.1180     3.4760    -1.2870 H     1 <1>   0.0800 
 43 H        5.5170     3.6300     0.4280 H     1 <1>   0.0800 
 44 H        8.8200     1.1260    -1.0540 H     1 <1>   0.1500 
 45 H        9.2610    -3.1040    -0.7640 H     1 <1>   0.1500 
 46 H       10.2350    -0.8980    -1.2050 H     1 <1>   0.1500 
@<TRIPOS>BOND
  1   1   2  2   
  2   2   3  am  
  3   2   4  1   
  4   3   5  1   
  5   3  24  1   
  6   4   6  1   
  7   4  25  1   
  8   4  26  1   
  9   5   7  1   
 10   5   8  1   
 11   5  27  1   
 12   6   9  1   
 13   6  28  1   
 14   6  29  1   
 15   7  10  1   
 16   7  30  1   
 17   7  31  1   
 18   8  11  1   
 19   8  32  1   
 20   8  33  1   
 21   9  12  ar  
 22   9  13  ar  
 23  10  14  1   
 24  10  34  1   
 25  10  35  1   
 26  11  14  1   
 27  11  36  1   
 28  11  37  1   
 29  12  15  ar  
 30  13  16  1   
 31  13  17  ar  
 32  14  38  1   
 33  14  39  1   
 34  15  18  ar  
 35  15  19  ar  
 36  16  20  1   
 37  17  18  ar  
 38  18  21  ar  
 39  19  22  ar  
 40  19  40  1   
 41  20  41  1   
 42  20  42  1   
 43  20  43  1   
 44  21  23  ar  
 45  21  44  1   
 46  22  23  ar  
 47  22  45  1   
 48  23  46  1   
@<TRIPOS>SUBSTRUCTURE
  1 ****   6 GROUP 4 **** **** 0

# MOE 2024.06 (io_trps.svl 2023.06)
