@<TRIPOS>MOLECULE
NONAME
51 52 1 0 0 
SMALL
USER_CHARGES


@<TRIPOS>ATOM
  1 S        0.7010    -1.2450    -0.9330 S.o2  1 <1>   1.4470 
  2 O       -0.0890    -2.3360    -1.4540 O.2   1 <1>  -0.6500 
  3 O        1.9320    -1.5620    -0.2440 O.2   1 <1>  -0.6500 
  4 N        1.1490    -0.4870    -2.3600 N.am  1 <1>  -0.9140 
  5 C       -0.2770    -0.0030     0.0000 C.ar  1 <1>  -0.0090 
  6 C        2.2830    -1.1500    -3.0440 C.3   1 <1>   0.2570 
  7 C        0.2110     1.2970     0.2080 C.ar  1 <1>  -0.1430 
  8 C       -1.5300    -0.3140     0.5530 C.ar  1 <1>  -0.1430 
  9 C        3.6640    -0.5150    -2.8060 C.2   1 <1>   0.5690 
 10 C       -0.5430     2.2400     0.8890 C.ar  1 <1>  -0.1500 
 11 C        1.5810     1.7580    -0.2800 C.3   1 <1>  -0.0960 
 12 C       -2.2660     0.6450     1.2320 C.ar  1 <1>  -0.1500 
 13 C       -2.1580    -1.7010     0.4600 C.3   1 <1>  -0.0960 
 14 O        4.2480    -0.0760    -3.7690 O.2   1 <1>  -0.5700 
 15 N        4.1760    -0.4790    -1.5380 N.am  1 <1>  -0.5470 
 16 C       -1.7830     1.9250     1.4010 C.ar  1 <1>  -0.1430 
 17 C        5.3570     0.0690    -0.9920 C.ar  1 <1>   0.1170 
 18 C       -2.6010     2.9680     2.1420 C.3   1 <1>  -0.0970 
 19 C        5.4430     0.2200     0.3970 C.ar  1 <1>   0.0830 
 20 C        6.4420     0.4560    -1.7710 C.ar  1 <1>  -0.1500 
 21 O        4.3660    -0.1750     1.1360 O.3   1 <1>  -0.3620 
 22 C        6.5900     0.7540     0.9740 C.ar  1 <1>  -0.1500 
 23 C        7.5820     0.9880    -1.1950 C.ar  1 <1>  -0.1500 
 24 C        4.3620    -0.0960     2.5440 C.3   1 <1>   0.0400 
 25 C        7.6590     1.1400     0.1850 C.ar  1 <1>   0.0830 
 26 O        8.7390     1.6540     0.8320 O.3   1 <1>  -0.3620 
 27 C        9.8770     2.0810     0.1150 C.3   1 <1>   0.0400 
 28 H        0.3290    -0.6330    -2.9460 H     1 <1>   0.4200 
 29 H        2.1030    -1.1030    -4.1040 H     1 <1>   0.0800 
 30 H        2.3290    -2.1930    -2.7800 H     1 <1>   0.0800 
 31 H       -0.1610     3.2360     1.0270 H     1 <1>   0.1500 
 32 H        1.5670     1.9280    -1.3410 H     1 <1>   0.0800 
 33 H        2.3350     1.0320    -0.0470 H     1 <1>   0.0800 
 34 H        1.8740     2.6770     0.1950 H     1 <1>   0.0800 
 35 H       -3.2310     0.3980     1.6380 H     1 <1>   0.1500 
 36 H       -2.4720    -1.9000    -0.5490 H     1 <1>   0.0800 
 37 H       -3.0210    -1.7820     1.0960 H     1 <1>   0.0800 
 38 H       -1.4580    -2.4560     0.7700 H     1 <1>   0.0800 
 39 H        3.5490    -0.8500    -0.8060 H     1 <1>   0.3700 
 40 H       -3.2390     3.4880     1.4500 H     1 <1>   0.0800 
 41 H       -1.9570     3.6810     2.6230 H     1 <1>   0.0800 
 42 H       -3.2120     2.5020     2.8940 H     1 <1>   0.0800 
 43 H        6.4080     0.3430    -2.8380 H     1 <1>   0.1500 
 44 H        6.6830     0.8840     2.0330 H     1 <1>   0.1500 
 45 H        8.3930     1.2750    -1.8370 H     1 <1>   0.1500 
 46 H        3.4180    -0.4740     2.8950 H     1 <1>   0.0800 
 47 H        4.4750     0.9330     2.8360 H     1 <1>   0.0800 
 48 H        5.1640    -0.6990     2.9300 H     1 <1>   0.0800 
 49 H       10.5970     2.4500     0.8220 H     1 <1>   0.0800 
 50 H        9.5890     2.8680    -0.5590 H     1 <1>   0.0800 
 51 H       10.2860     1.2430    -0.4200 H     1 <1>   0.0800 
@<TRIPOS>BOND
  1   1   2  2   
  2   1   3  2   
  3   1   4  am  
  4   1   5  1   
  5   4   6  1   
  6   4  28  1   
  7   5   7  ar  
  8   5   8  ar  
  9   6   9  1   
 10   6  29  1   
 11   6  30  1   
 12   7  10  ar  
 13   7  11  1   
 14   8  12  ar  
 15   8  13  1   
 16   9  14  2   
 17   9  15  am  
 18  10  16  ar  
 19  10  31  1   
 20  11  32  1   
 21  11  33  1   
 22  11  34  1   
 23  12  16  ar  
 24  12  35  1   
 25  13  36  1   
 26  13  37  1   
 27  13  38  1   
 28  15  17  1   
 29  15  39  1   
 30  16  18  1   
 31  17  19  ar  
 32  17  20  ar  
 33  18  40  1   
 34  18  41  1   
 35  18  42  1   
 36  19  21  1   
 37  19  22  ar  
 38  20  23  ar  
 39  20  43  1   
 40  21  24  1   
 41  22  25  ar  
 42  22  44  1   
 43  23  25  ar  
 44  23  45  1   
 45  24  46  1   
 46  24  47  1   
 47  24  48  1   
 48  25  26  1   
 49  26  27  1   
 50  27  49  1   
 51  27  50  1   
 52  27  51  1   
@<TRIPOS>SUBSTRUCTURE
  1 ****  11 GROUP 4 **** **** 0

# MOE 2024.06 (io_trps.svl 2023.06)
