@<TRIPOS>MOLECULE
NONAME
42 43 1 0 0 
SMALL
USER_CHARGES


@<TRIPOS>ATOM
  1 O        3.8330    -5.9380    -1.8230 O.3   1 <1>  -0.3630 
  2 C        4.2730    -6.9670    -1.0520 C.ar  1 <1>   0.0830 
  3 C        3.2910    -6.2460    -3.0940 C.3   1 <1>   0.1200 
  4 C        3.6870    -7.1990     0.1920 C.ar  1 <1>   0.0820 
  5 C        5.3040    -7.7780    -1.5010 C.ar  1 <1>  -0.1500 
  6 C        1.7610    -6.1250    -3.0280 C.3   1 <1>   0.3430 
  7 O        2.6860    -6.3650     0.5980 O.3   1 <1>  -0.3630 
  8 C        4.1270    -8.2720     0.9600 C.ar  1 <1>  -0.1500 
  9 C        5.7340    -8.8400    -0.7250 C.ar  1 <1>  -0.1500 
 10 N        1.2270    -6.7770    -1.8020 N.4   1 <1>  -0.9060 
 11 C        2.3560    -6.2740     1.9700 C.3   1 <1>   0.0400 
 12 C        5.1450    -9.0940     0.5020 C.ar  1 <1>  -0.1430 
 13 C       -0.2170    -6.6030    -1.5660 C.3   1 <1>   0.4860 
 14 C        5.6240   -10.2620     1.3480 C.3   1 <1>  -0.0970 
 15 C       -0.5220    -7.1560    -0.1910 C.ar  1 <1>  -0.1430 
 16 C       -0.4640    -8.5220     0.0550 C.ar  1 <1>  -0.1500 
 17 C       -0.8610    -6.2920     0.8400 C.ar  1 <1>  -0.1500 
 18 C       -0.7330    -9.0130     1.3200 C.ar  1 <1>  -0.1500 
 19 C       -1.1340    -6.7860     2.1040 C.ar  1 <1>  -0.1500 
 20 C       -1.0670    -8.1470     2.3450 C.ar  1 <1>  -0.1500 
 21 H        3.5820    -7.2390    -3.3880 H     1 <1>   0.0800 
 22 H        3.6920    -5.5430    -3.8030 H     1 <1>   0.0800 
 23 H        5.7800    -7.5800    -2.4440 H     1 <1>   0.1500 
 24 H        1.3270    -6.5670    -3.9100 H     1 <1>   0.0800 
 25 H        1.5050    -5.0780    -3.0200 H     1 <1>   0.0800 
 26 H        3.6880    -8.4850     1.9170 H     1 <1>   0.1500 
 27 H        6.5360    -9.4660    -1.0790 H     1 <1>   0.1500 
 28 H        1.7400    -6.3860    -0.9850 H     1 <1>   0.4500 
 29 H        1.4670    -7.7710    -1.7620 H     1 <1>   0.4500 
 30 H        1.6950    -5.4370     2.1050 H     1 <1>   0.0800 
 31 H        3.2560    -6.1190     2.5400 H     1 <1>   0.0800 
 32 H        1.8600    -7.1790     2.2740 H     1 <1>   0.0800 
 33 H       -0.7890    -7.1310    -2.3100 H     1 <1>   0.0800 
 34 H       -0.4770    -5.5580    -1.6010 H     1 <1>   0.0800 
 35 H        4.8260   -10.6400     1.9610 H     1 <1>   0.0800 
 36 H        6.4290    -9.9430     1.9850 H     1 <1>   0.0800 
 37 H        5.9760   -11.0620     0.7210 H     1 <1>   0.0800 
 38 H       -0.2170    -9.2200    -0.7260 H     1 <1>   0.1500 
 39 H       -0.9190    -5.2290     0.6770 H     1 <1>   0.1500 
 40 H       -0.6890   -10.0730     1.5110 H     1 <1>   0.1500 
 41 H       -1.4010    -6.1150     2.9030 H     1 <1>   0.1500 
 42 H       -1.2810    -8.5310     3.3280 H     1 <1>   0.1500 
@<TRIPOS>BOND
  1   1   2  1   
  2   1   3  1   
  3   2   4  ar  
  4   2   5  ar  
  5   3   6  1   
  6   3  21  1   
  7   3  22  1   
  8   4   7  1   
  9   4   8  ar  
 10   5   9  ar  
 11   5  23  1   
 12   6  10  1   
 13   6  24  1   
 14   6  25  1   
 15   7  11  1   
 16   8  12  ar  
 17   8  26  1   
 18   9  12  ar  
 19   9  27  1   
 20  10  13  1   
 21  10  28  1   
 22  10  29  1   
 23  11  30  1   
 24  11  31  1   
 25  11  32  1   
 26  12  14  1   
 27  13  15  1   
 28  13  33  1   
 29  13  34  1   
 30  14  35  1   
 31  14  36  1   
 32  14  37  1   
 33  15  16  ar  
 34  15  17  ar  
 35  16  18  ar  
 36  16  38  1   
 37  17  19  ar  
 38  17  39  1   
 39  18  20  ar  
 40  18  40  1   
 41  19  20  ar  
 42  19  41  1   
 43  20  42  1   
@<TRIPOS>SUBSTRUCTURE
  1 ****   7 GROUP 4 **** **** 0

# MOE 2024.06 (io_trps.svl 2023.06)
