@<TRIPOS>MOLECULE
NONAME
30 32 1 0 0 
SMALL
USER_CHARGES


@<TRIPOS>ATOM
  1 CL      -0.8870    -0.2580    -1.4500 Cl    1 <1>  -0.1770 
  2 C       -0.5470     1.2670    -0.6640 C.ar  1 <1>   0.1770 
  3 C       -1.5440     1.9580     0.0120 C.ar  1 <1>  -0.1440 
  4 C        0.7470     1.7500    -0.7340 C.ar  1 <1>  -0.1500 
  5 C       -1.2110     3.1570     0.6280 C.ar  1 <1>  -0.1500 
  6 C       -2.9710     1.4290     0.1010 C.3   1 <1>   0.2140 
  7 C        1.0640     2.9470    -0.1170 C.ar  1 <1>  -0.1500 
  8 C        0.0830     3.6480     0.5640 C.ar  1 <1>  -0.1500 
  9 S       -4.1330     2.7110    -0.5380 S.3   1 <1>  -0.2850 
 10 C       -5.7550     1.9590    -0.3110 C.2   1 <1>   0.2820 
 11 N       -6.8580     2.6740    -0.5980 N.2   1 <1>  -0.5650 
 12 C       -6.0310     0.7110     0.1300 C.2   1 <1>  -0.3020 
 13 C       -7.7950     1.8290    -0.3200 C.2   1 <1>   0.0060 
 14 N       -7.3740     0.6400     0.1190 N.pl3 1 <1>   0.0480 
 15 C       -9.2940     1.9060    -0.3900 C.3   1 <1>   0.0200 
 16 C       -8.4590    -0.2930     0.4160 C.3   1 <1>   0.0960 
 17 C       -9.7190     0.4530    -0.0790 C.3   1 <1>  -0.1600 
 18 H        1.4960     1.1920    -1.2670 H     1 <1>   0.1500 
 19 H       -1.9620     3.7180     1.1590 H     1 <1>   0.1500 
 20 H       -3.2460     1.2360     1.1220 H     1 <1>   0.0800 
 21 H       -3.1310     0.5500    -0.4940 H     1 <1>   0.0800 
 22 H        2.0680     3.3330    -0.1660 H     1 <1>   0.1500 
 23 H        0.3250     4.5810     1.0440 H     1 <1>   0.1500 
 24 H       -5.3940    -0.0950     0.4340 H     1 <1>   0.1500 
 25 H       -9.6160     2.2220    -1.3670 H     1 <1>   0.0800 
 26 H       -9.6540     2.5910     0.3570 H     1 <1>   0.0800 
 27 H       -8.4950    -0.4630     1.4770 H     1 <1>   0.0800 
 28 H       -8.3060    -1.2180    -0.1110 H     1 <1>   0.0800 
 29 H      -10.0760    -0.0180    -0.9780 H     1 <1>   0.0800 
 30 H      -10.5030     0.4220     0.6570 H     1 <1>   0.0800 
@<TRIPOS>BOND
  1   1   2  1   
  2   2   3  ar  
  3   2   4  ar  
  4   3   5  ar  
  5   3   6  1   
  6   4   7  ar  
  7   4  18  1   
  8   5   8  ar  
  9   5  19  1   
 10   6   9  1   
 11   6  20  1   
 12   6  21  1   
 13   7   8  ar  
 14   7  22  1   
 15   8  23  1   
 16   9  10  1   
 17  10  11  1   
 18  10  12  2   
 19  11  13  2   
 20  12  14  1   
 21  12  24  1   
 22  13  14  1   
 23  13  15  1   
 24  14  16  1   
 25  15  17  1   
 26  15  25  1   
 27  15  26  1   
 28  16  17  1   
 29  16  27  1   
 30  16  28  1   
 31  17  29  1   
 32  17  30  1   
@<TRIPOS>SUBSTRUCTURE
  1 ****   9 GROUP 4 **** **** 0

# MOE 2024.06 (io_trps.svl 2023.06)
