@<TRIPOS>MOLECULE
NONAME
41 42 1 0 0 
SMALL
USER_CHARGES


@<TRIPOS>ATOM
  1 CL      -0.2790     0.5800     0.6770 Cl    1 <1>  -0.1770 
  2 C        1.3090     1.2280     0.3210 C.ar  1 <1>   0.1770 
  3 C        1.4670     2.5860     0.0710 C.ar  1 <1>   0.0830 
  4 C        2.3840     0.3620     0.2980 C.ar  1 <1>  -0.1500 
  5 O        0.3590     3.3750     0.1140 O.3   1 <1>  -0.3630 
  6 C        2.7430     3.0700    -0.2100 C.ar  1 <1>  -0.1500 
  7 C        3.6470     0.8550     0.0190 C.ar  1 <1>  -0.1500 
  8 C        0.4240     4.7650    -0.0780 C.3   1 <1>   0.1200 
  9 C        3.8290     2.2060    -0.2370 C.ar  1 <1>  -0.1440 
 10 C       -1.0050     5.2970     0.0620 C.3   1 <1>   0.3430 
 11 C        5.2210     2.7320    -0.5410 C.3   1 <1>  -0.0960 
 12 N       -1.1010     6.7770    -0.1560 N.4   1 <1>  -0.9590 
 13 C       -0.4250     7.5760     0.9090 C.3   1 <1>   0.3430 
 14 C       -2.5330     7.1940    -0.3110 C.3   1 <1>   0.3430 
 15 C       -0.2570     9.0290     0.4230 C.3   1 <1>  -0.0800 
 16 C       -2.7140     8.7110    -0.1360 C.3   1 <1>  -0.1600 
 17 C       -1.4370     9.5030    -0.4540 C.3   1 <1>  -0.1600 
 18 C        1.0700     9.2110    -0.3300 C.3   1 <1>  -0.2400 
 19 H        2.2330    -0.6840     0.4960 H     1 <1>   0.1500 
 20 H        2.9140     4.1090    -0.4090 H     1 <1>   0.1500 
 21 H        4.4870     0.1820     0.0010 H     1 <1>   0.1500 
 22 H        0.8100     4.9480    -1.0650 H     1 <1>   0.0800 
 23 H        1.0730     5.1730     0.6760 H     1 <1>   0.0800 
 24 H       -1.3750     5.0520     1.0440 H     1 <1>   0.0800 
 25 H       -1.6190     4.7910    -0.6650 H     1 <1>   0.0800 
 26 H        5.1710     3.6290    -1.1310 H     1 <1>   0.0800 
 27 H        5.7860     2.0000    -1.0910 H     1 <1>   0.0800 
 28 H        5.7380     2.9480     0.3770 H     1 <1>   0.0800 
 29 H       -0.6310     7.0210    -1.0380 H     1 <1>   0.4500 
 30 H        0.5420     7.1660     1.1490 H     1 <1>   0.0800 
 31 H       -1.0280     7.5630     1.8030 H     1 <1>   0.0800 
 32 H       -3.1490     6.6850     0.4140 H     1 <1>   0.0800 
 33 H       -2.8770     6.9080    -1.2930 H     1 <1>   0.0800 
 34 H       -0.2180     9.6490     1.3030 H     1 <1>   0.0800 
 35 H       -3.0110     8.9110     0.8800 H     1 <1>   0.0800 
 36 H       -3.5210     9.0440    -0.7660 H     1 <1>   0.0800 
 37 H       -1.2060     9.3710    -1.4990 H     1 <1>   0.0800 
 38 H       -1.6060    10.5560    -0.2970 H     1 <1>   0.0800 
 39 H        1.1070     8.6030    -1.2170 H     1 <1>   0.0800 
 40 H        1.9010     8.9500     0.3010 H     1 <1>   0.0800 
 41 H        1.1890    10.2410    -0.6210 H     1 <1>   0.0800 
@<TRIPOS>BOND
  1   1   2  1   
  2   2   3  ar  
  3   2   4  ar  
  4   3   5  1   
  5   3   6  ar  
  6   4   7  ar  
  7   4  19  1   
  8   5   8  1   
  9   6   9  ar  
 10   6  20  1   
 11   7   9  ar  
 12   7  21  1   
 13   8  10  1   
 14   8  22  1   
 15   8  23  1   
 16   9  11  1   
 17  10  12  1   
 18  10  24  1   
 19  10  25  1   
 20  11  26  1   
 21  11  27  1   
 22  11  28  1   
 23  12  13  1   
 24  12  14  1   
 25  12  29  1   
 26  13  15  1   
 27  13  30  1   
 28  13  31  1   
 29  14  16  1   
 30  14  32  1   
 31  14  33  1   
 32  15  17  1   
 33  15  18  1   
 34  15  34  1   
 35  16  17  1   
 36  16  35  1   
 37  16  36  1   
 38  17  37  1   
 39  17  38  1   
 40  18  39  1   
 41  18  40  1   
 42  18  41  1   
@<TRIPOS>SUBSTRUCTURE
  1 ****   8 GROUP 4 **** **** 0

# MOE 2024.06 (io_trps.svl 2023.06)
