@<TRIPOS>MOLECULE
NONAME
37 40 1 0 0 
SMALL
USER_CHARGES


@<TRIPOS>ATOM
  1 S        0.5140    -1.0830    -2.1380 S.3   1 <1>  -0.0800 
  2 C       -0.1730    -1.9230    -0.7670 C.2   1 <1>  -0.1400 
  3 C        2.1270    -1.3220    -1.5050 C.2   1 <1>  -0.1100 
  4 C        0.7840    -2.3490     0.0710 C.2   1 <1>  -0.1810 
  5 C       -1.6700    -2.0910    -0.6350 C.3   1 <1>   0.0200 
  6 C        2.1270    -2.0140    -0.3370 C.2   1 <1>  -0.0860 
  7 C        0.4420    -3.1090     1.3450 C.3   1 <1>   0.0210 
  8 C       -2.0010    -2.5520     0.7970 C.3   1 <1>  -0.1600 
  9 C        3.3010    -2.3890     0.4270 C.2   1 <1>   0.7160 
 10 C       -1.0130    -3.6230     1.3060 C.3   1 <1>  -0.1600 
 11 O        3.3780    -2.0820     1.6010 O.2   1 <1>  -0.5700 
 12 N        4.3140    -3.1160    -0.1760 N.am  1 <1>  -0.4770 
 13 C        5.5740    -3.4600     0.3280 C.ar  1 <1>   0.1170 
 14 C        4.0890    -3.8640    -1.4440 C.3   1 <1>   0.1400 
 15 C        6.1850    -4.4190    -0.4510 C.ar  1 <1>  -0.1430 
 16 C        6.2380    -2.9670     1.4450 C.ar  1 <1>  -0.1500 
 17 C        5.2940    -4.8040    -1.6040 C.3   1 <1>  -0.0170 
 18 C        7.4420    -4.9070    -0.1480 C.ar  1 <1>  -0.1500 
 19 C        7.4990    -3.4480     1.7610 C.ar  1 <1>  -0.1500 
 20 C        8.1000    -4.4150     0.9680 C.ar  1 <1>  -0.1500 
 21 H        2.9430    -0.9120    -2.0740 H     1 <1>   0.1500 
 22 H       -2.0020    -2.8250    -1.3470 H     1 <1>   0.0800 
 23 H       -2.1670    -1.1600    -0.8440 H     1 <1>   0.0800 
 24 H        0.5740    -2.4480     2.1830 H     1 <1>   0.0800 
 25 H        1.1100    -3.9430     1.4700 H     1 <1>   0.0800 
 26 H       -3.0060    -2.9330     0.8280 H     1 <1>   0.0800 
 27 H       -1.9510    -1.7000     1.4540 H     1 <1>   0.0800 
 28 H       -1.3000    -3.9460     2.2910 H     1 <1>   0.0800 
 29 H       -1.0610    -4.4760     0.6520 H     1 <1>   0.0800 
 30 H        4.0470    -3.1730    -2.2680 H     1 <1>   0.0800 
 31 H        3.1710    -4.4230    -1.3890 H     1 <1>   0.0800 
 32 H        5.7790    -2.2160     2.0610 H     1 <1>   0.1500 
 33 H        5.7850    -4.6450    -2.5470 H     1 <1>   0.0800 
 34 H        4.9890    -5.8310    -1.5200 H     1 <1>   0.0800 
 35 H        7.9040    -5.6560    -0.7670 H     1 <1>   0.1500 
 36 H        8.0130    -3.0680     2.6270 H     1 <1>   0.1500 
 37 H        9.0790    -4.7830     1.2210 H     1 <1>   0.1500 
@<TRIPOS>BOND
  1   1   2  1   
  2   1   3  1   
  3   2   4  2   
  4   2   5  1   
  5   3   6  2   
  6   3  21  1   
  7   4   6  1   
  8   4   7  1   
  9   5   8  1   
 10   5  22  1   
 11   5  23  1   
 12   6   9  1   
 13   7  10  1   
 14   7  24  1   
 15   7  25  1   
 16   8  10  1   
 17   8  26  1   
 18   8  27  1   
 19   9  11  2   
 20   9  12  am  
 21  10  28  1   
 22  10  29  1   
 23  12  13  1   
 24  12  14  1   
 25  13  15  ar  
 26  13  16  ar  
 27  14  17  1   
 28  14  30  1   
 29  14  31  1   
 30  15  17  1   
 31  15  18  ar  
 32  16  19  ar  
 33  16  32  1   
 34  17  33  1   
 35  17  34  1   
 36  18  20  ar  
 37  18  35  1   
 38  19  20  ar  
 39  19  36  1   
 40  20  37  1   
@<TRIPOS>SUBSTRUCTURE
  1 ****   9 GROUP 4 **** **** 0

# MOE 2024.06 (io_trps.svl 2023.06)
