@<TRIPOS>MOLECULE
NONAME
54 57 1 0 0 
SMALL
USER_CHARGES


@<TRIPOS>ATOM
  1 O        2.6540    -1.2630     0.7430 O.2   1 <1>  -0.5700 
  2 C        2.0010    -2.2380     0.4450 C.2   1 <1>   0.5690 
  3 N        2.3230    -3.4520     0.9620 N.am  1 <1>  -0.7300 
  4 C        0.8270    -2.1340    -0.5510 C.3   1 <1>   0.0610 
  5 C        3.4480    -3.7080     1.9030 C.3   1 <1>   0.2810 
  6 C       -0.4770    -2.6830     0.0850 C.3   1 <1>  -0.1600 
  7 C        1.1370    -2.9560    -1.8280 C.3   1 <1>  -0.1600 
  8 C        0.5670    -0.6650    -0.9790 C.3   1 <1>  -0.1600 
  9 C        4.8240    -3.6930     1.1960 C.2   1 <1>   0.5690 
 10 C        3.1300    -5.0140     2.6400 C.3   1 <1>  -0.2400 
 11 C       -1.6500    -2.6060    -0.9110 C.3   1 <1>  -0.0800 
 12 C       -0.0320    -2.8800    -2.8290 C.3   1 <1>  -0.0800 
 13 C       -0.6020    -0.5750    -1.9770 C.3   1 <1>  -0.0800 
 14 O        5.5220    -4.6810     1.2140 O.2   1 <1>  -0.5700 
 15 N        5.1790    -2.5290     0.5680 N.am  1 <1>  -0.5470 
 16 C       -1.3060    -3.4330    -2.1640 C.3   1 <1>  -0.1600 
 17 C       -1.8740    -1.1380    -1.3170 C.3   1 <1>  -0.1600 
 18 C       -0.2640    -1.4100    -3.2250 C.3   1 <1>  -0.1600 
 19 C        6.3080    -2.1400    -0.1700 C.ar  1 <1>   0.1170 
 20 C        7.4840    -2.8810    -0.2320 C.ar  1 <1>  -0.1500 
 21 C        6.2460    -0.9420    -0.8720 C.ar  1 <1>  -0.1500 
 22 C        8.5610    -2.4370    -0.9780 C.ar  1 <1>  -0.1500 
 23 C        7.3200    -0.4910    -1.6190 C.ar  1 <1>  -0.1500 
 24 C        8.4900    -1.2430    -1.6760 C.ar  1 <1>   0.0820 
 25 O        9.5930    -0.8790    -2.3830 O.3   1 <1>  -0.3630 
 26 C        9.6170     0.3200    -3.1240 C.3   1 <1>   0.0400 
 27 H        1.8370    -4.2850     0.6300 H     1 <1>   0.3700 
 28 H        3.4630    -2.9130     2.6300 H     1 <1>   0.0800 
 29 H       -0.7150    -2.1130     0.9660 H     1 <1>   0.0800 
 30 H       -0.3420    -3.7060     0.3870 H     1 <1>   0.0800 
 31 H        1.3150    -3.9850    -1.5740 H     1 <1>   0.0800 
 32 H        2.0320    -2.5780    -2.2900 H     1 <1>   0.0800 
 33 H        1.4540    -0.2560    -1.4310 H     1 <1>   0.0800 
 34 H        0.3440    -0.0680    -0.1110 H     1 <1>   0.0800 
 35 H        3.1160    -5.8400     1.9510 H     1 <1>   0.0800 
 36 H        2.1830    -4.9420     3.1430 H     1 <1>   0.0800 
 37 H        3.8910    -5.2050     3.3750 H     1 <1>   0.0800 
 38 H       -2.5430    -2.9950    -0.4520 H     1 <1>   0.0800 
 39 H        0.2020    -3.4590    -3.7060 H     1 <1>   0.0800 
 40 H       -0.7630     0.4520    -2.2590 H     1 <1>   0.0800 
 41 H        4.4270    -1.8250     0.5890 H     1 <1>   0.3700 
 42 H       -2.1250    -3.3930    -2.8610 H     1 <1>   0.0800 
 43 H       -1.1590    -4.4640    -1.8940 H     1 <1>   0.0800 
 44 H       -2.7000    -1.0720    -2.0040 H     1 <1>   0.0800 
 45 H       -2.1240    -0.5530    -0.4500 H     1 <1>   0.0800 
 46 H       -1.0720    -1.3480    -3.9340 H     1 <1>   0.0800 
 47 H        0.6170    -1.0160    -3.7000 H     1 <1>   0.0800 
 48 H        7.5690    -3.8090     0.3020 H     1 <1>   0.1500 
 49 H        5.3460    -0.3550    -0.8330 H     1 <1>   0.1500 
 50 H        9.4650    -3.0160    -1.0220 H     1 <1>   0.1500 
 51 H        7.2280     0.4390    -2.1450 H     1 <1>   0.1500 
 52 H       10.5790     0.4000    -3.5980 H     1 <1>   0.0800 
 53 H        9.4710     1.1480    -2.4530 H     1 <1>   0.0800 
 54 H        8.8430     0.2850    -3.8700 H     1 <1>   0.0800 
@<TRIPOS>BOND
  1   1   2  2   
  2   2   3  am  
  3   2   4  1   
  4   3   5  1   
  5   3  27  1   
  6   4   6  1   
  7   4   7  1   
  8   4   8  1   
  9   5   9  1   
 10   5  10  1   
 11   5  28  1   
 12   6  11  1   
 13   6  29  1   
 14   6  30  1   
 15   7  12  1   
 16   7  31  1   
 17   7  32  1   
 18   8  13  1   
 19   8  33  1   
 20   8  34  1   
 21   9  14  2   
 22   9  15  am  
 23  10  35  1   
 24  10  36  1   
 25  10  37  1   
 26  11  16  1   
 27  11  17  1   
 28  11  38  1   
 29  12  16  1   
 30  12  18  1   
 31  12  39  1   
 32  13  17  1   
 33  13  18  1   
 34  13  40  1   
 35  15  19  1   
 36  15  41  1   
 37  16  42  1   
 38  16  43  1   
 39  17  44  1   
 40  17  45  1   
 41  18  46  1   
 42  18  47  1   
 43  19  20  ar  
 44  19  21  ar  
 45  20  22  ar  
 46  20  48  1   
 47  21  23  ar  
 48  21  49  1   
 49  22  24  ar  
 50  22  50  1   
 51  23  24  ar  
 52  23  51  1   
 53  24  25  1   
 54  25  26  1   
 55  26  52  1   
 56  26  53  1   
 57  26  54  1   
@<TRIPOS>SUBSTRUCTURE
  1 ****   2 GROUP 4 **** **** 0

# MOE 2024.06 (io_trps.svl 2023.06)
