@<TRIPOS>MOLECULE
NONAME
37 38 1 0 0 
SMALL
USER_CHARGES


@<TRIPOS>ATOM
  1 S        0.4250     1.9220    -2.2130 S.3   1 <1>  -0.0800 
  2 C       -0.1410     2.4740    -0.6480 C.2   1 <1>  -0.1400 
  3 C        2.0790     1.8980    -1.6510 C.2   1 <1>  -0.1100 
  4 C        0.8940     2.6110     0.2010 C.2   1 <1>  -0.1500 
  5 C       -1.6270     2.7210    -0.4770 C.3   1 <1>   0.0200 
  6 C        2.1810     2.2740    -0.3510 C.2   1 <1>  -0.0860 
  7 C       -2.4100     1.4050    -0.4900 C.3   1 <1>  -0.2400 
  8 C        3.3940     2.3700     0.4370 C.2   1 <1>   0.7160 
  9 O        3.5220     3.2910     1.2210 O.2   1 <1>  -0.5700 
 10 N        4.4170     1.4540     0.3200 N.am  1 <1>  -0.6600 
 11 C        5.8050     1.8370     0.7080 C.3   1 <1>   0.2840 
 12 C        4.2020     0.0410    -0.1080 C.3   1 <1>   0.1400 
 13 C        6.7540     1.6040    -0.4580 C.ar  1 <1>  -0.1430 
 14 C        4.4170    -0.9100     1.0680 C.3   1 <1>  -0.2400 
 15 C        6.6640     2.3490    -1.6170 C.ar  1 <1>  -0.1500 
 16 C        7.7430     0.6410    -0.4260 C.ar  1 <1>  -0.1500 
 17 C        7.5410     2.1010    -2.6600 C.ar  1 <1>   0.1600 
 18 C        8.5690     0.4740    -1.5250 C.ar  1 <1>   0.1600 
 19 N        8.4900     1.1800    -2.6420 N.ar  1 <1>  -0.6200 
 20 H        2.8350     1.6020    -2.3560 H     1 <1>   0.1500 
 21 H        0.8210     2.9450     1.2220 H     1 <1>   0.1500 
 22 H       -1.9750     3.3640    -1.2660 H     1 <1>   0.0800 
 23 H       -1.7950     3.2230     0.4600 H     1 <1>   0.0800 
 24 H       -2.2900     0.9070    -1.4360 H     1 <1>   0.0800 
 25 H       -3.4560     1.5960    -0.3330 H     1 <1>   0.0800 
 26 H       -2.0540     0.7560     0.2900 H     1 <1>   0.0800 
 27 H        6.1110     1.2670     1.5660 H     1 <1>   0.0800 
 28 H        5.8500     2.8780     0.9800 H     1 <1>   0.0800 
 29 H        4.8730    -0.2040    -0.9140 H     1 <1>   0.0800 
 30 H        3.1970    -0.0950    -0.4650 H     1 <1>   0.0800 
 31 H        5.4440    -0.9120     1.3810 H     1 <1>   0.0800 
 32 H        4.1590    -1.9100     0.7690 H     1 <1>   0.0800 
 33 H        3.7860    -0.6290     1.8930 H     1 <1>   0.0800 
 34 H        5.9180     3.1170    -1.7140 H     1 <1>   0.1500 
 35 H        7.8790     0.0190     0.4390 H     1 <1>   0.1500 
 36 H        7.4560     2.6920    -3.5560 H     1 <1>   0.1500 
 37 H        9.3360    -0.2810    -1.4850 H     1 <1>   0.1500 
@<TRIPOS>BOND
  1   1   2  1   
  2   1   3  1   
  3   2   4  2   
  4   2   5  1   
  5   3   6  2   
  6   3  20  1   
  7   4   6  1   
  8   4  21  1   
  9   5   7  1   
 10   5  22  1   
 11   5  23  1   
 12   6   8  1   
 13   7  24  1   
 14   7  25  1   
 15   7  26  1   
 16   8   9  2   
 17   8  10  am  
 18  10  11  1   
 19  10  12  1   
 20  11  13  1   
 21  11  27  1   
 22  11  28  1   
 23  12  14  1   
 24  12  29  1   
 25  12  30  1   
 26  13  15  ar  
 27  13  16  ar  
 28  14  31  1   
 29  14  32  1   
 30  14  33  1   
 31  15  17  ar  
 32  15  34  1   
 33  16  18  ar  
 34  16  35  1   
 35  17  19  ar  
 36  17  36  1   
 37  18  19  ar  
 38  18  37  1   
@<TRIPOS>SUBSTRUCTURE
  1 ****  10 GROUP 4 **** **** 0

# MOE 2024.06 (io_trps.svl 2023.06)
