@<TRIPOS>MOLECULE
NONAME
43 44 1 0 0 
SMALL
USER_CHARGES


@<TRIPOS>ATOM
  1 BR       0.9030    -0.6050    -2.9230 Br    1 <1>  -0.1110 
  2 C        2.3200    -1.2030    -1.7640 C.ar  1 <1>   0.1110 
  3 C        2.8610    -0.3080    -0.8610 C.ar  1 <1>  -0.1500 
  4 C        2.7540    -2.5100    -1.8670 C.ar  1 <1>  -0.1500 
  5 C        3.8830    -0.7210    -0.0150 C.ar  1 <1>  -0.1440 
  6 C        3.7750    -2.9260    -1.0320 C.ar  1 <1>  -0.1500 
  7 C        4.3390    -2.0390    -0.1250 C.ar  1 <1>   0.0830 
  8 C        4.4740     0.2610     1.0040 C.3   1 <1>   0.0640 
  9 O        5.3420    -2.4950     0.6530 O.3   1 <1>  -0.3620 
 10 C        3.3920     0.7980     1.9470 C.3   1 <1>  -0.2400 
 11 C        5.1950     1.4130     0.2980 C.3   1 <1>  -0.2400 
 12 C        6.6430    -2.2570     0.1650 C.3   1 <1>   0.1200 
 13 C        7.6260    -2.4080     1.3230 C.3   1 <1>   0.1400 
 14 N        8.9740    -1.9680     0.9040 N.am  1 <1>  -0.4200 
 15 C        9.3720    -0.6650     0.8200 C.2   1 <1>   0.6900 
 16 C        9.9920    -2.7810     0.5050 C.2   1 <1>   0.5690 
 17 O        8.6570     0.2910     1.0190 O.2   1 <1>  -0.5700 
 18 N       10.6580    -0.5690     0.4330 N.am  1 <1>  -0.7300 
 19 O        9.9450    -3.9860     0.4280 O.2   1 <1>  -0.5700 
 20 C       11.2070    -1.9000     0.1450 C.3   1 <1>   0.3610 
 21 C       12.4160    -2.1400     1.0520 C.3   1 <1>  -0.2400 
 22 C       11.5830    -1.9680    -1.3370 C.3   1 <1>  -0.2400 
 23 H        2.4800     0.6960    -0.8250 H     1 <1>   0.1500 
 24 H        2.3040    -3.1790    -2.5780 H     1 <1>   0.1500 
 25 H        4.1390    -3.9360    -1.0790 H     1 <1>   0.1500 
 26 H        5.1980    -0.2450     1.6190 H     1 <1>   0.0800 
 27 H        2.6700     1.3890     1.4130 H     1 <1>   0.0800 
 28 H        3.8370     1.4100     2.7110 H     1 <1>   0.0800 
 29 H        2.8830    -0.0230     2.4210 H     1 <1>   0.0800 
 30 H        5.9600     1.0260    -0.3520 H     1 <1>   0.0800 
 31 H        4.5090     1.9960    -0.2880 H     1 <1>   0.0800 
 32 H        5.6650     2.0550     1.0210 H     1 <1>   0.0800 
 33 H        6.6810    -1.2570    -0.2290 H     1 <1>   0.0800 
 34 H        6.8470    -2.9710    -0.6130 H     1 <1>   0.0800 
 35 H        7.6640    -3.4360     1.6380 H     1 <1>   0.0800 
 36 H        7.3050    -1.7970     2.1490 H     1 <1>   0.0800 
 37 H       11.0850     0.3040     0.1280 H     1 <1>   0.3700 
 38 H       12.1330    -2.0440     2.0850 H     1 <1>   0.0800 
 39 H       13.2010    -1.4400     0.8320 H     1 <1>   0.0800 
 40 H       12.7920    -3.1360     0.8970 H     1 <1>   0.0800 
 41 H       10.7280    -1.7510    -1.9520 H     1 <1>   0.0800 
 42 H       11.9260    -2.9590    -1.5760 H     1 <1>   0.0800 
 43 H       12.3710    -1.2720    -1.5610 H     1 <1>   0.0800 
@<TRIPOS>BOND
  1   1   2  1   
  2   2   3  ar  
  3   2   4  ar  
  4   3   5  ar  
  5   3  23  1   
  6   4   6  ar  
  7   4  24  1   
  8   5   7  ar  
  9   5   8  1   
 10   6   7  ar  
 11   6  25  1   
 12   7   9  1   
 13   8  10  1   
 14   8  11  1   
 15   8  26  1   
 16   9  12  1   
 17  10  27  1   
 18  10  28  1   
 19  10  29  1   
 20  11  30  1   
 21  11  31  1   
 22  11  32  1   
 23  12  13  1   
 24  12  33  1   
 25  12  34  1   
 26  13  14  1   
 27  13  35  1   
 28  13  36  1   
 29  14  15  am  
 30  14  16  am  
 31  15  17  2   
 32  15  18  am  
 33  16  19  2   
 34  16  20  1   
 35  18  20  1   
 36  18  37  1   
 37  20  21  1   
 38  20  22  1   
 39  21  38  1   
 40  21  39  1   
 41  21  40  1   
 42  22  41  1   
 43  22  42  1   
 44  22  43  1   
@<TRIPOS>SUBSTRUCTURE
  1 ****  12 GROUP 4 **** **** 0

# MOE 2024.06 (io_trps.svl 2023.06)
