@<TRIPOS>MOLECULE
NONAME
46 49 1 0 0 
SMALL
USER_CHARGES


@<TRIPOS>ATOM
  1 O       -4.5400     0.5400     2.9090 O.2   1 <1>  -0.5700 
  2 C       -4.3560     0.7910     1.7510 C.2   1 <1>   0.4480 
  3 C       -5.4700     1.3950     0.8630 C.3   1 <1>   0.0610 
  4 C       -2.9790     0.4950     1.1430 C.3   1 <1>   0.1710 
  5 C       -5.3860     0.9130    -0.6110 C.3   1 <1>  -0.1600 
  6 C       -5.3840     2.9410     0.8760 C.3   1 <1>  -0.1600 
  7 C       -6.8670     0.9930     1.4100 C.3   1 <1>  -0.1600 
  8 N       -2.2750     1.6890     0.6340 N.3   1 <1>  -0.9000 
  9 C       -6.5110     1.5310    -1.4630 C.3   1 <1>  -0.0800 
 10 C       -6.5080     3.5670     0.0280 C.3   1 <1>  -0.0800 
 11 C       -8.0000     1.6070     0.5670 C.3   1 <1>  -0.0800 
 12 C       -0.9620     1.3780     0.0830 C.3   1 <1>   0.2530 
 13 C       -6.3870     3.0650    -1.4220 C.3   1 <1>  -0.1600 
 14 C       -7.8740     1.1150    -0.8850 C.3   1 <1>  -0.1600 
 15 C       -7.8720     3.1410     0.5990 C.3   1 <1>  -0.1600 
 16 C       -0.2330     2.6790    -0.2030 C.ar  1 <1>  -0.1430 
 17 C       -0.7720     3.5990    -1.0890 C.ar  1 <1>  -0.1500 
 18 C        0.9770     2.9620     0.4150 C.ar  1 <1>  -0.1500 
 19 C       -0.1110     4.7850    -1.3600 C.ar  1 <1>  -0.1500 
 20 C        1.6400     4.1470     0.1450 C.ar  1 <1>  -0.1500 
 21 C        1.0970     5.0590    -0.7430 C.ar  1 <1>  -0.1500 
 22 H       -3.0980    -0.2190     0.3470 H     1 <1>   0.0800 
 23 H       -2.3780     0.0330     1.9070 H     1 <1>   0.0800 
 24 H       -5.4560    -0.1600    -0.6490 H     1 <1>   0.0800 
 25 H       -4.4430     1.1990    -1.0410 H     1 <1>   0.0800 
 26 H       -4.4330     3.2600     0.4880 H     1 <1>   0.0800 
 27 H       -5.4550     3.2970     1.8900 H     1 <1>   0.0800 
 28 H       -6.9680     1.3260     2.4290 H     1 <1>   0.0800 
 29 H       -6.9600    -0.0790     1.4140 H     1 <1>   0.0800 
 30 H       -2.1290     2.3500     1.4100 H     1 <1>   0.3600 
 31 H       -6.4270     1.1870    -2.4800 H     1 <1>   0.0800 
 32 H       -6.4240     4.6400     0.0500 H     1 <1>   0.0800 
 33 H       -8.9540     1.3130     0.9710 H     1 <1>   0.0800 
 34 H       -1.0730     0.8170    -0.8300 H     1 <1>   0.0800 
 35 H       -0.3970     0.7880     0.7850 H     1 <1>   0.0800 
 36 H       -5.4380     3.3660    -1.8330 H     1 <1>   0.0800 
 37 H       -7.1590     3.5090    -2.0260 H     1 <1>   0.0800 
 38 H       -7.9740     0.0440    -0.9170 H     1 <1>   0.0800 
 39 H       -8.6660     1.5340    -1.4810 H     1 <1>   0.0800 
 40 H       -8.6640     3.5840     0.0200 H     1 <1>   0.0800 
 41 H       -7.9710     3.4940     1.6110 H     1 <1>   0.0800 
 42 H       -1.7140     3.3900    -1.5660 H     1 <1>   0.1500 
 43 H        1.4100     2.2630     1.1080 H     1 <1>   0.1500 
 44 H       -0.5380     5.4920    -2.0490 H     1 <1>   0.1500 
 45 H        2.5780     4.3610     0.6270 H     1 <1>   0.1500 
 46 H        1.6120     5.9800    -0.9530 H     1 <1>   0.1500 
@<TRIPOS>BOND
  1   1   2  2   
  2   2   3  1   
  3   2   4  1   
  4   3   5  1   
  5   3   6  1   
  6   3   7  1   
  7   4   8  1   
  8   4  22  1   
  9   4  23  1   
 10   5   9  1   
 11   5  24  1   
 12   5  25  1   
 13   6  10  1   
 14   6  26  1   
 15   6  27  1   
 16   7  11  1   
 17   7  28  1   
 18   7  29  1   
 19   8  12  1   
 20   8  30  1   
 21   9  13  1   
 22   9  14  1   
 23   9  31  1   
 24  10  13  1   
 25  10  15  1   
 26  10  32  1   
 27  11  14  1   
 28  11  15  1   
 29  11  33  1   
 30  12  16  1   
 31  12  34  1   
 32  12  35  1   
 33  13  36  1   
 34  13  37  1   
 35  14  38  1   
 36  14  39  1   
 37  15  40  1   
 38  15  41  1   
 39  16  17  ar  
 40  16  18  ar  
 41  17  19  ar  
 42  17  42  1   
 43  18  20  ar  
 44  18  43  1   
 45  19  21  ar  
 46  19  44  1   
 47  20  21  ar  
 48  20  45  1   
 49  21  46  1   
@<TRIPOS>SUBSTRUCTURE
  1 ****   8 GROUP 4 **** **** 0

# MOE 2024.06 (io_trps.svl 2023.06)
