@<TRIPOS>MOLECULE
NONAME
42 44 1 0 0 
SMALL
USER_CHARGES


@<TRIPOS>ATOM
  1 O        0.5150     0.1210    -0.2800 O.2   1 <1>  -0.5700 
  2 C        0.0630     1.2320    -0.4500 C.2   1 <1>   0.5440 
  3 N        0.7870     2.2960    -0.9180 N.am  1 <1>  -0.4200 
  4 C       -1.2800     1.6660    -0.1880 C.ar  1 <1>   0.0860 
  5 C       -0.0260     3.3990    -0.9520 C.2   1 <1>   0.5440 
  6 C        2.1980     2.2510    -1.3640 C.3   1 <1>   0.1400 
  7 C       -1.3350     3.0220    -0.5020 C.ar  1 <1>   0.0860 
  8 C       -2.4060     1.0010     0.2840 C.ar  1 <1>  -0.1500 
  9 O        0.3360     4.5020    -1.2960 O.2   1 <1>  -0.5700 
 10 C        3.1280     2.5620    -0.1890 C.3   1 <1>  -0.0990 
 11 C       -2.5170     3.7370    -0.3510 C.ar  1 <1>  -0.1500 
 12 C       -3.5880     1.7160     0.4350 C.ar  1 <1>   0.0860 
 13 C        4.5870     2.5260    -0.6030 C.2   1 <1>   0.4480 
 14 C       -3.6430     3.0720     0.1210 C.ar  1 <1>   0.0860 
 15 C       -4.8970     1.3390     0.8850 C.2   1 <1>   0.5440 
 16 O        4.9300     2.2800    -1.7180 O.2   1 <1>  -0.5700 
 17 C        5.6030     2.8190     0.4770 C.3   1 <1>  -0.1790 
 18 C       -4.9860     3.5050     0.3830 C.2   1 <1>   0.5440 
 19 O       -5.2590     0.2350     1.2290 O.2   1 <1>  -0.5700 
 20 N       -5.7100     2.4410     0.8510 N.am  1 <1>  -0.4200 
 21 O       -5.4380     4.6160     0.2130 O.2   1 <1>  -0.5700 
 22 C       -7.1210     2.4870     1.2970 C.3   1 <1>   0.1400 
 23 C       -8.0510     2.1770     0.1210 C.3   1 <1>  -0.0990 
 24 C       -9.5100     2.2130     0.5340 C.2   1 <1>   0.4480 
 25 O       -9.8530     2.4570     1.6500 O.2   1 <1>  -0.5700 
 26 C      -10.5260     1.9220    -0.5470 C.3   1 <1>  -0.1790 
 27 H        2.3470     2.9710    -2.1520 H     1 <1>   0.0800 
 28 H        2.4160     1.2710    -1.7570 H     1 <1>   0.0800 
 29 H       -2.3630    -0.0490     0.5270 H     1 <1>   0.1500 
 30 H        2.9730     1.8350     0.5870 H     1 <1>   0.0800 
 31 H        2.9030     3.5420     0.1910 H     1 <1>   0.0800 
 32 H       -2.5600     4.7870    -0.5940 H     1 <1>   0.1500 
 33 H        5.4460     3.8050     0.8720 H     1 <1>   0.0800 
 34 H        6.5940     2.7630     0.0650 H     1 <1>   0.0800 
 35 H        5.5160     2.0980     1.2690 H     1 <1>   0.0800 
 36 H       -7.3400     3.4660     1.6900 H     1 <1>   0.0800 
 37 H       -7.2700     1.7660     2.0840 H     1 <1>   0.0800 
 38 H       -7.8260     1.1970    -0.2590 H     1 <1>   0.0800 
 39 H       -7.8960     2.9040    -0.6550 H     1 <1>   0.0800 
 40 H      -10.3690     0.9350    -0.9420 H     1 <1>   0.0800 
 41 H      -10.4390     2.6430    -1.3370 H     1 <1>   0.0800 
 42 H      -11.5170     1.9770    -0.1340 H     1 <1>   0.0800 
@<TRIPOS>BOND
  1   1   2  2   
  2   2   3  am  
  3   2   4  1   
  4   3   5  am  
  5   3   6  1   
  6   4   7  ar  
  7   4   8  ar  
  8   5   7  1   
  9   5   9  2   
 10   6  10  1   
 11   6  27  1   
 12   6  28  1   
 13   7  11  ar  
 14   8  12  ar  
 15   8  29  1   
 16  10  13  1   
 17  10  30  1   
 18  10  31  1   
 19  11  14  ar  
 20  11  32  1   
 21  12  14  ar  
 22  12  15  1   
 23  13  16  2   
 24  13  17  1   
 25  14  18  1   
 26  15  19  2   
 27  15  20  am  
 28  17  33  1   
 29  17  34  1   
 30  17  35  1   
 31  18  20  am  
 32  18  21  2   
 33  20  22  1   
 34  22  23  1   
 35  22  36  1   
 36  22  37  1   
 37  23  24  1   
 38  23  38  1   
 39  23  39  1   
 40  24  25  2   
 41  24  26  1   
 42  26  40  1   
 43  26  41  1   
 44  26  42  1   
@<TRIPOS>SUBSTRUCTURE
  1 ****   4 GROUP 4 **** **** 0

# MOE 2024.06 (io_trps.svl 2023.06)
