@<TRIPOS>MOLECULE
NONAME
41 42 1 0 0 
SMALL
USER_CHARGES


@<TRIPOS>ATOM
  1 O       -1.2490     1.5020     2.1180 O.2   1 <1>  -0.5700 
  2 C       -0.7480     1.7930     1.0610 C.2   1 <1>   0.5690 
  3 N       -1.3630     1.6220    -0.1460 N.am  1 <1>  -0.5470 
  4 C        0.6340     2.3980     1.0580 C.3   1 <1>  -0.1790 
  5 C       -2.6180     1.0690    -0.4380 C.ar  1 <1>   0.1170 
  6 C       -3.1960     0.0770     0.3450 C.ar  1 <1>  -0.1500 
  7 C       -3.3130     1.5120    -1.5570 C.ar  1 <1>  -0.1500 
  8 C       -4.4380    -0.4440     0.0350 C.ar  1 <1>  -0.1500 
  9 C       -4.5570     0.9960    -1.8730 C.ar  1 <1>  -0.1500 
 10 C       -5.1340     0.0200    -1.0720 C.ar  1 <1>  -0.1430 
 11 C       -6.5130    -0.5240    -1.3930 C.3   1 <1>   0.4860 
 12 N       -7.4640    -0.0620    -0.3440 N.4   1 <1>  -0.9590 
 13 C       -8.7450    -0.8130    -0.4340 C.3   1 <1>   0.3430 
 14 C       -7.6170     1.4230    -0.3680 C.3   1 <1>   0.3430 
 15 C       -9.6460    -0.5730     0.7790 C.3   1 <1>  -0.1600 
 16 C       -7.9190     1.9310     1.0410 C.3   1 <1>  -0.1600 
 17 C      -10.2780     0.8260     0.7980 C.3   1 <1>  -0.1600 
 18 C       -9.4030     1.9090     1.4460 C.3   1 <1>  -0.1600 
 19 H       -0.8530     1.9900    -0.9460 H     1 <1>   0.3700 
 20 H        0.5920     3.4000     0.6770 H     1 <1>   0.0800 
 21 H        1.2920     1.8050     0.4510 H     1 <1>   0.0800 
 22 H        1.0190     2.4240     2.0610 H     1 <1>   0.0800 
 23 H       -2.6670    -0.2930     1.2070 H     1 <1>   0.1500 
 24 H       -2.8780     2.2710    -2.1830 H     1 <1>   0.1500 
 25 H       -4.8430    -1.2140     0.6690 H     1 <1>   0.1500 
 26 H       -5.0650     1.3660    -2.7480 H     1 <1>   0.1500 
 27 H       -6.4700    -1.6010    -1.4070 H     1 <1>   0.0800 
 28 H       -6.8310    -0.1810    -2.3640 H     1 <1>   0.0800 
 29 H       -7.0220    -0.2850     0.5550 H     1 <1>   0.4500 
 30 H       -8.5320    -1.8690    -0.4910 H     1 <1>   0.0800 
 31 H       -9.2730    -0.5340    -1.3320 H     1 <1>   0.0800 
 32 H       -8.3900     1.7240    -1.0560 H     1 <1>   0.0800 
 33 H       -6.6900     1.8750    -0.6850 H     1 <1>   0.0800 
 34 H       -9.1210    -0.7750     1.6970 H     1 <1>   0.0800 
 35 H      -10.4490    -1.2870     0.7170 H     1 <1>   0.0800 
 36 H       -7.5840     2.9520     1.1030 H     1 <1>   0.0800 
 37 H       -7.3340     1.3800     1.7570 H     1 <1>   0.0800 
 38 H      -11.1980     0.7780     1.3570 H     1 <1>   0.0800 
 39 H      -10.5440     1.1210    -0.2030 H     1 <1>   0.0800 
 40 H       -9.8400     2.8650     1.2100 H     1 <1>   0.0800 
 41 H       -9.4570     1.8060     2.5180 H     1 <1>   0.0800 
@<TRIPOS>BOND
  1   1   2  2   
  2   2   3  am  
  3   2   4  1   
  4   3   5  1   
  5   3  19  1   
  6   4  20  1   
  7   4  21  1   
  8   4  22  1   
  9   5   6  ar  
 10   5   7  ar  
 11   6   8  ar  
 12   6  23  1   
 13   7   9  ar  
 14   7  24  1   
 15   8  10  ar  
 16   8  25  1   
 17   9  10  ar  
 18   9  26  1   
 19  10  11  1   
 20  11  12  1   
 21  11  27  1   
 22  11  28  1   
 23  12  13  1   
 24  12  14  1   
 25  12  29  1   
 26  13  15  1   
 27  13  30  1   
 28  13  31  1   
 29  14  16  1   
 30  14  32  1   
 31  14  33  1   
 32  15  17  1   
 33  15  34  1   
 34  15  35  1   
 35  16  18  1   
 36  16  36  1   
 37  16  37  1   
 38  17  18  1   
 39  17  38  1   
 40  17  39  1   
 41  18  40  1   
 42  18  41  1   
@<TRIPOS>SUBSTRUCTURE
  1 ****  10 GROUP 4 **** **** 0

# MOE 2024.06 (io_trps.svl 2023.06)
