@<TRIPOS>MOLECULE
Structure543
24 24 1 0 0 
SMALL
USER_CHARGES


@<TRIPOS>ATOM
  1 CL      -0.6990    -0.0740    -1.6040 Cl    1 <1>  -0.1770 
  2 C       -1.8660     0.9160    -0.7800 C.ar  1 <1>   0.7970 
  3 N       -3.1160     0.7460    -1.1610 N.ar  1 <1>  -0.6200 
  4 N       -1.3680     1.7280     0.1390 N.ar  1 <1>  -0.6200 
  5 C       -3.9870     1.4910    -0.5270 C.ar  1 <1>   0.4100 
  6 C       -2.2670     2.4740     0.7480 C.ar  1 <1>   0.1600 
  7 N       -5.2750     1.3140    -0.9270 N.pl3 1 <1>  -0.8690 
  8 C       -3.5990     2.3940     0.4460 C.ar  1 <1>  -0.1500 
  9 C       -6.4290     0.9960    -0.0820 C.3   1 <1>   0.3690 
 10 C       -7.1770     2.2890     0.2300 C.3   1 <1>  -0.2400 
 11 C       -6.0020     0.2750     1.1990 C.3   1 <1>  -0.2400 
 12 C       -7.3180     0.0740    -0.9120 C.3   1 <1>  -0.2400 
 13 H       -1.9210     3.1630     1.5010 H     1 <1>   0.1500 
 14 H       -5.3040     0.7520    -1.7790 H     1 <1>   0.4000 
 15 H       -4.3230     3.0100     0.9370 H     1 <1>   0.1500 
 16 H       -6.5750     2.9450     0.8280 H     1 <1>   0.0800 
 17 H       -8.0780     2.0730     0.7740 H     1 <1>   0.0800 
 18 H       -7.4410     2.7940    -0.6820 H     1 <1>   0.0800 
 19 H       -5.4350     0.9230     1.8390 H     1 <1>   0.0800 
 20 H       -5.4120    -0.5920     0.9600 H     1 <1>   0.0800 
 21 H       -6.8690    -0.0470     1.7450 H     1 <1>   0.0800 
 22 H       -7.6210     0.5610    -1.8220 H     1 <1>   0.0800 
 23 H       -8.2030    -0.1840    -0.3590 H     1 <1>   0.0800 
 24 H       -6.7960    -0.8340    -1.1530 H     1 <1>   0.0800 
@<TRIPOS>BOND
  1   1   2  1   
  2   2   3  ar  
  3   2   4  ar  
  4   3   5  ar  
  5   4   6  ar  
  6   5   7  1   
  7   5   8  ar  
  8   6   8  ar  
  9   6  13  1   
 10   7   9  1   
 11   7  14  1   
 12   8  15  1   
 13   9  10  1   
 14   9  11  1   
 15   9  12  1   
 16  10  16  1   
 17  10  17  1   
 18  10  18  1   
 19  11  19  1   
 20  11  20  1   
 21  11  21  1   
 22  12  22  1   
 23  12  23  1   
 24  12  24  1   
@<TRIPOS>SUBSTRUCTURE
  1 ****   5 GROUP 4 **** **** 0

# MOE 2024.06 (io_trps.svl 2023.06)
