@<TRIPOS>MOLECULE
NONAME
47 49 1 0 0 
SMALL
USER_CHARGES


@<TRIPOS>ATOM
  1 S       -0.2240     0.4860     1.4590 S.o2  1 <1>   1.4470 
  2 O       -0.7070     1.2580     2.5810 O.2   1 <1>  -0.6500 
  3 O       -0.2240    -0.9580     1.5080 O.2   1 <1>  -0.6500 
  4 N       -1.1880     0.8410     0.1350 N.am  1 <1>  -0.9140 
  5 C        1.4120     1.0830     0.9510 C.ar  1 <1>  -0.0090 
  6 C       -2.5510     1.2140     0.4460 C.3   1 <1>   0.2760 
  7 C        2.5480     0.3080     1.1370 C.ar  1 <1>  -0.1500 
  8 C        1.5730     2.3360     0.3760 C.ar  1 <1>  -0.1500 
  9 C       -3.3640    -0.0060     0.8770 C.3   1 <1>  -0.1600 
 10 C       -3.2240     1.6080    -0.8640 C.3   1 <1>  -0.1600 
 11 C        3.8200     0.7330     0.7590 C.ar  1 <1>   0.0860 
 12 C        2.8230     2.7900    -0.0060 C.ar  1 <1>  -0.1500 
 13 C       -3.7140    -0.7520    -0.4140 C.3   1 <1>  -0.1600 
 14 C       -3.6440     0.2930    -1.5340 C.3   1 <1>  -0.1600 
 15 C        3.9430     2.0000     0.1800 C.ar  1 <1>  -0.1430 
 16 C        4.9570    -0.1440     0.9700 C.2   1 <1>   0.5440 
 17 C        5.3080     2.5250    -0.2500 C.3   1 <1>  -0.0970 
 18 O        5.8140     0.1460     1.7840 O.2   1 <1>  -0.5700 
 19 N        5.0840    -1.3150     0.2620 N.am  1 <1>  -0.6600 
 20 C        6.2300    -2.2330     0.4320 C.3   1 <1>   0.1400 
 21 C        4.2310    -1.7260    -0.8730 C.3   1 <1>   0.1400 
 22 C        5.9520    -3.3840    -0.5280 C.3   1 <1>  -0.1600 
 23 C        5.0490    -2.7840    -1.6040 C.3   1 <1>  -0.1600 
 24 H       -1.2560    -0.0430    -0.3620 H     1 <1>   0.4200 
 25 H       -2.5830     2.0190     1.1640 H     1 <1>   0.0800 
 26 H        2.4510    -0.6630     1.5920 H     1 <1>   0.1500 
 27 H        0.7100     2.9630     0.2260 H     1 <1>   0.1500 
 28 H       -4.2760     0.3460     1.3280 H     1 <1>   0.0800 
 29 H       -2.8640    -0.6300     1.5960 H     1 <1>   0.0800 
 30 H       -2.5840     2.2060    -1.4880 H     1 <1>   0.0800 
 31 H       -4.1060     2.1780    -0.6340 H     1 <1>   0.0800 
 32 H        2.9130     3.7680    -0.4480 H     1 <1>   0.1500 
 33 H       -4.6930    -1.1970    -0.3480 H     1 <1>   0.0800 
 34 H       -2.9930    -1.5310    -0.5950 H     1 <1>   0.0800 
 35 H       -2.9080    -0.0010    -2.2620 H     1 <1>   0.0800 
 36 H       -4.5950     0.4030    -2.0290 H     1 <1>   0.0800 
 37 H        5.7810     1.8280    -0.9180 H     1 <1>   0.0800 
 38 H        5.9370     2.6530     0.6140 H     1 <1>   0.0800 
 39 H        5.2220     3.4720    -0.7500 H     1 <1>   0.0800 
 40 H        6.3000    -2.5680     1.4530 H     1 <1>   0.0800 
 41 H        7.1350    -1.7170     0.1600 H     1 <1>   0.0800 
 42 H        4.0020    -0.8900    -1.5130 H     1 <1>   0.0800 
 43 H        3.3200    -2.1550    -0.4910 H     1 <1>   0.0800 
 44 H        5.4240    -4.1580     0.0020 H     1 <1>   0.0800 
 45 H        6.8600    -3.7940    -0.9330 H     1 <1>   0.0800 
 46 H        5.6500    -2.3020    -2.3560 H     1 <1>   0.0800 
 47 H        4.4230    -3.5210    -2.0730 H     1 <1>   0.0800 
@<TRIPOS>BOND
  1   1   2  2   
  2   1   3  2   
  3   1   4  am  
  4   1   5  1   
  5   4   6  1   
  6   4  24  1   
  7   5   7  ar  
  8   5   8  ar  
  9   6   9  1   
 10   6  10  1   
 11   6  25  1   
 12   7  11  ar  
 13   7  26  1   
 14   8  12  ar  
 15   8  27  1   
 16   9  13  1   
 17   9  28  1   
 18   9  29  1   
 19  10  14  1   
 20  10  30  1   
 21  10  31  1   
 22  11  15  ar  
 23  11  16  1   
 24  12  15  ar  
 25  12  32  1   
 26  13  14  1   
 27  13  33  1   
 28  13  34  1   
 29  14  35  1   
 30  14  36  1   
 31  15  17  1   
 32  16  18  2   
 33  16  19  am  
 34  17  37  1   
 35  17  38  1   
 36  17  39  1   
 37  19  20  1   
 38  19  21  1   
 39  20  22  1   
 40  20  40  1   
 41  20  41  1   
 42  21  23  1   
 43  21  42  1   
 44  21  43  1   
 45  22  23  1   
 46  22  44  1   
 47  22  45  1   
 48  23  46  1   
 49  23  47  1   
@<TRIPOS>SUBSTRUCTURE
  1 ****   5 GROUP 4 **** **** 0

# MOE 2024.06 (io_trps.svl 2023.06)
