@<TRIPOS>MOLECULE
NONAME
44 46 1 0 0 
SMALL
USER_CHARGES


@<TRIPOS>ATOM
  1 BR      -1.8120     3.4000    -2.6630 Br    1 <1>  -0.1110 
  2 C       -0.8970     3.3200    -0.9680 C.ar  1 <1>   0.1110 
  3 C       -1.4250     2.5550     0.0620 C.ar  1 <1>  -0.1440 
  4 C        0.2710     4.0450    -0.8310 C.ar  1 <1>  -0.1500 
  5 C       -0.7390     2.5210     1.2680 C.ar  1 <1>  -0.1500 
  6 C       -2.7140     1.7790    -0.1200 C.3   1 <1>   0.4870 
  7 C        0.9390     4.0040     0.3790 C.ar  1 <1>  -0.1500 
  8 C        0.4350     3.2440     1.4230 C.ar  1 <1>  -0.1500 
  9 N       -3.8520     2.7330    -0.1710 N.4   1 <1>  -0.9590 
 10 C       -3.9920     3.5320     1.1030 C.3   1 <1>   0.3430 
 11 C       -5.1490     2.0510    -0.5230 C.3   1 <1>   0.3430 
 12 C       -5.1630     4.5310     1.0410 C.3   1 <1>   0.2090 
 13 C       -6.3280     3.0410    -0.5990 C.3   1 <1>   0.2090 
 14 N       -6.4330     3.8470     0.6540 N.pl3 1 <1>  -0.8380 
 15 C       -7.5710     4.6640     0.7200 C.ar  1 <1>   0.1000 
 16 C       -7.7960     5.7680    -0.1250 C.ar  1 <1>   0.0830 
 17 C       -8.5220     4.3530     1.6800 C.ar  1 <1>  -0.1500 
 18 O       -6.8500     6.0680    -1.0710 O.3   1 <1>  -0.3630 
 19 C       -8.9610     6.5170     0.0210 C.ar  1 <1>  -0.1500 
 20 C       -9.6750     5.1020     1.8180 C.ar  1 <1>  -0.1500 
 21 C       -7.0060     7.1750    -1.9340 C.3   1 <1>   0.0400 
 22 C       -9.8950     6.1850     0.9880 C.ar  1 <1>  -0.1500 
 23 H        0.6530     4.6280    -1.6520 H     1 <1>   0.1500 
 24 H       -1.0990     1.9350     2.0970 H     1 <1>   0.1500 
 25 H       -2.8450     1.0870     0.6960 H     1 <1>   0.0800 
 26 H       -2.6620     1.2160    -1.0390 H     1 <1>   0.0800 
 27 H        1.8520     4.5610     0.5100 H     1 <1>   0.1500 
 28 H        0.9660     3.2140     2.3610 H     1 <1>   0.1500 
 29 H       -3.6430     3.4070    -0.9200 H     1 <1>   0.4500 
 30 H       -3.0820     4.0760     1.2990 H     1 <1>   0.0800 
 31 H       -4.1650     2.8660     1.9310 H     1 <1>   0.0800 
 32 H       -5.3840     1.3110     0.2240 H     1 <1>   0.0800 
 33 H       -5.0550     1.5490    -1.4720 H     1 <1>   0.0800 
 34 H       -4.9340     5.3110     0.3360 H     1 <1>   0.0800 
 35 H       -5.2930     4.9910     2.0070 H     1 <1>   0.0800 
 36 H       -7.2450     2.4950    -0.7410 H     1 <1>   0.0800 
 37 H       -6.1990     3.6910    -1.4460 H     1 <1>   0.0800 
 38 H       -8.3510     3.5110     2.3260 H     1 <1>   0.1500 
 39 H       -9.1690     7.3640    -0.6040 H     1 <1>   0.1500 
 40 H      -10.4000     4.8430     2.5700 H     1 <1>   0.1500 
 41 H       -6.1470     7.2220    -2.5790 H     1 <1>   0.0800 
 42 H       -7.0680     8.0730    -1.3450 H     1 <1>   0.0800 
 43 H       -7.8960     7.0380    -2.5230 H     1 <1>   0.0800 
 44 H      -10.7920     6.7690     1.0940 H     1 <1>   0.1500 
@<TRIPOS>BOND
  1   1   2  1   
  2   2   3  ar  
  3   2   4  ar  
  4   3   5  ar  
  5   3   6  1   
  6   4   7  ar  
  7   4  23  1   
  8   5   8  ar  
  9   5  24  1   
 10   6   9  1   
 11   6  25  1   
 12   6  26  1   
 13   7   8  ar  
 14   7  27  1   
 15   8  28  1   
 16   9  10  1   
 17   9  11  1   
 18   9  29  1   
 19  10  12  1   
 20  10  30  1   
 21  10  31  1   
 22  11  13  1   
 23  11  32  1   
 24  11  33  1   
 25  12  14  1   
 26  12  34  1   
 27  12  35  1   
 28  13  14  1   
 29  13  36  1   
 30  13  37  1   
 31  14  15  1   
 32  15  16  ar  
 33  15  17  ar  
 34  16  18  1   
 35  16  19  ar  
 36  17  20  ar  
 37  17  38  1   
 38  18  21  1   
 39  19  22  ar  
 40  19  39  1   
 41  20  22  ar  
 42  20  40  1   
 43  21  41  1   
 44  21  42  1   
 45  21  43  1   
 46  22  44  1   
@<TRIPOS>SUBSTRUCTURE
  1 ****  12 GROUP 4 **** **** 0

# MOE 2024.06 (io_trps.svl 2023.06)
