@<TRIPOS>MOLECULE
NONAME
34 34 1 0 0 
SMALL
USER_CHARGES


@<TRIPOS>ATOM
  1 O       -0.9210     0.0340    -1.6200 O.2   1 <1>  -0.5700 
  2 C       -1.6080     0.8410    -1.0130 C.2   1 <1>   0.7060 
  3 O       -2.7570     0.3740    -0.5040 O.3   1 <1>  -0.2270 
  4 C       -1.2410     2.2020    -0.8090 C.2   1 <1>   0.0290 
  5 C       -3.5730     1.1410     0.2130 C.2   1 <1>  -0.0610 
  6 C       -2.0900     3.0270    -0.0780 C.2   1 <1>   0.1000 
  7 C        0.0080     2.5950    -1.3510 C.2   1 <1>   0.4950 
  8 C       -3.2740     2.4370     0.4390 C.2   1 <1>  -0.1500 
  9 C       -4.8110     0.4270     0.7170 C.3   1 <1>  -0.1020 
 10 N       -1.9070     4.3460     0.2310 N.pl3 1 <1>  -0.8690 
 11 O        0.1280     3.3800    -2.2670 O.2   1 <1>  -0.5700 
 12 C        1.2930     2.0320    -0.7560 C.3   1 <1>  -0.0990 
 13 C       -1.0850     5.3630    -0.4490 C.3   1 <1>   0.3470 
 14 C        1.9730     3.0390     0.1830 C.3   1 <1>  -0.1600 
 15 C       -1.5640     6.7070     0.0530 C.2   1 <1>  -0.2880 
 16 C        3.2540     2.4580     0.7890 C.3   1 <1>  -0.2400 
 17 C       -0.8560     7.5530     0.8090 C.2   1 <1>  -0.3000 
 18 H       -3.9280     3.0660     1.0160 H     1 <1>   0.1500 
 19 H       -4.5260    -0.4000     1.3420 H     1 <1>   0.0800 
 20 H       -5.3800     0.0530    -0.1150 H     1 <1>   0.0800 
 21 H       -5.4300     1.0950     1.2880 H     1 <1>   0.0800 
 22 H       -2.5190     4.7930     0.9220 H     1 <1>   0.4000 
 23 H        1.9570     1.7810    -1.5640 H     1 <1>   0.0800 
 24 H        1.0800     1.1280    -0.2150 H     1 <1>   0.0800 
 25 H       -1.2180     5.3020    -1.5160 H     1 <1>   0.0800 
 26 H       -0.0460     5.2180    -0.2080 H     1 <1>   0.0800 
 27 H        1.2950     3.3080     0.9760 H     1 <1>   0.0800 
 28 H        2.2140     3.9330    -0.3680 H     1 <1>   0.0800 
 29 H       -2.5670     6.9220    -0.2730 H     1 <1>   0.1500 
 30 H        3.0350     1.5750     1.3630 H     1 <1>   0.0800 
 31 H        3.7150     3.1820     1.4380 H     1 <1>   0.0800 
 32 H        3.9550     2.2030     0.0130 H     1 <1>   0.0800 
 33 H       -1.2240     8.5050     1.1500 H     1 <1>   0.1500 
 34 H        0.1480     7.3670     1.1510 H     1 <1>   0.1500 
@<TRIPOS>BOND
  1   1   2  2   
  2   2   3  1   
  3   2   4  1   
  4   3   5  1   
  5   4   6  2   
  6   4   7  1   
  7   5   8  2   
  8   5   9  1   
  9   6   8  1   
 10   6  10  1   
 11   7  11  2   
 12   7  12  1   
 13   8  18  1   
 14   9  19  1   
 15   9  20  1   
 16   9  21  1   
 17  10  13  1   
 18  10  22  1   
 19  12  14  1   
 20  12  23  1   
 21  12  24  1   
 22  13  15  1   
 23  13  25  1   
 24  13  26  1   
 25  14  16  1   
 26  14  27  1   
 27  14  28  1   
 28  15  17  2   
 29  15  29  1   
 30  16  30  1   
 31  16  31  1   
 32  16  32  1   
 33  17  33  1   
 34  17  34  1   
@<TRIPOS>SUBSTRUCTURE
  1 ****   4 GROUP 4 **** **** 0

# MOE 2024.06 (io_trps.svl 2023.06)
