@<TRIPOS>MOLECULE
NONAME
37 37 1 0 0 
SMALL
USER_CHARGES


@<TRIPOS>ATOM
  1 CL       1.5700    -0.5550    -1.7090 Cl    1 <1>  -0.1770 
  2 C        0.7500    -1.9140    -0.9860 C.ar  1 <1>   0.1770 
  3 C       -0.4710    -2.3110    -1.4960 C.ar  1 <1>  -0.1500 
  4 C        1.3310    -2.5690     0.0820 C.ar  1 <1>  -0.1500 
  5 C       -1.1330    -3.3890    -0.9250 C.ar  1 <1>  -0.1440 
  6 C        0.6750    -3.6450     0.6550 C.ar  1 <1>  -0.1500 
  7 C       -0.5590    -4.0600     0.1550 C.ar  1 <1>   0.0830 
  8 C       -2.4670    -3.8370    -1.4770 C.3   1 <1>   0.4870 
  9 O       -1.2530    -5.1050     0.6850 O.3   1 <1>  -0.3630 
 10 N       -3.4470    -3.7080    -0.3720 N.4   1 <1>  -0.9060 
 11 C       -0.6100    -6.0280     1.5480 C.3   1 <1>   0.0400 
 12 C       -4.7980    -4.2820    -0.6810 C.3   1 <1>   0.3430 
 13 C       -5.7830    -4.2290     0.5240 C.3   1 <1>   0.3430 
 14 N       -7.1640    -4.7720     0.2390 N.4   1 <1>  -0.9590 
 15 C       -8.0740    -4.5000     1.4030 C.3   1 <1>   0.2630 
 16 C       -7.1870    -6.2480    -0.0520 C.3   1 <1>   0.2630 
 17 H       -0.8740    -1.7680    -2.3340 H     1 <1>   0.1500 
 18 H        2.2840    -2.2370     0.4560 H     1 <1>   0.1500 
 19 H        1.1440    -4.1370     1.4880 H     1 <1>   0.1500 
 20 H       -2.3900    -4.8640    -1.7980 H     1 <1>   0.0800 
 21 H       -2.7510    -3.2250    -2.3180 H     1 <1>   0.0800 
 22 H       -3.4630    -2.7140    -0.1050 H     1 <1>   0.4500 
 23 H       -2.9700    -4.2030     0.4060 H     1 <1>   0.4500 
 24 H       -1.2820    -6.8450     1.7410 H     1 <1>   0.0800 
 25 H       -0.3630    -5.5370     2.4740 H     1 <1>   0.0800 
 26 H        0.2800    -6.4000     1.0680 H     1 <1>   0.0800 
 27 H       -4.6770    -5.3110    -0.9820 H     1 <1>   0.0800 
 28 H       -5.2290    -3.7370    -1.5060 H     1 <1>   0.0800 
 29 H       -5.8790    -3.2010     0.8340 H     1 <1>   0.0800 
 30 H       -5.3570    -4.7830     1.3450 H     1 <1>   0.0800 
 31 H       -7.5840    -4.2800    -0.5700 H     1 <1>   0.4500 
 32 H       -7.7180    -5.0010     2.2900 H     1 <1>   0.0800 
 33 H       -9.0720    -4.8540     1.1910 H     1 <1>   0.0800 
 34 H       -8.1280    -3.4420     1.6050 H     1 <1>   0.0800 
 35 H       -6.7890    -6.8040     0.7810 H     1 <1>   0.0800 
 36 H       -6.6070    -6.4760    -0.9320 H     1 <1>   0.0800 
 37 H       -8.2000    -6.5770    -0.2240 H     1 <1>   0.0800 
@<TRIPOS>BOND
  1   1   2  1   
  2   2   3  ar  
  3   2   4  ar  
  4   3   5  ar  
  5   3  17  1   
  6   4   6  ar  
  7   4  18  1   
  8   5   7  ar  
  9   5   8  1   
 10   6   7  ar  
 11   6  19  1   
 12   7   9  1   
 13   8  10  1   
 14   8  20  1   
 15   8  21  1   
 16   9  11  1   
 17  10  12  1   
 18  10  22  1   
 19  10  23  1   
 20  11  24  1   
 21  11  25  1   
 22  11  26  1   
 23  12  13  1   
 24  12  27  1   
 25  12  28  1   
 26  13  14  1   
 27  13  29  1   
 28  13  30  1   
 29  14  15  1   
 30  14  16  1   
 31  14  31  1   
 32  15  32  1   
 33  15  33  1   
 34  15  34  1   
 35  16  35  1   
 36  16  36  1   
 37  16  37  1   
@<TRIPOS>SUBSTRUCTURE
  1 ****  10 GROUP 4 **** **** 0

# MOE 2024.06 (io_trps.svl 2023.06)
