@<TRIPOS>MOLECULE
NONAME
39 39 1 0 0 
SMALL
USER_CHARGES


@<TRIPOS>ATOM
  1 O       -0.0090     3.4490     2.5770 O.2   1 <1>  -0.5700 
  2 C        0.2010     2.5750     1.7810 C.2   1 <1>   0.7200 
  3 O        0.1900     1.3110     2.2060 O.3   1 <1>  -0.4300 
  4 C        0.4630     2.9030     0.3170 C.3   1 <1>   0.0000 
  5 C        0.1960     0.1290     1.4310 C.3   1 <1>   0.0400 
  6 C       -0.7610     2.4560    -0.4490 C.2   1 <1>   0.7200 
  7 C        1.8750     2.8420    -0.2570 C.3   1 <1>   0.0000 
  8 C        1.1520     4.1690    -0.1540 C.3   1 <1>  -0.1900 
  9 O       -0.7490     1.4920    -1.1700 O.2   1 <1>  -0.5700 
 10 O       -1.8560     3.1850    -0.2790 O.3   1 <1>  -0.4300 
 11 C        2.1250     2.0960    -1.5490 C.2   1 <1>   0.7200 
 12 C        3.0910     2.5920     0.6070 C.2   1 <1>   0.7200 
 13 C        0.6530     4.8870    -1.4250 C.3   1 <1>  -0.1450 
 14 C        1.6410     5.2280     0.8560 C.3   1 <1>  -0.1450 
 15 C       -3.0700     2.8820    -0.9340 C.3   1 <1>   0.0400 
 16 O        2.2970     2.6550    -2.6020 O.2   1 <1>  -0.5700 
 17 O        2.1500     0.7710    -1.4520 O.3   1 <1>  -0.4300 
 18 O        4.0590     3.3060     0.5640 O.2   1 <1>  -0.5700 
 19 O        3.0380     1.5420     1.4140 O.3   1 <1>  -0.4300 
 20 C        2.3160    -0.0530    -2.5870 C.3   1 <1>   0.0400 
 21 C        4.0940     1.2210     2.2960 C.3   1 <1>   0.0400 
 22 H       -0.7600     0.0170     0.9510 H     1 <1>   0.0800 
 23 H        0.3630    -0.7020     2.0930 H     1 <1>   0.0800 
 24 H        0.9840     0.1700     0.7030 H     1 <1>   0.0800 
 25 H        1.4560     5.4500    -1.8670 H     1 <1>   0.0800 
 26 H        0.2860     4.2040    -2.1700 H     1 <1>   0.0800 
 27 H       -0.1440     5.5670    -1.1780 H     1 <1>   0.0800 
 28 H        0.8310     5.8810     1.1280 H     1 <1>   0.0800 
 29 H        2.0260     4.7900     1.7590 H     1 <1>   0.0800 
 30 H        2.4270     5.8200     0.4200 H     1 <1>   0.0800 
 31 H       -2.9110     2.9210    -1.9980 H     1 <1>   0.0800 
 32 H       -3.8050     3.6110    -0.6430 H     1 <1>   0.0800 
 33 H       -3.3890     1.8970    -0.6410 H     1 <1>   0.0800 
 34 H        1.5000     0.1250    -3.2660 H     1 <1>   0.0800 
 35 H        2.3140    -1.0800    -2.2670 H     1 <1>   0.0800 
 36 H        3.2530     0.1880    -3.0600 H     1 <1>   0.0800 
 37 H        3.8200     0.3410     2.8500 H     1 <1>   0.0800 
 38 H        4.2500     2.0480     2.9670 H     1 <1>   0.0800 
 39 H        4.9850     1.0360     1.7200 H     1 <1>   0.0800 
@<TRIPOS>BOND
  1   1   2  2   
  2   2   3  1   
  3   2   4  1   
  4   3   5  1   
  5   4   6  1   
  6   4   7  1   
  7   4   8  1   
  8   5  22  1   
  9   5  23  1   
 10   5  24  1   
 11   6   9  2   
 12   6  10  1   
 13   7   8  1   
 14   7  11  1   
 15   7  12  1   
 16   8  13  1   
 17   8  14  1   
 18  10  15  1   
 19  11  16  2   
 20  11  17  1   
 21  12  18  2   
 22  12  19  1   
 23  13  25  1   
 24  13  26  1   
 25  13  27  1   
 26  14  28  1   
 27  14  29  1   
 28  14  30  1   
 29  15  31  1   
 30  15  32  1   
 31  15  33  1   
 32  17  20  1   
 33  19  21  1   
 34  20  34  1   
 35  20  35  1   
 36  20  36  1   
 37  21  37  1   
 38  21  38  1   
 39  21  39  1   
@<TRIPOS>SUBSTRUCTURE
  1 ****   4 GROUP 4 **** **** 0

# MOE 2024.06 (io_trps.svl 2023.06)
