@<TRIPOS>MOLECULE
NONAME
42 44 1 0 0 
SMALL
USER_CHARGES


@<TRIPOS>ATOM
  1 S        0.7670     0.8170    -1.6640 S.3   1 <1>  -0.0800 
  2 C        1.7100     1.3270    -0.2600 C.2   1 <1>  -0.0450 
  3 C        0.7510    -0.8520    -1.1390 C.2   1 <1>  -0.1100 
  4 C        2.0750     2.7160    -0.1350 C.2   1 <1>   0.7150 
  5 C        1.9540     0.2390     0.5160 C.2   1 <1>  -0.1500 
  6 C        1.4170    -0.9860     0.0210 C.2   1 <1>  -0.1500 
  7 O        1.5290     3.5910    -0.7800 O.2   1 <1>  -0.5700 
  8 N        3.1220     3.1010     0.6730 N.am  1 <1>  -0.6600 
  9 C        4.4810     2.5710     0.3730 C.3   1 <1>   0.1400 
 10 C        3.1440     4.4960     1.2000 C.3   1 <1>   0.1400 
 11 C        5.1880     3.4930    -0.6450 C.3   1 <1>   0.3430 
 12 C        3.8230     5.4280     0.1790 C.3   1 <1>   0.3430 
 13 N        5.2000     4.9370    -0.2070 N.4   1 <1>  -0.9590 
 14 C        5.8090     5.8040    -1.2550 C.3   1 <1>   0.4860 
 15 C        5.9320     7.2340    -0.7360 C.ar  1 <1>  -0.1430 
 16 C        6.9260     7.6410     0.1660 C.ar  1 <1>  -0.1430 
 17 C        5.0020     8.1570    -1.1990 C.ar  1 <1>  -0.1500 
 18 C        6.9410     8.9690     0.5860 C.ar  1 <1>  -0.1500 
 19 C        7.9900     6.6640     0.7030 C.3   1 <1>   1.1630 
 20 C        5.0350     9.4690    -0.7690 C.ar  1 <1>  -0.1500 
 21 C        6.0030     9.8740     0.1260 C.ar  1 <1>  -0.1500 
 22 F        7.4180     5.7020     1.4230 F     1 <1>  -0.3400 
 23 F        8.6260     6.0410    -0.2800 F     1 <1>  -0.3400 
 24 F        8.9170     7.2130     1.4720 F     1 <1>  -0.3400 
 25 H        0.2370    -1.5640    -1.7600 H     1 <1>   0.1500 
 26 H        2.4990     0.2570     1.4440 H     1 <1>   0.1500 
 27 H        1.5500    -1.9110     0.5560 H     1 <1>   0.1500 
 28 H        4.4110     1.5780    -0.0380 H     1 <1>   0.0800 
 29 H        5.0550     2.5110     1.2820 H     1 <1>   0.0800 
 30 H        3.6680     4.5240     2.1400 H     1 <1>   0.0800 
 31 H        2.1360     4.8340     1.3760 H     1 <1>   0.0800 
 32 H        4.6700     3.4090    -1.5870 H     1 <1>   0.0800 
 33 H        6.1980     3.1460    -0.7920 H     1 <1>   0.0800 
 34 H        3.8870     6.4200     0.5960 H     1 <1>   0.0800 
 35 H        3.1940     5.4780    -0.6960 H     1 <1>   0.0800 
 36 H        5.7890     5.0040     0.6360 H     1 <1>   0.4500 
 37 H        5.1910     5.7960    -2.1380 H     1 <1>   0.0800 
 38 H        6.7810     5.4290    -1.5320 H     1 <1>   0.0800 
 39 H        4.2380     7.8710    -1.9040 H     1 <1>   0.1500 
 40 H        7.6860     9.3250     1.2810 H     1 <1>   0.1500 
 41 H        4.3100    10.1790    -1.1320 H     1 <1>   0.1500 
 42 H        6.0300    10.8980     0.4610 H     1 <1>   0.1500 
@<TRIPOS>BOND
  1   1   2  1   
  2   1   3  1   
  3   2   4  1   
  4   2   5  2   
  5   3   6  2   
  6   3  25  1   
  7   4   7  2   
  8   4   8  am  
  9   5   6  1   
 10   5  26  1   
 11   6  27  1   
 12   8   9  1   
 13   8  10  1   
 14   9  11  1   
 15   9  28  1   
 16   9  29  1   
 17  10  12  1   
 18  10  30  1   
 19  10  31  1   
 20  11  13  1   
 21  11  32  1   
 22  11  33  1   
 23  12  13  1   
 24  12  34  1   
 25  12  35  1   
 26  13  14  1   
 27  13  36  1   
 28  14  15  1   
 29  14  37  1   
 30  14  38  1   
 31  15  16  ar  
 32  15  17  ar  
 33  16  18  ar  
 34  16  19  1   
 35  17  20  ar  
 36  17  39  1   
 37  18  21  ar  
 38  18  40  1   
 39  19  22  1   
 40  19  23  1   
 41  19  24  1   
 42  20  21  ar  
 43  20  41  1   
 44  21  42  1   
@<TRIPOS>SUBSTRUCTURE
  1 ****  13 GROUP 4 **** **** 0

# MOE 2024.06 (io_trps.svl 2023.06)
