@<TRIPOS>MOLECULE
NONAME
43 44 1 0 0 
SMALL
USER_CHARGES


@<TRIPOS>ATOM
  1 S       -0.7190     1.0750    -0.1740 S.o2  1 <1>   1.4470 
  2 O       -1.2240     1.5040    -1.4600 O.2   1 <1>  -0.6500 
  3 O       -1.3660    -0.0240     0.5100 O.2   1 <1>  -0.6500 
  4 N       -0.7780     2.4070     0.8720 N.am  1 <1>  -0.8490 
  5 C        1.0570     0.7170    -0.2920 C.ar  1 <1>  -0.0090 
  6 C       -2.1470     2.6150     1.4350 C.3   1 <1>   0.2570 
  7 C       -0.2270     3.6170     0.2490 C.3   1 <1>   0.1960 
  8 C        1.8200     0.5140     0.8520 C.ar  1 <1>  -0.1500 
  9 C        1.6990     0.6390    -1.5240 C.ar  1 <1>  -0.1500 
 10 C       -3.2320     3.1470     0.4720 C.2   1 <1>   0.5690 
 11 C        0.0680     4.6850     1.3010 C.3   1 <1>  -0.2400 
 12 C        3.1760     0.2460     0.7740 C.ar  1 <1>  -0.1500 
 13 C        3.0540     0.3720    -1.6120 C.ar  1 <1>  -0.1500 
 14 O       -3.2670     4.3500     0.3260 O.2   1 <1>  -0.5700 
 15 N       -4.1280     2.3310    -0.1830 N.am  1 <1>  -0.6600 
 16 C        3.7950     0.1750    -0.4610 C.ar  1 <1>  -0.1500 
 17 C       -4.2910     0.8610     0.0210 C.3   1 <1>   0.1400 
 18 C       -4.9500     2.8640    -1.3090 C.3   1 <1>   0.1400 
 19 C       -5.7680     0.5210     0.2520 C.3   1 <1>  -0.1600 
 20 C       -6.4310     2.5510    -1.0760 C.3   1 <1>  -0.1600 
 21 C       -6.6600     1.0480    -0.8780 C.3   1 <1>  -0.1600 
 22 H       -2.0750     3.3260     2.2360 H     1 <1>   0.0800 
 23 H       -2.4810     1.7080     1.8990 H     1 <1>   0.0800 
 24 H       -0.8950     4.0010    -0.5060 H     1 <1>   0.0800 
 25 H        0.7020     3.3740    -0.2380 H     1 <1>   0.0800 
 26 H        1.3430     0.5670     1.8160 H     1 <1>   0.1500 
 27 H        1.1300     0.7900    -2.4270 H     1 <1>   0.1500 
 28 H       -0.8420     5.0980     1.6960 H     1 <1>   0.0800 
 29 H        0.6190     5.4870     0.8460 H     1 <1>   0.0800 
 30 H        0.6590     4.2720     2.0980 H     1 <1>   0.0800 
 31 H        3.7480     0.0910     1.6730 H     1 <1>   0.1500 
 32 H        3.5310     0.3160    -2.5750 H     1 <1>   0.1500 
 33 H        4.8490    -0.0340    -0.5260 H     1 <1>   0.1500 
 34 H       -3.7340     0.5140     0.8690 H     1 <1>   0.0800 
 35 H       -3.9270     0.3450    -0.8510 H     1 <1>   0.0800 
 36 H       -4.6180     2.4060    -2.2250 H     1 <1>   0.0800 
 37 H       -4.8220     3.9290    -1.4090 H     1 <1>   0.0800 
 38 H       -6.0800     0.9490     1.1890 H     1 <1>   0.0800 
 39 H       -5.8760    -0.5470     0.3280 H     1 <1>   0.0800 
 40 H       -7.0020     2.8970    -1.9190 H     1 <1>   0.0800 
 41 H       -6.7660     3.0920    -0.2080 H     1 <1>   0.0800 
 42 H       -7.6950     0.8640    -0.6450 H     1 <1>   0.0800 
 43 H       -6.4250     0.5280    -1.7910 H     1 <1>   0.0800 
@<TRIPOS>BOND
  1   1   2  2   
  2   1   3  2   
  3   1   4  am  
  4   1   5  1   
  5   4   6  1   
  6   4   7  1   
  7   5   8  ar  
  8   5   9  ar  
  9   6  10  1   
 10   6  22  1   
 11   6  23  1   
 12   7  11  1   
 13   7  24  1   
 14   7  25  1   
 15   8  12  ar  
 16   8  26  1   
 17   9  13  ar  
 18   9  27  1   
 19  10  14  2   
 20  10  15  am  
 21  11  28  1   
 22  11  29  1   
 23  11  30  1   
 24  12  16  ar  
 25  12  31  1   
 26  13  16  ar  
 27  13  32  1   
 28  15  17  1   
 29  15  18  1   
 30  16  33  1   
 31  17  19  1   
 32  17  34  1   
 33  17  35  1   
 34  18  20  1   
 35  18  36  1   
 36  18  37  1   
 37  19  21  1   
 38  19  38  1   
 39  19  39  1   
 40  20  21  1   
 41  20  40  1   
 42  20  41  1   
 43  21  42  1   
 44  21  43  1   
@<TRIPOS>SUBSTRUCTURE
  1 ****   1 GROUP 4 **** **** 0

# MOE 2024.06 (io_trps.svl 2023.06)
