@<TRIPOS>MOLECULE
NONAME
41 42 1 0 0 
SMALL
USER_CHARGES


@<TRIPOS>ATOM
  1 F       -0.5810    -1.0190     0.7390 F     1 <1>  -0.1900 
  2 C       -0.3270    -2.1830     0.2050 C.ar  1 <1>   0.1900 
  3 C        0.3750    -2.2340    -0.9830 C.ar  1 <1>  -0.1500 
  4 C       -0.7690    -3.3230     0.8480 C.ar  1 <1>  -0.1500 
  5 C        0.6410    -3.4710    -1.5450 C.ar  1 <1>  -0.1500 
  6 C       -0.4970    -4.5540     0.2760 C.ar  1 <1>  -0.1500 
  7 C        0.2060    -4.6380    -0.9230 C.ar  1 <1>  -0.1430 
  8 C        0.5080    -5.9970    -1.5550 C.3   1 <1>   0.5020 
  9 N       -0.7770    -6.6990    -1.7420 N.am  1 <1>  -0.7300 
 10 C        1.4990    -6.7900    -0.6960 C.2   1 <1>  -0.1240 
 11 C       -1.1410    -7.7780    -1.0330 C.2   1 <1>   0.6900 
 12 C        1.0730    -7.9180    -0.0580 C.2   1 <1>  -0.0290 
 13 C        2.8030    -6.1950    -0.7110 C.2   1 <1>   0.7060 
 14 O       -2.2680    -8.2110    -1.0970 O.2   1 <1>  -0.5700 
 15 N       -0.2260    -8.3620    -0.2230 N.am  1 <1>  -0.5390 
 16 C        1.9150    -8.8190     0.8410 C.3   1 <1>  -0.0220 
 17 O        3.1720    -5.4460    -1.5980 O.2   1 <1>  -0.5700 
 18 O        3.6590    -6.4760     0.2750 O.3   1 <1>  -0.4300 
 19 C        2.7640    -9.7800     0.0010 C.3   1 <1>  -0.1600 
 20 C        4.9860    -5.9930     0.3150 C.3   1 <1>   0.1200 
 21 C        3.6300   -10.6840     0.8850 C.3   1 <1>  -0.2400 
 22 C        5.8790    -6.9440    -0.4800 C.3   1 <1>  -0.2400 
 23 H        0.7070    -1.3250    -1.4520 H     1 <1>   0.1500 
 24 H       -1.3110    -3.2440     1.7730 H     1 <1>   0.1500 
 25 H        1.1970    -3.5210    -2.4670 H     1 <1>   0.1500 
 26 H       -0.8360    -5.4500     0.7690 H     1 <1>   0.1500 
 27 H        0.9330    -5.8520    -2.5340 H     1 <1>   0.0800 
 28 H       -1.5190    -6.1780    -2.2020 H     1 <1>   0.3700 
 29 H       -0.5710    -9.2010     0.2430 H     1 <1>   0.3700 
 30 H        1.2730    -9.3860     1.4920 H     1 <1>   0.0800 
 31 H        2.5460    -8.2320     1.4820 H     1 <1>   0.0800 
 32 H        3.4030    -9.2150    -0.6560 H     1 <1>   0.0800 
 33 H        2.1190   -10.3890    -0.6090 H     1 <1>   0.0800 
 34 H        5.2910    -5.9690     1.3470 H     1 <1>   0.0800 
 35 H        5.0180    -4.9910    -0.0810 H     1 <1>   0.0800 
 36 H        4.3000   -10.0920     1.4840 H     1 <1>   0.0800 
 37 H        4.2150   -11.3460     0.2720 H     1 <1>   0.0800 
 38 H        3.0130   -11.2780     1.5370 H     1 <1>   0.0800 
 39 H        5.8200    -7.9380    -0.0720 H     1 <1>   0.0800 
 40 H        6.8990    -6.6110    -0.4250 H     1 <1>   0.0800 
 41 H        5.5830    -6.9580    -1.5130 H     1 <1>   0.0800 
@<TRIPOS>BOND
  1   1   2  1   
  2   2   3  ar  
  3   2   4  ar  
  4   3   5  ar  
  5   3  23  1   
  6   4   6  ar  
  7   4  24  1   
  8   5   7  ar  
  9   5  25  1   
 10   6   7  ar  
 11   6  26  1   
 12   7   8  1   
 13   8   9  1   
 14   8  10  1   
 15   8  27  1   
 16   9  11  am  
 17   9  28  1   
 18  10  12  2   
 19  10  13  1   
 20  11  14  2   
 21  11  15  am  
 22  12  15  1   
 23  12  16  1   
 24  13  17  2   
 25  13  18  1   
 26  15  29  1   
 27  16  19  1   
 28  16  30  1   
 29  16  31  1   
 30  18  20  1   
 31  19  21  1   
 32  19  32  1   
 33  19  33  1   
 34  20  22  1   
 35  20  34  1   
 36  20  35  1   
 37  21  36  1   
 38  21  37  1   
 39  21  38  1   
 40  22  39  1   
 41  22  40  1   
 42  22  41  1   
@<TRIPOS>SUBSTRUCTURE
  1 ****  10 GROUP 4 **** **** 0

# MOE 2024.06 (io_trps.svl 2023.06)
