@<TRIPOS>MOLECULE
NONAME
40 42 1 0 0 
SMALL
USER_CHARGES


@<TRIPOS>ATOM
  1 O       -0.6850    -0.0100    -0.1360 O.2   1 <1>  -0.5700 
  2 C       -1.6500    -0.7500    -0.1100 C.2   1 <1>   0.7060 
  3 O       -2.8570    -0.1880    -0.1360 O.3   1 <1>  -0.2330 
  4 C       -1.5630    -2.1820    -0.0600 C.2   1 <1>  -0.1240 
  5 C       -4.0130    -0.8900    -0.1000 C.ar  1 <1>   0.0820 
  6 C       -2.6860    -2.9440    -0.0510 C.2   1 <1>  -0.1670 
  7 C       -0.1560    -2.7810    -0.0300 C.3   1 <1>  -0.0220 
  8 C       -3.9710    -2.2930    -0.0420 C.ar  1 <1>   0.0280 
  9 C       -5.2190    -0.1910    -0.1100 C.ar  1 <1>  -0.1440 
 10 C       -2.6270    -4.4730    -0.0420 C.3   1 <1>  -0.0220 
 11 C       -0.1530    -4.2550     0.3900 C.3   1 <1>  -0.1600 
 12 C       -5.1930    -2.9670     0.0320 C.ar  1 <1>  -0.1500 
 13 C       -6.4160    -0.8940    -0.0380 C.ar  1 <1>   0.0830 
 14 C       -5.2340     1.3370    -0.1880 C.3   1 <1>  -0.0960 
 15 C       -1.2330    -5.0240    -0.3710 C.3   1 <1>  -0.1600 
 16 C       -6.3900    -2.2860     0.0330 C.ar  1 <1>  -0.1500 
 17 O       -7.5750    -0.1890    -0.0310 O.3   1 <1>  -0.3630 
 18 C       -8.8380    -0.8070     0.0490 C.3   1 <1>   0.1200 
 19 C       -9.9060     0.2870     0.0330 C.3   1 <1>  -0.1600 
 20 C      -11.3160    -0.3070     0.1180 C.3   1 <1>  -0.2400 
 21 H        0.4630    -2.2280     0.6560 H     1 <1>   0.0800 
 22 H        0.2770    -2.6840    -1.0110 H     1 <1>   0.0800 
 23 H       -3.3140    -4.8710    -0.7680 H     1 <1>   0.0800 
 24 H       -2.9250    -4.8220     0.9310 H     1 <1>   0.0800 
 25 H       -0.3410    -4.3260     1.4470 H     1 <1>   0.0800 
 26 H        0.8150    -4.6840     0.1930 H     1 <1>   0.0800 
 27 H       -5.2180    -4.0380     0.0940 H     1 <1>   0.1500 
 28 H       -4.3470     1.7190    -0.6590 H     1 <1>   0.0800 
 29 H       -5.3020     1.7460     0.8040 H     1 <1>   0.0800 
 30 H       -6.0750     1.6820    -0.7610 H     1 <1>   0.0800 
 31 H       -1.0550    -4.9320    -1.4290 H     1 <1>   0.0800 
 32 H       -1.1900    -6.0690    -0.1170 H     1 <1>   0.0800 
 33 H       -7.2990    -2.8530     0.0920 H     1 <1>   0.1500 
 34 H       -8.8830    -1.3690     0.9650 H     1 <1>   0.0800 
 35 H       -8.9500    -1.4600    -0.7990 H     1 <1>   0.0800 
 36 H       -9.8150     0.8570    -0.8760 H     1 <1>   0.0800 
 37 H       -9.7480     0.9470     0.8690 H     1 <1>   0.0800 
 38 H      -11.5020    -0.9580    -0.7190 H     1 <1>   0.0800 
 39 H      -12.0480     0.4820     0.1050 H     1 <1>   0.0800 
 40 H      -11.4350    -0.8680     1.0280 H     1 <1>   0.0800 
@<TRIPOS>BOND
  1   1   2  2   
  2   2   3  1   
  3   2   4  1   
  4   3   5  1   
  5   4   6  2   
  6   4   7  1   
  7   5   8  ar  
  8   5   9  ar  
  9   6   8  1   
 10   6  10  1   
 11   7  11  1   
 12   7  21  1   
 13   7  22  1   
 14   8  12  ar  
 15   9  13  ar  
 16   9  14  1   
 17  10  15  1   
 18  10  23  1   
 19  10  24  1   
 20  11  15  1   
 21  11  25  1   
 22  11  26  1   
 23  12  16  ar  
 24  12  27  1   
 25  13  16  ar  
 26  13  17  1   
 27  14  28  1   
 28  14  29  1   
 29  14  30  1   
 30  15  31  1   
 31  15  32  1   
 32  16  33  1   
 33  17  18  1   
 34  18  19  1   
 35  18  34  1   
 36  18  35  1   
 37  19  20  1   
 38  19  36  1   
 39  19  37  1   
 40  20  38  1   
 41  20  39  1   
 42  20  40  1   
@<TRIPOS>SUBSTRUCTURE
  1 ****   5 GROUP 4 **** **** 0

# MOE 2024.06 (io_trps.svl 2023.06)
