@<TRIPOS>MOLECULE
NONAME
34 37 1 0 0 
SMALL
USER_CHARGES


@<TRIPOS>ATOM
  1 CL      -0.6210     0.6930     1.3870 Cl    1 <1>  -0.1770 
  2 C        0.7170     1.1750     0.3650 C.ar  1 <1>   0.1770 
  3 C        0.5770     2.2690    -0.4890 C.ar  1 <1>   0.1170 
  4 C        1.8910     0.4450     0.4310 C.ar  1 <1>  -0.1500 
  5 N       -0.6220     3.0020    -0.5450 N.am  1 <1>  -0.2370 
  6 C        1.6550     2.6220    -1.2910 C.ar  1 <1>  -0.1500 
  7 C        2.9600     0.8070    -0.3730 C.ar  1 <1>  -0.1500 
  8 C       -1.0270     3.9210     0.4030 C.2   1 <1>   0.5690 
  9 C       -1.6680     2.7490    -1.4110 C.2   1 <1>   0.5690 
 10 C        2.8270     1.8920    -1.2230 C.ar  1 <1>   0.1770 
 11 O       -0.3360     4.5080     1.1940 O.2   1 <1>  -0.5700 
 12 C       -2.5260     4.0220     0.3170 C.3   1 <1>  -0.0190 
 13 O       -1.7510     1.8620    -2.2200 O.2   1 <1>  -0.5700 
 14 C       -2.7010     3.8190    -1.1900 C.3   1 <1>  -0.0190 
 15 CL       4.1730     2.3470    -2.2350 Cl    1 <1>  -0.1770 
 16 C       -3.5740     5.0540     0.8170 C.3   1 <1>   0.0580 
 17 C       -4.2030     3.9720    -1.5410 C.3   1 <1>   0.0580 
 18 C       -3.9700     6.0410    -0.2880 C.2   1 <1>  -0.2880 
 19 C       -4.8720     4.2030     0.9350 C.3   1 <1>  -0.1600 
 20 C       -4.3470     5.4940    -1.4540 C.2   1 <1>  -0.2880 
 21 C       -5.1180     3.4250    -0.4060 C.3   1 <1>  -0.1600 
 22 H        1.9640    -0.3930     1.1010 H     1 <1>   0.1500 
 23 H        1.5870     3.4590    -1.9620 H     1 <1>   0.1500 
 24 H        3.8860     0.2590    -0.3440 H     1 <1>   0.1500 
 25 H       -2.7930     3.1020     0.8140 H     1 <1>   0.0800 
 26 H       -2.2240     4.6440    -1.6980 H     1 <1>   0.0800 
 27 H       -3.3040     5.5250     1.7470 H     1 <1>   0.0800 
 28 H       -4.4400     3.5860    -2.5180 H     1 <1>   0.0800 
 29 H       -3.9560     7.0880    -0.0360 H     1 <1>   0.1500 
 30 H       -5.7050     4.8570     1.1300 H     1 <1>   0.0800 
 31 H       -4.8100     3.5150     1.7610 H     1 <1>   0.0800 
 32 H       -4.7070     6.0080    -2.3300 H     1 <1>   0.1500 
 33 H       -4.9260     2.3740    -0.2700 H     1 <1>   0.0800 
 34 H       -6.1490     3.5340    -0.6950 H     1 <1>   0.0800 
@<TRIPOS>BOND
  1   1   2  1   
  2   2   3  ar  
  3   2   4  ar  
  4   3   5  1   
  5   3   6  ar  
  6   4   7  ar  
  7   4  22  1   
  8   5   8  am  
  9   5   9  am  
 10   6  10  ar  
 11   6  23  1   
 12   7  10  ar  
 13   7  24  1   
 14   8  11  2   
 15   8  12  1   
 16   9  13  2   
 17   9  14  1   
 18  10  15  1   
 19  12  14  1   
 20  12  16  1   
 21  12  25  1   
 22  14  17  1   
 23  14  26  1   
 24  16  18  1   
 25  16  19  1   
 26  16  27  1   
 27  17  20  1   
 28  17  21  1   
 29  17  28  1   
 30  18  20  2   
 31  18  29  1   
 32  19  21  1   
 33  19  30  1   
 34  19  31  1   
 35  20  32  1   
 36  21  33  1   
 37  21  34  1   
@<TRIPOS>SUBSTRUCTURE
  1 ****   5 GROUP 4 **** **** 0

# MOE 2024.06 (io_trps.svl 2023.06)
