@<TRIPOS>MOLECULE
NONAME
50 51 1 0 0 
SMALL
USER_CHARGES


@<TRIPOS>ATOM
  1 CL      -2.2830     3.0240    -3.7640 Cl    1 <1>  -0.1770 
  2 C       -2.3000     3.2390    -2.0320 C.ar  1 <1>   0.1770 
  3 C       -3.4320     2.8910    -1.3260 C.ar  1 <1>  -0.1500 
  4 C       -1.1850     3.7510    -1.3990 C.ar  1 <1>  -0.1500 
  5 C       -3.4670     3.0540     0.0540 C.ar  1 <1>   0.1000 
  6 C       -1.2120     3.9160    -0.0250 C.ar  1 <1>  -0.1500 
  7 N       -4.6100     2.7050     0.7690 N.pl3 1 <1>  -0.8380 
  8 C       -2.3420     3.5720     0.7030 C.ar  1 <1>  -0.1430 
  9 C       -5.7850     3.6250     0.7100 C.3   1 <1>   0.2090 
 10 C       -4.9120     1.2540     0.9560 C.3   1 <1>   0.2090 
 11 C       -2.3430     3.7640     2.2130 C.3   1 <1>  -0.0970 
 12 C       -6.8750     3.1010    -0.2490 C.3   1 <1>   0.3430 
 13 C       -6.0230     0.7670     0.0010 C.3   1 <1>   0.3430 
 14 N       -7.2340     1.6610     0.0150 N.4   1 <1>  -0.9590 
 15 C       -8.3520     1.1680    -0.8470 C.3   1 <1>   0.3430 
 16 C       -9.7020     1.6980    -0.3200 C.3   1 <1>   0.2000 
 17 O       -9.6520     1.7740     1.0720 O.3   1 <1>  -0.6800 
 18 C      -10.8960     0.8160    -0.7100 C.3   1 <1>   0.1200 
 19 O      -11.9910     1.2080     0.0630 O.3   1 <1>  -0.5600 
 20 C      -13.1730     0.5120    -0.1640 C.3   1 <1>   0.2000 
 21 C      -13.9100     1.1620    -1.3350 C.3   1 <1>  -0.2400 
 22 C      -13.9870     0.6080     1.1210 C.3   1 <1>  -0.2400 
 23 H       -4.2760     2.4980    -1.8530 H     1 <1>   0.1500 
 24 H       -0.3140     4.0140    -1.9720 H     1 <1>   0.1500 
 25 H       -0.3450     4.3150     0.4730 H     1 <1>   0.1500 
 26 H       -5.4600     4.5990     0.3840 H     1 <1>   0.0800 
 27 H       -6.1950     3.7340     1.6980 H     1 <1>   0.0800 
 28 H       -5.2130     1.0890     1.9750 H     1 <1>   0.0800 
 29 H       -4.0170     0.6790     0.7860 H     1 <1>   0.0800 
 30 H       -2.5110     2.8200     2.7000 H     1 <1>   0.0800 
 31 H       -3.1290     4.4410     2.4940 H     1 <1>   0.0800 
 32 H       -1.4070     4.1640     2.5570 H     1 <1>   0.0800 
 33 H       -6.5120     3.2030    -1.2570 H     1 <1>   0.0800 
 34 H       -7.7510     3.7200    -0.1460 H     1 <1>   0.0800 
 35 H       -6.3040    -0.2350     0.2780 H     1 <1>   0.0800 
 36 H       -5.6160     0.7320    -0.9950 H     1 <1>   0.0800 
 37 H       -7.6500     1.6440     0.9680 H     1 <1>   0.4500 
 38 H       -8.3810     0.0920    -0.8070 H     1 <1>   0.0800 
 39 H       -8.2070     1.4590    -1.8740 H     1 <1>   0.0800 
 40 H       -9.8740     2.6930    -0.6930 H     1 <1>   0.0800 
 41 H      -10.5930     1.7930     1.3810 H     1 <1>   0.4000 
 42 H      -10.6870    -0.2210    -0.5050 H     1 <1>   0.0800 
 43 H      -11.1340     0.9380    -1.7530 H     1 <1>   0.0800 
 44 H      -12.9490    -0.5230    -0.3720 H     1 <1>   0.0800 
 45 H      -14.0750     2.2060    -1.1380 H     1 <1>   0.0800 
 46 H      -14.8650     0.6870    -1.4690 H     1 <1>   0.0800 
 47 H      -13.3570     1.0510    -2.2480 H     1 <1>   0.0800 
 48 H      -14.1990     1.6360     1.3560 H     1 <1>   0.0800 
 49 H      -13.4470     0.1610     1.9350 H     1 <1>   0.0800 
 50 H      -14.9190     0.0850     1.0060 H     1 <1>   0.0800 
@<TRIPOS>BOND
  1   1   2  1   
  2   2   3  ar  
  3   2   4  ar  
  4   3   5  ar  
  5   3  23  1   
  6   4   6  ar  
  7   4  24  1   
  8   5   7  1   
  9   5   8  ar  
 10   6   8  ar  
 11   6  25  1   
 12   7   9  1   
 13   7  10  1   
 14   8  11  1   
 15   9  12  1   
 16   9  26  1   
 17   9  27  1   
 18  10  13  1   
 19  10  28  1   
 20  10  29  1   
 21  11  30  1   
 22  11  31  1   
 23  11  32  1   
 24  12  14  1   
 25  12  33  1   
 26  12  34  1   
 27  13  14  1   
 28  13  35  1   
 29  13  36  1   
 30  14  15  1   
 31  14  37  1   
 32  15  16  1   
 33  15  38  1   
 34  15  39  1   
 35  16  17  1   
 36  16  18  1   
 37  16  40  1   
 38  17  41  1   
 39  18  19  1   
 40  18  42  1   
 41  18  43  1   
 42  19  20  1   
 43  20  21  1   
 44  20  22  1   
 45  20  44  1   
 46  21  45  1   
 47  21  46  1   
 48  21  47  1   
 49  22  48  1   
 50  22  49  1   
 51  22  50  1   
@<TRIPOS>SUBSTRUCTURE
  1 ****  14 GROUP 4 **** **** 0

# MOE 2024.06 (io_trps.svl 2023.06)
