@<TRIPOS>MOLECULE
NONAME
55 59 1 0 0 
SMALL
USER_CHARGES


@<TRIPOS>ATOM
  1 O        0.9950    -0.1300    -1.4110 O.3   1 <1>  -0.3630 
  2 C        2.1180    -0.5040    -0.7470 C.ar  1 <1>   0.0830 
  3 C        0.9070     1.1240    -2.0490 C.3   1 <1>   0.0400 
  4 C        3.2550     0.2890    -0.6380 C.ar  1 <1>  -0.1500 
  5 C        2.1010    -1.7560    -0.1530 C.ar  1 <1>  -0.1500 
  6 C        4.3670    -0.1610     0.0580 C.ar  1 <1>   0.1000 
  7 C        3.2040    -2.2150     0.5440 C.ar  1 <1>  -0.1500 
  8 N        5.4920     0.6510     0.1520 N.pl3 1 <1>  -0.8380 
  9 C        4.3310    -1.4210     0.6480 C.ar  1 <1>  -0.1500 
 10 C        6.6870     0.2030    -0.6170 C.3   1 <1>   0.2090 
 11 C        5.7920     1.2010     1.5050 C.3   1 <1>   0.2090 
 12 C        7.7550     1.3150    -0.6640 C.3   1 <1>   0.3430 
 13 C        6.8820     2.2910     1.4260 C.3   1 <1>   0.3430 
 14 N        8.1270     1.8270     0.7070 N.4   1 <1>  -0.9590 
 15 C        9.1800     2.8950     0.7760 C.3   1 <1>   0.4230 
 16 C        9.0950     4.0370    -0.2680 C.3   1 <1>  -0.0800 
 17 C       10.6150     2.3290     0.8150 C.3   1 <1>  -0.0800 
 18 C        9.6450     3.6490    -1.6650 C.3   1 <1>  -0.1600 
 19 C        9.9930     5.1730     0.2700 C.3   1 <1>  -0.1600 
 20 C       11.1320     1.9200    -0.5840 C.3   1 <1>  -0.1600 
 21 C       11.5190     3.4610     1.3490 C.3   1 <1>  -0.1600 
 22 C       11.0860     3.1260    -1.5430 C.3   1 <1>  -0.0800 
 23 C       11.4520     4.6810     0.4060 C.3   1 <1>  -0.0800 
 24 C       11.9690     4.2540    -0.9790 C.3   1 <1>  -0.1600 
 25 H       -0.0640     1.1990    -2.5040 H     1 <1>   0.0800 
 26 H        1.6700     1.1850    -2.8050 H     1 <1>   0.0800 
 27 H        1.0270     1.8990    -1.3140 H     1 <1>   0.0800 
 28 H        3.3030     1.2620    -1.0840 H     1 <1>   0.1500 
 29 H        1.2180    -2.3640    -0.2410 H     1 <1>   0.1500 
 30 H        3.1810    -3.1890     1.0010 H     1 <1>   0.1500 
 31 H        5.1850    -1.7820     1.1890 H     1 <1>   0.1500 
 32 H        6.3860    -0.0440    -1.6220 H     1 <1>   0.0800 
 33 H        7.0980    -0.6840    -0.1690 H     1 <1>   0.0800 
 34 H        6.1120     0.4070     2.1570 H     1 <1>   0.0800 
 35 H        4.8920     1.6250     1.9190 H     1 <1>   0.0800 
 36 H        7.3550     2.1250    -1.2490 H     1 <1>   0.0800 
 37 H        8.6240     0.9370    -1.1710 H     1 <1>   0.0800 
 38 H        7.1320     2.6030     2.4270 H     1 <1>   0.0800 
 39 H        6.4670     3.1400     0.9100 H     1 <1>   0.0800 
 40 H        8.4930     1.0240     1.2310 H     1 <1>   0.4500 
 41 H        9.0480     3.3710     1.7340 H     1 <1>   0.0800 
 42 H        8.0850     4.4000    -0.3480 H     1 <1>   0.0800 
 43 H       10.6720     1.4960     1.4930 H     1 <1>   0.0800 
 44 H        9.0360     2.9210    -2.1620 H     1 <1>   0.0800 
 45 H        9.6410     4.5190    -2.3010 H     1 <1>   0.0800 
 46 H        9.6350     5.5130     1.2270 H     1 <1>   0.0800 
 47 H        9.9590     6.0180    -0.3980 H     1 <1>   0.0800 
 48 H       10.5660     1.1020    -0.9840 H     1 <1>   0.0800 
 49 H       12.1500     1.5780    -0.5000 H     1 <1>   0.0800 
 50 H       12.5380     3.1160     1.4210 H     1 <1>   0.0800 
 51 H       11.2120     3.7510     2.3390 H     1 <1>   0.0800 
 52 H       11.4550     2.8370    -2.5140 H     1 <1>   0.0800 
 53 H       12.0710     5.4750     0.7920 H     1 <1>   0.0800 
 54 H       11.9590     5.0970    -1.6480 H     1 <1>   0.0800 
 55 H       12.9890     3.9180    -0.9020 H     1 <1>   0.0800 
@<TRIPOS>BOND
  1   1   2  1   
  2   1   3  1   
  3   2   4  ar  
  4   2   5  ar  
  5   3  25  1   
  6   3  26  1   
  7   3  27  1   
  8   4   6  ar  
  9   4  28  1   
 10   5   7  ar  
 11   5  29  1   
 12   6   8  1   
 13   6   9  ar  
 14   7   9  ar  
 15   7  30  1   
 16   8  10  1   
 17   8  11  1   
 18   9  31  1   
 19  10  12  1   
 20  10  32  1   
 21  10  33  1   
 22  11  13  1   
 23  11  34  1   
 24  11  35  1   
 25  12  14  1   
 26  12  36  1   
 27  12  37  1   
 28  13  14  1   
 29  13  38  1   
 30  13  39  1   
 31  14  15  1   
 32  14  40  1   
 33  15  16  1   
 34  15  17  1   
 35  15  41  1   
 36  16  18  1   
 37  16  19  1   
 38  16  42  1   
 39  17  20  1   
 40  17  21  1   
 41  17  43  1   
 42  18  22  1   
 43  18  44  1   
 44  18  45  1   
 45  19  23  1   
 46  19  46  1   
 47  19  47  1   
 48  20  22  1   
 49  20  48  1   
 50  20  49  1   
 51  21  23  1   
 52  21  50  1   
 53  21  51  1   
 54  22  24  1   
 55  22  52  1   
 56  23  24  1   
 57  23  53  1   
 58  24  54  1   
 59  24  55  1   
@<TRIPOS>SUBSTRUCTURE
  1 ****  12 GROUP 4 **** **** 0

# MOE 2024.06 (io_trps.svl 2023.06)
