@<TRIPOS>MOLECULE
NONAME
52 54 1 0 0 
SMALL
USER_CHARGES


@<TRIPOS>ATOM
  1 S       -0.0710     0.0040     0.9220 S.3   1 <1>  -0.0800 
  2 C        0.1180     1.5800     0.1690 C.2   1 <1>   0.1040 
  3 C       -1.7960     0.0250     0.6420 C.2   1 <1>  -0.1400 
  4 N        1.3740     2.1610     0.0690 N.am  1 <1>  -0.4940 
  5 C       -1.0900     2.0750    -0.2540 C.2   1 <1>  -0.0860 
  6 C       -2.1740     1.1460     0.0100 C.2   1 <1>  -0.1810 
  7 C       -2.6410    -1.1430     1.1000 C.3   1 <1>   0.0200 
  8 C        2.6270     1.7770     0.4750 C.2   1 <1>   0.5690 
  9 C       -1.2200     3.3730    -0.8680 C.2   1 <1>   0.8060 
 10 C       -3.6410     1.3490    -0.3620 C.3   1 <1>   0.0210 
 11 C       -4.1240    -0.7400     1.0430 C.3   1 <1>  -0.1600 
 12 O        2.8610     0.7520     1.0640 O.2   1 <1>  -0.5700 
 13 C        3.7790     2.7270     0.1410 C.3   1 <1>  -0.0190 
 14 O       -0.2550     4.0570    -1.1730 O.2   1 <1>  -0.5700 
 15 O       -2.4380     3.8700    -1.1050 O.3   1 <1>  -0.4300 
 16 C       -4.4500     0.0410    -0.2440 C.3   1 <1>  -0.1600 
 17 C        4.4470     2.3330    -1.1890 C.3   1 <1>  -0.1600 
 18 C        4.8360     2.7890     1.2620 C.3   1 <1>  -0.1600 
 19 C       -2.6300     5.1390    -1.6910 C.3   1 <1>   0.1200 
 20 C        5.6140     3.2630    -1.5350 C.3   1 <1>   0.1400 
 21 C        5.9920     3.7220     0.8950 C.3   1 <1>   0.1400 
 22 C       -4.1320     5.3730    -1.8220 C.3   1 <1>  -0.2400 
 23 N        6.5830     3.2940    -0.4040 N.am  1 <1>  -0.6600 
 24 C        7.8930     2.9310    -0.5920 C.2   1 <1>   0.5690 
 25 O        8.3320     2.6340    -1.6770 O.2   1 <1>  -0.5700 
 26 C        8.8570     2.8900     0.5700 C.3   1 <1>  -0.1790 
 27 H        1.3490     3.0610    -0.4210 H     1 <1>   0.3700 
 28 H       -2.3740    -1.4210     2.1040 H     1 <1>   0.0800 
 29 H       -2.4560    -1.9800     0.4510 H     1 <1>   0.0800 
 30 H       -3.7200     1.7020    -1.3740 H     1 <1>   0.0800 
 31 H       -4.0620     2.0940     0.2910 H     1 <1>   0.0800 
 32 H       -4.3480    -0.1180     1.8930 H     1 <1>   0.0800 
 33 H       -4.7370    -1.6220     1.1070 H     1 <1>   0.0800 
 34 H        3.3700     3.7150     0.0290 H     1 <1>   0.0800 
 35 H       -4.2240    -0.5830    -1.0920 H     1 <1>   0.0800 
 36 H       -5.5010     0.2690    -0.2760 H     1 <1>   0.0800 
 37 H        3.7250     2.3620    -1.9850 H     1 <1>   0.0800 
 38 H        4.8180     1.3240    -1.1230 H     1 <1>   0.0800 
 39 H        5.2320     1.8050     1.4470 H     1 <1>   0.0800 
 40 H        4.3770     3.1300     2.1730 H     1 <1>   0.0800 
 41 H       -2.1530     5.1470    -2.6570 H     1 <1>   0.0800 
 42 H       -2.1770     5.8820    -1.0560 H     1 <1>   0.0800 
 43 H        5.2520     4.2610    -1.7140 H     1 <1>   0.0800 
 44 H        6.0900     2.9170    -2.4370 H     1 <1>   0.0800 
 45 H        6.7230     3.7100     1.6820 H     1 <1>   0.0800 
 46 H        5.6300     4.7310     0.7960 H     1 <1>   0.0800 
 47 H       -4.5720     4.6210    -2.4510 H     1 <1>   0.0800 
 48 H       -4.3110     6.3360    -2.2650 H     1 <1>   0.0800 
 49 H       -4.5970     5.3520    -0.8520 H     1 <1>   0.0800 
 50 H        8.9690     3.8720     0.9880 H     1 <1>   0.0800 
 51 H        9.8180     2.5490     0.2310 H     1 <1>   0.0800 
 52 H        8.4970     2.2090     1.3180 H     1 <1>   0.0800 
@<TRIPOS>BOND
  1   1   2  1   
  2   1   3  1   
  3   2   4  1   
  4   2   5  2   
  5   3   6  2   
  6   3   7  1   
  7   4   8  am  
  8   4  27  1   
  9   5   6  1   
 10   5   9  1   
 11   6  10  1   
 12   7  11  1   
 13   7  28  1   
 14   7  29  1   
 15   8  12  2   
 16   8  13  1   
 17   9  14  2   
 18   9  15  1   
 19  10  16  1   
 20  10  30  1   
 21  10  31  1   
 22  11  16  1   
 23  11  32  1   
 24  11  33  1   
 25  13  17  1   
 26  13  18  1   
 27  13  34  1   
 28  15  19  1   
 29  16  35  1   
 30  16  36  1   
 31  17  20  1   
 32  17  37  1   
 33  17  38  1   
 34  18  21  1   
 35  18  39  1   
 36  18  40  1   
 37  19  22  1   
 38  19  41  1   
 39  19  42  1   
 40  20  23  1   
 41  20  43  1   
 42  20  44  1   
 43  21  23  1   
 44  21  45  1   
 45  21  46  1   
 46  22  47  1   
 47  22  48  1   
 48  22  49  1   
 49  23  24  am  
 50  24  25  2   
 51  24  26  1   
 52  26  50  1   
 53  26  51  1   
 54  26  52  1   
@<TRIPOS>SUBSTRUCTURE
  1 ****   4 GROUP 4 **** **** 0

# MOE 2024.06 (io_trps.svl 2023.06)
