@<TRIPOS>MOLECULE
NONAME
36 37 1 0 0 
SMALL
USER_CHARGES


@<TRIPOS>ATOM
  1 O        0.4940    -0.9780    -1.7850 O.2   1 <1>  -0.5700 
  2 C        0.2320    -1.5670    -0.7820 C.2   1 <1>   0.4480 
  3 C        1.2550    -1.7470     0.3130 C.3   1 <1>  -0.0380 
  4 C       -1.1410    -2.1640    -0.5290 C.3   1 <1>  -0.0990 
  5 C        1.3150    -3.2150     0.7020 C.2   1 <1>   0.3280 
  6 C       -1.0570    -3.6440    -0.0980 C.3   1 <1>   0.0000 
  7 N        2.3520    -3.9410     0.7450 N.2   1 <1>  -0.5120 
  8 C       -0.0460    -3.7960     1.0580 C.3   1 <1>  -0.0990 
  9 C       -0.6260    -4.5140    -1.2930 C.3   1 <1>  -0.2400 
 10 C       -2.4420    -4.1180     0.3690 C.3   1 <1>  -0.2400 
 11 N        3.6220    -3.4970     0.3960 N.am  1 <1>  -0.3680 
 12 C        4.8050    -4.2150     0.4610 C.2   1 <1>   0.5440 
 13 O        4.8050    -5.3740     0.8280 O.2   1 <1>  -0.5700 
 14 C        6.0470    -3.5830     0.0710 C.ar  1 <1>   0.0860 
 15 C        7.0810    -4.3470    -0.4680 C.ar  1 <1>   0.1600 
 16 C        6.2790    -2.2170     0.2050 C.ar  1 <1>  -0.1500 
 17 N        8.2530    -3.8880    -0.8820 N.ar  1 <1>  -0.6200 
 18 C        7.4940    -1.7210    -0.2170 C.ar  1 <1>  -0.1500 
 19 C        8.4340    -2.5850    -0.7480 C.ar  1 <1>   0.1600 
 20 H        0.9610    -1.1660     1.1660 H     1 <1>   0.0800 
 21 H        2.2010    -1.3800    -0.0320 H     1 <1>   0.0800 
 22 H       -1.7350    -2.0700    -1.4210 H     1 <1>   0.0800 
 23 H       -1.6170    -1.5850     0.2410 H     1 <1>   0.0800 
 24 H       -0.4110    -3.2940     1.9370 H     1 <1>   0.0800 
 25 H        0.0690    -4.8370     1.3080 H     1 <1>   0.0800 
 26 H        0.3350    -4.2180    -1.6730 H     1 <1>   0.0800 
 27 H       -1.3390    -4.4370    -2.0960 H     1 <1>   0.0800 
 28 H       -0.5610    -5.5480    -1.0020 H     1 <1>   0.0800 
 29 H       -2.7830    -3.5390     1.2090 H     1 <1>   0.0800 
 30 H       -2.4060    -5.1520     0.6650 H     1 <1>   0.0800 
 31 H       -3.1630    -4.0200    -0.4240 H     1 <1>   0.0800 
 32 H        3.7000    -2.5720    -0.0290 H     1 <1>   0.3700 
 33 H        6.9200    -5.4090    -0.5630 H     1 <1>   0.1500 
 34 H        5.5440    -1.5610     0.6350 H     1 <1>   0.1500 
 35 H        7.7190    -0.6720    -0.1340 H     1 <1>   0.1500 
 36 H        9.3810    -2.1890    -1.0760 H     1 <1>   0.1500 
@<TRIPOS>BOND
  1   1   2  2   
  2   2   3  1   
  3   2   4  1   
  4   3   5  1   
  5   3  20  1   
  6   3  21  1   
  7   4   6  1   
  8   4  22  1   
  9   4  23  1   
 10   5   7  2   
 11   5   8  1   
 12   6   8  1   
 13   6   9  1   
 14   6  10  1   
 15   7  11  1   
 16   8  24  1   
 17   8  25  1   
 18   9  26  1   
 19   9  27  1   
 20   9  28  1   
 21  10  29  1   
 22  10  30  1   
 23  10  31  1   
 24  11  12  am  
 25  11  32  1   
 26  12  13  2   
 27  12  14  1   
 28  14  15  ar  
 29  14  16  ar  
 30  15  17  ar  
 31  15  33  1   
 32  16  18  ar  
 33  16  34  1   
 34  17  19  ar  
 35  18  19  ar  
 36  18  35  1   
 37  19  36  1   
@<TRIPOS>SUBSTRUCTURE
  1 ****  11 GROUP 4 **** **** 0

# MOE 2024.06 (io_trps.svl 2023.06)
