@<TRIPOS>MOLECULE
NONAME
37 37 1 0 0 
SMALL
USER_CHARGES


@<TRIPOS>ATOM
  1 BR      -0.1890    -0.3470    -0.8290 Br    1 <1>  -0.1110 
  2 C       -1.6850     0.7700    -0.3620 C.ar  1 <1>   0.1110 
  3 C       -2.9610     0.2540    -0.4700 C.ar  1 <1>  -0.1500 
  4 C       -1.4420     2.0600     0.0700 C.ar  1 <1>  -0.1500 
  5 C       -4.0390     1.0580    -0.1340 C.ar  1 <1>   0.0830 
  6 C       -2.5210     2.8600     0.4050 C.ar  1 <1>  -0.1500 
  7 O       -5.2710     0.5040    -0.2580 O.3   1 <1>  -0.3630 
  8 C       -3.8130     2.3640     0.3040 C.ar  1 <1>  -0.1500 
  9 C       -6.4360     1.2270     0.0540 C.3   1 <1>   0.1200 
 10 C       -7.6300     0.3030    -0.2000 C.3   1 <1>  -0.1600 
 11 C       -8.9670     0.9930     0.1100 C.3   1 <1>  -0.1600 
 12 C      -10.1330     0.0410    -0.1530 C.3   1 <1>   0.3430 
 13 N      -11.4060     0.7350     0.1580 N.4   1 <1>  -0.9060 
 14 C      -12.6050    -0.0800    -0.0870 C.3   1 <1>   0.4230 
 15 C      -13.8060     0.8540    -0.0480 C.3   1 <1>  -0.2400 
 16 C      -12.7180    -1.1520     0.9930 C.3   1 <1>  -0.2400 
 17 H       -3.1180    -0.7520    -0.8090 H     1 <1>   0.1500 
 18 H       -0.4330     2.4260     0.1420 H     1 <1>   0.1500 
 19 H       -2.3560     3.8690     0.7440 H     1 <1>   0.1500 
 20 H       -4.6270     3.0100     0.5720 H     1 <1>   0.1500 
 21 H       -6.4760     2.0950    -0.5810 H     1 <1>   0.0800 
 22 H       -6.3850     1.5190     1.0890 H     1 <1>   0.0800 
 23 H       -7.5190    -0.5720     0.4190 H     1 <1>   0.0800 
 24 H       -7.6090    -0.0030    -1.2320 H     1 <1>   0.0800 
 25 H       -9.0610     1.8660    -0.5130 H     1 <1>   0.0800 
 26 H       -8.9700     1.2960     1.1430 H     1 <1>   0.0800 
 27 H      -10.0270    -0.8360     0.4660 H     1 <1>   0.0800 
 28 H      -10.1220    -0.2670    -1.1860 H     1 <1>   0.0800 
 29 H      -11.4750     1.5870    -0.4090 H     1 <1>   0.4500 
 30 H      -11.4130     1.0300     1.1410 H     1 <1>   0.4500 
 31 H      -12.5460    -0.5440    -1.0600 H     1 <1>   0.0800 
 32 H      -13.8990     1.3350     0.9110 H     1 <1>   0.0800 
 33 H      -14.7060     0.2910    -0.2240 H     1 <1>   0.0800 
 34 H      -13.7350     1.6000    -0.8190 H     1 <1>   0.0800 
 35 H      -12.7560    -0.7160     1.9760 H     1 <1>   0.0800 
 36 H      -11.9010    -1.8490     0.9400 H     1 <1>   0.0800 
 37 H      -13.6240    -1.7130     0.8460 H     1 <1>   0.0800 
@<TRIPOS>BOND
  1   1   2  1   
  2   2   3  ar  
  3   2   4  ar  
  4   3   5  ar  
  5   3  17  1   
  6   4   6  ar  
  7   4  18  1   
  8   5   7  1   
  9   5   8  ar  
 10   6   8  ar  
 11   6  19  1   
 12   7   9  1   
 13   8  20  1   
 14   9  10  1   
 15   9  21  1   
 16   9  22  1   
 17  10  11  1   
 18  10  23  1   
 19  10  24  1   
 20  11  12  1   
 21  11  25  1   
 22  11  26  1   
 23  12  13  1   
 24  12  27  1   
 25  12  28  1   
 26  13  14  1   
 27  13  29  1   
 28  13  30  1   
 29  14  15  1   
 30  14  16  1   
 31  14  31  1   
 32  15  32  1   
 33  15  33  1   
 34  15  34  1   
 35  16  35  1   
 36  16  36  1   
 37  16  37  1   
@<TRIPOS>SUBSTRUCTURE
  1 ****   9 GROUP 4 **** **** 0

# MOE 2024.06 (io_trps.svl 2023.06)
