@<TRIPOS>MOLECULE
NONAME
49 50 1 0 0 
SMALL
USER_CHARGES


@<TRIPOS>ATOM
  1 S       -0.6740    -0.4940    -0.5860 S.3   1 <1>  -0.3320 
  2 C        0.7830     0.4570    -0.0980 C.ar  1 <1>   0.1020 
  3 C       -0.2040    -2.2820    -0.5510 C.3   1 <1>   0.0700 
  4 C        0.7480     1.8490    -0.2240 C.ar  1 <1>   0.0860 
  5 C        1.9070    -0.1950     0.3890 C.ar  1 <1>  -0.1500 
  6 C       -1.3720    -3.0850    -1.1110 C.3   1 <1>   0.1200 
  7 C       -0.4110     2.5650    -0.7100 C.2   1 <1>   0.5440 
  8 C        1.8930     2.5570     0.1400 C.ar  1 <1>  -0.1500 
  9 C        3.0240     0.5360     0.7520 C.ar  1 <1>  -0.1500 
 10 O       -1.0320    -4.4330    -1.0610 O.3   1 <1>  -0.5600 
 11 O       -0.3740     3.0710    -1.8170 O.2   1 <1>  -0.5700 
 12 N       -1.5390     2.7300     0.0670 N.am  1 <1>  -0.6600 
 13 C        3.0170     1.9140     0.6240 C.ar  1 <1>  -0.1500 
 14 C       -2.0160    -5.2810    -1.5580 C.3   1 <1>   0.0400 
 15 C       -2.8030     3.2680    -0.5320 C.3   1 <1>   0.1400 
 16 C       -1.5890     2.2840     1.4920 C.3   1 <1>   0.1400 
 17 C       -4.0190     2.5670     0.0850 C.3   1 <1>  -0.0190 
 18 C       -2.7050     3.0090     2.2510 C.3   1 <1>  -0.1600 
 19 C       -5.3050     2.9930    -0.6040 C.2   1 <1>   0.6590 
 20 C       -4.0900     2.7950     1.6120 C.3   1 <1>  -0.1600 
 21 O       -5.4620     4.1000    -1.0520 O.2   1 <1>  -0.5700 
 22 O       -6.2570     2.0700    -0.6650 O.3   1 <1>  -0.4300 
 23 C       -7.5020     2.3380    -1.2650 C.3   1 <1>   0.1200 
 24 C       -8.3560     1.0780    -1.1670 C.3   1 <1>  -0.2400 
 25 H       -0.0080    -2.5460     0.4720 H     1 <1>   0.0800 
 26 H        0.6720    -2.3990    -1.1630 H     1 <1>   0.0800 
 27 H        1.9350    -1.2620     0.4960 H     1 <1>   0.1500 
 28 H       -1.5590    -2.8100    -2.1350 H     1 <1>   0.0800 
 29 H       -2.2560    -2.9280    -0.5160 H     1 <1>   0.0800 
 30 H        1.8910     3.6280     0.0340 H     1 <1>   0.1500 
 31 H        3.8990     0.0350     1.1300 H     1 <1>   0.1500 
 32 H        3.8880     2.4830     0.8990 H     1 <1>   0.1500 
 33 H       -1.6580    -6.2920    -1.4780 H     1 <1>   0.0800 
 34 H       -2.2030    -5.0430    -2.5910 H     1 <1>   0.0800 
 35 H       -2.9130    -5.1660    -0.9730 H     1 <1>   0.0800 
 36 H       -2.8000     3.1080    -1.5970 H     1 <1>   0.0800 
 37 H       -2.8550     4.3280    -0.3540 H     1 <1>   0.0800 
 38 H       -0.6450     2.4840     1.9680 H     1 <1>   0.0800 
 39 H       -1.7670     1.2220     1.5210 H     1 <1>   0.0800 
 40 H       -3.8960     1.5150    -0.1040 H     1 <1>   0.0800 
 41 H       -2.4730     4.0610     2.2590 H     1 <1>   0.0800 
 42 H       -2.7220     2.6770     3.2740 H     1 <1>   0.0800 
 43 H       -4.5700     1.9420     2.0620 H     1 <1>   0.0800 
 44 H       -4.6980     3.6580     1.8250 H     1 <1>   0.0800 
 45 H       -7.3330     2.6130    -2.2930 H     1 <1>   0.0800 
 46 H       -7.9620     3.1600    -0.7420 H     1 <1>   0.0800 
 47 H       -7.8780     0.2660    -1.6840 H     1 <1>   0.0800 
 48 H       -9.3150     1.2550    -1.6190 H     1 <1>   0.0800 
 49 H       -8.5070     0.8120    -0.1360 H     1 <1>   0.0800 
@<TRIPOS>BOND
  1   1   2  1   
  2   1   3  1   
  3   2   4  ar  
  4   2   5  ar  
  5   3   6  1   
  6   3  25  1   
  7   3  26  1   
  8   4   7  1   
  9   4   8  ar  
 10   5   9  ar  
 11   5  27  1   
 12   6  10  1   
 13   6  28  1   
 14   6  29  1   
 15   7  11  2   
 16   7  12  am  
 17   8  13  ar  
 18   8  30  1   
 19   9  13  ar  
 20   9  31  1   
 21  10  14  1   
 22  12  15  1   
 23  12  16  1   
 24  13  32  1   
 25  14  33  1   
 26  14  34  1   
 27  14  35  1   
 28  15  17  1   
 29  15  36  1   
 30  15  37  1   
 31  16  18  1   
 32  16  38  1   
 33  16  39  1   
 34  17  19  1   
 35  17  20  1   
 36  17  40  1   
 37  18  20  1   
 38  18  41  1   
 39  18  42  1   
 40  19  21  2   
 41  19  22  1   
 42  20  43  1   
 43  20  44  1   
 44  22  23  1   
 45  23  24  1   
 46  23  45  1   
 47  23  46  1   
 48  24  47  1   
 49  24  48  1   
 50  24  49  1   
@<TRIPOS>SUBSTRUCTURE
  1 ****  12 GROUP 4 **** **** 0

# MOE 2024.06 (io_trps.svl 2023.06)
