@<TRIPOS>MOLECULE
NONAME
39 39 1 0 0 
SMALL
USER_CHARGES


@<TRIPOS>ATOM
  1 N       -8.9560     2.8860     0.1690 N.ar  1 <1>  -0.6200 
  2 C       -9.4170     3.9640    -0.4590 C.ar  1 <1>   0.7200 
  3 C       -9.8770     2.0840     0.6480 C.ar  1 <1>   0.1660 
  4 N      -10.6730     4.3110    -0.6620 N.ar  1 <1>  -0.6200 
  5 N       -8.5180     4.8350    -0.9730 N.pl3 1 <1>  -0.8690 
  6 C      -11.2190     2.3500     0.4990 C.ar  1 <1>  -0.1500 
  7 C       -9.4090     0.8430     1.3790 C.3   1 <1>  -0.0970 
  8 C      -11.5730     3.4950    -0.1760 C.ar  1 <1>   0.1670 
  9 C       -7.1410     4.4500    -1.3450 C.3   1 <1>   0.2090 
 10 C      -13.0250     3.8670    -0.3880 C.3   1 <1>  -0.0970 
 11 C       -6.2690     4.3900    -0.0740 C.3   1 <1>   0.3430 
 12 N       -5.1490     3.3890    -0.1420 N.4   1 <1>  -0.9590 
 13 C       -5.6950     2.0020    -0.1540 C.3   1 <1>   0.3430 
 14 C       -4.2290     3.6100     1.0050 C.3   1 <1>   0.3430 
 15 C       -5.2090     1.3000    -1.4150 C.3   1 <1>  -0.2400 
 16 C       -2.9180     2.8670     0.7760 C.3   1 <1>  -0.2400 
 17 H       -8.9890     5.5180    -1.5710 H     1 <1>   0.4000 
 18 H      -11.9660     1.6890     0.8950 H     1 <1>   0.1500 
 19 H      -10.2450     0.2730     1.7430 H     1 <1>   0.0800 
 20 H       -8.7950     1.1240     2.2140 H     1 <1>   0.0800 
 21 H       -8.8360     0.2240     0.7130 H     1 <1>   0.0800 
 22 H       -6.7400     5.1730    -2.0340 H     1 <1>   0.0800 
 23 H       -7.1810     3.4920    -1.8330 H     1 <1>   0.0800 
 24 H      -13.2210     4.8230     0.0630 H     1 <1>   0.0800 
 25 H      -13.6810     3.1370     0.0490 H     1 <1>   0.0800 
 26 H      -13.2300     3.9340    -1.4410 H     1 <1>   0.0800 
 27 H       -6.9080     4.1380     0.7560 H     1 <1>   0.0800 
 28 H       -5.8720     5.3750     0.1060 H     1 <1>   0.0800 
 29 H       -4.6180     3.5340    -1.0100 H     1 <1>   0.4500 
 30 H       -6.7730     2.0190    -0.1450 H     1 <1>   0.0800 
 31 H       -5.3640     1.4590     0.7170 H     1 <1>   0.0800 
 32 H       -4.6900     3.2770     1.9210 H     1 <1>   0.0800 
 33 H       -4.0170     4.6630     1.1000 H     1 <1>   0.0800 
 34 H       -5.5600     1.8040    -2.2980 H     1 <1>   0.0800 
 35 H       -5.5990     0.2980    -1.4310 H     1 <1>   0.0800 
 36 H       -4.1360     1.2380    -1.4350 H     1 <1>   0.0800 
 37 H       -3.0650     1.8020     0.7750 H     1 <1>   0.0800 
 38 H       -2.2380     3.1000     1.5760 H     1 <1>   0.0800 
 39 H       -2.4590     3.1730    -0.1470 H     1 <1>   0.0800 
@<TRIPOS>BOND
  1   1   2  ar  
  2   1   3  ar  
  3   2   4  ar  
  4   2   5  1   
  5   3   6  ar  
  6   3   7  1   
  7   4   8  ar  
  8   5   9  1   
  9   5  17  1   
 10   6   8  ar  
 11   6  18  1   
 12   7  19  1   
 13   7  20  1   
 14   7  21  1   
 15   8  10  1   
 16   9  11  1   
 17   9  22  1   
 18   9  23  1   
 19  10  24  1   
 20  10  25  1   
 21  10  26  1   
 22  11  12  1   
 23  11  27  1   
 24  11  28  1   
 25  12  13  1   
 26  12  14  1   
 27  12  29  1   
 28  13  15  1   
 29  13  30  1   
 30  13  31  1   
 31  14  16  1   
 32  14  32  1   
 33  14  33  1   
 34  15  34  1   
 35  15  35  1   
 36  15  36  1   
 37  16  37  1   
 38  16  38  1   
 39  16  39  1   
@<TRIPOS>SUBSTRUCTURE
  1 ****   1 GROUP 4 **** **** 0

# MOE 2024.06 (io_trps.svl 2023.06)
