@<TRIPOS>MOLECULE
NONAME
36 37 1 0 0 
SMALL
USER_CHARGES


@<TRIPOS>ATOM
  1 O        7.8820     4.1060    -0.1620 O.co2 1 <1>  -0.9000 
  2 C        6.7690     3.6690    -0.5180 C.2   1 <1>   1.0320 
  3 O        6.0000     4.4210    -1.1430 O.co2 1 <1>  -0.9000 
  4 C        6.4380     2.2900    -0.2000 C.2   1 <1>  -0.0920 
  5 O        5.3470     1.6590    -0.6340 O.3   1 <1>  -0.2800 
  6 C        7.1600     1.4180     0.5500 C.2   1 <1>  -0.1500 
  7 C        5.3640     0.4180    -0.2020 C.2   1 <1>  -0.0400 
  8 C        6.4790     0.1990     0.5300 C.2   1 <1>  -0.1810 
  9 C        4.2070    -0.4830    -0.5930 C.3   1 <1>   0.0200 
 10 C        6.9690    -1.0610     1.1890 C.3   1 <1>   0.5240 
 11 C        2.9150    -0.0350     0.1010 C.3   1 <1>  -0.1600 
 12 N        7.9230    -1.7040     0.2490 N.4   1 <1>  -0.9590 
 13 C        1.7340    -0.9450    -0.2560 C.3   1 <1>  -0.2400 
 14 C        8.3550    -3.0620     0.6400 C.3   1 <1>   0.3430 
 15 C        9.1560    -0.9110     0.0220 C.3   1 <1>   0.3430 
 16 C        9.6090    -3.3020    -0.1890 C.3   1 <1>  -0.1600 
 17 C       10.1560    -1.9140    -0.5400 C.3   1 <1>  -0.1600 
 18 H        8.0840     1.6600     1.0480 H     1 <1>   0.1500 
 19 H        4.4260    -1.4990    -0.3240 H     1 <1>   0.0800 
 20 H        4.0780    -0.4340    -1.6600 H     1 <1>   0.0800 
 21 H        6.1330    -1.7140     1.3760 H     1 <1>   0.0800 
 22 H        7.4490    -0.8280     2.1250 H     1 <1>   0.0800 
 23 H        2.6900     0.9760    -0.1980 H     1 <1>   0.0800 
 24 H        3.0600    -0.0350     1.1670 H     1 <1>   0.0800 
 25 H        7.4450    -1.7440    -0.6600 H     1 <1>   0.4500 
 26 H        1.5590    -0.9330    -1.3180 H     1 <1>   0.0800 
 27 H        0.8430    -0.5960     0.2370 H     1 <1>   0.0800 
 28 H        1.9230    -1.9570     0.0560 H     1 <1>   0.0800 
 29 H        7.5950    -3.8000     0.4390 H     1 <1>   0.0800 
 30 H        8.6090    -3.0780     1.6880 H     1 <1>   0.0800 
 31 H        9.5210    -0.5200     0.9590 H     1 <1>   0.0800 
 32 H        8.9820    -0.0910    -0.6600 H     1 <1>   0.0800 
 33 H        9.3520    -3.8380    -1.0870 H     1 <1>   0.0800 
 34 H       10.3240    -3.8880     0.3640 H     1 <1>   0.0800 
 35 H       11.1280    -1.7460    -0.1090 H     1 <1>   0.0800 
 36 H       10.2310    -1.7940    -1.6070 H     1 <1>   0.0800 
@<TRIPOS>BOND
  1   1   2  ar  
  2   2   3  ar  
  3   2   4  1   
  4   4   5  1   
  5   4   6  2   
  6   5   7  1   
  7   6   8  1   
  8   6  18  1   
  9   7   8  2   
 10   7   9  1   
 11   8  10  1   
 12   9  11  1   
 13   9  19  1   
 14   9  20  1   
 15  10  12  1   
 16  10  21  1   
 17  10  22  1   
 18  11  13  1   
 19  11  23  1   
 20  11  24  1   
 21  12  14  1   
 22  12  15  1   
 23  12  25  1   
 24  13  26  1   
 25  13  27  1   
 26  13  28  1   
 27  14  16  1   
 28  14  29  1   
 29  14  30  1   
 30  15  17  1   
 31  15  31  1   
 32  15  32  1   
 33  16  17  1   
 34  16  33  1   
 35  16  34  1   
 36  17  35  1   
 37  17  36  1   
@<TRIPOS>SUBSTRUCTURE
  1 ****   8 GROUP 4 **** **** 0

# MOE 2024.06 (io_trps.svl 2023.06)
