@<TRIPOS>MOLECULE
NONAME
46 49 1 0 0 
SMALL
USER_CHARGES


@<TRIPOS>ATOM
  1 S        0.1440    -0.2580     1.4450 S.3   1 <1>  -0.0800 
  2 C        1.5470     0.6890     0.9740 C.2   1 <1>   0.1660 
  3 C       -0.9300     0.8680     0.6260 C.2   1 <1>  -0.1400 
  4 N        2.7890     0.3220     1.3120 N.2   1 <1>  -0.5760 
  5 C        1.1820     1.7810     0.2460 C.2   1 <1>  -0.0860 
  6 C       -0.2410     1.8620     0.0430 C.2   1 <1>  -0.1810 
  7 C       -2.4260     0.6490     0.6380 C.3   1 <1>   0.0200 
  8 C        3.7360     1.1150     0.9070 C.2   1 <1>   0.5600 
  9 C        2.2370     2.6330    -0.1710 C.2   1 <1>   0.7160 
 10 C       -0.9470     2.9590    -0.7410 C.3   1 <1>   0.0210 
 11 C       -3.1230     1.9350     0.1570 C.3   1 <1>  -0.1600 
 12 N        3.5250     2.3250     0.2470 N.am  1 <1>  -0.2370 
 13 N        4.9800     0.6580     1.1920 N.pl3 1 <1>  -0.8190 
 14 O        2.0290     3.6150    -0.8780 O.2   1 <1>  -0.5700 
 15 C       -2.4050     2.5640    -1.0560 C.3   1 <1>  -0.1600 
 16 C        4.5270     3.3230     0.1780 C.ar  1 <1>   0.1170 
 17 C        6.2560     0.8710     0.4610 C.3   1 <1>   0.2090 
 18 C        5.0440     3.8830     1.3410 C.ar  1 <1>  -0.1500 
 19 C        5.0280     3.7520    -1.0460 C.ar  1 <1>  -0.1500 
 20 C        7.0010    -0.4580     0.3030 C.3   1 <1>   0.1200 
 21 C        6.0480     4.8340     1.2820 C.ar  1 <1>  -0.1500 
 22 C        6.0310     4.7030    -1.1060 C.ar  1 <1>  -0.1500 
 23 O        8.1720    -0.2590    -0.4160 O.3   1 <1>  -0.6800 
 24 C        6.5500     5.2450     0.0590 C.ar  1 <1>  -0.1430 
 25 C        7.6500     6.2900    -0.0060 C.3   1 <1>  -0.0970 
 26 H       -2.7560     0.4010     1.6310 H     1 <1>   0.0800 
 27 H       -2.6620    -0.1700    -0.0180 H     1 <1>   0.0800 
 28 H       -0.4270     3.1440    -1.6650 H     1 <1>   0.0800 
 29 H       -0.9290     3.8640    -0.1600 H     1 <1>   0.0800 
 30 H       -3.1270     2.6490     0.9620 H     1 <1>   0.0800 
 31 H       -4.1460     1.7150    -0.0940 H     1 <1>   0.0800 
 32 H        4.9700    -0.1570     1.8100 H     1 <1>   0.4000 
 33 H       -2.4020     1.8510    -1.8630 H     1 <1>   0.0800 
 34 H       -2.9430     3.4340    -1.3890 H     1 <1>   0.0800 
 35 H        6.8680     1.5660     1.0120 H     1 <1>   0.0800 
 36 H        6.0510     1.2740    -0.5140 H     1 <1>   0.0800 
 37 H        4.6620     3.5680     2.2950 H     1 <1>   0.1500 
 38 H        4.6240     3.3440    -1.9550 H     1 <1>   0.1500 
 39 H        6.3990    -1.1760    -0.2260 H     1 <1>   0.0800 
 40 H        7.2740    -0.8500     1.2680 H     1 <1>   0.0800 
 41 H        6.4350     5.2540     2.1940 H     1 <1>   0.1500 
 42 H        6.4030     5.0230    -2.0630 H     1 <1>   0.1500 
 43 H        7.9820    -0.0480    -1.3510 H     1 <1>   0.4000 
 44 H        7.2150     7.2720    -0.0560 H     1 <1>   0.0800 
 45 H        8.2630     6.1370    -0.8760 H     1 <1>   0.0800 
 46 H        8.2770     6.2310     0.8650 H     1 <1>   0.0800 
@<TRIPOS>BOND
  1   1   2  1   
  2   1   3  1   
  3   2   4  1   
  4   2   5  2   
  5   3   6  2   
  6   3   7  1   
  7   4   8  2   
  8   5   6  1   
  9   5   9  1   
 10   6  10  1   
 11   7  11  1   
 12   7  26  1   
 13   7  27  1   
 14   8  12  1   
 15   8  13  1   
 16   9  12  am  
 17   9  14  2   
 18  10  15  1   
 19  10  28  1   
 20  10  29  1   
 21  11  15  1   
 22  11  30  1   
 23  11  31  1   
 24  12  16  1   
 25  13  17  1   
 26  13  32  1   
 27  15  33  1   
 28  15  34  1   
 29  16  18  ar  
 30  16  19  ar  
 31  17  20  1   
 32  17  35  1   
 33  17  36  1   
 34  18  21  ar  
 35  18  37  1   
 36  19  22  ar  
 37  19  38  1   
 38  20  23  1   
 39  20  39  1   
 40  20  40  1   
 41  21  24  ar  
 42  21  41  1   
 43  22  24  ar  
 44  22  42  1   
 45  23  43  1   
 46  24  25  1   
 47  25  44  1   
 48  25  45  1   
 49  25  46  1   
@<TRIPOS>SUBSTRUCTURE
  1 ****  12 GROUP 4 **** **** 0

# MOE 2024.06 (io_trps.svl 2023.06)
