@<TRIPOS>MOLECULE
NONAME
49 51 1 0 0 
SMALL
USER_CHARGES


@<TRIPOS>ATOM
  1 O       -1.4820     0.7900     0.7490 O.2   1 <1>  -0.5700 
  2 C       -1.3620     1.2560    -0.3680 C.2   1 <1>   0.6900 
  3 N       -2.4060     1.1870    -1.2400 N.am  1 <1>  -0.6600 
  4 N       -0.2400     1.8940    -0.7580 N.am  1 <1>  -0.7300 
  5 C       -3.3190     0.0140    -1.1280 C.3   1 <1>   0.1400 
  6 C       -3.1260     2.4570    -1.5280 C.3   1 <1>   0.1400 
  7 C        0.9810     2.0400     0.0620 C.3   1 <1>   0.1400 
  8 C       -4.3650     0.2620    -0.0230 C.3   1 <1>   0.3430 
  9 C       -4.1770     2.7210    -0.4290 C.3   1 <1>   0.3430 
 10 C        1.5360     3.4530    -0.1190 C.3   1 <1>  -0.1600 
 11 N       -5.1160     1.5530    -0.2330 N.4   1 <1>  -0.9590 
 12 C        2.8050     3.6590     0.7180 C.3   1 <1>  -0.1600 
 13 C       -6.0570     1.8070     0.8890 C.3   1 <1>   0.4860 
 14 C        3.3600     5.0740     0.5360 C.3   1 <1>  -0.2400 
 15 C       -6.9590     2.9630     0.5030 C.ar  1 <1>  -0.1440 
 16 C       -6.7280     4.2290     1.0350 C.ar  1 <1>  -0.1500 
 17 C       -8.0170     2.7620    -0.3870 C.ar  1 <1>  -0.1500 
 18 C       -7.5560     5.2610     0.6440 C.ar  1 <1>   0.0820 
 19 C       -8.8410     3.8150    -0.7640 C.ar  1 <1>  -0.1500 
 20 O       -7.5110     6.5430     1.0170 O.3   1 <1>  -0.3620 
 21 C       -8.5820     5.0610    -0.2310 C.ar  1 <1>   0.0820 
 22 C       -8.5900     7.2010     0.3530 C.3   1 <1>   0.4000 
 23 O       -9.2310     6.2090    -0.4470 O.3   1 <1>  -0.3620 
 24 H       -0.1260     2.0650    -1.7560 H     1 <1>   0.3700 
 25 H       -2.7440    -0.8630    -0.8820 H     1 <1>   0.0800 
 26 H       -3.8030    -0.1620    -2.0720 H     1 <1>   0.0800 
 27 H       -3.6000     2.3970    -2.4920 H     1 <1>   0.0800 
 28 H       -2.4270     3.2770    -1.5540 H     1 <1>   0.0800 
 29 H        1.7090     1.3110    -0.2520 H     1 <1>   0.0800 
 30 H        0.7510     1.8670     1.1000 H     1 <1>   0.0800 
 31 H       -3.8460     0.2950     0.9230 H     1 <1>   0.0800 
 32 H       -5.0530    -0.5670     0.0060 H     1 <1>   0.0800 
 33 H       -4.7390     3.6060    -0.6850 H     1 <1>   0.0800 
 34 H       -3.6530     2.9190     0.4920 H     1 <1>   0.0800 
 35 H        0.7910     4.1660     0.1860 H     1 <1>   0.0800 
 36 H        1.7680     3.6150    -1.1580 H     1 <1>   0.0800 
 37 H       -5.6830     1.4730    -1.0850 H     1 <1>   0.4500 
 38 H        3.5550     2.9450     0.4240 H     1 <1>   0.0800 
 39 H        2.5820     3.4990     1.7600 H     1 <1>   0.0800 
 40 H       -5.5120     2.0440     1.7890 H     1 <1>   0.0800 
 41 H       -6.6610     0.9340     1.0750 H     1 <1>   0.0800 
 42 H        3.6150     5.2510    -0.4950 H     1 <1>   0.0800 
 43 H        4.2470     5.2010     1.1320 H     1 <1>   0.0800 
 44 H        2.6350     5.8070     0.8450 H     1 <1>   0.0800 
 45 H       -5.9360     4.4330     1.7360 H     1 <1>   0.1500 
 46 H       -8.2190     1.7860    -0.7940 H     1 <1>   0.1500 
 47 H       -9.6620     3.6830    -1.4470 H     1 <1>   0.1500 
 48 H       -8.2060     7.9830    -0.2780 H     1 <1>   0.0800 
 49 H       -9.2850     7.5810     1.0810 H     1 <1>   0.0800 
@<TRIPOS>BOND
  1   1   2  2   
  2   2   3  am  
  3   2   4  am  
  4   3   5  1   
  5   3   6  1   
  6   4   7  1   
  7   4  24  1   
  8   5   8  1   
  9   5  25  1   
 10   5  26  1   
 11   6   9  1   
 12   6  27  1   
 13   6  28  1   
 14   7  10  1   
 15   7  29  1   
 16   7  30  1   
 17   8  11  1   
 18   8  31  1   
 19   8  32  1   
 20   9  11  1   
 21   9  33  1   
 22   9  34  1   
 23  10  12  1   
 24  10  35  1   
 25  10  36  1   
 26  11  13  1   
 27  11  37  1   
 28  12  14  1   
 29  12  38  1   
 30  12  39  1   
 31  13  15  1   
 32  13  40  1   
 33  13  41  1   
 34  14  42  1   
 35  14  43  1   
 36  14  44  1   
 37  15  16  ar  
 38  15  17  ar  
 39  16  18  ar  
 40  16  45  1   
 41  17  19  ar  
 42  17  46  1   
 43  18  20  1   
 44  18  21  ar  
 45  19  21  ar  
 46  19  47  1   
 47  20  22  1   
 48  21  23  1   
 49  22  23  1   
 50  22  48  1   
 51  22  49  1   
@<TRIPOS>SUBSTRUCTURE
  1 ****   9 GROUP 4 **** **** 0

# MOE 2024.06 (io_trps.svl 2023.06)
