@<TRIPOS>MOLECULE
NONAME
42 43 1 0 0 
SMALL
USER_CHARGES


@<TRIPOS>ATOM
  1 O       -0.4060    -0.1390    -1.1190 O.2   1 <1>  -0.5700 
  2 C       -0.3720    -1.2470    -0.6450 C.2   1 <1>   0.5690 
  3 N        0.7520    -1.8180    -0.1390 N.am  1 <1>  -0.7300 
  4 C       -1.6580    -2.0390    -0.5970 C.3   1 <1>  -0.0990 
  5 C        2.1050    -1.2580    -0.0560 C.3   1 <1>   0.3000 
  6 C       -2.6720    -1.3690     0.3390 C.3   1 <1>   0.0200 
  7 C        2.9780    -2.3250     0.6010 C.3   1 <1>  -0.2400 
  8 C        2.6300    -0.9600    -1.4610 C.3   1 <1>  -0.2400 
  9 C        2.0920     0.0000     0.8130 C.3   1 <1>  -0.2400 
 10 C       -3.9380    -2.1930     0.4550 C.2   1 <1>   0.2980 
 11 O       -3.8870    -3.3360     1.0880 O.3   1 <1>  -0.0190 
 12 N       -5.0720    -1.8800    -0.0150 N.2   1 <1>  -0.5650 
 13 N       -5.0970    -3.7920     1.0120 N.2   1 <1>  -0.4100 
 14 C       -5.8030    -2.9350     0.3620 C.2   1 <1>   0.4620 
 15 C       -7.2190    -3.0610     0.0530 C.ar  1 <1>   0.0540 
 16 C       -7.9550    -4.1720     0.4670 C.ar  1 <1>  -0.1500 
 17 C       -7.9040    -2.0820    -0.6700 C.ar  1 <1>  -0.1500 
 18 C       -9.3020    -4.3000     0.1780 C.ar  1 <1>  -0.1500 
 19 C       -9.2500    -2.2050    -0.9620 C.ar  1 <1>  -0.1500 
 20 C       -9.9600    -3.3150    -0.5380 C.ar  1 <1>  -0.1440 
 21 C      -11.4370    -3.4530    -0.8590 C.3   1 <1>  -0.0970 
 22 H        0.6970    -2.7650     0.2280 H     1 <1>   0.3700 
 23 H       -1.4570    -3.0410    -0.2660 H     1 <1>   0.0800 
 24 H       -2.0660    -2.0890    -1.5900 H     1 <1>   0.0800 
 25 H       -2.9210    -0.3940    -0.0420 H     1 <1>   0.0800 
 26 H       -2.2460    -1.2450     1.3180 H     1 <1>   0.0800 
 27 H        2.6180    -2.5550     1.5880 H     1 <1>   0.0800 
 28 H        3.9890    -1.9700     0.6890 H     1 <1>   0.0800 
 29 H        2.9910    -3.2220     0.0080 H     1 <1>   0.0800 
 30 H        2.5910    -1.8430    -2.0730 H     1 <1>   0.0800 
 31 H        3.6480    -0.6220    -1.4130 H     1 <1>   0.0800 
 32 H        2.0470    -0.1870    -1.9280 H     1 <1>   0.0800 
 33 H        1.6800    -0.2150     1.7820 H     1 <1>   0.0800 
 34 H        1.5100     0.7760     0.3490 H     1 <1>   0.0800 
 35 H        3.0920     0.3720     0.9420 H     1 <1>   0.0800 
 36 H       -7.4660    -4.9500     1.0260 H     1 <1>   0.1500 
 37 H       -7.3740    -1.2100    -1.0090 H     1 <1>   0.1500 
 38 H       -9.8360    -5.1720     0.5130 H     1 <1>   0.1500 
 39 H       -9.7440    -1.4310    -1.5220 H     1 <1>   0.1500 
 40 H      -11.5580    -3.9560    -1.8020 H     1 <1>   0.0800 
 41 H      -11.9010    -2.4850    -0.9190 H     1 <1>   0.0800 
 42 H      -11.9360    -4.0220    -0.0950 H     1 <1>   0.0800 
@<TRIPOS>BOND
  1   1   2  2   
  2   2   3  am  
  3   2   4  1   
  4   3   5  1   
  5   3  22  1   
  6   4   6  1   
  7   4  23  1   
  8   4  24  1   
  9   5   7  1   
 10   5   8  1   
 11   5   9  1   
 12   6  10  1   
 13   6  25  1   
 14   6  26  1   
 15   7  27  1   
 16   7  28  1   
 17   7  29  1   
 18   8  30  1   
 19   8  31  1   
 20   8  32  1   
 21   9  33  1   
 22   9  34  1   
 23   9  35  1   
 24  10  11  1   
 25  10  12  2   
 26  11  13  1   
 27  12  14  1   
 28  13  14  2   
 29  14  15  1   
 30  15  16  ar  
 31  15  17  ar  
 32  16  18  ar  
 33  16  36  1   
 34  17  19  ar  
 35  17  37  1   
 36  18  20  ar  
 37  18  38  1   
 38  19  20  ar  
 39  19  39  1   
 40  20  21  1   
 41  21  40  1   
 42  21  41  1   
 43  21  42  1   
@<TRIPOS>SUBSTRUCTURE
  1 ****  10 GROUP 4 **** **** 0

# MOE 2024.06 (io_trps.svl 2023.06)
