@<TRIPOS>MOLECULE
NONAME
54 56 1 0 0 
SMALL
USER_CHARGES


@<TRIPOS>ATOM
  1 O       -6.8030     9.0370    -1.4440 O.2   1 <1>  -0.5700 
  2 C       -6.2580     8.9380    -0.3700 C.2   1 <1>   0.6590 
  3 O       -5.3890     7.9850    -0.0790 O.3   1 <1>  -0.4300 
  4 C       -6.5720     9.9210     0.7430 C.3   1 <1>  -0.0190 
  5 C       -5.0370     6.9850    -1.0070 C.3   1 <1>   0.1200 
  6 C       -8.0910     9.9060     0.9400 C.3   1 <1>   0.3430 
  7 C       -6.0370    11.3410     0.4190 C.3   1 <1>  -0.1600 
  8 C       -4.1500     5.9710    -0.2930 C.3   1 <1>  -0.2400 
  9 N       -8.7210    10.7240    -0.1470 N.4   1 <1>  -0.9590 
 10 C       -7.0810    12.4310     0.7220 C.3   1 <1>  -0.1600 
 11 C       -8.4340    12.1850     0.0280 C.3   1 <1>   0.3430 
 12 C      -10.1820    10.4540    -0.3220 C.3   1 <1>   0.3430 
 13 C      -10.4400     9.2740    -1.2640 C.3   1 <1>  -0.0990 
 14 C      -10.0330     7.9700    -0.6260 C.2   1 <1>   0.5690 
 15 O      -10.3350     7.8060     0.5290 O.2   1 <1>  -0.5700 
 16 N       -9.3050     7.0880    -1.3690 N.am  1 <1>  -0.5470 
 17 C       -8.6060     5.9250    -1.0120 C.ar  1 <1>   0.1170 
 18 C       -8.3060     5.5860     0.3070 C.ar  1 <1>  -0.1500 
 19 C       -8.1570     5.0900    -2.0340 C.ar  1 <1>  -0.1500 
 20 C       -7.5620     4.4530     0.5720 C.ar  1 <1>  -0.1430 
 21 C       -7.4130     3.9540    -1.7610 C.ar  1 <1>  -0.1500 
 22 C       -7.1180     3.6490    -0.4470 C.ar  1 <1>  -0.1430 
 23 C       -7.1330     3.9200     1.9160 C.3   1 <1>  -0.0170 
 24 C       -6.3310     2.4750     0.0810 C.3   1 <1>  -0.0170 
 25 C       -6.1050     2.8320     1.5600 C.3   1 <1>  -0.1600 
 26 H       -6.1170     9.5620     1.6490 H     1 <1>   0.0800 
 27 H       -4.5170     7.4460    -1.8290 H     1 <1>   0.0800 
 28 H       -5.9350     6.5140    -1.3650 H     1 <1>   0.0800 
 29 H       -8.3440    10.3210     1.9020 H     1 <1>   0.0800 
 30 H       -8.4320     8.8860     0.9160 H     1 <1>   0.0800 
 31 H       -5.7720    11.4060    -0.6240 H     1 <1>   0.0800 
 32 H       -5.1380    11.5260     0.9840 H     1 <1>   0.0800 
 33 H       -3.2520     6.4430     0.0610 H     1 <1>   0.0800 
 34 H       -3.8810     5.1840    -0.9740 H     1 <1>   0.0800 
 35 H       -4.6820     5.5360     0.5340 H     1 <1>   0.0800 
 36 H       -8.2310    10.4180    -1.0110 H     1 <1>   0.4500 
 37 H       -6.7030    13.3940     0.4220 H     1 <1>   0.0800 
 38 H       -7.2430    12.4820     1.7860 H     1 <1>   0.0800 
 39 H       -9.2120    12.6470     0.6150 H     1 <1>   0.0800 
 40 H       -8.4260    12.6580    -0.9410 H     1 <1>   0.0800 
 41 H      -10.6550    11.3260    -0.7430 H     1 <1>   0.0800 
 42 H      -10.6400    10.2600     0.6370 H     1 <1>   0.0800 
 43 H       -9.9300     9.4260    -2.1980 H     1 <1>   0.0800 
 44 H      -11.4940     9.2200    -1.4650 H     1 <1>   0.0800 
 45 H       -9.1990     7.3240    -2.3550 H     1 <1>   0.3700 
 46 H       -8.6410     6.1910     1.1260 H     1 <1>   0.1500 
 47 H       -8.3860     5.3260    -3.0560 H     1 <1>   0.1500 
 48 H       -7.0700     3.3170    -2.5570 H     1 <1>   0.1500 
 49 H       -7.9830     3.4910     2.4170 H     1 <1>   0.0800 
 50 H       -6.6980     4.6900     2.5280 H     1 <1>   0.0800 
 51 H       -5.4000     2.3540    -0.4440 H     1 <1>   0.0800 
 52 H       -6.9220     1.5800    -0.0080 H     1 <1>   0.0800 
 53 H       -6.2010     1.9700     2.1970 H     1 <1>   0.0800 
 54 H       -5.1160     3.2390     1.6720 H     1 <1>   0.0800 
@<TRIPOS>BOND
  1   1   2  2   
  2   2   3  1   
  3   2   4  1   
  4   3   5  1   
  5   4   6  1   
  6   4   7  1   
  7   4  26  1   
  8   5   8  1   
  9   5  27  1   
 10   5  28  1   
 11   6   9  1   
 12   6  29  1   
 13   6  30  1   
 14   7  10  1   
 15   7  31  1   
 16   7  32  1   
 17   8  33  1   
 18   8  34  1   
 19   8  35  1   
 20   9  11  1   
 21   9  12  1   
 22   9  36  1   
 23  10  11  1   
 24  10  37  1   
 25  10  38  1   
 26  11  39  1   
 27  11  40  1   
 28  12  13  1   
 29  12  41  1   
 30  12  42  1   
 31  13  14  1   
 32  13  43  1   
 33  13  44  1   
 34  14  15  2   
 35  14  16  am  
 36  16  17  1   
 37  16  45  1   
 38  17  18  ar  
 39  17  19  ar  
 40  18  20  ar  
 41  18  46  1   
 42  19  21  ar  
 43  19  47  1   
 44  20  22  ar  
 45  20  23  1   
 46  21  22  ar  
 47  21  48  1   
 48  22  24  1   
 49  23  25  1   
 50  23  49  1   
 51  23  50  1   
 52  24  25  1   
 53  24  51  1   
 54  24  52  1   
 55  25  53  1   
 56  25  54  1   
@<TRIPOS>SUBSTRUCTURE
  1 ****  17 GROUP 4 **** **** 0

# MOE 2024.06 (io_trps.svl 2023.06)
