@<TRIPOS>MOLECULE
NONAME
49 51 1 0 0 
SMALL
USER_CHARGES


@<TRIPOS>ATOM
  1 O        0.3390     0.1760     1.3340 O.2   1 <1>  -0.5700 
  2 C        0.6980     0.8180     0.3690 C.2   1 <1>   0.6900 
  3 N        1.9420     0.6950    -0.1740 N.am  1 <1>  -0.5470 
  4 N       -0.1570     1.7030    -0.2030 N.am  1 <1>  -0.7300 
  5 C        2.9730    -0.2200     0.0850 C.ar  1 <1>   0.1170 
  6 C       -1.5010     1.9670     0.3260 C.3   1 <1>   0.2200 
  7 C        4.3220     0.1620    -0.1700 C.ar  1 <1>   0.0000 
  8 C        2.7030    -1.4890     0.5470 C.ar  1 <1>  -0.1500 
  9 C       -2.4890     0.9740    -0.2800 C.3   1 <1>  -0.1600 
 10 C       -1.9130     3.4020     0.0090 C.3   1 <1>  -0.1600 
 11 C        5.3490    -0.7920     0.0240 C.ar  1 <1>   0.0000 
 12 C        4.7040     1.4530    -0.6040 C.ar  1 <1>  -0.1500 
 13 C        3.7220    -2.4180     0.7570 C.ar  1 <1>  -0.1500 
 14 C       -3.9000     1.2620     0.2210 C.3   1 <1>   0.3430 
 15 C       -3.3350     3.6590     0.5040 C.3   1 <1>   0.3430 
 16 C        5.0180    -2.0750     0.4950 C.ar  1 <1>  -0.1500 
 17 C        6.6850    -0.4340    -0.2510 C.ar  1 <1>  -0.1500 
 18 C        6.0090     1.7750    -0.8590 C.ar  1 <1>  -0.1500 
 19 N       -4.2780     2.6740    -0.1060 N.4   1 <1>  -0.9590 
 20 C        7.0120     0.8190    -0.6850 C.ar  1 <1>  -0.1500 
 21 C       -5.6760     2.9820     0.3060 C.3   1 <1>   0.3430 
 22 C       -6.6750     2.2710    -0.6100 C.3   1 <1>  -0.1600 
 23 C       -8.1130     2.6780    -0.2690 C.3   1 <1>  -0.2400 
 24 H        2.1980     1.4450    -0.8040 H     1 <1>   0.3700 
 25 H        0.0640     2.0700    -1.1260 H     1 <1>   0.3700 
 26 H       -1.4840     1.8370     1.3980 H     1 <1>   0.0800 
 27 H        1.6930    -1.7950     0.7510 H     1 <1>   0.1500 
 28 H       -2.2140    -0.0230     0.0200 H     1 <1>   0.0800 
 29 H       -2.4670     1.0200    -1.3540 H     1 <1>   0.0800 
 30 H       -1.8600     3.5890    -1.0480 H     1 <1>   0.0800 
 31 H       -1.2430     4.0800     0.5080 H     1 <1>   0.0800 
 32 H        3.9570     2.2120    -0.7330 H     1 <1>   0.1500 
 33 H        3.4700    -3.3990     1.1210 H     1 <1>   0.1500 
 34 H       -3.9390     1.1110     1.2880 H     1 <1>   0.0800 
 35 H       -4.5880     0.5740    -0.2430 H     1 <1>   0.0800 
 36 H       -3.6290     4.6630     0.2420 H     1 <1>   0.0800 
 37 H       -3.3610     3.5700     1.5790 H     1 <1>   0.0800 
 38 H        5.8070    -2.7880     0.6490 H     1 <1>   0.1500 
 39 H        7.4520    -1.1740    -0.1090 H     1 <1>   0.1500 
 40 H        6.2820     2.7620    -1.1910 H     1 <1>   0.1500 
 41 H       -4.2280     2.7830    -1.1270 H     1 <1>   0.4500 
 42 H        8.0340     1.0850    -0.8920 H     1 <1>   0.1500 
 43 H       -5.8460     4.0450     0.2360 H     1 <1>   0.0800 
 44 H       -5.8390     2.6840     1.3300 H     1 <1>   0.0800 
 45 H       -6.5930     1.2040    -0.5020 H     1 <1>   0.0800 
 46 H       -6.4810     2.5330    -1.6360 H     1 <1>   0.0800 
 47 H       -8.3570     2.4120     0.7460 H     1 <1>   0.0800 
 48 H       -8.8030     2.1720    -0.9220 H     1 <1>   0.0800 
 49 H       -8.2530     3.7380    -0.3920 H     1 <1>   0.0800 
@<TRIPOS>BOND
  1   1   2  2   
  2   2   3  am  
  3   2   4  am  
  4   3   5  1   
  5   3  24  1   
  6   4   6  1   
  7   4  25  1   
  8   5   7  ar  
  9   5   8  ar  
 10   6   9  1   
 11   6  10  1   
 12   6  26  1   
 13   7  11  ar  
 14   7  12  ar  
 15   8  13  ar  
 16   8  27  1   
 17   9  14  1   
 18   9  28  1   
 19   9  29  1   
 20  10  15  1   
 21  10  30  1   
 22  10  31  1   
 23  11  16  ar  
 24  11  17  ar  
 25  12  18  ar  
 26  12  32  1   
 27  13  16  ar  
 28  13  33  1   
 29  14  19  1   
 30  14  34  1   
 31  14  35  1   
 32  15  19  1   
 33  15  36  1   
 34  15  37  1   
 35  16  38  1   
 36  17  20  ar  
 37  17  39  1   
 38  18  20  ar  
 39  18  40  1   
 40  19  21  1   
 41  19  41  1   
 42  20  42  1   
 43  21  22  1   
 44  21  43  1   
 45  21  44  1   
 46  22  23  1   
 47  22  45  1   
 48  22  46  1   
 49  23  47  1   
 50  23  48  1   
 51  23  49  1   
@<TRIPOS>SUBSTRUCTURE
  1 ****   2 GROUP 4 **** **** 0

# MOE 2024.06 (io_trps.svl 2023.06)
