@<TRIPOS>MOLECULE
NONAME
35 36 1 0 0 
SMALL
USER_CHARGES


@<TRIPOS>ATOM
  1 CL      -1.0430    -2.1890     2.3370 Cl    1 <1>  -0.1770 
  2 C       -0.0970    -2.4980     0.9030 C.ar  1 <1>   0.1770 
  3 C        1.1090    -3.1610     1.0160 C.ar  1 <1>  -0.1500 
  4 C       -0.5740    -2.0680    -0.3200 C.ar  1 <1>  -0.1500 
  5 C        1.8730    -3.4120    -0.1200 C.ar  1 <1>   0.1170 
  6 C        0.1790    -2.3090    -1.4560 C.ar  1 <1>  -0.1500 
  7 N        3.1110    -4.0720    -0.0860 N.am  1 <1>  -0.5470 
  8 C        1.3900    -2.9740    -1.3510 C.ar  1 <1>  -0.1500 
  9 C        3.6990    -4.8460     0.8760 C.2   1 <1>   0.5690 
 10 O        3.1850    -5.1260     1.9290 O.2   1 <1>  -0.5700 
 11 C        5.0830    -5.3940     0.5830 C.3   1 <1>  -0.0990 
 12 C        6.1480    -4.2860     0.5340 C.3   1 <1>  -0.1600 
 13 C        7.5290    -4.8540     0.1930 C.3   1 <1>   0.1400 
 14 N        8.4920    -3.7490     0.0070 N.am  1 <1>  -0.4200 
 15 C        8.5700    -2.9910    -1.1180 C.2   1 <1>   0.5690 
 16 C        9.4210    -3.3750     0.9250 C.2   1 <1>   0.5690 
 17 O        7.8640    -3.0970    -2.0870 O.2   1 <1>  -0.5700 
 18 C        9.6730    -1.9640    -0.9980 C.3   1 <1>  -0.0990 
 19 O        9.5850    -3.8730     2.0080 O.2   1 <1>  -0.5700 
 20 C       10.2530    -2.2240     0.4070 C.3   1 <1>  -0.0990 
 21 H        1.4400    -3.4700     1.9890 H     1 <1>   0.1500 
 22 H       -1.5170    -1.5540    -0.3770 H     1 <1>   0.1500 
 23 H       -0.1770    -1.9810    -2.4180 H     1 <1>   0.1500 
 24 H        3.6650    -3.9650    -0.9340 H     1 <1>   0.3700 
 25 H        1.9640    -3.1560    -2.2410 H     1 <1>   0.1500 
 26 H        5.0510    -5.9210    -0.3530 H     1 <1>   0.0800 
 27 H        5.3390    -6.1040     1.3510 H     1 <1>   0.0800 
 28 H        6.1910    -3.7940     1.4920 H     1 <1>   0.0800 
 29 H        5.8700    -3.5600    -0.2110 H     1 <1>   0.0800 
 30 H        7.4800    -5.4250    -0.7180 H     1 <1>   0.0800 
 31 H        7.8690    -5.5020     0.9830 H     1 <1>   0.0800 
 32 H        9.2630    -0.9740    -1.0810 H     1 <1>   0.0800 
 33 H       10.4080    -2.1260    -1.7650 H     1 <1>   0.0800 
 34 H       11.2870    -2.5110     0.3620 H     1 <1>   0.0800 
 35 H       10.1340    -1.3700     1.0490 H     1 <1>   0.0800 
@<TRIPOS>BOND
  1   1   2  1   
  2   2   3  ar  
  3   2   4  ar  
  4   3   5  ar  
  5   3  21  1   
  6   4   6  ar  
  7   4  22  1   
  8   5   7  1   
  9   5   8  ar  
 10   6   8  ar  
 11   6  23  1   
 12   7   9  am  
 13   7  24  1   
 14   8  25  1   
 15   9  10  2   
 16   9  11  1   
 17  11  12  1   
 18  11  26  1   
 19  11  27  1   
 20  12  13  1   
 21  12  28  1   
 22  12  29  1   
 23  13  14  1   
 24  13  30  1   
 25  13  31  1   
 26  14  15  am  
 27  14  16  am  
 28  15  17  2   
 29  15  18  1   
 30  16  19  2   
 31  16  20  1   
 32  18  20  1   
 33  18  32  1   
 34  18  33  1   
 35  20  34  1   
 36  20  35  1   
@<TRIPOS>SUBSTRUCTURE
  1 ****  12 GROUP 4 **** **** 0

# MOE 2024.06 (io_trps.svl 2023.06)
