@<TRIPOS>MOLECULE
NONAME
18 19 1 0 0 
SMALL
USER_CHARGES


@<TRIPOS>ATOM
  1 S        0.0940    -0.1540     0.4200 S.3   1 <1>  -0.2820 
  2 C        1.6910     0.5330     0.2710 C.2   1 <1>   0.6410 
  3 C       -0.6080     1.3930    -0.0460 C.2   1 <1>   0.5300 
  4 N        2.7700    -0.1240     0.4930 N.2   1 <1>  -0.6610 
  5 N        1.5490     1.8470    -0.1120 N.pl3 1 <1>  -0.1080 
  6 N        0.2370     2.3070    -0.2840 N.2   1 <1>  -0.4920 
  7 C       -2.1150     1.4540    -0.1100 C.3   1 <1>  -0.1790 
  8 C        3.9160     0.6010     0.3190 C.2   1 <1>   0.7670 
  9 C        2.6970     2.5900    -0.2910 C.2   1 <1>   0.2000 
 10 O        4.9850     0.0380     0.5140 O.2   1 <1>  -0.5700 
 11 C        3.8820     1.9560    -0.0720 C.2   1 <1>  -0.1360 
 12 N        2.5770     3.8980    -0.6710 N.pl3 1 <1>  -0.9000 
 13 H       -2.4770     0.7420    -0.8280 H     1 <1>   0.0800 
 14 H       -2.4270     2.4390    -0.4030 H     1 <1>   0.0800 
 15 H       -2.5280     1.2260     0.8550 H     1 <1>   0.0800 
 16 H        4.8210     2.4560    -0.1880 H     1 <1>   0.1500 
 17 H        3.3610     4.5360    -0.8300 H     1 <1>   0.4000 
 18 H        1.6390     4.2920    -0.8130 H     1 <1>   0.4000 
@<TRIPOS>BOND
  1   1   2  1   
  2   1   3  1   
  3   2   4  2   
  4   2   5  1   
  5   3   6  2   
  6   3   7  1   
  7   4   8  1   
  8   5   6  1   
  9   5   9  1   
 10   7  13  1   
 11   7  14  1   
 12   7  15  1   
 13   8  10  2   
 14   8  11  1   
 15   9  11  2   
 16   9  12  1   
 17  11  16  1   
 18  12  17  1   
 19  12  18  1   
@<TRIPOS>SUBSTRUCTURE
  1 ****   5 GROUP 4 **** **** 0

# MOE 2024.06 (io_trps.svl 2023.06)
