@<TRIPOS>MOLECULE
NONAME
41 42 1 0 0 
SMALL
USER_CHARGES


@<TRIPOS>ATOM
  1 CL      -0.2350     0.8770    -1.4280 Cl    1 <1>  -0.1770 
  2 C        1.4150     1.0030    -0.8730 C.ar  1 <1>   0.1770 
  3 C        1.7270     0.6250     0.4190 C.ar  1 <1>  -0.1500 
  4 C        2.3840     1.4800    -1.7340 C.ar  1 <1>  -0.1500 
  5 C        3.0350     0.7220     0.8670 C.ar  1 <1>  -0.1440 
  6 C        3.6920     1.5800    -1.2930 C.ar  1 <1>  -0.1500 
  7 C        4.0250     1.2020     0.0090 C.ar  1 <1>   0.0830 
  8 C        3.3760     0.3050     2.2910 C.3   1 <1>  -0.0960 
  9 O        5.2920     1.2780     0.4960 O.3   1 <1>  -0.3630 
 10 C        6.3630     1.7480    -0.2860 C.3   1 <1>   0.1200 
 11 C        7.6230     1.6950     0.5800 C.3   1 <1>  -0.1600 
 12 C        8.8630     2.1850    -0.1830 C.3   1 <1>  -0.1600 
 13 C       10.1020     2.1250     0.7130 C.3   1 <1>   0.3430 
 14 N       11.2880     2.6710    -0.0010 N.4   1 <1>  -0.9590 
 15 C       11.7710     1.8240    -1.1210 C.3   1 <1>   0.3430 
 16 C       12.4570     2.8570     0.8930 C.3   1 <1>   0.3430 
 17 C       13.2040     2.2830    -1.3540 C.3   1 <1>  -0.1600 
 18 C       13.6440     2.9630    -0.0540 C.3   1 <1>  -0.1600 
 19 H        0.9450     0.2590     1.0600 H     1 <1>   0.1500 
 20 H        2.1120     1.7670    -2.7340 H     1 <1>   0.1500 
 21 H        4.4310     1.9520    -1.9760 H     1 <1>   0.1500 
 22 H        2.5020    -0.0360     2.8170 H     1 <1>   0.0800 
 23 H        3.7940     1.1390     2.8250 H     1 <1>   0.0800 
 24 H        4.0980    -0.4910     2.2730 H     1 <1>   0.0800 
 25 H        6.1430     2.7570    -0.5880 H     1 <1>   0.0800 
 26 H        6.4570     1.1090    -1.1480 H     1 <1>   0.0800 
 27 H        7.7730     0.6780     0.9020 H     1 <1>   0.0800 
 28 H        7.4640     2.3100     1.4490 H     1 <1>   0.0800 
 29 H        8.6970     3.2000    -0.5020 H     1 <1>   0.0800 
 30 H        9.0030     1.5630    -1.0500 H     1 <1>   0.0800 
 31 H       10.2880     1.1060     1.0130 H     1 <1>   0.0800 
 32 H        9.9170     2.7080     1.6020 H     1 <1>   0.0800 
 33 H       11.0510     3.5940    -0.3880 H     1 <1>   0.4500 
 34 H       11.1650     1.9440    -2.0050 H     1 <1>   0.0800 
 35 H       11.7700     0.7880    -0.8220 H     1 <1>   0.0800 
 36 H       12.5780     1.9900     1.5230 H     1 <1>   0.0800 
 37 H       12.3570     3.7370     1.5090 H     1 <1>   0.0800 
 38 H       13.2360     2.9810    -2.1730 H     1 <1>   0.0800 
 39 H       13.8310     1.4430    -1.5980 H     1 <1>   0.0800 
 40 H       14.5110     2.4880     0.3730 H     1 <1>   0.0800 
 41 H       13.8770     3.9990    -0.2320 H     1 <1>   0.0800 
@<TRIPOS>BOND
  1   1   2  1   
  2   2   3  ar  
  3   2   4  ar  
  4   3   5  ar  
  5   3  19  1   
  6   4   6  ar  
  7   4  20  1   
  8   5   7  ar  
  9   5   8  1   
 10   6   7  ar  
 11   6  21  1   
 12   7   9  1   
 13   8  22  1   
 14   8  23  1   
 15   8  24  1   
 16   9  10  1   
 17  10  11  1   
 18  10  25  1   
 19  10  26  1   
 20  11  12  1   
 21  11  27  1   
 22  11  28  1   
 23  12  13  1   
 24  12  29  1   
 25  12  30  1   
 26  13  14  1   
 27  13  31  1   
 28  13  32  1   
 29  14  15  1   
 30  14  16  1   
 31  14  33  1   
 32  15  17  1   
 33  15  34  1   
 34  15  35  1   
 35  16  18  1   
 36  16  36  1   
 37  16  37  1   
 38  17  18  1   
 39  17  38  1   
 40  17  39  1   
 41  18  40  1   
 42  18  41  1   
@<TRIPOS>SUBSTRUCTURE
  1 ****  10 GROUP 4 **** **** 0

# MOE 2024.06 (io_trps.svl 2023.06)
