@<TRIPOS>MOLECULE
NONAME
53 55 1 0 0 
SMALL
USER_CHARGES


@<TRIPOS>ATOM
  1 O       -0.4810    -0.7840     1.0700 O.2   1 <1>  -0.5700 
  2 C        0.5890    -1.1050     0.5800 C.2   1 <1>   0.5440 
  3 N        1.4460    -0.1050     0.1750 N.am  1 <1>  -0.6600 
  4 C        0.9080    -2.5100     0.4130 C.ar  1 <1>   0.0860 
  5 C        1.2590     1.3150     0.5980 C.3   1 <1>   0.1400 
  6 C        2.5090    -0.2660    -0.8620 C.3   1 <1>   0.1400 
  7 C       -0.0010    -3.3920    -0.1940 C.ar  1 <1>   0.1170 
  8 C        2.1320    -3.0140     0.8580 C.ar  1 <1>  -0.1500 
  9 C        2.6140     1.9590     0.9400 C.3   1 <1>   0.1200 
 10 C        3.7950     0.4570    -0.4290 C.3   1 <1>   0.1200 
 11 N       -1.2570    -2.9070    -0.5880 N.am  1 <1>  -0.5470 
 12 C        0.3590    -4.7260    -0.3660 C.ar  1 <1>  -0.1500 
 13 C        2.4730    -4.3410     0.6840 C.ar  1 <1>  -0.1500 
 14 O        3.5260     1.7930    -0.1110 O.3   1 <1>  -0.5600 
 15 C       -2.2190    -3.3750    -1.4360 C.2   1 <1>   0.5690 
 16 C        1.5830    -5.1990     0.0640 C.ar  1 <1>  -0.1500 
 17 O       -2.1120    -4.3830    -2.0880 O.2   1 <1>  -0.5700 
 18 C       -3.4840    -2.5480    -1.5680 C.3   1 <1>  -0.0990 
 19 C       -4.2490    -2.4290    -0.2360 C.3   1 <1>  -0.1600 
 20 C       -5.5950    -1.6900    -0.3630 C.3   1 <1>  -0.0800 
 21 C       -5.4110    -0.2130    -0.7640 C.3   1 <1>  -0.1600 
 22 C       -6.3600    -1.7880     0.9690 C.3   1 <1>  -0.1600 
 23 C       -6.7510     0.5340    -0.8130 C.3   1 <1>  -0.1600 
 24 C       -7.7010    -1.0450     0.9130 C.3   1 <1>  -0.1600 
 25 C       -7.5010     0.4220     0.5180 C.3   1 <1>  -0.1600 
 26 H        0.6160     1.3670     1.4590 H     1 <1>   0.0800 
 27 H        0.7930     1.8650    -0.2000 H     1 <1>   0.0800 
 28 H        2.1640     0.1650    -1.7860 H     1 <1>   0.0800 
 29 H        2.7210    -1.3030    -1.0460 H     1 <1>   0.0800 
 30 H        2.8220    -2.3500     1.3490 H     1 <1>   0.1500 
 31 H        3.0270     1.5160     1.8290 H     1 <1>   0.0800 
 32 H        2.4910     3.0140     1.1050 H     1 <1>   0.0800 
 33 H        4.5130     0.4500    -1.2310 H     1 <1>   0.0800 
 34 H        4.2310    -0.0220     0.4300 H     1 <1>   0.0800 
 35 H       -1.4930    -2.0170    -0.1290 H     1 <1>   0.3700 
 36 H       -0.3260    -5.4110    -0.8330 H     1 <1>   0.1500 
 37 H        3.4230    -4.7110     1.0290 H     1 <1>   0.1500 
 38 H        1.8400    -6.2350    -0.0790 H     1 <1>   0.1500 
 39 H       -4.1170    -3.0100    -2.3050 H     1 <1>   0.0800 
 40 H       -3.2060    -1.5780    -1.9330 H     1 <1>   0.0800 
 41 H       -3.6370    -1.9260     0.4940 H     1 <1>   0.0800 
 42 H       -4.4350    -3.4250     0.1310 H     1 <1>   0.0800 
 43 H       -6.1840    -2.1790    -1.1210 H     1 <1>   0.0800 
 44 H       -4.9510    -0.1440    -1.7330 H     1 <1>   0.0800 
 45 H       -4.7630     0.2730    -0.0540 H     1 <1>   0.0800 
 46 H       -5.7610    -1.3680     1.7590 H     1 <1>   0.0800 
 47 H       -6.5420    -2.8220     1.2080 H     1 <1>   0.0800 
 48 H       -7.3590     0.1210    -1.6000 H     1 <1>   0.0800 
 49 H       -6.5760     1.5710    -1.0420 H     1 <1>   0.0800 
 50 H       -8.1830    -1.0970     1.8730 H     1 <1>   0.0800 
 51 H       -8.3450    -1.5240     0.1940 H     1 <1>   0.0800 
 52 H       -8.4580     0.9080     0.4360 H     1 <1>   0.0800 
 53 H       -6.9390     0.9250     1.2870 H     1 <1>   0.0800 
@<TRIPOS>BOND
  1   1   2  2   
  2   2   3  am  
  3   2   4  1   
  4   3   5  1   
  5   3   6  1   
  6   4   7  ar  
  7   4   8  ar  
  8   5   9  1   
  9   5  26  1   
 10   5  27  1   
 11   6  10  1   
 12   6  28  1   
 13   6  29  1   
 14   7  11  1   
 15   7  12  ar  
 16   8  13  ar  
 17   8  30  1   
 18   9  14  1   
 19   9  31  1   
 20   9  32  1   
 21  10  14  1   
 22  10  33  1   
 23  10  34  1   
 24  11  15  am  
 25  11  35  1   
 26  12  16  ar  
 27  12  36  1   
 28  13  16  ar  
 29  13  37  1   
 30  15  17  2   
 31  15  18  1   
 32  16  38  1   
 33  18  19  1   
 34  18  39  1   
 35  18  40  1   
 36  19  20  1   
 37  19  41  1   
 38  19  42  1   
 39  20  21  1   
 40  20  22  1   
 41  20  43  1   
 42  21  23  1   
 43  21  44  1   
 44  21  45  1   
 45  22  24  1   
 46  22  46  1   
 47  22  47  1   
 48  23  25  1   
 49  23  48  1   
 50  23  49  1   
 51  24  25  1   
 52  24  50  1   
 53  24  51  1   
 54  25  52  1   
 55  25  53  1   
@<TRIPOS>SUBSTRUCTURE
  1 ****  11 GROUP 4 **** **** 0

# MOE 2024.06 (io_trps.svl 2023.06)
