@<TRIPOS>MOLECULE
NONAME
43 43 1 0 0 
SMALL
USER_CHARGES


@<TRIPOS>ATOM
  1 O        0.1910    -0.8380    -0.7780 O.3   1 <1>  -0.3630 
  2 C       -1.0570    -1.1000    -0.3270 C.ar  1 <1>   0.0830 
  3 C        1.2050    -0.8770     0.1900 C.3   1 <1>   0.1200 
  4 C       -1.5260    -2.4110    -0.3210 C.ar  1 <1>  -0.1440 
  5 C       -1.8600    -0.0530     0.1220 C.ar  1 <1>  -0.1440 
  6 C        2.5200    -0.5590    -0.5180 C.3   1 <1>  -0.1600 
  7 C       -2.7920    -2.6710     0.1770 C.ar  1 <1>  -0.1500 
  8 C       -0.6890    -3.5640    -0.8570 C.3   1 <1>  -0.0960 
  9 C       -3.1220    -0.3370     0.6160 C.ar  1 <1>  -0.1500 
 10 C       -1.3890     1.3940     0.0760 C.3   1 <1>  -0.0970 
 11 C        3.6830    -0.5800     0.4660 C.3   1 <1>   0.3430 
 12 C       -3.5860    -1.6400     0.6480 C.ar  1 <1>  -0.1500 
 13 N        4.9330    -0.2660    -0.2660 N.4   1 <1>  -0.9060 
 14 C        6.1270    -0.2630     0.6120 C.3   1 <1>   0.3430 
 15 C        7.3570     0.0680    -0.2270 C.3   1 <1>  -0.1600 
 16 C        8.6220     0.0830     0.6410 C.3   1 <1>  -0.1600 
 17 C        9.8580     0.4140    -0.1990 C.3   1 <1>  -0.2400 
 18 H        1.2160    -1.8620     0.6260 H     1 <1>   0.0800 
 19 H        0.9740    -0.1480     0.9480 H     1 <1>   0.0800 
 20 H        2.4360     0.4160    -0.9660 H     1 <1>   0.0800 
 21 H        2.6770    -1.2950    -1.2870 H     1 <1>   0.0800 
 22 H       -3.1710    -3.6780     0.1980 H     1 <1>   0.1500 
 23 H        0.0140    -3.8850    -0.1110 H     1 <1>   0.0800 
 24 H       -0.1560    -3.2580    -1.7390 H     1 <1>   0.0800 
 25 H       -1.3160    -4.3970    -1.1200 H     1 <1>   0.0800 
 26 H       -3.7550     0.4550     0.9760 H     1 <1>   0.1500 
 27 H       -0.8390     1.5770    -0.8290 H     1 <1>   0.0800 
 28 H       -0.7610     1.6040     0.9210 H     1 <1>   0.0800 
 29 H       -2.2290     2.0660     0.0960 H     1 <1>   0.0800 
 30 H        3.7550    -1.5550     0.9220 H     1 <1>   0.0800 
 31 H        3.5150     0.1510     1.2420 H     1 <1>   0.0800 
 32 H       -4.5680    -1.8510     1.0340 H     1 <1>   0.1500 
 33 H        4.8440     0.6520    -0.7200 H     1 <1>   0.4500 
 34 H        5.0700    -0.9510    -1.0210 H     1 <1>   0.4500 
 35 H        6.2530    -1.2310     1.0720 H     1 <1>   0.0800 
 36 H        6.0130     0.4740     1.3920 H     1 <1>   0.0800 
 37 H        7.2390     1.0370    -0.6820 H     1 <1>   0.0800 
 38 H        7.4790    -0.6690    -1.0030 H     1 <1>   0.0800 
 39 H        8.7650    -0.8800     1.1040 H     1 <1>   0.0800 
 40 H        8.5260     0.8180     1.4230 H     1 <1>   0.0800 
 41 H       10.0020    -0.3180    -0.9740 H     1 <1>   0.0800 
 42 H       10.7350     0.4210     0.4250 H     1 <1>   0.0800 
 43 H        9.7620     1.3850    -0.6540 H     1 <1>   0.0800 
@<TRIPOS>BOND
  1   1   2  1   
  2   1   3  1   
  3   2   4  ar  
  4   2   5  ar  
  5   3   6  1   
  6   3  18  1   
  7   3  19  1   
  8   4   7  ar  
  9   4   8  1   
 10   5   9  ar  
 11   5  10  1   
 12   6  11  1   
 13   6  20  1   
 14   6  21  1   
 15   7  12  ar  
 16   7  22  1   
 17   8  23  1   
 18   8  24  1   
 19   8  25  1   
 20   9  12  ar  
 21   9  26  1   
 22  10  27  1   
 23  10  28  1   
 24  10  29  1   
 25  11  13  1   
 26  11  30  1   
 27  11  31  1   
 28  12  32  1   
 29  13  14  1   
 30  13  33  1   
 31  13  34  1   
 32  14  15  1   
 33  14  35  1   
 34  14  36  1   
 35  15  16  1   
 36  15  37  1   
 37  15  38  1   
 38  16  17  1   
 39  16  39  1   
 40  16  40  1   
 41  17  41  1   
 42  17  42  1   
 43  17  43  1   
@<TRIPOS>SUBSTRUCTURE
  1 ****   3 GROUP 4 **** **** 0

# MOE 2024.06 (io_trps.svl 2023.06)
