@<TRIPOS>MOLECULE
NONAME
35 36 1 0 0 
SMALL
USER_CHARGES


@<TRIPOS>ATOM
  1 O       -0.5700     1.0170     1.2610 O.2   1 <1>  -0.5700 
  2 C       -0.2450     1.8750     0.4850 C.2   1 <1>   0.6590 
  3 O       -1.0830     2.5250    -0.3230 O.3   1 <1>  -0.4300 
  4 C        1.1610     2.3940     0.2390 C.3   1 <1>   0.0610 
  5 C       -0.4410     3.6230    -0.9780 C.3   1 <1>   0.1200 
  6 C        0.7870     3.8480    -0.0870 C.3   1 <1>   0.0000 
  7 C        2.3230     2.6060     1.2150 C.3   1 <1>  -0.1600 
  8 C        1.7220     1.5210    -0.9300 C.3   1 <1>  -0.2400 
  9 C        2.1500     4.4260    -0.5180 C.3   1 <1>  -0.0190 
 10 C        0.2540     4.6540     1.1540 C.3   1 <1>  -0.2400 
 11 C        3.0780     3.8170     0.5880 C.3   1 <1>  -0.1600 
 12 C        2.1910     5.9460    -0.7470 C.2   1 <1>   0.5690 
 13 O        1.1600     6.4860    -1.0790 O.2   1 <1>  -0.5700 
 14 N        3.3570     6.6720    -0.6440 N.am  1 <1>  -0.6600 
 15 C        3.3220     8.1610    -0.6250 C.3   1 <1>   0.0600 
 16 C        4.7280     6.1030    -0.7360 C.3   1 <1>   0.0600 
 17 H       -1.1070     4.4690    -1.0020 H     1 <1>   0.0800 
 18 H       -0.1820     3.3310    -1.9800 H     1 <1>   0.0800 
 19 H        2.9510     1.7350     1.3000 H     1 <1>   0.0800 
 20 H        1.9530     2.8460     2.1970 H     1 <1>   0.0800 
 21 H        1.0660     1.5130    -1.7820 H     1 <1>   0.0800 
 22 H        1.8090     0.5040    -0.5900 H     1 <1>   0.0800 
 23 H        2.6980     1.8260    -1.2600 H     1 <1>   0.0800 
 24 H        2.4150     4.0040    -1.4680 H     1 <1>   0.0800 
 25 H       -0.5030     4.1200     1.7000 H     1 <1>   0.0800 
 26 H       -0.1950     5.5760     0.8320 H     1 <1>   0.0800 
 27 H        1.0260     4.9170     1.8520 H     1 <1>   0.0800 
 28 H        4.0070     3.4880     0.1570 H     1 <1>   0.0800 
 29 H        3.2930     4.5430     1.3530 H     1 <1>   0.0800 
 30 H        2.3320     8.5150    -0.3920 H     1 <1>   0.0800 
 31 H        3.6070     8.5430    -1.5900 H     1 <1>   0.0800 
 32 H        4.0010     8.5340     0.1220 H     1 <1>   0.0800 
 33 H        4.7130     5.1620    -1.2560 H     1 <1>   0.0800 
 34 H        5.1320     5.9640     0.2510 H     1 <1>   0.0800 
 35 H        5.3690     6.7730    -1.2830 H     1 <1>   0.0800 
@<TRIPOS>BOND
  1   1   2  2   
  2   2   3  1   
  3   2   4  1   
  4   3   5  1   
  5   4   6  1   
  6   4   7  1   
  7   4   8  1   
  8   5   6  1   
  9   5  17  1   
 10   5  18  1   
 11   6   9  1   
 12   6  10  1   
 13   7  11  1   
 14   7  19  1   
 15   7  20  1   
 16   8  21  1   
 17   8  22  1   
 18   8  23  1   
 19   9  11  1   
 20   9  12  1   
 21   9  24  1   
 22  10  25  1   
 23  10  26  1   
 24  10  27  1   
 25  11  28  1   
 26  11  29  1   
 27  12  13  2   
 28  12  14  am  
 29  14  15  1   
 30  14  16  1   
 31  15  30  1   
 32  15  31  1   
 33  15  32  1   
 34  16  33  1   
 35  16  34  1   
 36  16  35  1   
@<TRIPOS>SUBSTRUCTURE
  1 ****   6 GROUP 4 **** **** 0

# MOE 2024.06 (io_trps.svl 2023.06)
