@<TRIPOS>MOLECULE
NONAME
49 50 1 0 0 
SMALL
USER_CHARGES


@<TRIPOS>ATOM
  1 O        0.3670     2.3050    -2.2910 O.2   1 <1>  -0.5700 
  2 C        0.2420     2.2290    -1.0950 C.2   1 <1>   0.5690 
  3 N        1.0550     1.4960    -0.2900 N.am  1 <1>  -0.7300 
  4 C       -0.8780     3.0090    -0.4350 C.3   1 <1>  -0.0990 
  5 C        2.2630     0.7090    -0.6190 C.3   1 <1>   0.3640 
  6 C       -2.0550     2.1010    -0.0390 C.3   1 <1>  -0.1600 
  7 C        3.4950     1.5990    -0.5010 C.ar  1 <1>  -0.1440 
  8 C        2.1830     0.0040    -1.9730 C.3   1 <1>  -0.2400 
  9 C       -3.1720     2.8690     0.6840 C.3   1 <1>  -0.0800 
 10 C        4.4790     1.3040     0.4300 C.ar  1 <1>  -0.1500 
 11 C        3.6580     2.7130    -1.3100 C.ar  1 <1>  -0.1500 
 12 C       -4.3250     1.9630     1.1080 C.3   1 <1>  -0.1600 
 13 C       -3.8560     3.9340    -0.1740 C.3   1 <1>  -0.1600 
 14 C        5.6110     2.0920     0.5640 C.ar  1 <1>   0.0830 
 15 C        4.7770     3.5180    -1.1870 C.ar  1 <1>  -0.1500 
 16 C       -5.5000     2.9130     1.3380 C.3   1 <1>  -0.1600 
 17 C       -5.2370     4.1370     0.4540 C.3   1 <1>  -0.1600 
 18 O        6.4900     1.6630     1.5140 O.3   1 <1>  -0.3630 
 19 C        5.7640     3.2300    -0.2470 C.ar  1 <1>   0.0830 
 20 C        7.8760     1.8950     1.3930 C.3   1 <1>   0.0400 
 21 O        6.8550     4.0380    -0.0960 O.3   1 <1>  -0.3630 
 22 C        6.9760     5.2690    -0.7740 C.3   1 <1>   0.0400 
 23 H        0.9270     1.6020     0.7140 H     1 <1>   0.3700 
 24 H       -1.2140     3.7610    -1.1260 H     1 <1>   0.0800 
 25 H       -0.4890     3.5090     0.4320 H     1 <1>   0.0800 
 26 H        2.3380    -0.0660     0.1250 H     1 <1>   0.0800 
 27 H       -1.6980     1.3190     0.6080 H     1 <1>   0.0800 
 28 H       -2.4500     1.6340    -0.9260 H     1 <1>   0.0800 
 29 H        2.2310     0.7090    -2.7820 H     1 <1>   0.0800 
 30 H        1.2710    -0.5590    -2.0450 H     1 <1>   0.0800 
 31 H        3.0140    -0.6690    -2.0740 H     1 <1>   0.0800 
 32 H       -2.7750     3.3430     1.5670 H     1 <1>   0.0800 
 33 H        4.3840     0.4470     1.0710 H     1 <1>   0.1500 
 34 H        2.9070     2.9580    -2.0420 H     1 <1>   0.1500 
 35 H       -4.0890     1.3940     1.9900 H     1 <1>   0.0800 
 36 H       -4.5710     1.2880     0.3060 H     1 <1>   0.0800 
 37 H       -3.9780     3.5670    -1.1790 H     1 <1>   0.0800 
 38 H       -3.2940     4.8510    -0.2010 H     1 <1>   0.0800 
 39 H        4.8510     4.3670    -1.8380 H     1 <1>   0.1500 
 40 H       -5.5210     3.2160     2.3710 H     1 <1>   0.0800 
 41 H       -6.4360     2.4400     1.0950 H     1 <1>   0.0800 
 42 H       -5.9880     4.2310    -0.3120 H     1 <1>   0.0800 
 43 H       -5.2440     5.0290     1.0580 H     1 <1>   0.0800 
 44 H        8.3890     1.1990     2.0320 H     1 <1>   0.0800 
 45 H        8.0880     2.9010     1.7070 H     1 <1>   0.0800 
 46 H        8.1700     1.7430     0.3690 H     1 <1>   0.0800 
 47 H        7.8800     5.7460    -0.4420 H     1 <1>   0.0800 
 48 H        6.1280     5.8850    -0.5330 H     1 <1>   0.0800 
 49 H        7.0300     5.0810    -1.8320 H     1 <1>   0.0800 
@<TRIPOS>BOND
  1   1   2  2   
  2   2   3  am  
  3   2   4  1   
  4   3   5  1   
  5   3  23  1   
  6   4   6  1   
  7   4  24  1   
  8   4  25  1   
  9   5   7  1   
 10   5   8  1   
 11   5  26  1   
 12   6   9  1   
 13   6  27  1   
 14   6  28  1   
 15   7  10  ar  
 16   7  11  ar  
 17   8  29  1   
 18   8  30  1   
 19   8  31  1   
 20   9  12  1   
 21   9  13  1   
 22   9  32  1   
 23  10  14  ar  
 24  10  33  1   
 25  11  15  ar  
 26  11  34  1   
 27  12  16  1   
 28  12  35  1   
 29  12  36  1   
 30  13  17  1   
 31  13  37  1   
 32  13  38  1   
 33  14  18  1   
 34  14  19  ar  
 35  15  19  ar  
 36  15  39  1   
 37  16  17  1   
 38  16  40  1   
 39  16  41  1   
 40  17  42  1   
 41  17  43  1   
 42  18  20  1   
 43  19  21  1   
 44  20  44  1   
 45  20  45  1   
 46  20  46  1   
 47  21  22  1   
 48  22  47  1   
 49  22  48  1   
 50  22  49  1   
@<TRIPOS>SUBSTRUCTURE
  1 ****   3 GROUP 4 **** **** 0

# MOE 2024.06 (io_trps.svl 2023.06)
