@<TRIPOS>MOLECULE
NONAME
45 46 1 0 0 
SMALL
USER_CHARGES


@<TRIPOS>ATOM
  1 CL       1.8400     1.3260    -3.2200 Cl    1 <1>  -0.1770 
  2 C        2.4170     1.4840    -1.5810 C.ar  1 <1>   0.1770 
  3 C        3.6080     0.8880    -1.2220 C.ar  1 <1>  -0.1500 
  4 C        1.6690     2.2060    -0.6710 C.ar  1 <1>  -0.1500 
  5 C        4.0910     1.0070     0.0790 C.ar  1 <1>   0.0860 
  6 C        2.1270     2.3270     0.6290 C.ar  1 <1>  -0.1500 
  7 C        5.3450     0.3900     0.4630 C.2   1 <1>   0.5440 
  8 C        3.3230     1.7310     0.9950 C.ar  1 <1>  -0.1500 
  9 O        5.4510    -0.8180     0.3710 O.2   1 <1>  -0.5700 
 10 N        6.4160     1.1320     0.9240 N.am  1 <1>  -0.6600 
 11 C        7.6520     0.4770     1.4370 C.3   1 <1>   0.1400 
 12 C        6.5000     2.6160     0.8200 C.3   1 <1>   0.1400 
 13 C        8.8440     0.8530     0.5520 C.3   1 <1>  -0.1600 
 14 C        7.6880     3.0060    -0.0640 C.3   1 <1>  -0.1600 
 15 C        9.0040     2.3790     0.4380 C.3   1 <1>  -0.0190 
 16 C       10.1970     2.7380    -0.4480 C.2   1 <1>   0.5690 
 17 O       10.0640     2.7900    -1.6460 O.2   1 <1>  -0.5700 
 18 N       11.3910     2.9830     0.1530 N.am  1 <1>  -0.7300 
 19 C       12.6460     3.3070    -0.5580 C.3   1 <1>   0.1400 
 20 C       13.7340     2.3270    -0.1200 C.3   1 <1>  -0.1600 
 21 C       15.0610     2.6180    -0.8320 C.3   1 <1>  -0.1600 
 22 C       16.1490     1.6340    -0.3940 C.3   1 <1>  -0.2400 
 23 H        4.1680     0.3250    -1.9480 H     1 <1>   0.1500 
 24 H        0.7430     2.6600    -0.9780 H     1 <1>   0.1500 
 25 H        1.5540     2.8800     1.3540 H     1 <1>   0.1500 
 26 H        3.6750     1.8190     2.0080 H     1 <1>   0.1500 
 27 H        7.5420    -0.5950     1.4530 H     1 <1>   0.0800 
 28 H        7.8260     0.8030     2.4480 H     1 <1>   0.0800 
 29 H        6.6240     3.0290     1.8060 H     1 <1>   0.0800 
 30 H        5.6020     3.0280     0.3950 H     1 <1>   0.0800 
 31 H        8.6960     0.4280    -0.4260 H     1 <1>   0.0800 
 32 H        9.7390     0.4210     0.9620 H     1 <1>   0.0800 
 33 H        7.7830     4.0770    -0.0840 H     1 <1>   0.0800 
 34 H        7.4900     2.6790    -1.0710 H     1 <1>   0.0800 
 35 H        9.1970     2.7700     1.4200 H     1 <1>   0.0800 
 36 H       11.4690     2.9210     1.1670 H     1 <1>   0.3700 
 37 H       12.9360     4.3170    -0.3220 H     1 <1>   0.0800 
 38 H       12.4950     3.2370    -1.6230 H     1 <1>   0.0800 
 39 H       13.4170     1.3260    -0.3570 H     1 <1>   0.0800 
 40 H       13.8780     2.4030     0.9430 H     1 <1>   0.0800 
 41 H       15.3810     3.6220    -0.6090 H     1 <1>   0.0800 
 42 H       14.9230     2.5410    -1.8980 H     1 <1>   0.0800 
 43 H       16.3210     1.7080     0.6650 H     1 <1>   0.0800 
 44 H       17.0700     1.8520    -0.9050 H     1 <1>   0.0800 
 45 H       15.8600     0.6240    -0.6290 H     1 <1>   0.0800 
@<TRIPOS>BOND
  1   1   2  1   
  2   2   3  ar  
  3   2   4  ar  
  4   3   5  ar  
  5   3  23  1   
  6   4   6  ar  
  7   4  24  1   
  8   5   7  1   
  9   5   8  ar  
 10   6   8  ar  
 11   6  25  1   
 12   7   9  2   
 13   7  10  am  
 14   8  26  1   
 15  10  11  1   
 16  10  12  1   
 17  11  13  1   
 18  11  27  1   
 19  11  28  1   
 20  12  14  1   
 21  12  29  1   
 22  12  30  1   
 23  13  15  1   
 24  13  31  1   
 25  13  32  1   
 26  14  15  1   
 27  14  33  1   
 28  14  34  1   
 29  15  16  1   
 30  15  35  1   
 31  16  17  2   
 32  16  18  am  
 33  18  19  1   
 34  18  36  1   
 35  19  20  1   
 36  19  37  1   
 37  19  38  1   
 38  20  21  1   
 39  20  39  1   
 40  20  40  1   
 41  21  22  1   
 42  21  41  1   
 43  21  42  1   
 44  22  43  1   
 45  22  44  1   
 46  22  45  1   
@<TRIPOS>SUBSTRUCTURE
  1 ****  14 GROUP 4 **** **** 0

# MOE 2024.06 (io_trps.svl 2023.06)
