@<TRIPOS>MOLECULE
NONAME
38 39 1 0 0 
SMALL
USER_CHARGES


@<TRIPOS>ATOM
  1 F        2.4650     0.4270     2.0390 F     1 <1>  -0.1900 
  2 C        1.9060    -0.2560     1.0710 C.ar  1 <1>   0.1900 
  3 C        2.4220    -0.2500    -0.2310 C.ar  1 <1>   0.0830 
  4 C        0.7780    -0.9830     1.4090 C.ar  1 <1>  -0.1500 
  5 O        3.5190     0.4230    -0.6800 O.3   1 <1>  -0.3630 
  6 C        1.7580    -1.0050    -1.1870 C.ar  1 <1>  -0.1500 
  7 C        0.1350    -1.7280     0.4350 C.ar  1 <1>  -0.1500 
  8 C        4.3230     1.2250     0.1540 C.3   1 <1>   0.1200 
  9 C        0.6270    -1.7370    -0.8610 C.ar  1 <1>  -0.1500 
 10 C        5.4580     1.8010    -0.6920 C.3   1 <1>  -0.1600 
 11 C        6.3810     2.6910     0.1510 C.3   1 <1>  -0.1600 
 12 C        7.5260     3.2690    -0.6880 C.3   1 <1>   0.0210 
 13 C        8.4200     4.1450     0.1730 C.2   1 <1>  -0.1810 
 14 C        8.2800     5.5140     0.3970 C.2   1 <1>   0.1080 
 15 C        9.5110     3.7900     0.8870 C.2   1 <1>  -0.3320 
 16 N        9.2010     5.9820     1.1770 N.2   1 <1>  -0.7070 
 17 C        7.2000     6.4000    -0.1820 C.3   1 <1>  -0.0590 
 18 N        9.9620     4.9160     1.4790 N.pl3 1 <1>   0.3000 
 19 C       10.1780     2.4370     1.0620 C.3   1 <1>  -0.0600 
 20 H        0.4110    -0.9640     2.4190 H     1 <1>   0.1500 
 21 H        2.1340    -1.0160    -2.1940 H     1 <1>   0.1500 
 22 H       -0.7430    -2.2980     0.6830 H     1 <1>   0.1500 
 23 H        4.7130     0.6100     0.9460 H     1 <1>   0.0800 
 24 H        3.7120     2.0140     0.5590 H     1 <1>   0.0800 
 25 H        0.1280    -2.3160    -1.6190 H     1 <1>   0.1500 
 26 H        5.0350     2.3800    -1.4950 H     1 <1>   0.0800 
 27 H        6.0260     0.9890    -1.1120 H     1 <1>   0.0800 
 28 H        6.7990     2.1170     0.9600 H     1 <1>   0.0800 
 29 H        5.8150     3.5000     0.5790 H     1 <1>   0.0800 
 30 H        7.1320     3.8490    -1.5040 H     1 <1>   0.0800 
 31 H        8.1090     2.4700    -1.1080 H     1 <1>   0.0800 
 32 H        7.4000     6.5800    -1.2210 H     1 <1>   0.0800 
 33 H        7.1840     7.3400     0.3380 H     1 <1>   0.0800 
 34 H        6.2400     5.9300    -0.0770 H     1 <1>   0.0800 
 35 H       10.7810     4.9900     2.0930 H     1 <1>   0.2700 
 36 H        9.6300     1.6730     0.5420 H     1 <1>   0.0800 
 37 H       10.2170     2.1760     2.1040 H     1 <1>   0.0800 
 38 H       11.1800     2.4650     0.6700 H     1 <1>   0.0800 
@<TRIPOS>BOND
  1   1   2  1   
  2   2   3  ar  
  3   2   4  ar  
  4   3   5  1   
  5   3   6  ar  
  6   4   7  ar  
  7   4  20  1   
  8   5   8  1   
  9   6   9  ar  
 10   6  21  1   
 11   7   9  ar  
 12   7  22  1   
 13   8  10  1   
 14   8  23  1   
 15   8  24  1   
 16   9  25  1   
 17  10  11  1   
 18  10  26  1   
 19  10  27  1   
 20  11  12  1   
 21  11  28  1   
 22  11  29  1   
 23  12  13  1   
 24  12  30  1   
 25  12  31  1   
 26  13  14  1   
 27  13  15  2   
 28  14  16  2   
 29  14  17  1   
 30  15  18  1   
 31  15  19  1   
 32  16  18  1   
 33  17  32  1   
 34  17  33  1   
 35  17  34  1   
 36  18  35  1   
 37  19  36  1   
 38  19  37  1   
 39  19  38  1   
@<TRIPOS>SUBSTRUCTURE
  1 ****  10 GROUP 4 **** **** 0

# MOE 2024.06 (io_trps.svl 2023.06)
