@<TRIPOS>MOLECULE
NONAME
38 39 1 0 0 
SMALL
USER_CHARGES


@<TRIPOS>ATOM
  1 O        1.5010     1.0340     1.1690 O.3   1 <1>  -0.6800 
  2 C        1.2930     0.7940    -0.1880 C.3   1 <1>   0.2000 
  3 C        2.5820     0.1490    -0.7350 C.3   1 <1>   0.3430 
  4 C        1.0280     2.1510    -0.8670 C.3   1 <1>  -0.1600 
  5 N        3.7160     1.0570    -0.3730 N.4   1 <1>  -0.9590 
  6 C        2.2500     2.6820    -1.6520 C.3   1 <1>  -0.1600 
  7 C        3.6110     2.4280    -0.9780 C.3   1 <1>   0.3430 
  8 C        5.0530     0.4090    -0.5390 C.3   1 <1>   0.3430 
  9 C        6.1770     1.1500     0.2090 C.3   1 <1>   0.0630 
 10 C        7.4730     0.3750     0.0070 C.ar  1 <1>  -0.1430 
 11 C        5.8840     1.3400     1.7070 C.3   1 <1>  -0.2400 
 12 C        7.6400    -0.8970     0.5410 C.ar  1 <1>  -0.1500 
 13 C        8.5080     0.9350    -0.7300 C.ar  1 <1>  -0.1500 
 14 C        8.8170    -1.5970     0.3350 C.ar  1 <1>  -0.1500 
 15 C        9.6840     0.2360    -0.9360 C.ar  1 <1>  -0.1500 
 16 C        9.8390    -1.0310    -0.4040 C.ar  1 <1>  -0.1500 
 17 H        0.6690     1.3320     1.5970 H     1 <1>   0.4000 
 18 H        0.4510     0.1300    -0.2920 H     1 <1>   0.0800 
 19 H        2.5170     0.0250    -1.8030 H     1 <1>   0.0800 
 20 H        2.7130    -0.8180    -0.2800 H     1 <1>   0.0800 
 21 H        0.7180     2.8810    -0.1370 H     1 <1>   0.0800 
 22 H        0.2130     2.0380    -1.5620 H     1 <1>   0.0800 
 23 H        3.5420     1.1920     0.6410 H     1 <1>   0.4500 
 24 H        2.1350     3.7380    -1.8240 H     1 <1>   0.0800 
 25 H        2.2710     2.2170    -2.6220 H     1 <1>   0.0800 
 26 H        4.3900     2.5660    -1.7100 H     1 <1>   0.0800 
 27 H        3.7580     3.1610    -0.2000 H     1 <1>   0.0800 
 28 H        5.3050     0.3510    -1.5850 H     1 <1>   0.0800 
 29 H        5.0080    -0.5970    -0.1580 H     1 <1>   0.0800 
 30 H        6.2990     2.1220    -0.2340 H     1 <1>   0.0800 
 31 H        5.6570     0.4020     2.1830 H     1 <1>   0.0800 
 32 H        5.0610     2.0150     1.8610 H     1 <1>   0.0800 
 33 H        6.7490     1.7590     2.1920 H     1 <1>   0.0800 
 34 H        6.8660    -1.3600     1.1250 H     1 <1>   0.1500 
 35 H        8.4160     1.9210    -1.1520 H     1 <1>   0.1500 
 36 H        8.9400    -2.5810     0.7530 H     1 <1>   0.1500 
 37 H       10.4820     0.6770    -1.5080 H     1 <1>   0.1500 
 38 H       10.7550    -1.5750    -0.5640 H     1 <1>   0.1500 
@<TRIPOS>BOND
  1   1   2  1   
  2   1  17  1   
  3   2   3  1   
  4   2   4  1   
  5   2  18  1   
  6   3   5  1   
  7   3  19  1   
  8   3  20  1   
  9   4   6  1   
 10   4  21  1   
 11   4  22  1   
 12   5   7  1   
 13   5   8  1   
 14   5  23  1   
 15   6   7  1   
 16   6  24  1   
 17   6  25  1   
 18   7  26  1   
 19   7  27  1   
 20   8   9  1   
 21   8  28  1   
 22   8  29  1   
 23   9  10  1   
 24   9  11  1   
 25   9  30  1   
 26  10  12  ar  
 27  10  13  ar  
 28  11  31  1   
 29  11  32  1   
 30  11  33  1   
 31  12  14  ar  
 32  12  34  1   
 33  13  15  ar  
 34  13  35  1   
 35  14  16  ar  
 36  14  36  1   
 37  15  16  ar  
 38  15  37  1   
 39  16  38  1   
@<TRIPOS>SUBSTRUCTURE
  1 ****   8 GROUP 4 **** **** 0

# MOE 2024.06 (io_trps.svl 2023.06)
