@<TRIPOS>MOLECULE
NONAME
51 53 1 0 0 
SMALL
USER_CHARGES


@<TRIPOS>ATOM
  1 O        7.1220     0.0450     0.6380 O.co2 1 <1>  -0.9000 
  2 C        6.3870    -0.6300     1.3730 C.2   1 <1>   0.9060 
  3 O        6.8740    -1.4780     2.1280 O.co2 1 <1>  -0.9000 
  4 C        4.8790    -0.5630     1.2660 C.3   1 <1>  -0.1860 
  5 C        4.3200    -1.7690     0.4640 C.3   1 <1>  -0.0190 
  6 C        4.3790     0.7830     0.7090 C.3   1 <1>  -0.0220 
  7 C        4.8470    -1.8140    -0.9860 C.2   1 <1>   0.5690 
  8 C        2.7730    -1.7730     0.5360 C.3   1 <1>  -0.0220 
  9 C        2.8740     0.7490     0.5040 C.2   1 <1>  -0.2880 
 10 O        4.1840    -1.2840    -1.8500 O.2   1 <1>  -0.5700 
 11 N        6.0380    -2.4220    -1.3380 N.am  1 <1>  -0.6600 
 12 C        2.1640    -0.3800     0.4370 C.2   1 <1>  -0.2880 
 13 C        6.7340    -1.9630    -2.5680 C.3   1 <1>   0.1400 
 14 C        6.9380    -3.2460    -0.4670 C.3   1 <1>   0.1400 
 15 C        7.9020    -1.0670    -2.1420 C.3   1 <1>   0.3430 
 16 C        8.3160    -2.5860    -0.2010 C.3   1 <1>   0.3430 
 17 N        8.9400    -1.8100    -1.3410 N.4   1 <1>  -0.9590 
 18 C        9.8300    -0.7630    -0.7480 C.3   1 <1>   0.3430 
 19 C       11.0150    -1.3490     0.0230 C.3   1 <1>  -0.0170 
 20 C       11.9240    -0.2170     0.4630 C.ar  1 <1>  -0.1430 
 21 C       13.1850    -0.0550    -0.0910 C.ar  1 <1>  -0.1500 
 22 C       11.4840     0.6760     1.4290 C.ar  1 <1>  -0.1500 
 23 C       13.9960     0.9900     0.3150 C.ar  1 <1>  -0.1500 
 24 C       12.2950     1.7210     1.8340 C.ar  1 <1>  -0.1500 
 25 C       13.5510     1.8790     1.2770 C.ar  1 <1>  -0.1500 
 26 H        4.5120    -0.6460     2.2710 H     1 <1>   0.0800 
 27 H        4.6330    -2.6670     0.9570 H     1 <1>   0.0800 
 28 H        4.8560     1.0040    -0.2310 H     1 <1>   0.0800 
 29 H        4.6370     1.5640     1.4030 H     1 <1>   0.0800 
 30 H        2.4680    -2.2000     1.4740 H     1 <1>   0.0800 
 31 H        2.3790    -2.3950    -0.2490 H     1 <1>   0.0800 
 32 H        2.4360     1.7280     0.4070 H     1 <1>   0.1500 
 33 H        1.0970    -0.3920     0.2990 H     1 <1>   0.1500 
 34 H        6.0730    -1.3960    -3.2000 H     1 <1>   0.0800 
 35 H        7.0850    -2.8080    -3.1330 H     1 <1>   0.0800 
 36 H        7.0990    -4.1920    -0.9510 H     1 <1>   0.0800 
 37 H        6.4810    -3.4570     0.4810 H     1 <1>   0.0800 
 38 H        7.4970    -0.2610    -1.5510 H     1 <1>   0.0800 
 39 H        8.3580    -0.6360    -3.0170 H     1 <1>   0.0800 
 40 H        8.9980    -3.3490     0.1310 H     1 <1>   0.0800 
 41 H        8.2180    -1.9160     0.6260 H     1 <1>   0.0800 
 42 H        9.4620    -2.4420    -1.9510 H     1 <1>   0.4500 
 43 H        9.2540    -0.1410    -0.0790 H     1 <1>   0.0800 
 44 H       10.2120    -0.1280    -1.5300 H     1 <1>   0.0800 
 45 H       11.5600    -2.0350    -0.5990 H     1 <1>   0.0800 
 46 H       10.6730    -1.8660     0.9020 H     1 <1>   0.0800 
 47 H       13.5490    -0.7380    -0.8390 H     1 <1>   0.1500 
 48 H       10.5070     0.5660     1.8740 H     1 <1>   0.1500 
 49 H       14.9740     1.1130    -0.1160 H     1 <1>   0.1500 
 50 H       11.9460     2.4100     2.5840 H     1 <1>   0.1500 
 51 H       14.1810     2.6920     1.5930 H     1 <1>   0.1500 
@<TRIPOS>BOND
  1   1   2  ar  
  2   2   3  ar  
  3   2   4  1   
  4   4   5  1   
  5   4   6  1   
  6   4  26  1   
  7   5   7  1   
  8   5   8  1   
  9   5  27  1   
 10   6   9  1   
 11   6  28  1   
 12   6  29  1   
 13   7  10  2   
 14   7  11  am  
 15   8  12  1   
 16   8  30  1   
 17   8  31  1   
 18   9  12  2   
 19   9  32  1   
 20  11  13  1   
 21  11  14  1   
 22  12  33  1   
 23  13  15  1   
 24  13  34  1   
 25  13  35  1   
 26  14  16  1   
 27  14  36  1   
 28  14  37  1   
 29  15  17  1   
 30  15  38  1   
 31  15  39  1   
 32  16  17  1   
 33  16  40  1   
 34  16  41  1   
 35  17  18  1   
 36  17  42  1   
 37  18  19  1   
 38  18  43  1   
 39  18  44  1   
 40  19  20  1   
 41  19  45  1   
 42  19  46  1   
 43  20  21  ar  
 44  20  22  ar  
 45  21  23  ar  
 46  21  47  1   
 47  22  24  ar  
 48  22  48  1   
 49  23  25  ar  
 50  23  49  1   
 51  24  25  ar  
 52  24  50  1   
 53  25  51  1   
@<TRIPOS>SUBSTRUCTURE
  1 ****   1 GROUP 4 **** **** 0

# MOE 2024.06 (io_trps.svl 2023.06)
