@<TRIPOS>MOLECULE
NONAME
45 46 1 0 0 
SMALL
USER_CHARGES


@<TRIPOS>ATOM
  1 O        0.2820    -0.3120     0.4300 O.3   1 <1>  -0.3630 
  2 C       -0.9210    -0.8740     0.1470 C.ar  1 <1>   0.0830 
  3 C        1.4860    -0.9200     0.0180 C.3   1 <1>   0.1200 
  4 C       -1.0760    -2.0620    -0.5600 C.ar  1 <1>  -0.1500 
  5 C       -2.0450    -0.2040     0.6020 C.ar  1 <1>  -0.1500 
  6 C        2.6410    -0.0460     0.4980 C.3   1 <1>   0.1200 
  7 C       -2.3430    -2.5640    -0.8030 C.ar  1 <1>  -0.1500 
  8 C       -3.3100    -0.7080     0.3580 C.ar  1 <1>  -0.1500 
  9 O        3.8460    -0.6310     0.0980 O.3   1 <1>  -0.5600 
 10 C       -3.4670    -1.8910    -0.3480 C.ar  1 <1>  -0.1430 
 11 C        4.9780     0.0750     0.4820 C.3   1 <1>   0.1200 
 12 C       -4.8560    -2.4460    -0.6170 C.3   1 <1>  -0.0170 
 13 C        6.1980    -0.7080    -0.0170 C.3   1 <1>   0.3430 
 14 C       -5.2850    -3.3870     0.5100 C.3   1 <1>  -0.2400 
 15 N        7.4960    -0.0580     0.3560 N.4   1 <1>  -0.9590 
 16 C        7.7350     1.2510    -0.3060 C.3   1 <1>   0.3430 
 17 C        8.6640    -0.9020     0.0030 C.3   1 <1>   0.3430 
 18 C        9.2400     1.4560    -0.2090 C.3   1 <1>  -0.1600 
 19 C        9.8410     0.0630     0.0010 C.3   1 <1>  -0.1600 
 20 H        1.4820    -0.9840    -1.0550 H     1 <1>   0.0800 
 21 H        1.5420    -1.8970     0.4640 H     1 <1>   0.0800 
 22 H       -0.2300    -2.6100    -0.9280 H     1 <1>   0.1500 
 23 H       -1.9240     0.7130     1.1490 H     1 <1>   0.1500 
 24 H        2.6270     0.0210     1.5730 H     1 <1>   0.0800 
 25 H        2.5660     0.9340     0.0580 H     1 <1>   0.0800 
 26 H       -2.4530    -3.4840    -1.3490 H     1 <1>   0.1500 
 27 H       -4.1720    -0.1770     0.7200 H     1 <1>   0.1500 
 28 H        4.9840     0.1480     1.5570 H     1 <1>   0.0800 
 29 H        4.9330     1.0530     0.0340 H     1 <1>   0.0800 
 30 H       -4.8590    -2.9780    -1.5530 H     1 <1>   0.0800 
 31 H       -5.5600    -1.6370    -0.7000 H     1 <1>   0.0800 
 32 H        6.1340    -0.8010    -1.0880 H     1 <1>   0.0800 
 33 H        6.1580    -1.6960     0.4110 H     1 <1>   0.0800 
 34 H       -4.5960    -4.2090     0.5900 H     1 <1>   0.0800 
 35 H       -6.2680    -3.7770     0.3140 H     1 <1>   0.0800 
 36 H       -5.3010    -2.8600     1.4470 H     1 <1>   0.0800 
 37 H        7.5290     0.0910     1.3740 H     1 <1>   0.4500 
 38 H        7.1920     2.0500     0.1740 H     1 <1>   0.0800 
 39 H        7.4470     1.1930    -1.3440 H     1 <1>   0.0800 
 40 H        8.5340    -1.3110    -0.9870 H     1 <1>   0.0800 
 41 H        8.8060    -1.7060     0.7070 H     1 <1>   0.0800 
 42 H        9.4700     2.0950     0.6270 H     1 <1>   0.0800 
 43 H        9.6130     1.9220    -1.1050 H     1 <1>   0.0800 
 44 H       10.5370    -0.1950    -0.7790 H     1 <1>   0.0800 
 45 H       10.3550     0.0130     0.9460 H     1 <1>   0.0800 
@<TRIPOS>BOND
  1   1   2  1   
  2   1   3  1   
  3   2   4  ar  
  4   2   5  ar  
  5   3   6  1   
  6   3  20  1   
  7   3  21  1   
  8   4   7  ar  
  9   4  22  1   
 10   5   8  ar  
 11   5  23  1   
 12   6   9  1   
 13   6  24  1   
 14   6  25  1   
 15   7  10  ar  
 16   7  26  1   
 17   8  10  ar  
 18   8  27  1   
 19   9  11  1   
 20  10  12  1   
 21  11  13  1   
 22  11  28  1   
 23  11  29  1   
 24  12  14  1   
 25  12  30  1   
 26  12  31  1   
 27  13  15  1   
 28  13  32  1   
 29  13  33  1   
 30  14  34  1   
 31  14  35  1   
 32  14  36  1   
 33  15  16  1   
 34  15  17  1   
 35  15  37  1   
 36  16  18  1   
 37  16  38  1   
 38  16  39  1   
 39  17  19  1   
 40  17  40  1   
 41  17  41  1   
 42  18  19  1   
 43  18  42  1   
 44  18  43  1   
 45  19  44  1   
 46  19  45  1   
@<TRIPOS>SUBSTRUCTURE
  1 ****   3 GROUP 4 **** **** 0

# MOE 2024.06 (io_trps.svl 2023.06)
