@<TRIPOS>MOLECULE
NONAME
47 50 1 0 0 
SMALL
USER_CHARGES


@<TRIPOS>ATOM
  1 O        0.1440     0.1060     0.7220 O.2   1 <1>  -0.5700 
  2 C       -0.0450     1.0790     0.0280 C.2   1 <1>   0.5690 
  3 N        0.9670     1.5990    -0.7210 N.am  1 <1>  -0.7300 
  4 C       -1.4450     1.7320     0.0080 C.3   1 <1>   0.0610 
  5 C        2.3380     1.0430    -0.7860 C.3   1 <1>   0.1400 
  6 C       -1.8250     2.2020     1.4340 C.3   1 <1>  -0.1600 
  7 C       -2.5000     0.6990    -0.4620 C.3   1 <1>  -0.1600 
  8 C       -1.5260     2.9620    -0.9390 C.3   1 <1>  -0.1600 
  9 C        3.2200     1.7060     0.2710 C.3   1 <1>  -0.0170 
 10 C       -3.2370     2.8170     1.4570 C.3   1 <1>  -0.0800 
 11 C       -3.9150     1.3060    -0.4470 C.3   1 <1>  -0.0800 
 12 C       -2.9360     3.5800    -0.9270 C.3   1 <1>  -0.0800 
 13 C        4.6260     1.1330     0.2120 C.ar  1 <1>  -0.1440 
 14 C       -4.2540     1.7620     0.9840 C.3   1 <1>  -0.1600 
 15 C       -3.2800     4.0260     0.5050 C.3   1 <1>  -0.1600 
 16 C       -3.9550     2.5230    -1.3900 C.3   1 <1>  -0.1600 
 17 C        5.6290     1.7930    -0.4840 C.ar  1 <1>  -0.1500 
 18 C        4.9110    -0.0640     0.8540 C.ar  1 <1>  -0.1500 
 19 C        6.9060     1.2610    -0.5380 C.ar  1 <1>  -0.1500 
 20 C        6.1860    -0.6000     0.8020 C.ar  1 <1>  -0.1500 
 21 C        7.1790     0.0670     0.1040 C.ar  1 <1>   0.0820 
 22 O        8.4190    -0.4410     0.0440 O.3   1 <1>  -0.5330 
 23 H        0.7900     2.4330    -1.2800 H     1 <1>   0.3700 
 24 H        2.7480     1.2060    -1.7680 H     1 <1>   0.0800 
 25 H        2.3040    -0.0200    -0.6090 H     1 <1>   0.0800 
 26 H       -1.7900     1.3660     2.1110 H     1 <1>   0.0800 
 27 H       -1.1080     2.9260     1.7800 H     1 <1>   0.0800 
 28 H       -2.4750    -0.1610     0.1850 H     1 <1>   0.0800 
 29 H       -2.2590     0.3610    -1.4540 H     1 <1>   0.0800 
 30 H       -1.2830     2.6660    -1.9450 H     1 <1>   0.0800 
 31 H       -0.8160     3.7100    -0.6300 H     1 <1>   0.0800 
 32 H        2.8020     1.5260     1.2460 H     1 <1>   0.0800 
 33 H        3.2510     2.7680     0.1060 H     1 <1>   0.0800 
 34 H       -3.4800     3.1320     2.4580 H     1 <1>   0.0800 
 35 H       -4.6300     0.5700    -0.7730 H     1 <1>   0.0800 
 36 H       -2.9700     4.4290    -1.5890 H     1 <1>   0.0800 
 37 H       -5.2470     2.1760     1.0090 H     1 <1>   0.0800 
 38 H       -4.2370     0.9160     1.6490 H     1 <1>   0.0800 
 39 H       -2.5810     4.7750     0.8350 H     1 <1>   0.0800 
 40 H       -4.2620     4.4670     0.5230 H     1 <1>   0.0800 
 41 H       -4.9440     2.9470    -1.3930 H     1 <1>   0.0800 
 42 H       -3.7300     2.2120    -2.3950 H     1 <1>   0.0800 
 43 H        5.4240     2.7220    -0.9860 H     1 <1>   0.1500 
 44 H        4.1370    -0.5810     1.3950 H     1 <1>   0.1500 
 45 H        7.6900     1.7640    -1.0740 H     1 <1>   0.1500 
 46 H        6.3960    -1.5270     1.3020 H     1 <1>   0.1500 
 47 H        8.5080    -1.2800     0.5290 H     1 <1>   0.4500 
@<TRIPOS>BOND
  1   1   2  2   
  2   2   3  am  
  3   2   4  1   
  4   3   5  1   
  5   3  23  1   
  6   4   6  1   
  7   4   7  1   
  8   4   8  1   
  9   5   9  1   
 10   5  24  1   
 11   5  25  1   
 12   6  10  1   
 13   6  26  1   
 14   6  27  1   
 15   7  11  1   
 16   7  28  1   
 17   7  29  1   
 18   8  12  1   
 19   8  30  1   
 20   8  31  1   
 21   9  13  1   
 22   9  32  1   
 23   9  33  1   
 24  10  14  1   
 25  10  15  1   
 26  10  34  1   
 27  11  14  1   
 28  11  16  1   
 29  11  35  1   
 30  12  15  1   
 31  12  16  1   
 32  12  36  1   
 33  13  17  ar  
 34  13  18  ar  
 35  14  37  1   
 36  14  38  1   
 37  15  39  1   
 38  15  40  1   
 39  16  41  1   
 40  16  42  1   
 41  17  19  ar  
 42  17  43  1   
 43  18  20  ar  
 44  18  44  1   
 45  19  21  ar  
 46  19  45  1   
 47  20  21  ar  
 48  20  46  1   
 49  21  22  1   
 50  22  47  1   
@<TRIPOS>SUBSTRUCTURE
  1 ****   3 GROUP 4 **** **** 0

# MOE 2024.06 (io_trps.svl 2023.06)
