@<TRIPOS>MOLECULE
NONAME
47 49 1 0 0 
SMALL
USER_CHARGES


@<TRIPOS>ATOM
  1 BR       3.4730     2.5660     4.5550 Br    1 <1>  -0.1110 
  2 C        3.0960     3.0270     2.7240 C.ar  1 <1>   0.1110 
  3 C        4.0110     2.6810     1.7500 C.ar  1 <1>  -0.1500 
  4 C        1.9230     3.6940     2.4320 C.ar  1 <1>  -0.1500 
  5 C        3.7480     3.0130     0.4290 C.ar  1 <1>  -0.1440 
  6 C        1.6620     4.0280     1.1140 C.ar  1 <1>  -0.1500 
  7 C        2.5710     3.6930     0.1090 C.ar  1 <1>   0.0830 
  8 C        4.7620     2.6260    -0.6400 C.3   1 <1>   0.2540 
  9 O        2.3640     4.0140    -1.1970 O.3   1 <1>  -0.3630 
 10 N        5.9380     3.5180    -0.5810 N.3   1 <1>  -0.8100 
 11 C        1.1130     4.4890    -1.6480 C.3   1 <1>   0.0400 
 12 C        7.0030     3.0760    -1.5070 C.3   1 <1>   0.1100 
 13 C        5.5560     4.9290    -0.8640 C.3   1 <1>   0.1100 
 14 C        8.2700     3.9620    -1.3940 C.3   1 <1>   0.3430 
 15 C        6.7770     5.8750    -0.9380 C.3   1 <1>   0.3430 
 16 N        8.0220     5.1530    -0.5170 N.4   1 <1>  -0.9590 
 17 C        9.2050     6.0270    -0.3170 C.3   1 <1>   0.4860 
 18 C        8.8640     7.0950     0.7080 C.ar  1 <1>  -0.1430 
 19 C        8.6860     6.7530     2.0440 C.ar  1 <1>  -0.1500 
 20 C        8.7240     8.4190     0.3120 C.ar  1 <1>  -0.1500 
 21 C        8.3600     7.7260     2.9750 C.ar  1 <1>  -0.1500 
 22 C        8.3990     9.3940     1.2400 C.ar  1 <1>  -0.1500 
 23 C        8.2190     9.0370     2.5630 C.ar  1 <1>   0.1770 
 24 CL       7.8060    10.2630     3.7320 Cl    1 <1>  -0.1770 
 25 H        4.9120     2.1630     2.0230 H     1 <1>   0.1500 
 26 H        1.2340     3.9460     3.2180 H     1 <1>   0.1500 
 27 H        0.7510     4.5510     0.8940 H     1 <1>   0.1500 
 28 H        4.3180     2.6590    -1.6210 H     1 <1>   0.0800 
 29 H        5.0740     1.6110    -0.4600 H     1 <1>   0.0800 
 30 H        1.1540     4.5780    -2.7190 H     1 <1>   0.0800 
 31 H        0.9250     5.4530    -1.2100 H     1 <1>   0.0800 
 32 H        0.3500     3.7840    -1.3700 H     1 <1>   0.0800 
 33 H        6.6390     3.1050    -2.5210 H     1 <1>   0.0800 
 34 H        7.2720     2.0560    -1.2890 H     1 <1>   0.0800 
 35 H        4.9050     5.2850    -0.0830 H     1 <1>   0.0800 
 36 H        5.0050     4.9870    -1.7870 H     1 <1>   0.0800 
 37 H        8.5680     4.2790    -2.3800 H     1 <1>   0.0800 
 38 H        9.0700     3.3690    -0.9830 H     1 <1>   0.0800 
 39 H        6.5960     6.7210    -0.2940 H     1 <1>   0.0800 
 40 H        6.8830     6.2430    -1.9450 H     1 <1>   0.0800 
 41 H        7.7480     4.7480     0.3910 H     1 <1>   0.4500 
 42 H        9.4850     6.4910    -1.2480 H     1 <1>   0.0800 
 43 H       10.0390     5.4450     0.0400 H     1 <1>   0.0800 
 44 H        8.7980     5.7350     2.3790 H     1 <1>   0.1500 
 45 H        8.8660     8.7100    -0.7160 H     1 <1>   0.1500 
 46 H        8.2170     7.4770     4.0120 H     1 <1>   0.1500 
 47 H        8.2870    10.4250     0.9500 H     1 <1>   0.1500 
@<TRIPOS>BOND
  1   1   2  1   
  2   2   3  ar  
  3   2   4  ar  
  4   3   5  ar  
  5   3  25  1   
  6   4   6  ar  
  7   4  26  1   
  8   5   7  ar  
  9   5   8  1   
 10   6   7  ar  
 11   6  27  1   
 12   7   9  1   
 13   8  10  1   
 14   8  28  1   
 15   8  29  1   
 16   9  11  1   
 17  10  12  1   
 18  10  13  1   
 19  11  30  1   
 20  11  31  1   
 21  11  32  1   
 22  12  14  1   
 23  12  33  1   
 24  12  34  1   
 25  13  15  1   
 26  13  35  1   
 27  13  36  1   
 28  14  16  1   
 29  14  37  1   
 30  14  38  1   
 31  15  16  1   
 32  15  39  1   
 33  15  40  1   
 34  16  17  1   
 35  16  41  1   
 36  17  18  1   
 37  17  42  1   
 38  17  43  1   
 39  18  19  ar  
 40  18  20  ar  
 41  19  21  ar  
 42  19  44  1   
 43  20  22  ar  
 44  20  45  1   
 45  21  23  ar  
 46  21  46  1   
 47  22  23  ar  
 48  22  47  1   
 49  23  24  1   
@<TRIPOS>SUBSTRUCTURE
  1 ****  13 GROUP 4 **** **** 0

# MOE 2024.06 (io_trps.svl 2023.06)
