@<TRIPOS>MOLECULE
NONAME
40 41 1 0 0 
SMALL
USER_CHARGES


@<TRIPOS>ATOM
  1 O       -1.0470     4.7980    -0.0180 O.3   1 <1>  -0.3630 
  2 C        0.1930     5.3350     0.1100 C.ar  1 <1>   0.0830 
  3 C       -2.2030     5.5550     0.2600 C.3   1 <1>   0.1200 
  4 C        1.2610     4.5390    -0.2680 C.ar  1 <1>  -0.1500 
  5 C        0.4370     6.6170     0.5890 C.ar  1 <1>  -0.1500 
  6 C       -3.4210     4.6670    -0.0080 C.3   1 <1>   0.1100 
  7 C        2.5650     4.9990    -0.1790 C.ar  1 <1>  -0.1440 
  8 C        1.7370     7.0810     0.6800 C.ar  1 <1>  -0.1500 
  9 N       -4.6960     5.3870     0.2210 N.3   1 <1>  -0.8100 
 10 C        2.8060     6.2840     0.3000 C.ar  1 <1>  -0.1430 
 11 C        3.7020     4.0830    -0.6080 C.3   1 <1>  -0.0970 
 12 C       -5.0140     6.3200    -0.8820 C.3   1 <1>   0.1100 
 13 C       -5.7960     4.4310     0.4580 C.3   1 <1>   0.1100 
 14 C        4.2190     6.8360     0.4170 C.3   1 <1>  -0.0970 
 15 C       -6.3330     7.0760    -0.6160 C.3   1 <1>   0.3430 
 16 C       -7.1230     5.1610     0.7480 C.3   1 <1>   0.3430 
 17 N       -7.4660     6.1300    -0.3450 N.4   1 <1>  -0.9060 
 18 H       -2.1960     6.4140    -0.3840 H     1 <1>   0.0800 
 19 H       -2.1750     5.8490     1.2940 H     1 <1>   0.0800 
 20 H        1.0540     3.5510    -0.6350 H     1 <1>   0.1500 
 21 H       -0.3610     7.2640     0.8970 H     1 <1>   0.1500 
 22 H       -3.3570     3.8290     0.6660 H     1 <1>   0.0800 
 23 H       -3.3820     4.2940    -1.0170 H     1 <1>   0.0800 
 24 H        1.9120     8.0750     1.0530 H     1 <1>   0.1500 
 25 H        3.3260     3.1350    -0.9470 H     1 <1>   0.0800 
 26 H        4.3660     3.9070     0.2190 H     1 <1>   0.0800 
 27 H        4.2540     4.5340    -1.4130 H     1 <1>   0.0800 
 28 H       -5.0850     5.7810    -1.8120 H     1 <1>   0.0800 
 29 H       -4.2240     7.0440    -0.9830 H     1 <1>   0.0800 
 30 H       -5.5520     3.8160     1.3090 H     1 <1>   0.0800 
 31 H       -5.9130     3.7830    -0.3940 H     1 <1>   0.0800 
 32 H        4.8000     6.2230     1.0830 H     1 <1>   0.0800 
 33 H        4.2120     7.8390     0.8020 H     1 <1>   0.0800 
 34 H        4.6900     6.8490    -0.5490 H     1 <1>   0.0800 
 35 H       -6.5650     7.6990    -1.4640 H     1 <1>   0.0800 
 36 H       -6.1850     7.7180     0.2370 H     1 <1>   0.0800 
 37 H       -7.0200     5.6890     1.6820 H     1 <1>   0.0800 
 38 H       -7.9130     4.4360     0.8620 H     1 <1>   0.0800 
 39 H       -7.6710     5.6040    -1.2020 H     1 <1>   0.4500 
 40 H       -8.3110     6.6580    -0.0940 H     1 <1>   0.4500 
@<TRIPOS>BOND
  1   1   2  1   
  2   1   3  1   
  3   2   4  ar  
  4   2   5  ar  
  5   3   6  1   
  6   3  18  1   
  7   3  19  1   
  8   4   7  ar  
  9   4  20  1   
 10   5   8  ar  
 11   5  21  1   
 12   6   9  1   
 13   6  22  1   
 14   6  23  1   
 15   7  10  ar  
 16   7  11  1   
 17   8  10  ar  
 18   8  24  1   
 19   9  12  1   
 20   9  13  1   
 21  10  14  1   
 22  11  25  1   
 23  11  26  1   
 24  11  27  1   
 25  12  15  1   
 26  12  28  1   
 27  12  29  1   
 28  13  16  1   
 29  13  30  1   
 30  13  31  1   
 31  14  32  1   
 32  14  33  1   
 33  14  34  1   
 34  15  17  1   
 35  15  35  1   
 36  15  36  1   
 37  16  17  1   
 38  16  37  1   
 39  16  38  1   
 40  17  39  1   
 41  17  40  1   
@<TRIPOS>SUBSTRUCTURE
  1 ****   3 GROUP 4 **** **** 0

# MOE 2024.06 (io_trps.svl 2023.06)
