@<TRIPOS>MOLECULE
NONAME
53 55 1 0 0 
SMALL
USER_CHARGES


@<TRIPOS>ATOM
  1 O        0.9340     0.7700     0.2090 O.2   1 <1>  -0.5700 
  2 C        0.6840    -0.3430    -0.1900 C.2   1 <1>   0.5690 
  3 N        1.5850    -1.3480    -0.4170 N.am  1 <1>  -0.2370 
  4 C       -0.7390    -0.7840    -0.5410 C.3   1 <1>   0.2510 
  5 C        2.9760    -1.2770    -0.1580 C.ar  1 <1>   0.1170 
  6 C        0.9330    -2.4370    -0.9350 C.2   1 <1>   0.5690 
  7 N       -1.6460    -0.8120     0.6250 N.3   1 <1>  -0.9000 
  8 C       -0.5490    -2.2010    -1.0830 C.3   1 <1>  -0.0990 
  9 C        3.6300    -2.3090     0.5070 C.ar  1 <1>  -0.1500 
 10 C        3.7230    -0.1740    -0.5620 C.ar  1 <1>  -0.1500 
 11 O        1.4360    -3.4770    -1.2720 O.2   1 <1>  -0.5700 
 12 C       -3.0620    -0.7840     0.2830 C.3   1 <1>   0.1900 
 13 C        4.9880    -2.2400     0.7610 C.ar  1 <1>  -0.1500 
 14 C        5.0820    -0.1000    -0.3110 C.ar  1 <1>  -0.1500 
 15 C       -3.4900     0.6770     0.0610 C.3   1 <1>  -0.1600 
 16 C       -3.7970    -1.4740     1.4360 C.3   1 <1>  -0.1600 
 17 C        5.7240    -1.1390     0.3560 C.ar  1 <1>   0.0830 
 18 C       -4.6700     0.8310    -0.9190 C.3   1 <1>  -0.1600 
 19 C       -5.2980    -1.7150     1.2020 C.3   1 <1>  -0.1600 
 20 O        7.0510    -1.1510     0.6450 O.3   1 <1>  -0.3630 
 21 C       -5.9720     1.3050    -0.2590 C.3   1 <1>  -0.1600 
 22 C       -6.2010    -0.5220     1.5680 C.3   1 <1>  -0.1600 
 23 C        7.8850    -0.0760     0.2830 C.3   1 <1>   0.1200 
 24 C       -6.8270     0.1910     0.3600 C.3   1 <1>  -0.1600 
 25 C        9.3000    -0.3980     0.7520 C.3   1 <1>  -0.2400 
 26 H       -1.1180    -0.1280    -1.3060 H     1 <1>   0.0800 
 27 H       -1.4520     0.0180     1.2050 H     1 <1>   0.3600 
 28 H       -0.8180    -2.2590    -2.1210 H     1 <1>   0.0800 
 29 H       -1.0920    -2.9340    -0.5150 H     1 <1>   0.0800 
 30 H        3.0770    -3.1740     0.8260 H     1 <1>   0.1500 
 31 H        3.2390     0.6380    -1.0750 H     1 <1>   0.1500 
 32 H       -3.2160    -1.3600    -0.6150 H     1 <1>   0.0800 
 33 H        5.4870    -3.0420     1.2740 H     1 <1>   0.1500 
 34 H        5.6190     0.7700    -0.6380 H     1 <1>   0.1500 
 35 H       -2.6670     1.2260    -0.3600 H     1 <1>   0.0800 
 36 H       -3.7140     1.1380     1.0060 H     1 <1>   0.0800 
 37 H       -3.6500    -0.9270     2.3500 H     1 <1>   0.0800 
 38 H       -3.3400    -2.4390     1.5680 H     1 <1>   0.0800 
 39 H       -4.8460    -0.0750    -1.4720 H     1 <1>   0.0800 
 40 H       -4.3910     1.5800    -1.6410 H     1 <1>   0.0800 
 41 H       -5.5840    -2.5340     1.8400 H     1 <1>   0.0800 
 42 H       -5.4710    -2.0430     0.1920 H     1 <1>   0.0800 
 43 H       -6.5700     1.7760    -1.0200 H     1 <1>   0.0800 
 44 H       -5.7630     2.0610     0.4790 H     1 <1>   0.0800 
 45 H       -5.6860     0.1850     2.1960 H     1 <1>   0.0800 
 46 H       -7.0140    -0.9110     2.1560 H     1 <1>   0.0800 
 47 H        7.5190     0.8160     0.7620 H     1 <1>   0.0800 
 48 H        7.8550     0.0330    -0.7870 H     1 <1>   0.0800 
 49 H       -7.1020    -0.5260    -0.3950 H     1 <1>   0.0800 
 50 H       -7.7430     0.6480     0.6940 H     1 <1>   0.0800 
 51 H        9.3150    -0.5220     1.8210 H     1 <1>   0.0800 
 52 H        9.9630     0.4060     0.4900 H     1 <1>   0.0800 
 53 H        9.6490    -1.2990     0.2810 H     1 <1>   0.0800 
@<TRIPOS>BOND
  1   1   2  2   
  2   2   3  am  
  3   2   4  1   
  4   3   5  1   
  5   3   6  am  
  6   4   7  1   
  7   4   8  1   
  8   4  26  1   
  9   5   9  ar  
 10   5  10  ar  
 11   6   8  1   
 12   6  11  2   
 13   7  12  1   
 14   7  27  1   
 15   8  28  1   
 16   8  29  1   
 17   9  13  ar  
 18   9  30  1   
 19  10  14  ar  
 20  10  31  1   
 21  12  15  1   
 22  12  16  1   
 23  12  32  1   
 24  13  17  ar  
 25  13  33  1   
 26  14  17  ar  
 27  14  34  1   
 28  15  18  1   
 29  15  35  1   
 30  15  36  1   
 31  16  19  1   
 32  16  37  1   
 33  16  38  1   
 34  17  20  1   
 35  18  21  1   
 36  18  39  1   
 37  18  40  1   
 38  19  22  1   
 39  19  41  1   
 40  19  42  1   
 41  20  23  1   
 42  21  24  1   
 43  21  43  1   
 44  21  44  1   
 45  22  24  1   
 46  22  45  1   
 47  22  46  1   
 48  23  25  1   
 49  23  47  1   
 50  23  48  1   
 51  24  49  1   
 52  24  50  1   
 53  25  51  1   
 54  25  52  1   
 55  25  53  1   
@<TRIPOS>SUBSTRUCTURE
  1 ****   2 GROUP 4 **** **** 0

# MOE 2024.06 (io_trps.svl 2023.06)
