@<TRIPOS>MOLECULE
NONAME
30 32 1 0 0 
SMALL
USER_CHARGES


@<TRIPOS>ATOM
  1 O       -0.4340     0.0080    -0.0630 O.2   1 <1>  -0.5700 
  2 C       -1.6420    -0.0570     0.0070 C.2   1 <1>   0.6900 
  3 N       -2.3140    -1.1440     0.5100 N.am  1 <1>  -0.6600 
  4 N       -2.4830     0.9480    -0.4020 N.am  1 <1>  -0.6600 
  5 C       -3.7210    -0.9520     0.1240 C.3   1 <1>   0.6410 
  6 C       -1.7610    -2.4770     0.8570 C.3   1 <1>   0.0600 
  7 C       -3.7870     0.6010     0.1520 C.3   1 <1>   0.7240 
  8 C       -2.0940     2.3440    -0.7300 C.3   1 <1>   0.0600 
  9 O       -3.7280    -1.4830    -1.1740 O.3   1 <1>  -0.6800 
 10 C       -5.0880    -1.2380     0.7440 C.2   1 <1>   0.4230 
 11 O       -3.7050     1.1290     1.4340 O.3   1 <1>  -0.6800 
 12 C       -5.2110     0.8640    -0.2760 C.ar  1 <1>  -0.1440 
 13 O       -5.3610    -2.1470     1.4930 O.2   1 <1>  -0.5700 
 14 C       -5.9530    -0.2150     0.1970 C.ar  1 <1>   0.0860 
 15 C       -5.8040     1.9300    -0.9260 C.ar  1 <1>  -0.1500 
 16 C       -7.3350    -0.1990     0.0460 C.ar  1 <1>  -0.1500 
 17 C       -7.1810     1.9210    -1.0900 C.ar  1 <1>  -0.1500 
 18 C       -7.9410     0.8670    -0.5990 C.ar  1 <1>  -0.1500 
 19 H       -0.6920    -2.4120     0.9690 H     1 <1>   0.0800 
 20 H       -1.9900    -3.1860     0.0800 H     1 <1>   0.0800 
 21 H       -2.1920    -2.8180     1.7830 H     1 <1>   0.0800 
 22 H       -1.0290     2.4020    -0.8770 H     1 <1>   0.0800 
 23 H       -2.3710     3.0060     0.0730 H     1 <1>   0.0800 
 24 H       -2.5870     2.6560    -1.6330 H     1 <1>   0.0800 
 25 H       -2.8520    -1.3000    -1.5620 H     1 <1>   0.4000 
 26 H       -2.8050     0.9430     1.7620 H     1 <1>   0.4000 
 27 H       -5.2160     2.7570    -1.2840 H     1 <1>   0.1500 
 28 H       -7.9180    -1.0220     0.4220 H     1 <1>   0.1500 
 29 H       -7.6660     2.7400    -1.5930 H     1 <1>   0.1500 
 30 H       -9.0100     0.8780    -0.7240 H     1 <1>   0.1500 
@<TRIPOS>BOND
  1   1   2  2   
  2   2   3  am  
  3   2   4  am  
  4   3   5  1   
  5   3   6  1   
  6   4   7  1   
  7   4   8  1   
  8   5   7  1   
  9   5   9  1   
 10   5  10  1   
 11   6  19  1   
 12   6  20  1   
 13   6  21  1   
 14   7  11  1   
 15   7  12  1   
 16   8  22  1   
 17   8  23  1   
 18   8  24  1   
 19   9  25  1   
 20  10  13  2   
 21  10  14  1   
 22  11  26  1   
 23  12  14  ar  
 24  12  15  ar  
 25  14  16  ar  
 26  15  17  ar  
 27  15  27  1   
 28  16  18  ar  
 29  16  28  1   
 30  17  18  ar  
 31  17  29  1   
 32  18  30  1   
@<TRIPOS>SUBSTRUCTURE
  1 ****   7 GROUP 4 **** **** 0

# MOE 2024.06 (io_trps.svl 2023.06)
