@<TRIPOS>MOLECULE
NONAME
45 48 1 0 0 
SMALL
USER_CHARGES


@<TRIPOS>ATOM
  1 O        0.4470    -0.1640     0.7780 O.3   1 <1>  -0.3630 
  2 C        1.4480     0.6960     0.4720 C.ar  1 <1>   0.0830 
  3 C       -0.5420    -0.3370    -0.2130 C.3   1 <1>   0.0400 
  4 C        1.2500     2.0760     0.3660 C.ar  1 <1>   0.0830 
  5 C        2.7040     0.1630     0.2520 C.ar  1 <1>  -0.1500 
  6 O        0.0660     2.6840     0.6140 O.3   1 <1>  -0.3630 
  7 C        2.3100     2.8810    -0.0110 C.ar  1 <1>  -0.1500 
  8 C        3.7920     0.9620    -0.1070 C.ar  1 <1>   0.0860 
  9 C       -0.4750     2.5420     1.9100 C.3   1 <1>   0.0400 
 10 C        3.5620     2.3370    -0.2430 C.ar  1 <1>  -0.1440 
 11 C        5.1200     0.3980    -0.3280 C.2   1 <1>   0.4140 
 12 C        4.7150     3.2380    -0.6620 C.3   1 <1>  -0.0160 
 13 N        5.3170    -0.8680    -0.3330 N.2   1 <1>  -0.6520 
 14 N        6.1820     1.2750    -0.5050 N.pl3 1 <1>  -0.8190 
 15 C        6.0590     2.6980    -0.1530 C.3   1 <1>   0.3690 
 16 N        6.5820    -1.3720    -0.6360 N.pl3 1 <1>   0.5050 
 17 C        7.2700     3.4270    -0.7280 C.3   1 <1>  -0.1600 
 18 C        6.2690     2.8390     1.3550 C.3   1 <1>  -0.1600 
 19 C        7.3690    -1.1620    -1.7000 C.2   1 <1>   0.0360 
 20 C        7.3420    -2.1700     0.1170 C.2   1 <1>   0.0370 
 21 C        8.4290     3.1380     0.2350 C.3   1 <1>  -0.1600 
 22 C        7.7850     2.7540     1.5740 C.3   1 <1>  -0.1600 
 23 N        8.5100    -1.7560    -1.5910 N.2   1 <1>  -0.3380 
 24 N        8.4930    -2.4060    -0.4220 N.2   1 <1>  -0.3380 
 25 H       -1.2420    -1.0750     0.1350 H     1 <1>   0.0800 
 26 H       -0.0700    -0.6720    -1.1190 H     1 <1>   0.0800 
 27 H       -1.0470     0.5980    -0.3780 H     1 <1>   0.0800 
 28 H        2.8350    -0.8980     0.3580 H     1 <1>   0.1500 
 29 H        2.1390     3.9380    -0.1140 H     1 <1>   0.1500 
 30 H        0.2900     2.7640     2.6330 H     1 <1>   0.0800 
 31 H       -0.8330     1.5380     2.0410 H     1 <1>   0.0800 
 32 H       -1.2900     3.2350     2.0100 H     1 <1>   0.0800 
 33 H        4.5630     4.2370    -0.2940 H     1 <1>   0.0800 
 34 H        4.7420     3.2860    -1.7360 H     1 <1>   0.0800 
 35 H        7.0960     0.9130    -0.2280 H     1 <1>   0.4000 
 36 H        7.4860     3.1210    -1.7370 H     1 <1>   0.0800 
 37 H        7.0770     4.4860    -0.7240 H     1 <1>   0.0800 
 38 H        5.9320     3.8110     1.6680 H     1 <1>   0.0800 
 39 H        5.7300     2.0970     1.9190 H     1 <1>   0.0800 
 40 H        7.0520    -0.5550    -2.5260 H     1 <1>   0.1500 
 41 H        7.0020    -2.5480     1.0620 H     1 <1>   0.1500 
 42 H        9.0190     2.3150    -0.1340 H     1 <1>   0.0800 
 43 H        9.0670     4.0000     0.3380 H     1 <1>   0.0800 
 44 H        8.0970     3.4140     2.3660 H     1 <1>   0.0800 
 45 H        8.0630     1.7460     1.8340 H     1 <1>   0.0800 
@<TRIPOS>BOND
  1   1   2  1   
  2   1   3  1   
  3   2   4  ar  
  4   2   5  ar  
  5   3  25  1   
  6   3  26  1   
  7   3  27  1   
  8   4   6  1   
  9   4   7  ar  
 10   5   8  ar  
 11   5  28  1   
 12   6   9  1   
 13   7  10  ar  
 14   7  29  1   
 15   8  10  ar  
 16   8  11  1   
 17   9  30  1   
 18   9  31  1   
 19   9  32  1   
 20  10  12  1   
 21  11  13  2   
 22  11  14  1   
 23  12  15  1   
 24  12  33  1   
 25  12  34  1   
 26  13  16  1   
 27  14  15  1   
 28  14  35  1   
 29  15  17  1   
 30  15  18  1   
 31  16  19  1   
 32  16  20  1   
 33  17  21  1   
 34  17  36  1   
 35  17  37  1   
 36  18  22  1   
 37  18  38  1   
 38  18  39  1   
 39  19  23  2   
 40  19  40  1   
 41  20  24  2   
 42  20  41  1   
 43  21  22  1   
 44  21  42  1   
 45  21  43  1   
 46  22  44  1   
 47  22  45  1   
 48  23  24  1   
@<TRIPOS>SUBSTRUCTURE
  1 ****   8 GROUP 4 **** **** 0

# MOE 2024.06 (io_trps.svl 2023.06)
