@<TRIPOS>MOLECULE
NONAME
43 44 1 0 0 
SMALL
USER_CHARGES


@<TRIPOS>ATOM
  1 O       -0.0200    -0.0920     0.9750 O.2   1 <1>  -0.5700 
  2 C        0.0280    -1.0860     0.2780 C.2   1 <1>   0.6900 
  3 N        1.1990    -1.6560    -0.1170 N.am  1 <1>  -0.5470 
  4 N       -1.1270    -1.6680    -0.1340 N.am  1 <1>  -0.7300 
  5 C        2.5290    -1.2300     0.0300 C.ar  1 <1>   0.1170 
  6 C       -2.4520    -1.1710     0.2590 C.3   1 <1>   0.2200 
  7 C        3.5590    -2.1730     0.0490 C.ar  1 <1>  -0.1430 
  8 C        2.8560     0.1190     0.1320 C.ar  1 <1>  -0.1500 
  9 C       -3.4560    -2.3210     0.2790 C.3   1 <1>  -0.1600 
 10 C       -2.8950    -0.0820    -0.7150 C.3   1 <1>  -0.1600 
 11 C        4.8740    -1.7530     0.1690 C.ar  1 <1>  -0.1500 
 12 C        3.2730    -3.6660    -0.0540 C.3   1 <1>  -0.0970 
 13 C        4.1690     0.5360     0.2560 C.ar  1 <1>  -0.1430 
 14 C       -4.8470    -1.7960     0.6290 C.3   1 <1>   0.3430 
 15 C       -4.2880     0.4180    -0.3470 C.3   1 <1>   0.3430 
 16 C        5.1800    -0.4080     0.2720 C.ar  1 <1>  -0.1500 
 17 C        4.5000     2.0130     0.3710 C.3   1 <1>  -0.0970 
 18 N       -5.2490    -0.7270    -0.3350 N.4   1 <1>  -0.9590 
 19 C       -6.6340    -0.2460    -0.0420 C.3   1 <1>   0.2630 
 20 H        1.1100    -2.6070    -0.4540 H     1 <1>   0.3700 
 21 H       -1.0860    -2.3470    -0.8900 H     1 <1>   0.3700 
 22 H       -2.3840    -0.7500     1.2510 H     1 <1>   0.0800 
 23 H        2.0740     0.8540     0.1110 H     1 <1>   0.1500 
 24 H       -3.1570    -3.0380     1.0240 H     1 <1>   0.0800 
 25 H       -3.4870    -2.8150    -0.6760 H     1 <1>   0.0800 
 26 H       -2.8930    -0.4480    -1.7260 H     1 <1>   0.0800 
 27 H       -2.2060     0.7440    -0.6550 H     1 <1>   0.0800 
 28 H        5.6760    -2.4700     0.1850 H     1 <1>   0.1500 
 29 H        2.5850    -3.9630     0.7180 H     1 <1>   0.0800 
 30 H        4.1740    -4.2390     0.0660 H     1 <1>   0.0800 
 31 H        2.8530    -3.8960    -1.0160 H     1 <1>   0.0800 
 32 H       -4.8360    -1.3960     1.6310 H     1 <1>   0.0800 
 33 H       -5.5560    -2.6080     0.5990 H     1 <1>   0.0800 
 34 H       -4.6030     1.1610    -1.0620 H     1 <1>   0.0800 
 35 H       -4.2560     0.8790     0.6270 H     1 <1>   0.0800 
 36 H        6.2070    -0.1000     0.3650 H     1 <1>   0.1500 
 37 H        3.6610     2.5570     0.7660 H     1 <1>   0.0800 
 38 H        4.7430     2.4070    -0.5990 H     1 <1>   0.0800 
 39 H        5.3380     2.1590     1.0280 H     1 <1>   0.0800 
 40 H       -5.2460    -1.1410    -1.2790 H     1 <1>   0.4500 
 41 H       -6.6780     0.1980     0.9390 H     1 <1>   0.0800 
 42 H       -7.3330    -1.0670    -0.0810 H     1 <1>   0.0800 
 43 H       -6.9360     0.4930    -0.7680 H     1 <1>   0.0800 
@<TRIPOS>BOND
  1   1   2  2   
  2   2   3  am  
  3   2   4  am  
  4   3   5  1   
  5   3  20  1   
  6   4   6  1   
  7   4  21  1   
  8   5   7  ar  
  9   5   8  ar  
 10   6   9  1   
 11   6  10  1   
 12   6  22  1   
 13   7  11  ar  
 14   7  12  1   
 15   8  13  ar  
 16   8  23  1   
 17   9  14  1   
 18   9  24  1   
 19   9  25  1   
 20  10  15  1   
 21  10  26  1   
 22  10  27  1   
 23  11  16  ar  
 24  11  28  1   
 25  12  29  1   
 26  12  30  1   
 27  12  31  1   
 28  13  16  ar  
 29  13  17  1   
 30  14  18  1   
 31  14  32  1   
 32  14  33  1   
 33  15  18  1   
 34  15  34  1   
 35  15  35  1   
 36  16  36  1   
 37  17  37  1   
 38  17  38  1   
 39  17  39  1   
 40  18  19  1   
 41  18  40  1   
 42  19  41  1   
 43  19  42  1   
 44  19  43  1   
@<TRIPOS>SUBSTRUCTURE
  1 ****   2 GROUP 4 **** **** 0

# MOE 2024.06 (io_trps.svl 2023.06)
