@<TRIPOS>MOLECULE
NONAME
33 34 1 0 0 
SMALL
USER_CHARGES


@<TRIPOS>ATOM
  1 N       -0.0270     0.2800    -0.1570 N.ar  1 <1>  -0.6200 
  2 C       -1.1450     0.9500    -0.2640 C.ar  1 <1>   0.7200 
  3 C        1.0300     1.0110     0.0840 C.ar  1 <1>   0.7200 
  4 N       -1.2610     2.2460    -0.1380 N.ar  1 <1>  -0.6200 
  5 N       -2.3010     0.2370    -0.5230 N.pl3 1 <1>  -0.8380 
  6 N        1.0380     2.3140     0.2210 N.ar  1 <1>  -0.6200 
  7 N        2.2410     0.3570     0.2060 N.pl3 1 <1>  -0.8380 
  8 C       -0.1360     2.8550     0.1010 C.ar  1 <1>   0.7200 
  9 C       -2.3110    -1.2530    -0.6040 C.3   1 <1>   0.1290 
 10 C       -3.6460     0.8850    -0.4910 C.3   1 <1>   0.1290 
 11 C        2.3270    -1.1210     0.3840 C.3   1 <1>   0.1290 
 12 C        3.5490     1.0660     0.1270 C.3   1 <1>   0.1290 
 13 N       -0.1610     4.1960     0.2460 N.pl3 1 <1>  -0.6600 
 14 N       -1.3320     5.0070     0.1790 N.pl3 1 <1>   0.4630 
 15 C       -1.8640     5.6110    -0.8800 C.2   1 <1>   0.0370 
 16 C       -2.1440     5.3730     1.1660 C.2   1 <1>   0.0370 
 17 N       -2.9130     6.3010    -0.5660 N.2   1 <1>  -0.3380 
 18 N       -3.0930     6.1490     0.7480 N.2   1 <1>  -0.3380 
 19 H       -1.3950    -1.6160    -1.0390 H     1 <1>   0.0800 
 20 H       -3.1260    -1.5880    -1.2200 H     1 <1>   0.0800 
 21 H       -2.4180    -1.6670     0.3830 H     1 <1>   0.0800 
 22 H       -3.6170     1.8330    -1.0000 H     1 <1>   0.0800 
 23 H       -3.9440     1.0470     0.5310 H     1 <1>   0.0800 
 24 H       -4.3770     0.2640    -0.9780 H     1 <1>   0.0800 
 25 H        1.4420    -1.4970     0.8690 H     1 <1>   0.0800 
 26 H        3.1770    -1.3710     0.9950 H     1 <1>   0.0800 
 27 H        2.4280    -1.5940    -0.5760 H     1 <1>   0.0800 
 28 H        3.4540     1.9780    -0.4370 H     1 <1>   0.0800 
 29 H        4.2780     0.4430    -0.3610 H     1 <1>   0.0800 
 30 H        3.8910     1.3020     1.1200 H     1 <1>   0.0800 
 31 H        0.7230     4.6570     0.4390 H     1 <1>   0.4000 
 32 H       -1.4520     5.5180    -1.8660 H     1 <1>   0.1500 
 33 H       -2.0070     5.0480     2.1790 H     1 <1>   0.1500 
@<TRIPOS>BOND
  1   1   2  ar  
  2   1   3  ar  
  3   2   4  ar  
  4   2   5  1   
  5   3   6  ar  
  6   3   7  1   
  7   4   8  ar  
  8   5   9  1   
  9   5  10  1   
 10   6   8  ar  
 11   7  11  1   
 12   7  12  1   
 13   8  13  1   
 14   9  19  1   
 15   9  20  1   
 16   9  21  1   
 17  10  22  1   
 18  10  23  1   
 19  10  24  1   
 20  11  25  1   
 21  11  26  1   
 22  11  27  1   
 23  12  28  1   
 24  12  29  1   
 25  12  30  1   
 26  13  14  1   
 27  13  31  1   
 28  14  15  1   
 29  14  16  1   
 30  15  17  2   
 31  15  32  1   
 32  16  18  2   
 33  16  33  1   
 34  17  18  1   
@<TRIPOS>SUBSTRUCTURE
  1 ****   4 GROUP 4 **** **** 0

# MOE 2024.06 (io_trps.svl 2023.06)
