@<TRIPOS>MOLECULE
NONAME
34 35 1 0 0 
SMALL
USER_CHARGES


@<TRIPOS>ATOM
  1 S       -0.0350    -0.1720    -0.0320 S.o2  1 <1>   1.2950 
  2 O       -0.1450    -0.7750    -1.3500 O.2   1 <1>  -0.6500 
  3 O       -0.0640    -1.0680     1.1120 O.2   1 <1>  -0.6500 
  4 N       -1.3040     1.0820     0.1590 N.pl3 1 <1>   0.5840 
  5 C        1.5000     0.7910     0.0330 C.ar  1 <1>  -0.0090 
  6 N       -1.0650     2.4240     0.3120 N.2   1 <1>  -0.7070 
  7 C       -2.6560     0.8690     0.1770 C.2   1 <1>  -0.3320 
  8 C        2.0640     1.3220    -1.1210 C.ar  1 <1>  -0.1500 
  9 C        2.1410     1.0420     1.2410 C.ar  1 <1>  -0.1500 
 10 C       -2.2240     2.9840     0.4170 C.2   1 <1>   0.1080 
 11 C       -3.2640     2.0650     0.3400 C.2   1 <1>  -0.1810 
 12 C       -3.2710    -0.5190     0.0310 C.3   1 <1>  -0.0600 
 13 C        3.2270     2.0720    -1.0740 C.ar  1 <1>  -0.1500 
 14 C        3.3030     1.7910     1.2950 C.ar  1 <1>  -0.1500 
 15 C       -2.3830     4.4760     0.6010 C.3   1 <1>  -0.0590 
 16 C       -4.7420     2.4030     0.4280 C.3   1 <1>  -0.0590 
 17 C        3.8540     2.3090     0.1370 C.ar  1 <1>  -0.1430 
 18 C        5.1270     3.1340     0.1930 C.3   1 <1>  -0.0970 
 19 H        1.5900     1.1480    -2.0730 H     1 <1>   0.1500 
 20 H        1.7270     0.6460     2.1530 H     1 <1>   0.1500 
 21 H       -2.9330    -1.1630     0.8240 H     1 <1>   0.0800 
 22 H       -2.9890    -0.9550    -0.9120 H     1 <1>   0.0800 
 23 H       -4.3430    -0.4760     0.0710 H     1 <1>   0.0800 
 24 H        3.6390     2.4710    -1.9840 H     1 <1>   0.1500 
 25 H        3.7760     1.9690     2.2460 H     1 <1>   0.1500 
 26 H       -1.4170     4.9480     0.6260 H     1 <1>   0.0800 
 27 H       -2.8910     4.6780     1.5250 H     1 <1>   0.0800 
 28 H       -2.9480     4.8860    -0.2150 H     1 <1>   0.0800 
 29 H       -5.3490     1.5220     0.3420 H     1 <1>   0.0800 
 30 H       -5.0090     3.0790    -0.3630 H     1 <1>   0.0800 
 31 H       -4.9530     2.8710     1.3730 H     1 <1>   0.0800 
 32 H        4.8810     4.1730     0.3240 H     1 <1>   0.0800 
 33 H        5.6890     3.0220    -0.7160 H     1 <1>   0.0800 
 34 H        5.7450     2.8170     1.0140 H     1 <1>   0.0800 
@<TRIPOS>BOND
  1   1   2  2   
  2   1   3  2   
  3   1   4  1   
  4   1   5  1   
  5   4   6  1   
  6   4   7  1   
  7   5   8  ar  
  8   5   9  ar  
  9   6  10  2   
 10   7  11  2   
 11   7  12  1   
 12   8  13  ar  
 13   8  19  1   
 14   9  14  ar  
 15   9  20  1   
 16  10  11  1   
 17  10  15  1   
 18  11  16  1   
 19  12  21  1   
 20  12  22  1   
 21  12  23  1   
 22  13  17  ar  
 23  13  24  1   
 24  14  17  ar  
 25  14  25  1   
 26  15  26  1   
 27  15  27  1   
 28  15  28  1   
 29  16  29  1   
 30  16  30  1   
 31  16  31  1   
 32  17  18  1   
 33  18  32  1   
 34  18  33  1   
 35  18  34  1   
@<TRIPOS>SUBSTRUCTURE
  1 ****   4 GROUP 4 **** **** 0

# MOE 2024.06 (io_trps.svl 2023.06)
