@<TRIPOS>MOLECULE
NONAME
41 42 1 0 0 
SMALL
USER_CHARGES


@<TRIPOS>ATOM
  1 S       -0.7880     0.4280     0.0430 S.o2  1 <1>   1.2040 
  2 O       -0.9680    -0.9370    -0.3970 O.2   1 <1>  -0.6500 
  3 O       -1.4360     0.8780     1.2590 O.2   1 <1>  -0.6500 
  4 C        0.9800     0.7910     0.1420 C.ar  1 <1>  -0.0090 
  5 C       -1.2840     1.5190    -1.2640 C.3   1 <1>   0.0060 
  6 C        1.4640     1.7810     0.9910 C.ar  1 <1>  -0.1500 
  7 C        1.8950     0.1130    -0.6550 C.ar  1 <1>  -0.1500 
  8 C       -2.7500     1.3690    -1.5300 C.2   1 <1>   0.5690 
  9 C        2.8130     2.0870     1.0390 C.ar  1 <1>  -0.1500 
 10 C        3.2450     0.4140    -0.6130 C.ar  1 <1>  -0.1500 
 11 O       -3.1030     1.3320    -2.6820 O.2   1 <1>  -0.5700 
 12 N       -3.6360     1.3350    -0.5020 N.am  1 <1>  -0.7300 
 13 C        3.7050     1.4040     0.2350 C.ar  1 <1>  -0.1500 
 14 C       -5.0880     1.1340    -0.6290 C.3   1 <1>   0.2200 
 15 C       -5.7800     2.3330     0.0290 C.3   1 <1>  -0.1600 
 16 C       -5.4240    -0.2290    -0.0090 C.3   1 <1>  -0.1600 
 17 C       -7.3150     2.2530     0.0760 C.3   1 <1>  -0.1600 
 18 C       -6.8440    -0.6990    -0.3620 C.3   1 <1>  -0.1600 
 19 C       -7.8170     1.2350     1.1090 C.3   1 <1>  -0.1600 
 20 C       -7.9450    -0.2060     0.5900 C.3   1 <1>  -0.1600 
 21 H       -0.7480     1.2870    -2.1620 H     1 <1>   0.0800 
 22 H       -1.0890     2.5380    -0.9990 H     1 <1>   0.0800 
 23 H        0.7800     2.3170     1.6280 H     1 <1>   0.1500 
 24 H        1.5500    -0.6660    -1.3170 H     1 <1>   0.1500 
 25 H        3.1690     2.8560     1.7050 H     1 <1>   0.1500 
 26 H        3.9380    -0.1240    -1.2380 H     1 <1>   0.1500 
 27 H       -3.2910     1.3010     0.4670 H     1 <1>   0.3700 
 28 H        4.7550     1.6400     0.2700 H     1 <1>   0.1500 
 29 H       -5.3490     1.1140    -1.6750 H     1 <1>   0.0800 
 30 H       -5.5120     3.2100    -0.5340 H     1 <1>   0.0800 
 31 H       -5.4040     2.4610     1.0290 H     1 <1>   0.0800 
 32 H       -5.2850    -0.2100     1.0580 H     1 <1>   0.0800 
 33 H       -4.7370    -0.9500    -0.4180 H     1 <1>   0.0800 
 34 H       -7.7180     2.0400    -0.8990 H     1 <1>   0.0800 
 35 H       -7.6800     3.2230     0.3660 H     1 <1>   0.0800 
 36 H       -6.8610    -1.7750    -0.3530 H     1 <1>   0.0800 
 37 H       -7.0780    -0.3970    -1.3680 H     1 <1>   0.0800 
 38 H       -8.7890     1.5450     1.4530 H     1 <1>   0.0800 
 39 H       -7.1700     1.2480     1.9690 H     1 <1>   0.0800 
 40 H       -7.9810    -0.8610     1.4430 H     1 <1>   0.0800 
 41 H       -8.8880    -0.3070     0.0810 H     1 <1>   0.0800 
@<TRIPOS>BOND
  1   1   2  2   
  2   1   3  2   
  3   1   4  1   
  4   1   5  1   
  5   4   6  ar  
  6   4   7  ar  
  7   5   8  1   
  8   5  21  1   
  9   5  22  1   
 10   6   9  ar  
 11   6  23  1   
 12   7  10  ar  
 13   7  24  1   
 14   8  11  2   
 15   8  12  am  
 16   9  13  ar  
 17   9  25  1   
 18  10  13  ar  
 19  10  26  1   
 20  12  14  1   
 21  12  27  1   
 22  13  28  1   
 23  14  15  1   
 24  14  16  1   
 25  14  29  1   
 26  15  17  1   
 27  15  30  1   
 28  15  31  1   
 29  16  18  1   
 30  16  32  1   
 31  16  33  1   
 32  17  19  1   
 33  17  34  1   
 34  17  35  1   
 35  18  20  1   
 36  18  36  1   
 37  18  37  1   
 38  19  20  1   
 39  19  38  1   
 40  19  39  1   
 41  20  40  1   
 42  20  41  1   
@<TRIPOS>SUBSTRUCTURE
  1 ****  12 GROUP 4 **** **** 0

# MOE 2024.06 (io_trps.svl 2023.06)
