@<TRIPOS>MOLECULE
NONAME
33 34 1 0 0 
SMALL
USER_CHARGES


@<TRIPOS>ATOM
  1 F       -0.3040     0.3190    -0.7310 F     1 <1>  -0.3400 
  2 C       -1.6080     0.0640    -0.6890 C.3   1 <1>   1.1640 
  3 F       -1.9640    -0.2410    -1.9310 F     1 <1>  -0.3400 
  4 F       -1.7440    -1.0470     0.0220 F     1 <1>  -0.3400 
  5 C       -2.4380     1.2230    -0.1150 C.ar  1 <1>  -0.1440 
  6 C       -3.8250     1.1290    -0.0860 C.ar  1 <1>  -0.1500 
  7 C       -1.8410     2.3760     0.3830 C.ar  1 <1>  -0.1500 
  8 C       -4.6360     2.1460     0.4230 C.ar  1 <1>   0.0540 
  9 C       -2.6170     3.4000     0.8930 C.ar  1 <1>  -0.1500 
 10 C       -6.0860     2.0290     0.4450 C.2   1 <1>   0.4620 
 11 C       -3.9940     3.2840     0.9110 C.ar  1 <1>  -0.1500 
 12 N       -6.8970     2.9270     0.8940 N.2   1 <1>  -0.4100 
 13 N       -6.7280     0.9380    -0.0150 N.2   1 <1>  -0.5650 
 14 O       -8.0550     2.4180     0.7240 O.3   1 <1>  -0.0190 
 15 C       -7.9690     1.2350     0.1840 C.2   1 <1>   0.3930 
 16 C       -9.1890     0.4870    -0.0900 C.2   1 <1>   0.7150 
 17 O       -9.1580    -0.6230    -0.5940 O.2   1 <1>  -0.5700 
 18 N      -10.4200     1.0180     0.2140 N.am  1 <1>  -0.7300 
 19 C      -11.7200     0.3760    -0.0090 C.3   1 <1>   0.2200 
 20 C      -12.5300     1.2580    -0.9520 C.3   1 <1>  -0.2400 
 21 C      -12.4120     0.2240     1.3410 C.3   1 <1>  -0.2400 
 22 H       -4.2970     0.2380    -0.4690 H     1 <1>   0.1500 
 23 H       -0.7690     2.4900     0.3810 H     1 <1>   0.1500 
 24 H       -2.1480     4.2900     1.2770 H     1 <1>   0.1500 
 25 H       -4.5810     4.0920     1.3130 H     1 <1>   0.1500 
 26 H      -10.4680     1.9460     0.6360 H     1 <1>   0.3700 
 27 H      -11.5850    -0.5980    -0.4550 H     1 <1>   0.0800 
 28 H      -12.6870     2.2340    -0.5280 H     1 <1>   0.0800 
 29 H      -13.4890     0.8080    -1.1370 H     1 <1>   0.0800 
 30 H      -12.0190     1.3550    -1.8930 H     1 <1>   0.0800 
 31 H      -12.5670     1.1820     1.8040 H     1 <1>   0.0800 
 32 H      -11.8190    -0.3960     1.9890 H     1 <1>   0.0800 
 33 H      -13.3680    -0.2500     1.2080 H     1 <1>   0.0800 
@<TRIPOS>BOND
  1   1   2  1   
  2   2   3  1   
  3   2   4  1   
  4   2   5  1   
  5   5   6  ar  
  6   5   7  ar  
  7   6   8  ar  
  8   6  22  1   
  9   7   9  ar  
 10   7  23  1   
 11   8  10  1   
 12   8  11  ar  
 13   9  11  ar  
 14   9  24  1   
 15  10  12  2   
 16  10  13  1   
 17  11  25  1   
 18  12  14  1   
 19  13  15  2   
 20  14  15  1   
 21  15  16  1   
 22  16  17  2   
 23  16  18  am  
 24  18  19  1   
 25  18  26  1   
 26  19  20  1   
 27  19  21  1   
 28  19  27  1   
 29  20  28  1   
 30  20  29  1   
 31  20  30  1   
 32  21  31  1   
 33  21  32  1   
 34  21  33  1   
@<TRIPOS>SUBSTRUCTURE
  1 ****  13 GROUP 4 **** **** 0

# MOE 2024.06 (io_trps.svl 2023.06)
