@<TRIPOS>MOLECULE
NONAME
44 46 1 0 0 
SMALL
USER_CHARGES


@<TRIPOS>ATOM
  1 BR       1.1910    -1.3690    -0.5720 Br    1 <1>  -0.0570 
  2 C       -0.4470    -1.8890     0.3050 C.2   1 <1>   0.0570 
  3 C       -0.7060    -1.6810     1.6050 C.2   1 <1>  -0.1100 
  4 C       -1.4670    -2.5400    -0.4510 C.2   1 <1>  -0.1500 
  5 S       -2.3060    -2.3110     1.9710 S.3   1 <1>  -0.0800 
  6 C       -2.5470    -2.8370     0.3000 C.2   1 <1>  -0.1400 
  7 C       -3.8620    -3.5160    -0.0370 C.3   1 <1>   0.2900 
  8 N       -5.0010    -2.6040     0.1960 N.3   1 <1>  -0.8100 
  9 C       -6.2960    -3.2940     0.0590 C.3   1 <1>   0.1100 
 10 C       -4.9380    -1.3830    -0.6340 C.3   1 <1>   0.1100 
 11 C       -7.4660    -2.3530     0.4130 C.3   1 <1>   0.3430 
 12 C       -6.0870    -0.4180    -0.2840 C.3   1 <1>   0.3430 
 13 N       -7.4310    -1.0820    -0.3980 N.4   1 <1>  -0.9590 
 14 C       -8.5220    -0.1620    -0.0050 C.3   1 <1>   0.4810 
 15 C       -9.8330    -0.8390    -0.3280 C.2   1 <1>  -0.2880 
 16 C      -10.7250    -1.2580     0.5870 C.2   1 <1>  -0.1780 
 17 C      -11.9910    -1.9190     0.3570 C.ar  1 <1>   0.0280 
 18 C      -12.6660    -2.5160     1.4190 C.ar  1 <1>  -0.1500 
 19 C      -12.5840    -1.9880    -0.9030 C.ar  1 <1>  -0.1500 
 20 C      -13.8740    -3.1630     1.2340 C.ar  1 <1>  -0.1500 
 21 C      -13.7930    -2.6340    -1.0950 C.ar  1 <1>  -0.1500 
 22 C      -14.4400    -3.2240    -0.0260 C.ar  1 <1>  -0.1500 
 23 H       -0.1390    -1.2280     2.3980 H     1 <1>   0.1500 
 24 H       -1.3300    -2.7450    -1.4980 H     1 <1>   0.1500 
 25 H       -3.9640    -4.3860     0.5900 H     1 <1>   0.0800 
 26 H       -3.8510    -3.8380    -1.0640 H     1 <1>   0.0800 
 27 H       -6.4170    -3.6630    -0.9450 H     1 <1>   0.0800 
 28 H       -6.3210    -4.1370     0.7290 H     1 <1>   0.0800 
 29 H       -4.0080    -0.8700    -0.4550 H     1 <1>   0.0800 
 30 H       -4.9780    -1.6410    -1.6790 H     1 <1>   0.0800 
 31 H       -7.3990    -2.1140     1.4620 H     1 <1>   0.0800 
 32 H       -8.3980    -2.8690     0.2500 H     1 <1>   0.0800 
 33 H       -6.0410     0.4380    -0.9360 H     1 <1>   0.0800 
 34 H       -5.9370    -0.0750     0.7270 H     1 <1>   0.0800 
 35 H       -7.5780    -1.3440    -1.3780 H     1 <1>   0.4500 
 36 H       -8.4650     0.0500     1.0500 H     1 <1>   0.0800 
 37 H       -8.4490     0.7670    -0.5480 H     1 <1>   0.0800 
 38 H       -9.9870    -0.9560    -1.3860 H     1 <1>   0.1500 
 39 H      -10.5200    -1.1100     1.6350 H     1 <1>   0.1500 
 40 H      -12.2450    -2.4800     2.4080 H     1 <1>   0.1500 
 41 H      -12.1110    -1.5310    -1.7500 H     1 <1>   0.1500 
 42 H      -14.3770    -3.6190     2.0700 H     1 <1>   0.1500 
 43 H      -14.2340    -2.6760    -2.0760 H     1 <1>   0.1500 
 44 H      -15.3800    -3.7270    -0.1730 H     1 <1>   0.1500 
@<TRIPOS>BOND
  1   1   2  1   
  2   2   3  2   
  3   2   4  1   
  4   3   5  1   
  5   3  23  1   
  6   4   6  2   
  7   4  24  1   
  8   5   6  1   
  9   6   7  1   
 10   7   8  1   
 11   7  25  1   
 12   7  26  1   
 13   8   9  1   
 14   8  10  1   
 15   9  11  1   
 16   9  27  1   
 17   9  28  1   
 18  10  12  1   
 19  10  29  1   
 20  10  30  1   
 21  11  13  1   
 22  11  31  1   
 23  11  32  1   
 24  12  13  1   
 25  12  33  1   
 26  12  34  1   
 27  13  14  1   
 28  13  35  1   
 29  14  15  1   
 30  14  36  1   
 31  14  37  1   
 32  15  16  2   
 33  15  38  1   
 34  16  17  1   
 35  16  39  1   
 36  17  18  ar  
 37  17  19  ar  
 38  18  20  ar  
 39  18  40  1   
 40  19  21  ar  
 41  19  41  1   
 42  20  22  ar  
 43  20  42  1   
 44  21  22  ar  
 45  21  43  1   
 46  22  44  1   
@<TRIPOS>SUBSTRUCTURE
  1 ****  11 GROUP 4 **** **** 0

# MOE 2024.06 (io_trps.svl 2023.06)
