@<TRIPOS>MOLECULE
NONAME
43 44 1 0 0 
SMALL
USER_CHARGES


@<TRIPOS>ATOM
  1 CL       0.7710     0.0360     2.3560 Cl    1 <1>  -0.1770 
  2 C        1.4160    -1.3690     1.5480 C.ar  1 <1>   0.1770 
  3 C        1.8800    -2.4310     2.2990 C.ar  1 <1>  -0.1500 
  4 C        1.4530    -1.4000     0.1670 C.ar  1 <1>  -0.1500 
  5 C        2.3920    -3.5450     1.6540 C.ar  1 <1>  -0.1500 
  6 C        1.9680    -2.5160    -0.4720 C.ar  1 <1>  -0.1500 
  7 C        2.4460    -3.5930     0.2660 C.ar  1 <1>  -0.1430 
  8 C        3.0160    -4.8150    -0.4550 C.3   1 <1>   0.3390 
  9 N        4.4850    -4.8190    -0.5130 N.am  1 <1>  -0.8490 
 10 S        5.2330    -5.3790     0.8990 S.o2  1 <1>   1.3330 
 11 C        5.0240    -3.5290    -1.0330 C.3   1 <1>   0.2570 
 12 O        4.3150    -6.2490     1.5960 O.2   1 <1>  -0.6500 
 13 O        5.8070    -4.2480     1.5930 O.2   1 <1>  -0.6500 
 14 C        6.5290    -6.4240     0.2650 C.3   1 <1>  -0.1350 
 15 C        6.5150    -3.4960    -1.3990 C.2   1 <1>   0.5690 
 16 O        6.8520    -3.7370    -2.5330 O.2   1 <1>  -0.5700 
 17 N        7.4210    -3.1820    -0.4370 N.am  1 <1>  -0.7300 
 18 C        8.8680    -2.9940    -0.6180 C.3   1 <1>   0.2200 
 19 C        9.6090    -3.9370     0.3210 C.3   1 <1>  -0.1600 
 20 C        9.2420    -1.6160    -0.0860 C.3   1 <1>  -0.1600 
 21 C        9.5510    -3.2710     1.7000 C.3   1 <1>  -0.1600 
 22 C        9.3510    -1.7730     1.4370 C.3   1 <1>  -0.1600 
 23 H        1.8400    -2.3870     3.3720 H     1 <1>   0.1500 
 24 H        1.0820    -0.5610    -0.3940 H     1 <1>   0.1500 
 25 H        2.7470    -4.3710     2.2470 H     1 <1>   0.1500 
 26 H        1.9920    -2.5380    -1.5480 H     1 <1>   0.1500 
 27 H        2.6430    -4.8200    -1.4650 H     1 <1>   0.0800 
 28 H        2.6480    -5.7170     0.0030 H     1 <1>   0.0800 
 29 H        4.8510    -2.7510    -0.3090 H     1 <1>   0.0800 
 30 H        4.4840    -3.2640    -1.9240 H     1 <1>   0.0800 
 31 H        6.1040    -7.2380    -0.2880 H     1 <1>   0.0800 
 32 H        7.1050    -6.8260     1.0760 H     1 <1>   0.0800 
 33 H        7.1820    -5.8790    -0.3850 H     1 <1>   0.0800 
 34 H        7.1030    -3.1170     0.5410 H     1 <1>   0.3700 
 35 H        9.1470    -3.1290    -1.6510 H     1 <1>   0.0800 
 36 H       10.6360    -3.9930     0.0040 H     1 <1>   0.0800 
 37 H        9.1980    -4.9290     0.3200 H     1 <1>   0.0800 
 38 H        8.5340    -0.8610    -0.3770 H     1 <1>   0.0800 
 39 H       10.2080    -1.3510    -0.4790 H     1 <1>   0.0800 
 40 H       10.4510    -3.4590     2.2600 H     1 <1>   0.0800 
 41 H        8.7100    -3.6540     2.2550 H     1 <1>   0.0800 
 42 H        8.4400    -1.4420     1.9070 H     1 <1>   0.0800 
 43 H       10.1720    -1.1930     1.8230 H     1 <1>   0.0800 
@<TRIPOS>BOND
  1   1   2  1   
  2   2   3  ar  
  3   2   4  ar  
  4   3   5  ar  
  5   3  23  1   
  6   4   6  ar  
  7   4  24  1   
  8   5   7  ar  
  9   5  25  1   
 10   6   7  ar  
 11   6  26  1   
 12   7   8  1   
 13   8   9  1   
 14   8  27  1   
 15   8  28  1   
 16   9  10  am  
 17   9  11  1   
 18  10  12  2   
 19  10  13  2   
 20  10  14  1   
 21  11  15  1   
 22  11  29  1   
 23  11  30  1   
 24  14  31  1   
 25  14  32  1   
 26  14  33  1   
 27  15  16  2   
 28  15  17  am  
 29  17  18  1   
 30  17  34  1   
 31  18  19  1   
 32  18  20  1   
 33  18  35  1   
 34  19  21  1   
 35  19  36  1   
 36  19  37  1   
 37  20  22  1   
 38  20  38  1   
 39  20  39  1   
 40  21  22  1   
 41  21  40  1   
 42  21  41  1   
 43  22  42  1   
 44  22  43  1   
@<TRIPOS>SUBSTRUCTURE
  1 ****  11 GROUP 4 **** **** 0

# MOE 2024.06 (io_trps.svl 2023.06)
