@<TRIPOS>MOLECULE
Structure2182
36 36 1 0 0 
SMALL
USER_CHARGES


@<TRIPOS>ATOM
  1 O        0.0430    -0.4950     0.9080 O.2   1 <1>  -0.5700 
  2 C        0.8090    -1.3750     0.5680 C.2   1 <1>   0.7800 
  3 O        0.3460    -2.5520     0.1460 O.3   1 <1>  -0.4300 
  4 N        2.1660    -1.1800     0.5640 N.am  1 <1>  -0.6600 
  5 C       -1.0020    -2.9620     0.0600 C.3   1 <1>   0.2800 
  6 C        3.1890    -2.2510     0.2230 C.3   1 <1>   0.2810 
  7 C        2.7040     0.2150     0.6140 C.3   1 <1>   0.1400 
  8 C       -0.9500    -4.4020    -0.4500 C.3   1 <1>  -0.2400 
  9 C       -1.6540    -2.9470     1.4480 C.3   1 <1>  -0.2400 
 10 C       -1.7560    -2.0950    -0.9550 C.3   1 <1>  -0.2400 
 11 C        2.8290    -3.7050     0.5690 C.2   1 <1>   0.6590 
 12 C        4.5380    -1.9640     0.9130 C.3   1 <1>   0.1200 
 13 C        4.0720     0.2850     1.3040 C.3   1 <1>   0.1200 
 14 O        2.6850    -4.0870     1.7050 O.2   1 <1>  -0.5700 
 15 O        2.7580    -4.5450    -0.4610 O.3   1 <1>  -0.4300 
 16 O        4.9460    -0.6390     0.7290 O.3   1 <1>  -0.5600 
 17 C        2.5280    -5.9270    -0.2810 C.3   1 <1>   0.0400 
 18 H        3.3550    -2.2110    -0.8380 H     1 <1>   0.0800 
 19 H        2.8000     0.5890    -0.3910 H     1 <1>   0.0800 
 20 H        2.0210     0.8610     1.1390 H     1 <1>   0.0800 
 21 H       -1.9440    -4.7880    -0.5850 H     1 <1>   0.0800 
 22 H       -0.4400    -5.0260     0.2610 H     1 <1>   0.0800 
 23 H       -0.4360    -4.4460    -1.3940 H     1 <1>   0.0800 
 24 H       -1.7860    -1.9420     1.8040 H     1 <1>   0.0800 
 25 H       -1.0500    -3.4930     2.1490 H     1 <1>   0.0800 
 26 H       -2.6250    -3.4050     1.4030 H     1 <1>   0.0800 
 27 H       -2.7400    -2.4940    -1.1180 H     1 <1>   0.0800 
 28 H       -1.2330    -2.0800    -1.8940 H     1 <1>   0.0800 
 29 H       -1.8690    -1.0890    -0.5970 H     1 <1>   0.0800 
 30 H        5.3030    -2.5990     0.5030 H     1 <1>   0.0800 
 31 H        4.4700    -2.1570     1.9710 H     1 <1>   0.0800 
 32 H        3.9800     0.0750     2.3560 H     1 <1>   0.0800 
 33 H        4.4990     1.2640     1.1820 H     1 <1>   0.0800 
 34 H        1.6250    -6.0610     0.2890 H     1 <1>   0.0800 
 35 H        3.3630    -6.3510     0.2480 H     1 <1>   0.0800 
 36 H        2.4280    -6.3860    -1.2480 H     1 <1>   0.0800 
@<TRIPOS>BOND
  1   1   2  2   
  2   2   3  1   
  3   2   4  am  
  4   3   5  1   
  5   4   6  1   
  6   4   7  1   
  7   5   8  1   
  8   5   9  1   
  9   5  10  1   
 10   6  11  1   
 11   6  12  1   
 12   6  18  1   
 13   7  13  1   
 14   7  19  1   
 15   7  20  1   
 16   8  21  1   
 17   8  22  1   
 18   8  23  1   
 19   9  24  1   
 20   9  25  1   
 21   9  26  1   
 22  10  27  1   
 23  10  28  1   
 24  10  29  1   
 25  11  14  2   
 26  11  15  1   
 27  12  16  1   
 28  12  30  1   
 29  12  31  1   
 30  13  16  1   
 31  13  32  1   
 32  13  33  1   
 33  15  17  1   
 34  17  34  1   
 35  17  35  1   
 36  17  36  1   
@<TRIPOS>SUBSTRUCTURE
  1 ****   4 GROUP 4 **** **** 0

# MOE 2024.06 (io_trps.svl 2023.06)
