@<TRIPOS>MOLECULE
NONAME
31 31 1 0 0 
SMALL
USER_CHARGES


@<TRIPOS>ATOM
  1 O       -0.2840    -2.5680    -1.3160 O.2   1 <1>  -0.5700 
  2 C       -1.2870    -2.0550    -0.8590 C.2   1 <1>   0.6900 
  3 N       -2.3530    -2.8060    -0.4980 N.am  1 <1>  -0.4210 
  4 N       -1.3280    -0.7270    -0.6830 N.am  1 <1>  -0.8000 
  5 N       -3.5900    -2.3540     0.2090 N.3   1 <1>  -0.6390 
  6 C       -3.8270    -3.3420     1.2910 C.3   1 <1>   0.2530 
  7 C       -4.6330    -4.5060     0.7320 C.ar  1 <1>  -0.1440 
  8 C       -4.0120    -5.6140     0.1580 C.ar  1 <1>   0.0820 
  9 C       -6.0170    -4.4570     0.7950 C.ar  1 <1>  -0.1500 
 10 O       -2.6510    -5.6220     0.1040 O.3   1 <1>  -0.3620 
 11 C       -4.7890    -6.6580    -0.3390 C.ar  1 <1>  -0.1500 
 12 C       -6.7920    -5.4930     0.3010 C.ar  1 <1>   0.0820 
 13 C       -1.9370    -6.6630    -0.5270 C.3   1 <1>   0.0400 
 14 C       -6.1700    -6.5990    -0.2690 C.ar  1 <1>  -0.1500 
 15 O       -8.1390    -5.3540     0.4120 O.3   1 <1>  -0.3620 
 16 C       -9.0150    -6.3680    -0.0270 C.3   1 <1>   0.0400 
 17 H       -2.2400    -3.8250    -0.6160 H     1 <1>   0.3700 
 18 H       -0.4550    -0.2090    -0.7160 H     1 <1>   0.3700 
 19 H       -2.0880    -0.3690    -0.1060 H     1 <1>   0.3700 
 20 H       -4.3570    -2.5230    -0.4600 H     1 <1>   0.3600 
 21 H       -4.3760    -2.8630     2.0830 H     1 <1>   0.0800 
 22 H       -2.8930    -3.6840     1.7030 H     1 <1>   0.0800 
 23 H       -6.5160    -3.6100     1.2310 H     1 <1>   0.1500 
 24 H       -4.3400    -7.5240    -0.7840 H     1 <1>   0.1500 
 25 H       -0.8880    -6.4300    -0.4720 H     1 <1>   0.0800 
 26 H       -2.2430    -6.7250    -1.5560 H     1 <1>   0.0800 
 27 H       -2.1330    -7.5850    -0.0090 H     1 <1>   0.0800 
 28 H       -6.7410    -7.4180    -0.6610 H     1 <1>   0.1500 
 29 H      -10.0220    -6.0480     0.1720 H     1 <1>   0.0800 
 30 H       -8.8050    -7.2720     0.5170 H     1 <1>   0.0800 
 31 H       -8.8810    -6.5140    -1.0850 H     1 <1>   0.0800 
@<TRIPOS>BOND
  1   1   2  2   
  2   2   3  am  
  3   2   4  am  
  4   3   5  1   
  5   3  17  1   
  6   4  18  1   
  7   4  19  1   
  8   5   6  1   
  9   5  20  1   
 10   6   7  1   
 11   6  21  1   
 12   6  22  1   
 13   7   8  ar  
 14   7   9  ar  
 15   8  10  1   
 16   8  11  ar  
 17   9  12  ar  
 18   9  23  1   
 19  10  13  1   
 20  11  14  ar  
 21  11  24  1   
 22  12  14  ar  
 23  12  15  1   
 24  13  25  1   
 25  13  26  1   
 26  13  27  1   
 27  14  28  1   
 28  15  16  1   
 29  16  29  1   
 30  16  30  1   
 31  16  31  1   
@<TRIPOS>SUBSTRUCTURE
  1 ****   7 GROUP 4 **** **** 0

# MOE 2024.06 (io_trps.svl 2023.06)
