@<TRIPOS>MOLECULE
NONAME
35 36 1 0 0 
SMALL
USER_CHARGES


@<TRIPOS>ATOM
  1 O        0.4650     0.3820    -0.1330 O.2   1 <1>  -0.5700 
  2 C        1.5540     0.9320    -0.1090 C.2   1 <1>   0.6900 
  3 N        1.6220     2.3190    -0.1970 N.am  1 <1>  -0.4200 
  4 N        2.7090     0.1800     0.0070 N.am  1 <1>  -0.4230 
  5 C        2.8400     2.9720    -0.1260 C.2   1 <1>   0.7150 
  6 C        0.3600     3.1050    -0.3280 C.3   1 <1>   0.0600 
  7 C        3.9360     0.8310     0.0610 C.2   1 <1>   0.2900 
  8 C        2.6920    -1.3050     0.0930 C.3   1 <1>   0.0600 
  9 O        2.9010     4.1900    -0.1660 O.2   1 <1>  -0.5700 
 10 C        4.0040     2.1780    -0.0020 C.2   1 <1>  -0.2370 
 11 N        5.1390     0.2550     0.1780 N.2   1 <1>  -0.5650 
 12 N        5.3270     2.4840     0.0800 N.pl3 1 <1>   0.0480 
 13 C        5.9420     1.2820     0.1850 C.2   1 <1>   0.2490 
 14 C        5.9330     3.8300     0.0520 C.3   1 <1>   0.0160 
 15 O        7.2820     1.2020     0.2870 O.3   1 <1>  -0.3430 
 16 C        7.8770    -0.0730     0.3670 C.3   1 <1>   0.2580 
 17 C        9.3780     0.1150     0.4870 C.2   1 <1>  -0.2880 
 18 C       10.2890    -0.3800    -0.3570 C.2   1 <1>  -0.2880 
 19 C       11.7860    -0.1790    -0.2210 C.3   1 <1>  -0.1020 
 20 H        0.5520     4.0690    -0.7660 H     1 <1>   0.0800 
 21 H       -0.0800     3.2400     0.6440 H     1 <1>   0.0800 
 22 H       -0.3390     2.5820    -0.9580 H     1 <1>   0.0800 
 23 H        3.3020    -1.7140    -0.6930 H     1 <1>   0.0800 
 24 H        1.6920    -1.6890    -0.0060 H     1 <1>   0.0800 
 25 H        3.0940    -1.6110     1.0420 H     1 <1>   0.0800 
 26 H        5.6680     4.3190    -0.8670 H     1 <1>   0.0800 
 27 H        7.0020     3.7520     0.1220 H     1 <1>   0.0800 
 28 H        5.5590     4.4030     0.8810 H     1 <1>   0.0800 
 29 H        7.4860    -0.5780     1.2330 H     1 <1>   0.0800 
 30 H        7.6230    -0.6240    -0.5220 H     1 <1>   0.0800 
 31 H        9.6390     0.7070     1.3470 H     1 <1>   0.1500 
 32 H       10.0260    -0.9710    -1.2200 H     1 <1>   0.1500 
 33 H       12.2770    -1.1310    -0.1250 H     1 <1>   0.0800 
 34 H       12.0120     0.4140     0.6470 H     1 <1>   0.0800 
 35 H       12.1690     0.3240    -1.0900 H     1 <1>   0.0800 
@<TRIPOS>BOND
  1   1   2  2   
  2   2   3  am  
  3   2   4  am  
  4   3   5  am  
  5   3   6  1   
  6   4   7  1   
  7   4   8  1   
  8   5   9  2   
  9   5  10  1   
 10   6  20  1   
 11   6  21  1   
 12   6  22  1   
 13   7  10  2   
 14   7  11  1   
 15   8  23  1   
 16   8  24  1   
 17   8  25  1   
 18  10  12  1   
 19  11  13  2   
 20  12  13  1   
 21  12  14  1   
 22  13  15  1   
 23  14  26  1   
 24  14  27  1   
 25  14  28  1   
 26  15  16  1   
 27  16  17  1   
 28  16  29  1   
 29  16  30  1   
 30  17  18  2   
 31  17  31  1   
 32  18  19  1   
 33  18  32  1   
 34  19  33  1   
 35  19  34  1   
 36  19  35  1   
@<TRIPOS>SUBSTRUCTURE
  1 ****   7 GROUP 4 **** **** 0

# MOE 2024.06 (io_trps.svl 2023.06)
