@<TRIPOS>MOLECULE
NONAME
40 41 1 0 0 
SMALL
USER_CHARGES


@<TRIPOS>ATOM
  1 CL      -3.1320    -1.1800     2.7500 Cl    1 <1>  -0.1770 
  2 C       -1.9090    -1.5160     1.5490 C.ar  1 <1>   0.1770 
  3 C       -2.1940    -2.3400     0.4680 C.ar  1 <1>  -0.0090 
  4 C       -0.6670    -0.9280     1.7260 C.ar  1 <1>  -0.1500 
  5 S       -3.8390    -3.0700     0.3070 S.o2  1 <1>   1.4470 
  6 C       -1.1760    -2.5580    -0.4570 C.ar  1 <1>  -0.1500 
  7 C        0.3350    -1.1580     0.8000 C.ar  1 <1>  -0.1500 
  8 O       -4.0840    -4.0000     1.3790 O.2   1 <1>  -0.6500 
  9 O       -4.8050    -2.0390    -0.0070 O.2   1 <1>  -0.6500 
 10 N       -3.7310    -4.0680    -1.0370 N.am  1 <1>  -0.9140 
 11 C        0.0650    -1.9720    -0.2840 C.ar  1 <1>   0.1770 
 12 C       -4.9520    -4.1140    -1.8500 C.3   1 <1>   0.3370 
 13 CL       1.3180    -2.2680    -1.4600 Cl    1 <1>  -0.1770 
 14 C       -6.1890    -4.6940    -1.1110 C.2   1 <1>   0.5690 
 15 C       -4.5970    -4.9050    -3.1120 C.3   1 <1>  -0.2400 
 16 O       -6.4170    -5.8810    -1.1610 O.2   1 <1>  -0.5700 
 17 N       -6.9750    -3.8500    -0.3930 N.am  1 <1>  -0.7300 
 18 C       -8.0910    -4.2490     0.4750 C.3   1 <1>   0.2200 
 19 C       -9.1240    -3.1300     0.4760 C.3   1 <1>  -0.1600 
 20 C       -7.6030    -4.2700     1.9180 C.3   1 <1>  -0.1600 
 21 C       -8.5890    -2.0740     1.4530 C.3   1 <1>  -0.1600 
 22 C       -7.6070    -2.8070     2.3780 C.3   1 <1>  -0.1600 
 23 H       -0.4910    -0.2970     2.5810 H     1 <1>   0.1500 
 24 H       -1.3340    -3.1810    -1.3200 H     1 <1>   0.1500 
 25 H        1.3090    -0.7140     0.9110 H     1 <1>   0.1500 
 26 H       -3.6590    -4.9980    -0.6210 H     1 <1>   0.4200 
 27 H       -5.2000    -3.1150    -2.1670 H     1 <1>   0.0800 
 28 H       -4.3250    -5.9150    -2.8610 H     1 <1>   0.0800 
 29 H       -3.7830    -4.4330    -3.6330 H     1 <1>   0.0800 
 30 H       -5.4480    -4.9390    -3.7670 H     1 <1>   0.0800 
 31 H       -6.6390    -2.8950    -0.2110 H     1 <1>   0.3700 
 32 H       -8.5000    -5.1970     0.1620 H     1 <1>   0.0800 
 33 H      -10.0500    -3.5220     0.8590 H     1 <1>   0.0800 
 34 H       -9.2980    -2.7350    -0.5100 H     1 <1>   0.0800 
 35 H       -6.6360    -4.7330     2.0150 H     1 <1>   0.0800 
 36 H       -8.3080    -4.8250     2.5100 H     1 <1>   0.0800 
 37 H       -9.3910    -1.6220     2.0090 H     1 <1>   0.0800 
 38 H       -8.0640    -1.3050     0.9120 H     1 <1>   0.0800 
 39 H       -6.6210    -2.3880     2.2660 H     1 <1>   0.0800 
 40 H       -7.9010    -2.7300     3.4100 H     1 <1>   0.0800 
@<TRIPOS>BOND
  1   1   2  1   
  2   2   3  ar  
  3   2   4  ar  
  4   3   5  1   
  5   3   6  ar  
  6   4   7  ar  
  7   4  23  1   
  8   5   8  2   
  9   5   9  2   
 10   5  10  am  
 11   6  11  ar  
 12   6  24  1   
 13   7  11  ar  
 14   7  25  1   
 15  10  12  1   
 16  10  26  1   
 17  11  13  1   
 18  12  14  1   
 19  12  15  1   
 20  12  27  1   
 21  14  16  2   
 22  14  17  am  
 23  15  28  1   
 24  15  29  1   
 25  15  30  1   
 26  17  18  1   
 27  17  31  1   
 28  18  19  1   
 29  18  20  1   
 30  18  32  1   
 31  19  21  1   
 32  19  33  1   
 33  19  34  1   
 34  20  22  1   
 35  20  35  1   
 36  20  36  1   
 37  21  22  1   
 38  21  37  1   
 39  21  38  1   
 40  22  39  1   
 41  22  40  1   
@<TRIPOS>SUBSTRUCTURE
  1 ****   5 GROUP 4 **** **** 0

# MOE 2024.06 (io_trps.svl 2023.06)
