@<TRIPOS>MOLECULE
NONAME
46 47 1 0 0 
SMALL
USER_CHARGES


@<TRIPOS>ATOM
  1 O       -1.0160    -1.0060    -0.1150 O.2   1 <1>  -0.5700 
  2 C       -0.4330    -1.9500    -0.6110 C.2   1 <1>   0.6900 
  3 N        0.9060    -2.1390    -0.4770 N.am  1 <1>  -0.5470 
  4 N       -1.1400    -2.8730    -1.3120 N.am  1 <1>  -0.7300 
  5 C        1.8910    -1.3270     0.1080 C.ar  1 <1>   0.1170 
  6 C       -2.5950    -2.7710    -1.6140 C.3   1 <1>   0.1400 
  7 C        3.0170    -1.9130     0.6910 C.ar  1 <1>  -0.1430 
  8 C        1.7870     0.0610     0.1000 C.ar  1 <1>  -0.1500 
  9 C       -3.4410    -2.6800    -0.3230 C.3   1 <1>   0.3430 
 10 C        3.9990    -1.1100     1.2490 C.ar  1 <1>  -0.1500 
 11 C        3.1940    -3.4260     0.7360 C.3   1 <1>  -0.0970 
 12 C        2.7680     0.8610     0.6580 C.ar  1 <1>  -0.1430 
 13 N       -4.4510    -1.5680    -0.3430 N.4   1 <1>  -0.9590 
 14 C        3.8770     0.2670     1.2350 C.ar  1 <1>  -0.1500 
 15 C        2.6360     2.3730     0.6430 C.3   1 <1>  -0.0970 
 16 C       -3.7730    -0.2330    -0.2920 C.3   1 <1>   0.3430 
 17 C       -5.3990    -1.7160     0.7980 C.3   1 <1>   0.3430 
 18 C       -4.8130     0.8820    -0.4030 C.3   1 <1>  -0.1600 
 19 C       -6.4850    -0.6410     0.7100 C.3   1 <1>  -0.1600 
 20 C       -5.8840     0.7700     0.6900 C.3   1 <1>  -0.1600 
 21 H        1.2340    -3.0660    -0.7220 H     1 <1>   0.3700 
 22 H       -0.6080    -3.5060    -1.9120 H     1 <1>   0.3700 
 23 H       -2.8950    -3.6430    -2.1680 H     1 <1>   0.0800 
 24 H       -2.7530    -1.9070    -2.2360 H     1 <1>   0.0800 
 25 H        0.9300     0.5220    -0.3530 H     1 <1>   0.1500 
 26 H       -2.7780    -2.5340     0.5150 H     1 <1>   0.0800 
 27 H       -3.9470    -3.6210    -0.1830 H     1 <1>   0.0800 
 28 H        4.8700    -1.5490     1.7030 H     1 <1>   0.1500 
 29 H        2.3420    -3.8850     1.2040 H     1 <1>   0.0800 
 30 H        4.0680    -3.6930     1.3040 H     1 <1>   0.0800 
 31 H        3.3090    -3.8150    -0.2590 H     1 <1>   0.0800 
 32 H       -4.9970    -1.6070    -1.2110 H     1 <1>   0.4500 
 33 H        4.6480     0.8750     1.6750 H     1 <1>   0.1500 
 34 H        1.9580     2.6880    -0.1300 H     1 <1>   0.0800 
 35 H        3.5920     2.8290     0.4620 H     1 <1>   0.0800 
 36 H        2.2610     2.7130     1.5920 H     1 <1>   0.0800 
 37 H       -3.0610    -0.1420    -1.0960 H     1 <1>   0.0800 
 38 H       -3.2300    -0.1350     0.6360 H     1 <1>   0.0800 
 39 H       -4.8660    -1.6120     1.7290 H     1 <1>   0.0800 
 40 H       -5.8580    -2.6920     0.7750 H     1 <1>   0.0800 
 41 H       -5.2720     0.8480    -1.3760 H     1 <1>   0.0800 
 42 H       -4.3150     1.8330    -0.3160 H     1 <1>   0.0800 
 43 H       -7.1410    -0.7350     1.5590 H     1 <1>   0.0800 
 44 H       -7.0790    -0.8020    -0.1730 H     1 <1>   0.0800 
 45 H       -6.6600     1.4980     0.5200 H     1 <1>   0.0800 
 46 H       -5.4390     0.9830     1.6480 H     1 <1>   0.0800 
@<TRIPOS>BOND
  1   1   2  2   
  2   2   3  am  
  3   2   4  am  
  4   3   5  1   
  5   3  21  1   
  6   4   6  1   
  7   4  22  1   
  8   5   7  ar  
  9   5   8  ar  
 10   6   9  1   
 11   6  23  1   
 12   6  24  1   
 13   7  10  ar  
 14   7  11  1   
 15   8  12  ar  
 16   8  25  1   
 17   9  13  1   
 18   9  26  1   
 19   9  27  1   
 20  10  14  ar  
 21  10  28  1   
 22  11  29  1   
 23  11  30  1   
 24  11  31  1   
 25  12  14  ar  
 26  12  15  1   
 27  13  16  1   
 28  13  17  1   
 29  13  32  1   
 30  14  33  1   
 31  15  34  1   
 32  15  35  1   
 33  15  36  1   
 34  16  18  1   
 35  16  37  1   
 36  16  38  1   
 37  17  19  1   
 38  17  39  1   
 39  17  40  1   
 40  18  20  1   
 41  18  41  1   
 42  18  42  1   
 43  19  20  1   
 44  19  43  1   
 45  19  44  1   
 46  20  45  1   
 47  20  46  1   
@<TRIPOS>SUBSTRUCTURE
  1 ****   1 GROUP 4 **** **** 0

# MOE 2024.06 (io_trps.svl 2023.06)
