@<TRIPOS>MOLECULE
NONAME
55 57 1 0 0 
SMALL
USER_CHARGES


@<TRIPOS>ATOM
  1 O       -3.1880    -2.3270     2.9500 O.3   1 <1>  -0.3630 
  2 C       -3.3330    -1.8730     1.6720 C.ar  1 <1>   0.0830 
  3 C       -3.2390    -1.4810     4.0770 C.3   1 <1>   0.0400 
  4 C       -3.5910    -0.5570     1.2590 C.ar  1 <1>   0.0830 
  5 C       -3.2060    -2.8590     0.7090 C.ar  1 <1>  -0.1500 
  6 O       -3.7400     0.4830     2.1100 O.3   1 <1>  -0.5330 
  7 C       -3.7090    -0.2590    -0.0970 C.ar  1 <1>   0.0830 
  8 C       -3.3390    -2.5750    -0.6420 C.ar  1 <1>  -0.1430 
  9 O       -3.9500     1.0440    -0.4300 O.3   1 <1>  -0.3630 
 10 C       -3.5850    -1.2710    -1.0440 C.ar  1 <1>  -0.1500 
 11 C       -3.2310    -3.6930    -1.6630 C.3   1 <1>   0.4860 
 12 C       -3.8430     1.5010    -1.7620 C.3   1 <1>   0.0400 
 13 N       -4.3690    -4.6270    -1.4740 N.4   1 <1>  -0.9590 
 14 C       -4.3080    -5.8610    -2.3240 C.3   1 <1>   0.3430 
 15 C       -5.7240    -3.9850    -1.5450 C.3   1 <1>   0.3430 
 16 C       -5.4880    -6.8170    -2.0150 C.3   1 <1>   0.1100 
 17 C       -6.8230    -4.9820    -1.1110 C.3   1 <1>   0.1100 
 18 N       -6.2900    -6.3490    -0.8640 N.3   1 <1>  -0.8100 
 19 C       -7.3580    -7.3060    -0.5050 C.3   1 <1>   0.2530 
 20 C       -8.1090    -6.8360     0.7390 C.ar  1 <1>  -0.1430 
 21 C       -9.4690    -6.5320     0.7340 C.ar  1 <1>  -0.1430 
 22 C       -7.3880    -6.7060     1.9180 C.ar  1 <1>  -0.1500 
 23 C      -10.0740    -6.0990     1.9050 C.ar  1 <1>  -0.1500 
 24 C      -10.3290    -6.6610    -0.5160 C.3   1 <1>  -0.0970 
 25 C       -7.9980    -6.2740     3.0800 C.ar  1 <1>  -0.1500 
 26 C       -9.3450    -5.9690     3.0730 C.ar  1 <1>  -0.1500 
 27 H       -3.0720    -2.0780     4.9550 H     1 <1>   0.0800 
 28 H       -4.2110    -1.0230     4.1260 H     1 <1>   0.0800 
 29 H       -2.4690    -0.7360     3.9900 H     1 <1>   0.0800 
 30 H       -3.0010    -3.8590     1.0490 H     1 <1>   0.1500 
 31 H       -3.9090     1.2960     1.5910 H     1 <1>   0.4500 
 32 H       -3.6820    -1.0480    -2.0900 H     1 <1>   0.1500 
 33 H       -2.2980    -4.2130    -1.5210 H     1 <1>   0.0800 
 34 H       -3.2480    -3.2830    -2.6590 H     1 <1>   0.0800 
 35 H       -3.9710     2.5690    -1.7600 H     1 <1>   0.0800 
 36 H       -4.6170     1.0470    -2.3540 H     1 <1>   0.0800 
 37 H       -2.8670     1.2540    -2.1410 H     1 <1>   0.0800 
 38 H       -4.3460    -4.9830    -0.5060 H     1 <1>   0.4500 
 39 H       -3.3840    -6.3840    -2.1400 H     1 <1>   0.0800 
 40 H       -4.3330    -5.5960    -3.3680 H     1 <1>   0.0800 
 41 H       -5.9220    -3.6480    -2.5480 H     1 <1>   0.0800 
 42 H       -5.7640    -3.1260    -0.8940 H     1 <1>   0.0800 
 43 H       -5.0940    -7.7970    -1.8040 H     1 <1>   0.0800 
 44 H       -6.1160    -6.9000    -2.8860 H     1 <1>   0.0800 
 45 H       -7.5910    -5.0150    -1.8650 H     1 <1>   0.0800 
 46 H       -7.2770    -4.6050    -0.2090 H     1 <1>   0.0800 
 47 H       -6.9170    -8.2640    -0.2880 H     1 <1>   0.0800 
 48 H       -8.0240    -7.4360    -1.3380 H     1 <1>   0.0800 
 49 H       -6.3380    -6.9400     1.9300 H     1 <1>   0.1500 
 50 H      -11.1230    -5.8600     1.9200 H     1 <1>   0.1500 
 51 H      -10.3380    -7.6830    -0.8520 H     1 <1>   0.0800 
 52 H       -9.9460    -6.0330    -1.2990 H     1 <1>   0.0800 
 53 H      -11.3440    -6.3670    -0.3180 H     1 <1>   0.0800 
 54 H       -7.4280    -6.1770     3.9870 H     1 <1>   0.1500 
 55 H       -9.8260    -5.6330     3.9750 H     1 <1>   0.1500 
@<TRIPOS>BOND
  1   1   2  1   
  2   1   3  1   
  3   2   4  ar  
  4   2   5  ar  
  5   3  27  1   
  6   3  28  1   
  7   3  29  1   
  8   4   6  1   
  9   4   7  ar  
 10   5   8  ar  
 11   5  30  1   
 12   6  31  1   
 13   7   9  1   
 14   7  10  ar  
 15   8  10  ar  
 16   8  11  1   
 17   9  12  1   
 18  10  32  1   
 19  11  13  1   
 20  11  33  1   
 21  11  34  1   
 22  12  35  1   
 23  12  36  1   
 24  12  37  1   
 25  13  14  1   
 26  13  15  1   
 27  13  38  1   
 28  14  16  1   
 29  14  39  1   
 30  14  40  1   
 31  15  17  1   
 32  15  41  1   
 33  15  42  1   
 34  16  18  1   
 35  16  43  1   
 36  16  44  1   
 37  17  18  1   
 38  17  45  1   
 39  17  46  1   
 40  18  19  1   
 41  19  20  1   
 42  19  47  1   
 43  19  48  1   
 44  20  21  ar  
 45  20  22  ar  
 46  21  23  ar  
 47  21  24  1   
 48  22  25  ar  
 49  22  49  1   
 50  23  26  ar  
 51  23  50  1   
 52  24  51  1   
 53  24  52  1   
 54  24  53  1   
 55  25  26  ar  
 56  25  54  1   
 57  26  55  1   
@<TRIPOS>SUBSTRUCTURE
  1 ****  15 GROUP 4 **** **** 0

# MOE 2024.06 (io_trps.svl 2023.06)
