@<TRIPOS>MOLECULE
NONAME
39 40 1 0 0 
SMALL
USER_CHARGES


@<TRIPOS>ATOM
  1 S        0.0600     0.4440     0.6950 S.3   1 <1>  -0.0800 
  2 C       -1.6000     0.1530     0.2330 C.2   1 <1>   0.1040 
  3 C        0.4910    -1.2630     0.6060 C.2   1 <1>  -0.0450 
  4 N       -2.4890     1.2090     0.1050 N.am  1 <1>  -0.4940 
  5 C       -1.8150    -1.1880     0.0310 C.2   1 <1>  -0.0860 
  6 C       -0.6160    -1.9670     0.2410 C.2   1 <1>  -0.1810 
  7 C        1.8440    -1.6380     0.9380 C.2   1 <1>   0.7150 
  8 C       -2.4910     2.5490     0.3680 C.2   1 <1>   0.5690 
  9 C       -3.1140    -1.6980    -0.3440 C.2   1 <1>   0.8060 
 10 C       -0.5740    -3.4820     0.0570 C.3   1 <1>  -0.0590 
 11 O        2.0410    -2.5900     1.6750 O.2   1 <1>  -0.5700 
 12 N        2.9400    -0.9680     0.4370 N.am  1 <1>  -0.6600 
 13 O       -3.4570     3.2010     0.0740 O.2   1 <1>  -0.5700 
 14 C       -1.3350     3.2570     1.0340 C.3   1 <1>  -0.1790 
 15 O       -4.0060    -0.9820    -0.7640 O.2   1 <1>  -0.5700 
 16 O       -3.3770    -3.0050    -0.2160 O.3   1 <1>  -0.4300 
 17 C        4.3250    -1.3520     0.7910 C.3   1 <1>   0.1400 
 18 C        2.9270    -0.0910    -0.7550 C.3   1 <1>   0.1400 
 19 C       -4.6380    -3.5560    -0.5460 C.3   1 <1>   0.0400 
 20 C        5.2140    -0.5200    -0.1260 C.3   1 <1>  -0.1600 
 21 C        4.3340    -0.1990    -1.3300 C.3   1 <1>  -0.1600 
 22 H       -3.3980     0.9340    -0.2890 H     1 <1>   0.3700 
 23 H        0.4280    -3.8610     0.1290 H     1 <1>   0.0800 
 24 H       -0.9560    -3.7520    -0.9110 H     1 <1>   0.0800 
 25 H       -1.1650    -3.9620     0.8160 H     1 <1>   0.0800 
 26 H       -0.4840     3.2610     0.3800 H     1 <1>   0.0800 
 27 H       -1.0890     2.7720     1.9590 H     1 <1>   0.0800 
 28 H       -1.6090     4.2750     1.2440 H     1 <1>   0.0800 
 29 H        4.4610    -2.4040     0.5980 H     1 <1>   0.0800 
 30 H        4.5220    -1.1500     1.8310 H     1 <1>   0.0800 
 31 H        2.7310     0.9210    -0.4450 H     1 <1>   0.0800 
 32 H        2.1830    -0.4060    -1.4680 H     1 <1>   0.0800 
 33 H       -4.6070    -4.6140    -0.3600 H     1 <1>   0.0800 
 34 H       -4.8400    -3.3680    -1.5870 H     1 <1>   0.0800 
 35 H       -5.3920    -3.0950     0.0680 H     1 <1>   0.0800 
 36 H        6.1100    -1.0480    -0.4000 H     1 <1>   0.0800 
 37 H        5.4860     0.3890     0.3820 H     1 <1>   0.0800 
 38 H        4.6330     0.7050    -1.8300 H     1 <1>   0.0800 
 39 H        4.3630    -1.0150    -2.0320 H     1 <1>   0.0800 
@<TRIPOS>BOND
  1   1   2  1   
  2   1   3  1   
  3   2   4  1   
  4   2   5  2   
  5   3   6  2   
  6   3   7  1   
  7   4   8  am  
  8   4  22  1   
  9   5   6  1   
 10   5   9  1   
 11   6  10  1   
 12   7  11  2   
 13   7  12  am  
 14   8  13  2   
 15   8  14  1   
 16   9  15  2   
 17   9  16  1   
 18  10  23  1   
 19  10  24  1   
 20  10  25  1   
 21  12  17  1   
 22  12  18  1   
 23  14  26  1   
 24  14  27  1   
 25  14  28  1   
 26  16  19  1   
 27  17  20  1   
 28  17  29  1   
 29  17  30  1   
 30  18  21  1   
 31  18  31  1   
 32  18  32  1   
 33  19  33  1   
 34  19  34  1   
 35  19  35  1   
 36  20  21  1   
 37  20  36  1   
 38  20  37  1   
 39  21  38  1   
 40  21  39  1   
@<TRIPOS>SUBSTRUCTURE
  1 ****   3 GROUP 4 **** **** 0

# MOE 2024.06 (io_trps.svl 2023.06)
