@<TRIPOS>MOLECULE
NONAME
48 49 1 0 0 
SMALL
USER_CHARGES


@<TRIPOS>ATOM
  1 BR       2.4210     2.7300     2.5710 Br    1 <1>  -0.1110 
  2 C        1.2240     2.9950     1.0790 C.ar  1 <1>   0.1110 
  3 C        1.6520     2.6850    -0.2030 C.ar  1 <1>   0.0820 
  4 C       -0.0320     3.5050     1.3420 C.ar  1 <1>  -0.1500 
  5 O        2.9060     2.1920    -0.3750 O.3   1 <1>  -0.3630 
  6 C        0.7660     2.9010    -1.2500 C.ar  1 <1>  -0.1500 
  7 C       -0.9230     3.7270     0.2950 C.ar  1 <1>  -0.1430 
  8 C        3.5700     2.3370    -1.6220 C.3   1 <1>   0.1810 
  9 C       -0.4970     3.4140    -0.9950 C.ar  1 <1>  -0.1500 
 10 C       -2.3430     4.2950     0.5090 C.3   1 <1>   0.1440 
 11 C        5.0380     1.9140    -1.5380 C.2   1 <1>   0.5690 
 12 C       -2.6600     4.5900     1.9850 C.3   1 <1>  -0.2400 
 13 C       -2.4930     5.6110    -0.2680 C.3   1 <1>  -0.2400 
 14 C       -3.3830     3.2830     0.0050 C.3   1 <1>  -0.2400 
 15 O        5.4670     1.2660    -2.4630 O.2   1 <1>  -0.5700 
 16 N        5.8650     2.2540    -0.4850 N.am  1 <1>  -0.6600 
 17 C        7.1960     1.5830    -0.3320 C.3   1 <1>   0.1400 
 18 C        5.4710     3.1510     0.6490 C.3   1 <1>   0.1400 
 19 C        8.2960     2.5790     0.0750 C.3   1 <1>   0.3430 
 20 C        6.6140     4.0990     1.0640 C.3   1 <1>   0.3430 
 21 N        7.9100     3.3700     1.2960 N.4   1 <1>  -0.9590 
 22 C        8.9980     4.3140     1.6940 C.3   1 <1>   0.2630 
 23 H       -0.2820     3.7170     2.3640 H     1 <1>   0.1500 
 24 H        1.0300     2.6690    -2.2640 H     1 <1>   0.1500 
 25 H        3.5070     3.3650    -1.9280 H     1 <1>   0.0800 
 26 H        3.0690     1.7140    -2.3400 H     1 <1>   0.0800 
 27 H       -1.1570     3.5680    -1.8300 H     1 <1>   0.1500 
 28 H       -2.5970     3.6910     2.5730 H     1 <1>   0.0800 
 29 H       -1.9740     5.3170     2.3820 H     1 <1>   0.0800 
 30 H       -3.6560     4.9830     2.0870 H     1 <1>   0.0800 
 31 H       -1.7480     6.3170     0.0550 H     1 <1>   0.0800 
 32 H       -3.4640     6.0410    -0.1030 H     1 <1>   0.0800 
 33 H       -2.3740     5.4560    -1.3240 H     1 <1>   0.0800 
 34 H       -3.2730     3.1040    -1.0480 H     1 <1>   0.0800 
 35 H       -4.3800     3.6450     0.1790 H     1 <1>   0.0800 
 36 H       -3.2640     2.3470     0.5210 H     1 <1>   0.0800 
 37 H        7.4910     1.1100    -1.2540 H     1 <1>   0.0800 
 38 H        7.1140     0.8090     0.4110 H     1 <1>   0.0800 
 39 H        5.1790     2.5450     1.4890 H     1 <1>   0.0800 
 40 H        4.6260     3.7560     0.3740 H     1 <1>   0.0800 
 41 H        8.4730     3.2470    -0.7520 H     1 <1>   0.0800 
 42 H        9.2080     2.0350     0.2620 H     1 <1>   0.0800 
 43 H        6.3230     4.6240     1.9600 H     1 <1>   0.0800 
 44 H        6.7470     4.8300     0.2840 H     1 <1>   0.0800 
 45 H        7.7530     2.6990     2.0620 H     1 <1>   0.4500 
 46 H        9.1820     5.0280     0.9070 H     1 <1>   0.0800 
 47 H        9.9110     3.7740     1.8890 H     1 <1>   0.0800 
 48 H        8.7210     4.8500     2.5870 H     1 <1>   0.0800 
@<TRIPOS>BOND
  1   1   2  1   
  2   2   3  ar  
  3   2   4  ar  
  4   3   5  1   
  5   3   6  ar  
  6   4   7  ar  
  7   4  23  1   
  8   5   8  1   
  9   6   9  ar  
 10   6  24  1   
 11   7   9  ar  
 12   7  10  1   
 13   8  11  1   
 14   8  25  1   
 15   8  26  1   
 16   9  27  1   
 17  10  12  1   
 18  10  13  1   
 19  10  14  1   
 20  11  15  2   
 21  11  16  am  
 22  12  28  1   
 23  12  29  1   
 24  12  30  1   
 25  13  31  1   
 26  13  32  1   
 27  13  33  1   
 28  14  34  1   
 29  14  35  1   
 30  14  36  1   
 31  16  17  1   
 32  16  18  1   
 33  17  19  1   
 34  17  37  1   
 35  17  38  1   
 36  18  20  1   
 37  18  39  1   
 38  18  40  1   
 39  19  21  1   
 40  19  41  1   
 41  19  42  1   
 42  20  21  1   
 43  20  43  1   
 44  20  44  1   
 45  21  22  1   
 46  21  45  1   
 47  22  46  1   
 48  22  47  1   
 49  22  48  1   
@<TRIPOS>SUBSTRUCTURE
  1 ****   5 GROUP 4 **** **** 0

# MOE 2024.06 (io_trps.svl 2023.06)
