@<TRIPOS>MOLECULE
NONAME
27 27 1 0 0 
SMALL
USER_CHARGES


@<TRIPOS>ATOM
  1 CL      -0.0430     0.3580     0.0900 Cl    1 <1>  -0.1770 
  2 C       -1.4720    -0.6400     0.1630 C.ar  1 <1>   0.1770 
  3 C       -2.7010    -0.0840    -0.1480 C.ar  1 <1>  -0.1500 
  4 C       -1.3520    -1.9680     0.5300 C.ar  1 <1>  -0.1500 
  5 C       -3.8390    -0.8730    -0.0920 C.ar  1 <1>  -0.1500 
  6 C       -2.4880    -2.7580     0.5870 C.ar  1 <1>  -0.1500 
  7 C       -3.7210    -2.2070     0.2770 C.ar  1 <1>   0.1020 
  8 S       -5.1460    -3.3040     0.3760 S.3   1 <1>  -0.3310 
  9 C       -6.6240    -2.3060    -0.1070 C.3   1 <1>   0.0700 
 10 C       -7.8570    -3.2020    -0.0070 C.3   1 <1>   0.1960 
 11 N       -9.0410    -2.4620    -0.4330 N.am  1 <1>  -0.9140 
 12 S      -10.4340    -3.3890    -0.3950 S.o2  1 <1>   1.3330 
 13 O      -10.3390    -4.3120     0.7090 O.2   1 <1>  -0.6500 
 14 O      -10.5720    -3.8550    -1.7520 O.2   1 <1>  -0.6500 
 15 C      -11.6940    -2.1840    -0.0430 C.3   1 <1>  -0.1350 
 16 H       -2.7590     0.9520    -0.4290 H     1 <1>   0.1500 
 17 H       -0.3850    -2.3740     0.7670 H     1 <1>   0.1500 
 18 H       -4.7900    -0.4390    -0.3330 H     1 <1>   0.1500 
 19 H       -2.4230    -3.7940     0.8700 H     1 <1>   0.1500 
 20 H       -6.4630    -1.9690    -1.1150 H     1 <1>   0.0800 
 21 H       -6.6920    -1.4790     0.5770 H     1 <1>   0.0800 
 22 H       -7.9750    -3.5200     1.0170 H     1 <1>   0.0800 
 23 H       -7.7280    -4.0750    -0.6260 H     1 <1>   0.0800 
 24 H       -8.9320    -2.2720    -1.4300 H     1 <1>   0.4200 
 25 H      -11.7030    -1.4230    -0.7980 H     1 <1>   0.0800 
 26 H      -11.5100    -1.7280     0.9090 H     1 <1>   0.0800 
 27 H      -12.6560    -2.6560    -0.0180 H     1 <1>   0.0800 
@<TRIPOS>BOND
  1   1   2  1   
  2   2   3  ar  
  3   2   4  ar  
  4   3   5  ar  
  5   3  16  1   
  6   4   6  ar  
  7   4  17  1   
  8   5   7  ar  
  9   5  18  1   
 10   6   7  ar  
 11   6  19  1   
 12   7   8  1   
 13   8   9  1   
 14   9  10  1   
 15   9  20  1   
 16   9  21  1   
 17  10  11  1   
 18  10  22  1   
 19  10  23  1   
 20  11  12  am  
 21  11  24  1   
 22  12  13  2   
 23  12  14  2   
 24  12  15  1   
 25  15  25  1   
 26  15  26  1   
 27  15  27  1   
@<TRIPOS>SUBSTRUCTURE
  1 ****   9 GROUP 4 **** **** 0

# MOE 2024.06 (io_trps.svl 2023.06)
