@<TRIPOS>MOLECULE
NONAME
40 41 1 0 0 
SMALL
USER_CHARGES


@<TRIPOS>ATOM
  1 O        0.7050    -0.0840    -1.4340 O.2   1 <1>  -0.5700 
  2 C        1.5660    -0.8080    -0.9930 C.2   1 <1>   0.6900 
  3 N        2.8570    -0.5460    -1.2540 N.am  1 <1>  -0.7300 
  4 N        1.2310    -1.8670    -0.2550 N.am  1 <1>  -0.8000 
  5 C        3.9980    -0.8910    -0.3710 C.3   1 <1>   0.1400 
  6 C        5.1910     0.0690    -0.5480 C.3   1 <1>   0.0630 
  7 C        6.4540    -0.6850    -0.1240 C.ar  1 <1>  -0.1430 
  8 C        5.0650     1.4230     0.2120 C.3   1 <1>  -0.0800 
  9 C        7.4380    -0.9720    -1.0600 C.ar  1 <1>  -0.1500 
 10 C        6.6360    -1.0980     1.1890 C.ar  1 <1>  -0.1500 
 11 C        3.7970     2.2220    -0.1650 C.3   1 <1>  -0.1600 
 12 C        6.3200     2.2950    -0.0220 C.3   1 <1>  -0.1600 
 13 C        8.5820    -1.6580    -0.6910 C.ar  1 <1>  -0.1500 
 14 C        7.7790    -1.7840     1.5600 C.ar  1 <1>  -0.1500 
 15 C        3.7260     3.5760     0.5540 C.3   1 <1>  -0.1600 
 16 C        6.2380     3.6440     0.7040 C.3   1 <1>  -0.1600 
 17 C        8.7540    -2.0650     0.6200 C.ar  1 <1>  -0.1500 
 18 C        4.9800     4.4150     0.2950 C.3   1 <1>  -0.1600 
 19 H        2.9810     0.2970    -1.8160 H     1 <1>   0.3700 
 20 H        0.2410    -2.0940    -0.1910 H     1 <1>   0.3700 
 21 H        1.8850    -2.6340    -0.1350 H     1 <1>   0.3700 
 22 H        4.3160    -1.8890    -0.6230 H     1 <1>   0.0800 
 23 H        3.6800    -0.8920     0.6570 H     1 <1>   0.0800 
 24 H        5.2770     0.2840    -1.5980 H     1 <1>   0.0800 
 25 H        5.0070     1.2130     1.2660 H     1 <1>   0.0800 
 26 H        7.3230    -0.6630    -2.0840 H     1 <1>   0.1500 
 27 H        5.8900    -0.8880     1.9350 H     1 <1>   0.1500 
 28 H        2.9150     1.6700     0.1050 H     1 <1>   0.0800 
 29 H        3.7780     2.3900    -1.2280 H     1 <1>   0.0800 
 30 H        6.4410     2.4720    -1.0770 H     1 <1>   0.0800 
 31 H        7.2000     1.7820     0.3250 H     1 <1>   0.0800 
 32 H        9.3390    -1.8750    -1.4240 H     1 <1>   0.1500 
 33 H        7.9110    -2.0980     2.5810 H     1 <1>   0.1500 
 34 H        3.6200     3.4110     1.6130 H     1 <1>   0.0800 
 35 H        2.8560     4.1150     0.2180 H     1 <1>   0.0800 
 36 H        7.1100     4.2300     0.4730 H     1 <1>   0.0800 
 37 H        6.2250     3.4760     1.7670 H     1 <1>   0.0800 
 38 H        9.6430    -2.5980     0.9070 H     1 <1>   0.1500 
 39 H        4.9220     5.3340     0.8530 H     1 <1>   0.0800 
 40 H        5.0350     4.6640    -0.7510 H     1 <1>   0.0800 
@<TRIPOS>BOND
  1   1   2  2   
  2   2   3  am  
  3   2   4  am  
  4   3   5  1   
  5   3  19  1   
  6   4  20  1   
  7   4  21  1   
  8   5   6  1   
  9   5  22  1   
 10   5  23  1   
 11   6   7  1   
 12   6   8  1   
 13   6  24  1   
 14   7   9  ar  
 15   7  10  ar  
 16   8  11  1   
 17   8  12  1   
 18   8  25  1   
 19   9  13  ar  
 20   9  26  1   
 21  10  14  ar  
 22  10  27  1   
 23  11  15  1   
 24  11  28  1   
 25  11  29  1   
 26  12  16  1   
 27  12  30  1   
 28  12  31  1   
 29  13  17  ar  
 30  13  32  1   
 31  14  17  ar  
 32  14  33  1   
 33  15  18  1   
 34  15  34  1   
 35  15  35  1   
 36  16  18  1   
 37  16  36  1   
 38  16  37  1   
 39  17  38  1   
 40  18  39  1   
 41  18  40  1   
@<TRIPOS>SUBSTRUCTURE
  1 ****   6 GROUP 4 **** **** 0

# MOE 2024.06 (io_trps.svl 2023.06)
