@<TRIPOS>MOLECULE
NONAME
36 39 1 0 0 
SMALL
USER_CHARGES


@<TRIPOS>ATOM
  1 O       -0.2580     0.3920    -0.9370 O.2   1 <1>  -0.5700 
  2 C       -0.5900     1.4330    -0.4320 C.2   1 <1>   0.5690 
  3 N        0.1660     2.5610    -0.1520 N.am  1 <1>  -0.2370 
  4 C       -1.9640     1.7020     0.0740 C.3   1 <1>  -0.0190 
  5 C        1.5760     2.6480    -0.2040 C.ar  1 <1>   0.1170 
  6 C       -0.7020     3.5900     0.2000 C.2   1 <1>   0.5690 
  7 C       -3.4120     1.2450    -0.0600 C.3   1 <1>   0.4180 
  8 C       -2.0810     3.1850    -0.2320 C.3   1 <1>  -0.0190 
  9 C        2.3750     1.5700     0.1670 C.ar  1 <1>  -0.1500 
 10 C        2.2070     3.8140    -0.6290 C.ar  1 <1>  -0.1500 
 11 O       -0.4440     4.6480     0.7100 O.2   1 <1>  -0.5700 
 12 O       -3.9010     2.2260     0.8100 O.3   1 <1>  -0.5600 
 13 C       -4.1390     1.7320    -1.3060 C.2   1 <1>  -0.2880 
 14 C       -3.7700    -0.1880     0.4000 C.3   1 <1>   0.1200 
 15 C       -3.5700     3.3980     0.1220 C.3   1 <1>   0.3380 
 16 C        3.7550     1.6530     0.1120 C.ar  1 <1>  -0.1500 
 17 C        3.5860     3.8990    -0.6840 C.ar  1 <1>  -0.1500 
 18 C       -4.2930     3.0460    -1.1620 C.2   1 <1>  -0.2880 
 19 O       -2.8120    -0.7510     1.2500 O.3   1 <1>  -0.6800 
 20 C        4.3690     2.8180    -0.3160 C.ar  1 <1>  -0.1430 
 21 C        5.8830     2.9110    -0.3740 C.3   1 <1>  -0.0970 
 22 H       -1.7910     1.5880     1.1360 H     1 <1>   0.0800 
 23 H       -2.0140     3.3560    -1.2950 H     1 <1>   0.0800 
 24 H        1.9220     0.6540     0.5000 H     1 <1>   0.1500 
 25 H        1.6210     4.6680    -0.9170 H     1 <1>   0.1500 
 26 H       -4.4390     1.0500    -2.0830 H     1 <1>   0.1500 
 27 H       -3.8520    -0.8330    -0.4560 H     1 <1>   0.0800 
 28 H       -4.7150    -0.1750     0.9140 H     1 <1>   0.0800 
 29 H       -3.8730     4.2870     0.6500 H     1 <1>   0.0800 
 30 H        4.3490     0.8050     0.4030 H     1 <1>   0.1500 
 31 H        4.0480     4.8130    -1.0130 H     1 <1>   0.1500 
 32 H       -4.7600     3.8010    -1.7710 H     1 <1>   0.1500 
 33 H       -2.0170    -1.0290     0.7480 H     1 <1>   0.4000 
 34 H        6.3120     1.9460    -0.5760 H     1 <1>   0.0800 
 35 H        6.2620     3.2700     0.5660 H     1 <1>   0.0800 
 36 H        6.1880     3.5860    -1.1530 H     1 <1>   0.0800 
@<TRIPOS>BOND
  1   1   2  2   
  2   2   3  am  
  3   2   4  1   
  4   3   5  1   
  5   3   6  am  
  6   4   7  1   
  7   4   8  1   
  8   4  22  1   
  9   5   9  ar  
 10   5  10  ar  
 11   6   8  1   
 12   6  11  2   
 13   7  12  1   
 14   7  13  1   
 15   7  14  1   
 16   8  15  1   
 17   8  23  1   
 18   9  16  ar  
 19   9  24  1   
 20  10  17  ar  
 21  10  25  1   
 22  12  15  1   
 23  13  18  2   
 24  13  26  1   
 25  14  19  1   
 26  14  27  1   
 27  14  28  1   
 28  15  18  1   
 29  15  29  1   
 30  16  20  ar  
 31  16  30  1   
 32  17  20  ar  
 33  17  31  1   
 34  18  32  1   
 35  19  33  1   
 36  20  21  1   
 37  21  34  1   
 38  21  35  1   
 39  21  36  1   
@<TRIPOS>SUBSTRUCTURE
  1 ****   3 GROUP 4 **** **** 0

# MOE 2024.06 (io_trps.svl 2023.06)
