@<TRIPOS>MOLECULE
NONAME
47 50 1 0 0 
SMALL
USER_CHARGES


@<TRIPOS>ATOM
  1 S        0.1410    -0.0600    -1.3840 S.3   1 <1>  -0.0800 
  2 C       -0.5640     1.3650    -0.6330 C.2   1 <1>   0.1040 
  3 C       -1.3190    -0.9940    -1.1180 C.2   1 <1>  -0.1100 
  4 N        0.1550     2.5450    -0.5250 N.am  1 <1>  -0.4940 
  5 C       -1.8400     1.1100    -0.2130 C.2   1 <1>  -0.0860 
  6 C       -2.2480    -0.2440    -0.5010 C.2   1 <1>  -0.1500 
  7 C        1.4230     2.9270    -0.8870 C.2   1 <1>   0.5690 
  8 C       -2.6830     2.0770     0.4420 C.2   1 <1>   0.7160 
  9 O        2.2010     2.1780    -1.4280 O.2   1 <1>  -0.5700 
 10 C        1.8750     4.3740    -0.5810 C.3   1 <1>   0.0610 
 11 O       -2.3080     3.2140     0.6620 O.2   1 <1>  -0.5700 
 12 N       -3.9370     1.7800     0.8510 N.am  1 <1>  -0.8000 
 13 C        3.0380     4.3480     0.4400 C.3   1 <1>  -0.1600 
 14 C        0.7390     5.2560     0.0110 C.3   1 <1>  -0.1600 
 15 C        2.3790     5.0540    -1.8780 C.3   1 <1>  -0.1600 
 16 C        3.5560     5.7690     0.7400 C.3   1 <1>   0.0000 
 17 C        1.2310     6.6870     0.3040 C.3   1 <1>   0.0000 
 18 C        2.8860     6.4790    -1.5940 C.3   1 <1>  -0.0800 
 19 C        2.3980     6.6130     1.3090 C.3   1 <1>  -0.1600 
 20 C        4.0390     6.4110    -0.5760 C.3   1 <1>  -0.1600 
 21 C        4.7090     5.7060     1.7500 C.3   1 <1>  -0.2400 
 22 C        1.7390     7.3190    -1.0070 C.3   1 <1>  -0.1600 
 23 C        0.0870     7.5280     0.8850 C.3   1 <1>  -0.2400 
 24 H       -1.3160    -2.0150    -1.4580 H     1 <1>   0.1500 
 25 H       -0.3850     3.2910    -0.0730 H     1 <1>   0.3700 
 26 H       -3.2250    -0.6040    -0.2360 H     1 <1>   0.1500 
 27 H       -4.4890     2.5040     1.3100 H     1 <1>   0.3700 
 28 H       -4.3690     0.8670     0.7330 H     1 <1>   0.3700 
 29 H        3.8420     3.7490     0.0460 H     1 <1>   0.0800 
 30 H        2.7060     3.8800     1.3500 H     1 <1>   0.0800 
 31 H        0.3780     4.8220     0.9280 H     1 <1>   0.0800 
 32 H       -0.0840     5.3020    -0.6820 H     1 <1>   0.0800 
 33 H        1.5830     5.0890    -2.6020 H     1 <1>   0.0800 
 34 H        3.1770     4.4720    -2.3060 H     1 <1>   0.0800 
 35 H        3.2350     6.9290    -2.5080 H     1 <1>   0.0800 
 36 H        2.0550     6.1790     2.2320 H     1 <1>   0.0800 
 37 H        2.7490     7.6060     1.5280 H     1 <1>   0.0800 
 38 H        4.8490     5.8350    -0.9900 H     1 <1>   0.0800 
 39 H        4.4090     7.4030    -0.3860 H     1 <1>   0.0800 
 40 H        4.3790     5.2580     2.6700 H     1 <1>   0.0800 
 41 H        5.0760     6.6940     1.9650 H     1 <1>   0.0800 
 42 H        5.5210     5.1190     1.3580 H     1 <1>   0.0800 
 43 H        2.0870     8.3200    -0.8210 H     1 <1>   0.0800 
 44 H        0.9360     7.3800    -1.7210 H     1 <1>   0.0800 
 45 H       -0.2730     7.0930     1.8000 H     1 <1>   0.0800 
 46 H       -0.7310     7.5830     0.1900 H     1 <1>   0.0800 
 47 H        0.4240     8.5280     1.0940 H     1 <1>   0.0800 
@<TRIPOS>BOND
  1   1   2  1   
  2   1   3  1   
  3   2   4  1   
  4   2   5  2   
  5   3   6  2   
  6   3  24  1   
  7   4   7  am  
  8   4  25  1   
  9   5   6  1   
 10   5   8  1   
 11   6  26  1   
 12   7   9  2   
 13   7  10  1   
 14   8  11  2   
 15   8  12  am  
 16  10  13  1   
 17  10  14  1   
 18  10  15  1   
 19  12  27  1   
 20  12  28  1   
 21  13  16  1   
 22  13  29  1   
 23  13  30  1   
 24  14  17  1   
 25  14  31  1   
 26  14  32  1   
 27  15  18  1   
 28  15  33  1   
 29  15  34  1   
 30  16  19  1   
 31  16  20  1   
 32  16  21  1   
 33  17  19  1   
 34  17  22  1   
 35  17  23  1   
 36  18  20  1   
 37  18  22  1   
 38  18  35  1   
 39  19  36  1   
 40  19  37  1   
 41  20  38  1   
 42  20  39  1   
 43  21  40  1   
 44  21  41  1   
 45  21  42  1   
 46  22  43  1   
 47  22  44  1   
 48  23  45  1   
 49  23  46  1   
 50  23  47  1   
@<TRIPOS>SUBSTRUCTURE
  1 ****   7 GROUP 4 **** **** 0

# MOE 2024.06 (io_trps.svl 2023.06)
