@<TRIPOS>MOLECULE
NONAME
51 53 1 0 0 
SMALL
USER_CHARGES


@<TRIPOS>ATOM
  1 S        0.4150    -0.3580    -0.9300 S.o2  1 <1>   1.4470 
  2 O        1.1930    -0.8120    -2.0590 O.2   1 <1>  -0.6500 
  3 O        0.8860    -0.6470     0.4060 O.2   1 <1>  -0.6500 
  4 N        0.4300     1.3660    -1.0160 N.am  1 <1>  -0.6930 
  5 C       -1.3320    -0.7970    -1.1440 C.ar  1 <1>  -0.0090 
  6 C       -0.4630     2.1360    -0.2690 C.ar  1 <1>   0.1990 
  7 C        1.6010     2.0290    -1.6640 C.3   1 <1>   0.2570 
  8 C       -1.8350    -1.1750    -2.3830 C.ar  1 <1>  -0.1500 
  9 C       -2.2200    -0.7430    -0.0760 C.ar  1 <1>  -0.1500 
 10 C       -1.6620     2.5970    -0.8240 C.ar  1 <1>   0.0830 
 11 C       -0.1780     2.4360     1.0570 C.ar  1 <1>  -0.1500 
 12 C        2.8680     2.1130    -0.8020 C.2   1 <1>   0.5690 
 13 C       -3.1720    -1.4950    -2.5500 C.ar  1 <1>  -0.1500 
 14 C       -3.5580    -1.0590    -0.2350 C.ar  1 <1>  -0.1500 
 15 O       -1.9330     2.2860    -2.1250 O.3   1 <1>  -0.3620 
 16 C       -2.5400     3.3470    -0.0510 C.ar  1 <1>  -0.1500 
 17 C       -1.0530     3.1810     1.8280 C.ar  1 <1>  -0.1440 
 18 O        3.6890     2.9530    -1.0900 O.2   1 <1>  -0.5700 
 19 N        3.0480     1.2680     0.2540 N.am  1 <1>  -0.5790 
 20 C       -4.0410    -1.4400    -1.4750 C.ar  1 <1>  -0.1430 
 21 C       -3.2710     2.0980    -2.5320 C.3   1 <1>   0.0400 
 22 C       -2.2360     3.6340     1.2690 C.ar  1 <1>  -0.1500 
 23 C       -0.7190     3.4950     3.2750 C.3   1 <1>  -0.0970 
 24 C        4.1950     1.2520     1.1670 C.3   1 <1>   0.0490 
 25 C       -5.5080    -1.7900    -1.6530 C.3   1 <1>  -0.0970 
 26 C        4.6310    -0.0680     1.7100 C.3   1 <1>  -0.2000 
 27 C        3.9350     0.9190     2.5980 C.3   1 <1>  -0.2000 
 28 H        1.3190     3.0330    -1.9280 H     1 <1>   0.0800 
 29 H        1.8450     1.5190    -2.5780 H     1 <1>   0.0800 
 30 H       -1.1710    -1.2200    -3.2300 H     1 <1>   0.1500 
 31 H       -1.8610    -0.4450     0.8950 H     1 <1>   0.1500 
 32 H        0.7390     2.0780     1.4890 H     1 <1>   0.1500 
 33 H       -3.5300    -1.7880    -3.5220 H     1 <1>   0.1500 
 34 H       -4.2210    -1.0070     0.6120 H     1 <1>   0.1500 
 35 H       -3.4590     3.7190    -0.4630 H     1 <1>   0.1500 
 36 H        2.3310     0.5610     0.4640 H     1 <1>   0.3700 
 37 H       -3.7680     1.4640    -1.8180 H     1 <1>   0.0800 
 38 H       -3.2620     1.6220    -3.4960 H     1 <1>   0.0800 
 39 H       -3.7550     3.0540    -2.6010 H     1 <1>   0.0800 
 40 H       -2.9250     4.2150     1.8580 H     1 <1>   0.1500 
 41 H        0.3460     3.5300     3.4170 H     1 <1>   0.0800 
 42 H       -1.1300     2.7360     3.9170 H     1 <1>   0.0800 
 43 H       -1.1290     4.4480     3.5570 H     1 <1>   0.0800 
 44 H        4.9450     1.9900     0.9300 H     1 <1>   0.1000 
 45 H       -6.0670    -0.9050    -1.8990 H     1 <1>   0.0800 
 46 H       -5.9060    -2.2120    -0.7480 H     1 <1>   0.0800 
 47 H       -5.6300    -2.5090    -2.4430 H     1 <1>   0.0800 
 48 H        5.6820    -0.2400     1.8630 H     1 <1>   0.1000 
 49 H        4.1050    -0.9530     1.3960 H     1 <1>   0.1000 
 50 H        2.9260     0.7130     2.9100 H     1 <1>   0.1000 
 51 H        4.5130     1.4170     3.3570 H     1 <1>   0.1000 
@<TRIPOS>BOND
  1   1   2  2   
  2   1   3  2   
  3   1   4  am  
  4   1   5  1   
  5   4   6  1   
  6   4   7  1   
  7   5   8  ar  
  8   5   9  ar  
  9   6  10  ar  
 10   6  11  ar  
 11   7  12  1   
 12   7  28  1   
 13   7  29  1   
 14   8  13  ar  
 15   8  30  1   
 16   9  14  ar  
 17   9  31  1   
 18  10  15  1   
 19  10  16  ar  
 20  11  17  ar  
 21  11  32  1   
 22  12  18  2   
 23  12  19  am  
 24  13  20  ar  
 25  13  33  1   
 26  14  20  ar  
 27  14  34  1   
 28  15  21  1   
 29  16  22  ar  
 30  16  35  1   
 31  17  22  ar  
 32  17  23  1   
 33  19  24  1   
 34  19  36  1   
 35  20  25  1   
 36  21  37  1   
 37  21  38  1   
 38  21  39  1   
 39  22  40  1   
 40  23  41  1   
 41  23  42  1   
 42  23  43  1   
 43  24  26  1   
 44  24  27  1   
 45  24  44  1   
 46  25  45  1   
 47  25  46  1   
 48  25  47  1   
 49  26  27  1   
 50  26  48  1   
 51  26  49  1   
 52  27  50  1   
 53  27  51  1   
@<TRIPOS>SUBSTRUCTURE
  1 ****   4 GROUP 4 **** **** 0

# MOE 2024.06 (io_trps.svl 2023.06)
