@<TRIPOS>MOLECULE
NONAME
44 44 1 0 0 
SMALL
USER_CHARGES


@<TRIPOS>ATOM
  1 S       -0.2410     0.7260    -0.7120 S.o2  1 <1>   1.4470 
  2 O       -0.4760     0.0270    -1.9560 O.2   1 <1>  -0.6500 
  3 O       -0.6580     2.0980    -0.5470 O.2   1 <1>  -0.6500 
  4 N       -1.0960    -0.1160     0.5520 N.am  1 <1>  -0.5780 
  5 C        1.4970     0.5630    -0.2210 C.ar  1 <1>  -0.0090 
  6 N       -1.7360    -1.3540     0.5110 N.2   1 <1>  -0.4300 
  7 C        1.9170     0.8840     1.0650 C.ar  1 <1>  -0.1500 
  8 C        2.4560     0.1080    -1.1190 C.ar  1 <1>  -0.1500 
  9 C       -1.2050    -2.4530     0.1450 C.2   1 <1>   0.3280 
 10 C        3.2400     0.7440     1.4450 C.ar  1 <1>  -0.1500 
 11 C        3.7810    -0.0330    -0.7460 C.ar  1 <1>  -0.1500 
 12 C       -2.0500    -3.7510     0.0320 C.3   1 <1>   0.0610 
 13 C        0.2820    -2.6030    -0.1750 C.3   1 <1>  -0.1790 
 14 C        4.1810     0.2840     0.5400 C.ar  1 <1>  -0.1430 
 15 C       -1.7510    -4.6400     1.2670 C.3   1 <1>  -0.0990 
 16 C       -1.7460    -4.4880    -1.2910 C.3   1 <1>  -0.2400 
 17 C       -3.5610    -3.4170     0.0000 C.3   1 <1>  -0.2400 
 18 C        5.6330     0.1290     0.9540 C.3   1 <1>  -0.0970 
 19 C       -2.5340    -5.9450     1.3310 C.2   1 <1>   0.6590 
 20 O       -3.6080    -5.9780     1.8660 O.2   1 <1>  -0.5700 
 21 O       -2.0340    -7.0540     0.7910 O.3   1 <1>  -0.4300 
 22 C       -0.6660    -7.3470     0.6080 C.3   1 <1>   0.0400 
 23 H       -1.5800     0.6010     1.0940 H     1 <1>   0.4200 
 24 H        1.2020     1.2480     1.7830 H     1 <1>   0.1500 
 25 H        2.1630    -0.1410    -2.1260 H     1 <1>   0.1500 
 26 H        3.5360     0.9970     2.4490 H     1 <1>   0.1500 
 27 H        4.5000    -0.3910    -1.4630 H     1 <1>   0.1500 
 28 H        0.6390    -3.5900     0.0430 H     1 <1>   0.0800 
 29 H        0.8620    -1.9280     0.4230 H     1 <1>   0.0800 
 30 H        0.4520    -2.3980    -1.2160 H     1 <1>   0.0800 
 31 H       -2.0100    -4.0790     2.1480 H     1 <1>   0.0800 
 32 H       -0.7030    -4.8450     1.3430 H     1 <1>   0.0800 
 33 H       -2.3930    -5.3400    -1.4160 H     1 <1>   0.0800 
 34 H       -0.7310    -4.8330    -1.3380 H     1 <1>   0.0800 
 35 H       -1.9120    -3.8250    -2.1240 H     1 <1>   0.0800 
 36 H       -4.1600    -4.2960    -0.1600 H     1 <1>   0.0800 
 37 H       -3.7740    -2.7230    -0.7950 H     1 <1>   0.0800 
 38 H       -3.8730    -2.9680     0.9270 H     1 <1>   0.0800 
 39 H        5.8910     0.8570     1.7020 H     1 <1>   0.0800 
 40 H        6.2830     0.2690     0.1090 H     1 <1>   0.0800 
 41 H        5.7950    -0.8550     1.3570 H     1 <1>   0.0800 
 42 H       -0.5860    -8.3650     0.2700 H     1 <1>   0.0800 
 43 H       -0.1550    -7.2380     1.5490 H     1 <1>   0.0800 
 44 H       -0.2530    -6.6880    -0.1320 H     1 <1>   0.0800 
@<TRIPOS>BOND
  1   1   2  2   
  2   1   3  2   
  3   1   4  am  
  4   1   5  1   
  5   4   6  1   
  6   4  23  1   
  7   5   7  ar  
  8   5   8  ar  
  9   6   9  2   
 10   7  10  ar  
 11   7  24  1   
 12   8  11  ar  
 13   8  25  1   
 14   9  12  1   
 15   9  13  1   
 16  10  14  ar  
 17  10  26  1   
 18  11  14  ar  
 19  11  27  1   
 20  12  15  1   
 21  12  16  1   
 22  12  17  1   
 23  13  28  1   
 24  13  29  1   
 25  13  30  1   
 26  14  18  1   
 27  15  19  1   
 28  15  31  1   
 29  15  32  1   
 30  16  33  1   
 31  16  34  1   
 32  16  35  1   
 33  17  36  1   
 34  17  37  1   
 35  17  38  1   
 36  18  39  1   
 37  18  40  1   
 38  18  41  1   
 39  19  20  2   
 40  19  21  1   
 41  21  22  1   
 42  22  42  1   
 43  22  43  1   
 44  22  44  1   
@<TRIPOS>SUBSTRUCTURE
  1 ****  13 GROUP 4 **** **** 0

# MOE 2024.06 (io_trps.svl 2023.06)
