@<TRIPOS>MOLECULE
NONAME
38 39 1 0 0 
SMALL
USER_CHARGES


@<TRIPOS>ATOM
  1 CL      -0.3850    -0.0710     1.0800 Cl    1 <1>  -0.1770 
  2 C       -0.0580     1.5340     0.4770 C.ar  1 <1>   0.1770 
  3 C        1.2520     1.9640     0.3870 C.ar  1 <1>  -0.1500 
  4 C       -1.1160     2.3420     0.1030 C.ar  1 <1>  -0.1500 
  5 C        1.5100     3.2450    -0.0940 C.ar  1 <1>   0.0830 
  6 C       -0.8570     3.6150    -0.3750 C.ar  1 <1>  -0.1500 
  7 O        2.7560     3.7640    -0.2240 O.3   1 <1>  -0.3630 
  8 C        0.4520     4.0600    -0.4720 C.ar  1 <1>  -0.1500 
  9 C        3.9000     3.0250     0.1260 C.3   1 <1>   0.1200 
 10 C        5.1190     3.9090    -0.1470 C.3   1 <1>  -0.1600 
 11 C        6.4350     3.1960     0.1940 C.3   1 <1>  -0.1600 
 12 C        7.6270     4.1130    -0.0870 C.3   1 <1>   0.3430 
 13 N        8.8990     3.4520     0.3110 N.4   1 <1>  -0.9590 
 14 C       10.0570     4.3780     0.2810 C.3   1 <1>   0.3430 
 15 C        9.2850     2.3010    -0.5450 C.3   1 <1>   0.3430 
 16 C       11.2730     3.4630     0.2540 C.3   1 <1>  -0.1600 
 17 C       10.7760     2.1220    -0.2930 C.3   1 <1>  -0.1600 
 18 H        2.0310     1.2950     0.6910 H     1 <1>   0.1500 
 19 H       -2.1240     1.9770     0.1850 H     1 <1>   0.1500 
 20 H       -1.6680     4.2580    -0.6720 H     1 <1>   0.1500 
 21 H        0.6620     5.0480    -0.8420 H     1 <1>   0.1500 
 22 H        3.9250     2.1340    -0.4780 H     1 <1>   0.0800 
 23 H        3.8320     2.7700     1.1700 H     1 <1>   0.0800 
 24 H        5.0270     4.8060     0.4430 H     1 <1>   0.0800 
 25 H        5.1140     4.1830    -1.1890 H     1 <1>   0.0800 
 26 H        6.5070     2.3020    -0.4000 H     1 <1>   0.0800 
 27 H        6.4250     2.9250     1.2360 H     1 <1>   0.0800 
 28 H        7.5040     5.0250     0.4760 H     1 <1>   0.0800 
 29 H        7.6540     4.3670    -1.1340 H     1 <1>   0.0800 
 30 H        8.8120     3.1060     1.2760 H     1 <1>   0.4500 
 31 H       10.0690     5.0350     1.1360 H     1 <1>   0.0800 
 32 H       10.0310     4.9660    -0.6230 H     1 <1>   0.0800 
 33 H        9.1230     2.5480    -1.5820 H     1 <1>   0.0800 
 34 H        8.7280     1.4110    -0.2960 H     1 <1>   0.0800 
 35 H       11.6600     3.3420     1.2520 H     1 <1>   0.0800 
 36 H       12.0480     3.8850    -0.3620 H     1 <1>   0.0800 
 37 H       11.2790     1.8510    -1.2050 H     1 <1>   0.0800 
 38 H       10.9330     1.3390     0.4290 H     1 <1>   0.0800 
@<TRIPOS>BOND
  1   1   2  1   
  2   2   3  ar  
  3   2   4  ar  
  4   3   5  ar  
  5   3  18  1   
  6   4   6  ar  
  7   4  19  1   
  8   5   7  1   
  9   5   8  ar  
 10   6   8  ar  
 11   6  20  1   
 12   7   9  1   
 13   8  21  1   
 14   9  10  1   
 15   9  22  1   
 16   9  23  1   
 17  10  11  1   
 18  10  24  1   
 19  10  25  1   
 20  11  12  1   
 21  11  26  1   
 22  11  27  1   
 23  12  13  1   
 24  12  28  1   
 25  12  29  1   
 26  13  14  1   
 27  13  15  1   
 28  13  30  1   
 29  14  16  1   
 30  14  31  1   
 31  14  32  1   
 32  15  17  1   
 33  15  33  1   
 34  15  34  1   
 35  16  17  1   
 36  16  35  1   
 37  16  36  1   
 38  17  37  1   
 39  17  38  1   
@<TRIPOS>SUBSTRUCTURE
  1 ****   9 GROUP 4 **** **** 0

# MOE 2024.06 (io_trps.svl 2023.06)
