@<TRIPOS>MOLECULE
NONAME
56 58 1 0 0 
SMALL
USER_CHARGES


@<TRIPOS>ATOM
  1 O       -0.1670     1.3290     1.8080 O.2   1 <1>  -0.5700 
  2 C        0.2120     1.9020     0.8150 C.2   1 <1>   0.5690 
  3 N       -0.5470     2.0430    -0.3070 N.am  1 <1>  -0.7300 
  4 C        1.6410     2.4540     0.8040 C.3   1 <1>   0.1710 
  5 C       -1.9370     1.5900    -0.5380 C.3   1 <1>   0.2200 
  6 N        2.5920     1.7000    -0.0690 N.3   1 <1>  -0.8100 
  7 C       -2.9050     2.2500     0.4520 C.3   1 <1>  -0.1600 
  8 C       -2.0270     0.0600    -0.4850 C.3   1 <1>  -0.1600 
  9 C        3.9390     2.3040    -0.0240 C.3   1 <1>   0.1100 
 10 C        2.6180     0.2640     0.2980 C.3   1 <1>   0.1100 
 11 C       -4.3460     1.7780     0.2040 C.3   1 <1>  -0.1600 
 12 C       -3.4670    -0.4130    -0.7320 C.3   1 <1>  -0.1600 
 13 C        4.9460     1.5220    -0.8950 C.3   1 <1>   0.3430 
 14 C        3.6140    -0.5340    -0.5710 C.3   1 <1>   0.3430 
 15 C       -4.4430     0.2470     0.2540 C.3   1 <1>  -0.1600 
 16 N        4.9950     0.0570    -0.5450 N.4   1 <1>  -0.9590 
 17 C        5.6790    -0.1900     0.7560 C.3   1 <1>   0.4860 
 18 C        7.1130     0.2940     0.6520 C.ar  1 <1>  -0.1440 
 19 C        8.0780    -0.4080    -0.0670 C.ar  1 <1>  -0.1440 
 20 C        7.4560     1.4780     1.2920 C.ar  1 <1>  -0.1500 
 21 C        9.3630     0.1060    -0.1520 C.ar  1 <1>  -0.1500 
 22 C        7.7940    -1.7320    -0.7660 C.3   1 <1>  -0.0970 
 23 C        8.7420     1.9770     1.2030 C.ar  1 <1>  -0.1500 
 24 C        9.6950     1.2920     0.4760 C.ar  1 <1>  -0.1500 
 25 H       -0.1040     2.4610    -1.1260 H     1 <1>   0.3700 
 26 H        2.0010     2.4520     1.8180 H     1 <1>   0.0800 
 27 H        1.5940     3.4770     0.4770 H     1 <1>   0.0800 
 28 H       -2.2210     1.9020    -1.5300 H     1 <1>   0.0800 
 29 H       -2.8550     3.3190     0.3490 H     1 <1>   0.0800 
 30 H       -2.6290     1.9910     1.4590 H     1 <1>   0.0800 
 31 H       -1.7130    -0.2860     0.4840 H     1 <1>   0.0800 
 32 H       -1.3780    -0.3660    -1.2290 H     1 <1>   0.0800 
 33 H        4.2930     2.3430     0.9920 H     1 <1>   0.0800 
 34 H        3.8830     3.3160    -0.3900 H     1 <1>   0.0800 
 35 H        1.6380    -0.1610     0.1520 H     1 <1>   0.0800 
 36 H        2.8660     0.1520     1.3400 H     1 <1>   0.0800 
 37 H       -4.6770     2.1260    -0.7600 H     1 <1>   0.0800 
 38 H       -4.9960     2.2040     0.9490 H     1 <1>   0.0800 
 39 H       -3.5170    -1.4830    -0.6250 H     1 <1>   0.0800 
 40 H       -3.7580    -0.1680    -1.7390 H     1 <1>   0.0800 
 41 H        5.9260     1.9610    -0.7960 H     1 <1>   0.0800 
 42 H        4.6460     1.6310    -1.9250 H     1 <1>   0.0800 
 43 H        3.2430    -0.5310    -1.5830 H     1 <1>   0.0800 
 44 H        3.6410    -1.5580    -0.2350 H     1 <1>   0.0800 
 45 H       -5.4490    -0.0590     0.0250 H     1 <1>   0.0800 
 46 H       -4.2170    -0.0890     1.2520 H     1 <1>   0.0800 
 47 H        5.5790    -0.4000    -1.2550 H     1 <1>   0.4500 
 48 H        5.6730    -1.2420     0.9870 H     1 <1>   0.0800 
 49 H        5.1710     0.3330     1.5490 H     1 <1>   0.0800 
 50 H        6.7330     2.0280     1.8700 H     1 <1>   0.1500 
 51 H       10.1250    -0.4160    -0.7070 H     1 <1>   0.1500 
 52 H        7.1650    -2.3640    -0.1650 H     1 <1>   0.0800 
 53 H        8.7120    -2.2680    -0.9370 H     1 <1>   0.0800 
 54 H        7.3300    -1.5620    -1.7200 H     1 <1>   0.0800 
 55 H        9.0070     2.8960     1.6990 H     1 <1>   0.1500 
 56 H       10.6980     1.6780     0.4030 H     1 <1>   0.1500 
@<TRIPOS>BOND
  1   1   2  2   
  2   2   3  am  
  3   2   4  1   
  4   3   5  1   
  5   3  25  1   
  6   4   6  1   
  7   4  26  1   
  8   4  27  1   
  9   5   7  1   
 10   5   8  1   
 11   5  28  1   
 12   6   9  1   
 13   6  10  1   
 14   7  11  1   
 15   7  29  1   
 16   7  30  1   
 17   8  12  1   
 18   8  31  1   
 19   8  32  1   
 20   9  13  1   
 21   9  33  1   
 22   9  34  1   
 23  10  14  1   
 24  10  35  1   
 25  10  36  1   
 26  11  15  1   
 27  11  37  1   
 28  11  38  1   
 29  12  15  1   
 30  12  39  1   
 31  12  40  1   
 32  13  16  1   
 33  13  41  1   
 34  13  42  1   
 35  14  16  1   
 36  14  43  1   
 37  14  44  1   
 38  15  45  1   
 39  15  46  1   
 40  16  17  1   
 41  16  47  1   
 42  17  18  1   
 43  17  48  1   
 44  17  49  1   
 45  18  19  ar  
 46  18  20  ar  
 47  19  21  ar  
 48  19  22  1   
 49  20  23  ar  
 50  20  50  1   
 51  21  24  ar  
 52  21  51  1   
 53  22  52  1   
 54  22  53  1   
 55  22  54  1   
 56  23  24  ar  
 57  23  55  1   
 58  24  56  1   
@<TRIPOS>SUBSTRUCTURE
  1 ****  10 GROUP 4 **** **** 0

# MOE 2024.06 (io_trps.svl 2023.06)
