@<TRIPOS>MOLECULE
NONAME
53 55 1 0 0 
SMALL
USER_CHARGES


@<TRIPOS>ATOM
  1 BR       1.7540    -0.2600     2.6720 Br    1 <1>  -0.1110 
  2 C        1.8910     1.4230     1.7470 C.ar  1 <1>   0.1110 
  3 C        2.7660     1.5270     0.6850 C.ar  1 <1>  -0.1500 
  4 C        1.1130     2.4810     2.1710 C.ar  1 <1>  -0.1500 
  5 C        2.8770     2.7390     0.0180 C.ar  1 <1>  -0.1440 
  6 C        1.2170     3.6870     1.5010 C.ar  1 <1>  -0.1500 
  7 C        2.0940     3.8220     0.4220 C.ar  1 <1>   0.0830 
  8 C        3.8440     2.8640    -1.1520 C.3   1 <1>   0.2540 
  9 O        2.2190     4.9850    -0.2740 O.3   1 <1>  -0.3630 
 10 N        5.0860     3.5480    -0.7400 N.3   1 <1>  -0.8100 
 11 C        1.3450     6.0720    -0.0600 C.3   1 <1>   0.0400 
 12 C        5.8490     2.8230     0.3050 C.3   1 <1>   0.1100 
 13 C        5.9480     3.8880    -1.8930 C.3   1 <1>   0.1100 
 14 C        7.1160     3.5980     0.7420 C.3   1 <1>   0.3430 
 15 C        7.1990     4.6930    -1.4620 C.3   1 <1>   0.3430 
 16 N        7.2080     4.9120     0.0260 N.4   1 <1>  -0.9590 
 17 C        8.2590     5.8120     0.5640 C.3   1 <1>   0.4230 
 18 C        7.9560     7.2730     0.1830 C.3   1 <1>  -0.1600 
 19 C        9.6650     5.3840     0.1220 C.3   1 <1>  -0.1600 
 20 C        9.2190     8.1590     0.1130 C.3   1 <1>  -0.0800 
 21 C       10.7410     6.2380     0.8200 C.3   1 <1>  -0.1600 
 22 C       10.2820     7.6800     1.1130 C.3   1 <1>  -0.1600 
 23 C        8.8640     9.6300     0.3530 C.3   1 <1>  -0.2400 
 24 H        3.3450     0.6700     0.3920 H     1 <1>   0.1500 
 25 H        0.4420     2.3610     3.0030 H     1 <1>   0.1500 
 26 H        0.6090     4.5070     1.8330 H     1 <1>   0.1500 
 27 H        3.3650     3.4310    -1.9330 H     1 <1>   0.0800 
 28 H        4.0740     1.8900    -1.5480 H     1 <1>   0.0800 
 29 H        1.5870     6.8410    -0.7710 H     1 <1>   0.0800 
 30 H        1.4840     6.4430     0.9400 H     1 <1>   0.0800 
 31 H        0.3320     5.7420    -0.2120 H     1 <1>   0.0800 
 32 H        6.1300     1.8470    -0.0520 H     1 <1>   0.0800 
 33 H        5.2270     2.6840     1.1740 H     1 <1>   0.0800 
 34 H        5.3840     4.4790    -2.5960 H     1 <1>   0.0800 
 35 H        6.2580     2.9890    -2.3990 H     1 <1>   0.0800 
 36 H        7.9880     3.0010     0.5350 H     1 <1>   0.0800 
 37 H        7.0720     3.7610     1.8060 H     1 <1>   0.0800 
 38 H        7.1970     5.6390    -1.9760 H     1 <1>   0.0800 
 39 H        8.0850     4.1590    -1.7620 H     1 <1>   0.0800 
 40 H        6.2810     5.3310     0.2040 H     1 <1>   0.4500 
 41 H        8.2360     5.7570     1.6400 H     1 <1>   0.0800 
 42 H        7.2900     7.6650     0.9310 H     1 <1>   0.0800 
 43 H        7.4560     7.3400    -0.7650 H     1 <1>   0.0800 
 44 H        9.7660     5.5210    -0.9400 H     1 <1>   0.0800 
 45 H        9.8430     4.3490     0.3520 H     1 <1>   0.0800 
 46 H        9.6400     8.0810    -0.8770 H     1 <1>   0.0800 
 47 H       11.6180     6.2640     0.1940 H     1 <1>   0.0800 
 48 H       11.0300     5.7760     1.7500 H     1 <1>   0.0800 
 49 H        9.8760     7.7320     2.1090 H     1 <1>   0.0800 
 50 H       11.1380     8.3340     1.0840 H     1 <1>   0.0800 
 51 H        8.4690     9.7740     1.3440 H     1 <1>   0.0800 
 52 H        8.1310     9.9620    -0.3620 H     1 <1>   0.0800 
 53 H        9.7400    10.2460     0.2440 H     1 <1>   0.0800 
@<TRIPOS>BOND
  1   1   2  1   
  2   2   3  ar  
  3   2   4  ar  
  4   3   5  ar  
  5   3  24  1   
  6   4   6  ar  
  7   4  25  1   
  8   5   7  ar  
  9   5   8  1   
 10   6   7  ar  
 11   6  26  1   
 12   7   9  1   
 13   8  10  1   
 14   8  27  1   
 15   8  28  1   
 16   9  11  1   
 17  10  12  1   
 18  10  13  1   
 19  11  29  1   
 20  11  30  1   
 21  11  31  1   
 22  12  14  1   
 23  12  32  1   
 24  12  33  1   
 25  13  15  1   
 26  13  34  1   
 27  13  35  1   
 28  14  16  1   
 29  14  36  1   
 30  14  37  1   
 31  15  16  1   
 32  15  38  1   
 33  15  39  1   
 34  16  17  1   
 35  16  40  1   
 36  17  18  1   
 37  17  19  1   
 38  17  41  1   
 39  18  20  1   
 40  18  42  1   
 41  18  43  1   
 42  19  21  1   
 43  19  44  1   
 44  19  45  1   
 45  20  22  1   
 46  20  23  1   
 47  20  46  1   
 48  21  22  1   
 49  21  47  1   
 50  21  48  1   
 51  22  49  1   
 52  22  50  1   
 53  23  51  1   
 54  23  52  1   
 55  23  53  1   
@<TRIPOS>SUBSTRUCTURE
  1 ****  10 GROUP 4 **** **** 0

# MOE 2024.06 (io_trps.svl 2023.06)
