@<TRIPOS>MOLECULE
NONAME
45 45 1 0 0 
SMALL
USER_CHARGES


@<TRIPOS>ATOM
  1 CL      -1.3850     0.4930    -1.5670 Cl    1 <1>  -0.1770 
  2 C       -0.8660     1.8640    -0.6130 C.ar  1 <1>   0.1770 
  3 C       -1.6200     2.2540     0.4840 C.ar  1 <1>  -0.1440 
  4 C        0.2820     2.5370    -0.9820 C.ar  1 <1>  -0.1500 
  5 C       -1.2100     3.3610     1.2140 C.ar  1 <1>  -0.1500 
  6 C       -2.8620     1.4850     0.8730 C.3   1 <1>   0.4870 
  7 C        0.6970     3.6290    -0.2410 C.ar  1 <1>   0.0820 
  8 C       -0.0710     4.0600     0.8490 C.ar  1 <1>   0.0820 
  9 N       -3.9030     1.7820    -0.1400 N.4   1 <1>  -0.9060 
 10 O        1.8500     4.2300    -0.6210 O.3   1 <1>  -0.3620 
 11 O        0.2400     5.1480     1.5950 O.3   1 <1>  -0.3620 
 12 C       -5.2170     1.1230     0.0200 C.3   1 <1>   0.5030 
 13 C        2.9490     4.1800     0.2650 C.3   1 <1>   0.2000 
 14 C        0.2740     6.3990     0.9390 C.3   1 <1>   0.0400 
 15 C       -6.1270     1.5550    -1.1680 C.3   1 <1>   0.1200 
 16 C       -5.8240     1.5700     1.3550 C.3   1 <1>  -0.2400 
 17 C       -5.0070    -0.3960     0.0080 C.3   1 <1>  -0.2400 
 18 C        3.9530     5.2340    -0.1960 C.3   1 <1>  -0.2400 
 19 C        3.5600     2.7770     0.2210 C.3   1 <1>  -0.2400 
 20 O       -7.3920     0.9830    -1.0760 O.3   1 <1>  -0.6800 
 21 H        0.8580     2.2160    -1.8310 H     1 <1>   0.1500 
 22 H       -1.7590     3.7050     2.0740 H     1 <1>   0.1500 
 23 H       -3.1890     1.7900     1.8540 H     1 <1>   0.0800 
 24 H       -2.6410     0.4300     0.8920 H     1 <1>   0.0800 
 25 H       -3.5110     1.5050    -1.0480 H     1 <1>   0.4500 
 26 H       -4.0340     2.7970    -0.1680 H     1 <1>   0.4500 
 27 H        2.6100     4.4110     1.2610 H     1 <1>   0.0800 
 28 H        0.4130     7.1640     1.6810 H     1 <1>   0.0800 
 29 H       -0.6590     6.5500     0.4250 H     1 <1>   0.0800 
 30 H        1.0900     6.4200     0.2410 H     1 <1>   0.0800 
 31 H       -5.7000     1.2380    -2.1040 H     1 <1>   0.0800 
 32 H       -6.2590     2.6230    -1.1740 H     1 <1>   0.0800 
 33 H       -5.9380     2.6390     1.3910 H     1 <1>   0.0800 
 34 H       -5.2420     1.2400     2.1960 H     1 <1>   0.0800 
 35 H       -6.8040     1.1390     1.4680 H     1 <1>   0.0800 
 36 H       -5.9610    -0.8930     0.0580 H     1 <1>   0.0800 
 37 H       -4.5250    -0.7130    -0.9000 H     1 <1>   0.0800 
 38 H       -4.4370    -0.7340     0.8540 H     1 <1>   0.0800 
 39 H        4.2810     5.0270    -1.1990 H     1 <1>   0.0800 
 40 H        4.8100     5.2340     0.4530 H     1 <1>   0.0800 
 41 H        3.5040     6.2100    -0.1620 H     1 <1>   0.0800 
 42 H        3.8490     2.5260    -0.7840 H     1 <1>   0.0800 
 43 H        2.8570     2.0510     0.5850 H     1 <1>   0.0800 
 44 H        4.4320     2.7400     0.8490 H     1 <1>   0.0800 
 45 H       -7.9690     1.2390    -1.8280 H     1 <1>   0.4000 
@<TRIPOS>BOND
  1   1   2  1   
  2   2   3  ar  
  3   2   4  ar  
  4   3   5  ar  
  5   3   6  1   
  6   4   7  ar  
  7   4  21  1   
  8   5   8  ar  
  9   5  22  1   
 10   6   9  1   
 11   6  23  1   
 12   6  24  1   
 13   7   8  ar  
 14   7  10  1   
 15   8  11  1   
 16   9  12  1   
 17   9  25  1   
 18   9  26  1   
 19  10  13  1   
 20  11  14  1   
 21  12  15  1   
 22  12  16  1   
 23  12  17  1   
 24  13  18  1   
 25  13  19  1   
 26  13  27  1   
 27  14  28  1   
 28  14  29  1   
 29  14  30  1   
 30  15  20  1   
 31  15  31  1   
 32  15  32  1   
 33  16  33  1   
 34  16  34  1   
 35  16  35  1   
 36  17  36  1   
 37  17  37  1   
 38  17  38  1   
 39  18  39  1   
 40  18  40  1   
 41  18  41  1   
 42  19  42  1   
 43  19  43  1   
 44  19  44  1   
 45  20  45  1   
@<TRIPOS>SUBSTRUCTURE
  1 ****   3 GROUP 4 **** **** 0

# MOE 2024.06 (io_trps.svl 2023.06)
