@<TRIPOS>MOLECULE
NONAME
45 45 1 0 0 
SMALL
USER_CHARGES


@<TRIPOS>ATOM
  1 N       -0.0950     0.0190     0.0150 N.4   1 <1>  -0.9590 
  2 C        1.2080     0.7000     0.3710 C.3   1 <1>   0.4230 
  3 C       -1.3280     0.8860     0.1920 C.3   1 <1>   0.3430 
  4 C       -0.2040    -1.2670     0.7750 C.3   1 <1>   0.3430 
  5 C        1.2020     2.1950    -0.0190 C.3   1 <1>  -0.1600 
  6 C        2.3570    -0.0810    -0.3010 C.3   1 <1>  -0.1600 
  7 C       -2.6710     0.2550    -0.2800 C.3   1 <1>   0.3430 
  8 C       -0.5580    -2.3890    -0.1930 C.3   1 <1>  -0.2400 
  9 C        2.5100     2.9640     0.2380 C.3   1 <1>  -0.1600 
 10 C        3.7230     0.2310     0.3300 C.3   1 <1>  -0.1600 
 11 N       -3.8590     1.1870    -0.2230 N.4   1 <1>  -0.9590 
 12 C        3.6270     2.6020    -0.7490 C.3   1 <1>  -0.1600 
 13 C        4.4760     1.3930    -0.3310 C.3   1 <1>  -0.1600 
 14 C       -4.2220     1.6210     1.1700 C.3   1 <1>   0.2630 
 15 C       -5.0580     0.5380    -0.8560 C.3   1 <1>   0.2630 
 16 H        0.0200    -0.2240    -0.9800 H     1 <1>   0.4500 
 17 H        1.3460     0.6440     1.4390 H     1 <1>   0.0800 
 18 H       -1.1920     1.7940    -0.3710 H     1 <1>   0.0800 
 19 H       -1.4160     1.1520     1.2330 H     1 <1>   0.0800 
 20 H       -0.9470    -1.1910     1.5530 H     1 <1>   0.0800 
 21 H        0.7370    -1.5030     1.2480 H     1 <1>   0.0800 
 22 H        0.4610     2.7050     0.5670 H     1 <1>   0.0800 
 23 H        0.9470     2.3000    -1.0600 H     1 <1>   0.0800 
 24 H        2.3890     0.1150    -1.3590 H     1 <1>   0.0800 
 25 H        2.2150    -1.1380    -0.1780 H     1 <1>   0.0800 
 26 H       -2.8800    -0.6120     0.3260 H     1 <1>   0.0800 
 27 H       -2.5450    -0.0750    -1.2980 H     1 <1>   0.0800 
 28 H       -1.5100    -2.2380    -0.6640 H     1 <1>   0.0800 
 29 H       -0.6070    -3.3160     0.3520 H     1 <1>   0.0800 
 30 H        0.2030    -2.4990    -0.9460 H     1 <1>   0.0800 
 31 H        2.8470     2.8370     1.2540 H     1 <1>   0.0800 
 32 H        2.3010     4.0130     0.1110 H     1 <1>   0.0800 
 33 H        4.3510    -0.6420     0.2530 H     1 <1>   0.0800 
 34 H        3.6070     0.4300     1.3820 H     1 <1>   0.0800 
 35 H       -3.6680     2.0380    -0.7820 H     1 <1>   0.4500 
 36 H        4.2900     3.4460    -0.8410 H     1 <1>   0.0800 
 37 H        3.2130     2.4350    -1.7290 H     1 <1>   0.0800 
 38 H        4.9860     1.0280    -1.2070 H     1 <1>   0.0800 
 39 H        5.2390     1.7260     0.3530 H     1 <1>   0.0800 
 40 H       -4.4600     0.7670     1.7830 H     1 <1>   0.0800 
 41 H       -5.0850     2.2690     1.1440 H     1 <1>   0.0800 
 42 H       -3.4100     2.1630     1.6280 H     1 <1>   0.0800 
 43 H       -5.3380    -0.3520    -0.3140 H     1 <1>   0.0800 
 44 H       -4.8480     0.2670    -1.8780 H     1 <1>   0.0800 
 45 H       -5.8970     1.2160    -0.8520 H     1 <1>   0.0800 
@<TRIPOS>BOND
  1   1   2  1   
  2   1   3  1   
  3   1   4  1   
  4   1  16  1   
  5   2   5  1   
  6   2   6  1   
  7   2  17  1   
  8   3   7  1   
  9   3  18  1   
 10   3  19  1   
 11   4   8  1   
 12   4  20  1   
 13   4  21  1   
 14   5   9  1   
 15   5  22  1   
 16   5  23  1   
 17   6  10  1   
 18   6  24  1   
 19   6  25  1   
 20   7  11  1   
 21   7  26  1   
 22   7  27  1   
 23   8  28  1   
 24   8  29  1   
 25   8  30  1   
 26   9  12  1   
 27   9  31  1   
 28   9  32  1   
 29  10  13  1   
 30  10  33  1   
 31  10  34  1   
 32  11  14  1   
 33  11  15  1   
 34  11  35  1   
 35  12  13  1   
 36  12  36  1   
 37  12  37  1   
 38  13  38  1   
 39  13  39  1   
 40  14  40  1   
 41  14  41  1   
 42  14  42  1   
 43  15  43  1   
 44  15  44  1   
 45  15  45  1   
@<TRIPOS>SUBSTRUCTURE
  1 ****   1 GROUP 4 **** **** 0

# MOE 2024.06 (io_trps.svl 2023.06)
