@<TRIPOS>MOLECULE
NONAME
47 47 1 0 0 
SMALL
USER_CHARGES


@<TRIPOS>ATOM
  1 P        0.3400     0.0870     0.3470 P.3   1 <1>   1.5070 
  2 O       -0.3270     0.0600     1.6480 O.2   1 <1>  -0.7000 
  3 O        1.9520     0.3150     0.4060 O.3   1 <1>  -0.3540 
  4 N       -0.2320     1.2430    -0.7410 N.3   1 <1>  -0.8080 
  5 N        0.1450    -1.3600    -0.4900 N.3   1 <1>  -0.8080 
  6 C        2.5760     1.3760     0.9630 C.ar  1 <1>   0.0830 
  7 C        0.5320     1.3320    -1.9880 C.3   1 <1>   0.1100 
  8 C       -0.4980     2.5640    -0.1650 C.3   1 <1>   0.1100 
  9 C       -1.2590    -1.6710    -0.7760 C.3   1 <1>   0.1100 
 10 C        0.8360    -2.4960     0.1280 C.3   1 <1>   0.1100 
 11 C        3.6480     1.9230     0.2780 C.ar  1 <1>  -0.1500 
 12 C        2.1810     1.9170     2.1800 C.ar  1 <1>  -0.1500 
 13 C       -0.3910     1.7390    -3.1350 C.3   1 <1>  -0.2400 
 14 C       -1.9490     2.6190     0.3000 C.3   1 <1>  -0.2400 
 15 C       -1.3580    -2.5920    -1.9920 C.3   1 <1>  -0.2400 
 16 C        2.0780    -2.8190    -0.6960 C.3   1 <1>  -0.2400 
 17 C        4.3190     3.0230     0.7860 C.ar  1 <1>  -0.1440 
 18 C        2.8500     3.0150     2.6910 C.ar  1 <1>  -0.1500 
 19 C        3.9130     3.5670     1.9950 C.ar  1 <1>  -0.1500 
 20 C        5.4910     3.6290     0.0370 C.3   1 <1>  -0.0970 
 21 H        0.9520     0.3690    -2.2320 H     1 <1>   0.0800 
 22 H        1.3470     2.0290    -1.8800 H     1 <1>   0.0800 
 23 H       -0.3470     3.3400    -0.8960 H     1 <1>   0.0800 
 24 H        0.1650     2.7640     0.6600 H     1 <1>   0.0800 
 25 H       -1.7940    -0.7650    -1.0080 H     1 <1>   0.0800 
 26 H       -1.7270    -2.1140     0.0870 H     1 <1>   0.0800 
 27 H        0.2020    -3.3670     0.1590 H     1 <1>   0.0800 
 28 H        1.1160    -2.2680     1.1450 H     1 <1>   0.0800 
 29 H        3.9490     1.4820    -0.6550 H     1 <1>   0.1500 
 30 H        1.3670     1.4910     2.7390 H     1 <1>   0.1500 
 31 H       -1.1990     1.0350    -3.2180 H     1 <1>   0.0800 
 32 H        0.1600     1.7350    -4.0580 H     1 <1>   0.0800 
 33 H       -0.7920     2.7240    -2.9860 H     1 <1>   0.0800 
 34 H       -2.6080     2.4200    -0.5250 H     1 <1>   0.0800 
 35 H       -2.1690     3.5970     0.6870 H     1 <1>   0.0800 
 36 H       -2.1280     1.9010     1.0800 H     1 <1>   0.0800 
 37 H       -0.8690    -2.1360    -2.8340 H     1 <1>   0.0800 
 38 H       -2.3920    -2.7460    -2.2410 H     1 <1>   0.0800 
 39 H       -0.9120    -3.5490    -1.7960 H     1 <1>   0.0800 
 40 H        1.7990    -3.0580    -1.7060 H     1 <1>   0.0800 
 41 H        2.5850    -3.6650    -0.2700 H     1 <1>   0.0800 
 42 H        2.7560    -1.9850    -0.7020 H     1 <1>   0.0800 
 43 H        2.5460     3.4390     3.6320 H     1 <1>   0.1500 
 44 H        4.4270     4.4200     2.4020 H     1 <1>   0.1500 
 45 H        6.4130     3.3200     0.4950 H     1 <1>   0.0800 
 46 H        5.4320     4.7020     0.0610 H     1 <1>   0.0800 
 47 H        5.4920     3.3120    -0.9910 H     1 <1>   0.0800 
@<TRIPOS>BOND
  1   1   2  2   
  2   1   3  1   
  3   1   4  1   
  4   1   5  1   
  5   3   6  1   
  6   4   7  1   
  7   4   8  1   
  8   5   9  1   
  9   5  10  1   
 10   6  11  ar  
 11   6  12  ar  
 12   7  13  1   
 13   7  21  1   
 14   7  22  1   
 15   8  14  1   
 16   8  23  1   
 17   8  24  1   
 18   9  15  1   
 19   9  25  1   
 20   9  26  1   
 21  10  16  1   
 22  10  27  1   
 23  10  28  1   
 24  11  17  ar  
 25  11  29  1   
 26  12  18  ar  
 27  12  30  1   
 28  13  31  1   
 29  13  32  1   
 30  13  33  1   
 31  14  34  1   
 32  14  35  1   
 33  14  36  1   
 34  15  37  1   
 35  15  38  1   
 36  15  39  1   
 37  16  40  1   
 38  16  41  1   
 39  16  42  1   
 40  17  19  ar  
 41  17  20  1   
 42  18  19  ar  
 43  18  43  1   
 44  19  44  1   
 45  20  45  1   
 46  20  46  1   
 47  20  47  1   
@<TRIPOS>SUBSTRUCTURE
  1 ****   3 GROUP 4 **** **** 0

# MOE 2024.06 (io_trps.svl 2023.06)
