@<TRIPOS>MOLECULE
NONAME
40 41 1 0 0 
SMALL
USER_CHARGES


@<TRIPOS>ATOM
  1 S        0.9540    -1.0820     1.1580 S.3   1 <1>  -0.3320 
  2 C        0.5700    -2.1880    -0.2250 C.ar  1 <1>   0.1020 
  3 C       -0.5740    -0.8880     2.1800 C.3   1 <1>  -0.0100 
  4 C        1.4880    -2.3560    -1.2750 C.ar  1 <1>   0.0860 
  5 C       -0.6490    -2.8520    -0.2180 C.ar  1 <1>  -0.1500 
  6 C        2.7950    -1.7230    -1.3640 C.2   1 <1>   0.5440 
  7 C        1.0980    -3.2050    -2.3150 C.ar  1 <1>  -0.1500 
  8 C       -0.9940    -3.6890    -1.2620 C.ar  1 <1>  -0.1500 
  9 O        3.2360    -1.3860    -2.4470 O.2   1 <1>  -0.5700 
 10 N        3.5850    -1.5390    -0.2650 N.am  1 <1>  -0.7300 
 11 C       -0.1170    -3.8630    -2.3150 C.ar  1 <1>  -0.1500 
 12 C        4.9250    -0.9060    -0.2480 C.3   1 <1>   0.1400 
 13 C        5.9790    -1.9370     0.1600 C.3   1 <1>  -0.0220 
 14 C        7.3650    -1.3120     0.2620 C.2   1 <1>  -0.2760 
 15 C        7.9600    -1.0660     1.4350 C.2   1 <1>  -0.2880 
 16 C        8.0310    -1.0060    -1.0770 C.3   1 <1>  -0.0220 
 17 C        9.3530    -0.4780     1.5850 C.3   1 <1>  -0.0220 
 18 C        9.2490    -0.0840    -0.9120 C.3   1 <1>  -0.1600 
 19 C       10.1300    -0.5310     0.2620 C.3   1 <1>  -0.1600 
 20 H       -0.3670    -0.1500     2.9350 H     1 <1>   0.0800 
 21 H       -0.7990    -1.8380     2.6310 H     1 <1>   0.0800 
 22 H       -1.3680    -0.5570     1.5340 H     1 <1>   0.0800 
 23 H       -1.3470    -2.7360     0.5870 H     1 <1>   0.1500 
 24 H        1.7710    -3.3500    -3.1440 H     1 <1>   0.1500 
 25 H       -1.9400    -4.2030    -1.2580 H     1 <1>   0.1500 
 26 H        3.1480    -1.6700     0.6520 H     1 <1>   0.3700 
 27 H       -0.3800    -4.5100    -3.1350 H     1 <1>   0.1500 
 28 H        4.9240    -0.0900     0.4530 H     1 <1>   0.0800 
 29 H        5.1540    -0.5100    -1.2220 H     1 <1>   0.0800 
 30 H        5.9970    -2.7390    -0.5560 H     1 <1>   0.0800 
 31 H        5.7060    -2.3460     1.1160 H     1 <1>   0.0800 
 32 H        7.4910    -1.2680     2.3830 H     1 <1>   0.1500 
 33 H        7.3370    -0.5330    -1.7480 H     1 <1>   0.0800 
 34 H        8.3410    -1.9340    -1.5250 H     1 <1>   0.0800 
 35 H        9.8980    -1.0260     2.3340 H     1 <1>   0.0800 
 36 H        9.2640     0.5420     1.9150 H     1 <1>   0.0800 
 37 H        8.9050     0.9200    -0.7300 H     1 <1>   0.0800 
 38 H        9.8220    -0.0790    -1.8230 H     1 <1>   0.0800 
 39 H       10.4570    -1.5410     0.0870 H     1 <1>   0.0800 
 40 H       11.0020     0.0960     0.3300 H     1 <1>   0.0800 
@<TRIPOS>BOND
  1   1   2  1   
  2   1   3  1   
  3   2   4  ar  
  4   2   5  ar  
  5   3  20  1   
  6   3  21  1   
  7   3  22  1   
  8   4   6  1   
  9   4   7  ar  
 10   5   8  ar  
 11   5  23  1   
 12   6   9  2   
 13   6  10  am  
 14   7  11  ar  
 15   7  24  1   
 16   8  11  ar  
 17   8  25  1   
 18  10  12  1   
 19  10  26  1   
 20  11  27  1   
 21  12  13  1   
 22  12  28  1   
 23  12  29  1   
 24  13  14  1   
 25  13  30  1   
 26  13  31  1   
 27  14  15  2   
 28  14  16  1   
 29  15  17  1   
 30  15  32  1   
 31  16  18  1   
 32  16  33  1   
 33  16  34  1   
 34  17  19  1   
 35  17  35  1   
 36  17  36  1   
 37  18  19  1   
 38  18  37  1   
 39  18  38  1   
 40  19  39  1   
 41  19  40  1   
@<TRIPOS>SUBSTRUCTURE
  1 ****  10 GROUP 4 **** **** 0

# MOE 2024.06 (io_trps.svl 2023.06)
