@<TRIPOS>MOLECULE
NONAME
32 33 1 0 0 
SMALL
USER_CHARGES


@<TRIPOS>ATOM
  1 BR      -0.5060     1.9750     2.9010 Br    1 <1>  -0.1110 
  2 C       -1.4010     1.6350     1.2240 C.ar  1 <1>   0.1110 
  3 C       -0.8560     2.1060     0.0360 C.ar  1 <1>   0.0820 
  4 C       -2.5840     0.9200     1.2520 C.ar  1 <1>  -0.1500 
  5 O        0.2990     2.8050     0.0120 O.3   1 <1>  -0.3630 
  6 C       -1.5290     1.8630    -1.1510 C.ar  1 <1>  -0.1500 
  7 C       -3.2430     0.6750     0.0570 C.ar  1 <1>  -0.1500 
  8 C        1.4800     2.0420    -0.0240 C.3   1 <1>   0.1200 
  9 C       -2.7170     1.1470    -1.1380 C.ar  1 <1>  -0.1500 
 10 C        2.6650     3.0000     0.1010 C.3   1 <1>  -0.1600 
 11 C        3.9990     2.2420     0.0810 C.3   1 <1>  -0.1600 
 12 C        5.1840     3.2060     0.2180 C.3   1 <1>   0.0960 
 13 N        6.4570     2.4610     0.1960 N.pl3 1 <1>   0.0480 
 14 C        7.1680     2.0020     1.2500 C.2   1 <1>   0.0360 
 15 C        7.1660     2.0830    -0.8830 C.2   1 <1>  -0.3020 
 16 N        8.2520     1.3750     0.9230 N.2   1 <1>  -0.5650 
 17 C        8.2520     1.4260    -0.4220 C.2   1 <1>   0.0770 
 18 H       -2.9810     0.5660     2.1860 H     1 <1>   0.1500 
 19 H       -1.1240     2.2350    -2.0750 H     1 <1>   0.1500 
 20 H       -4.1650     0.1200     0.0560 H     1 <1>   0.1500 
 21 H        1.5080     1.5070    -0.9580 H     1 <1>   0.0800 
 22 H        1.4640     1.3430     0.7950 H     1 <1>   0.0800 
 23 H       -3.2360     0.9580    -2.0620 H     1 <1>   0.1500 
 24 H        2.5720     3.5430     1.0260 H     1 <1>   0.0800 
 25 H        2.6340     3.7000    -0.7170 H     1 <1>   0.0800 
 26 H        4.0880     1.6990    -0.8450 H     1 <1>   0.0800 
 27 H        4.0210     1.5360     0.8950 H     1 <1>   0.0800 
 28 H        5.1170     3.7490     1.1430 H     1 <1>   0.0800 
 29 H        5.1860     3.9110    -0.5940 H     1 <1>   0.0800 
 30 H        6.8450     2.1540     2.2650 H     1 <1>   0.1500 
 31 H        6.8710     2.2950    -1.8940 H     1 <1>   0.1500 
 32 H        9.0480     0.9780    -0.9960 H     1 <1>   0.1500 
@<TRIPOS>BOND
  1   1   2  1   
  2   2   3  ar  
  3   2   4  ar  
  4   3   5  1   
  5   3   6  ar  
  6   4   7  ar  
  7   4  18  1   
  8   5   8  1   
  9   6   9  ar  
 10   6  19  1   
 11   7   9  ar  
 12   7  20  1   
 13   8  10  1   
 14   8  21  1   
 15   8  22  1   
 16   9  23  1   
 17  10  11  1   
 18  10  24  1   
 19  10  25  1   
 20  11  12  1   
 21  11  26  1   
 22  11  27  1   
 23  12  13  1   
 24  12  28  1   
 25  12  29  1   
 26  13  14  1   
 27  13  15  1   
 28  14  16  2   
 29  14  30  1   
 30  15  17  2   
 31  15  31  1   
 32  16  17  1   
 33  17  32  1   
@<TRIPOS>SUBSTRUCTURE
  1 ****   8 GROUP 4 **** **** 0

# MOE 2024.06 (io_trps.svl 2023.06)
