@<TRIPOS>MOLECULE
NONAME
33 33 1 0 0 
SMALL
USER_CHARGES


@<TRIPOS>ATOM
  1 O        0.2740     0.3360    -0.7600 O.2   1 <1>  -0.5700 
  2 C        0.8150     1.3270    -0.3070 C.2   1 <1>   0.5440 
  3 N        0.0300     2.3560     0.1420 N.am  1 <1>  -0.7300 
  4 C        2.2620     1.4090    -0.2270 C.ar  1 <1>   0.0860 
  5 C       -1.4550     2.3900     0.1000 C.3   1 <1>   0.0600 
  6 C        3.0340     0.2550    -0.0910 C.ar  1 <1>  -0.1500 
  7 C        2.9390     2.6290    -0.2820 C.ar  1 <1>  -0.1500 
  8 C        4.4190     0.3040     0.0010 C.ar  1 <1>   0.0830 
  9 C        4.3160     2.6980    -0.1900 C.ar  1 <1>  -0.1500 
 10 O        5.1830    -0.8190     0.1360 O.3   1 <1>  -0.3620 
 11 C        5.0720     1.5390    -0.0440 C.ar  1 <1>   0.0830 
 12 C        4.6200    -2.1110     0.0840 C.3   1 <1>   0.0400 
 13 O        6.4280     1.5550     0.0530 O.3   1 <1>  -0.3630 
 14 C        7.1750     2.7480    -0.0100 C.3   1 <1>   0.1200 
 15 C        8.6550     2.3890     0.1180 C.3   1 <1>  -0.1600 
 16 C        9.5420     3.6380     0.0590 C.3   1 <1>  -0.2400 
 17 H        0.4760     3.1300     0.6350 H     1 <1>   0.3700 
 18 H       -1.8360     1.5520    -0.4610 H     1 <1>   0.0800 
 19 H       -1.7860     3.2980    -0.3720 H     1 <1>   0.0800 
 20 H       -1.8480     2.3440     1.1000 H     1 <1>   0.0800 
 21 H        2.5110    -0.6820    -0.0570 H     1 <1>   0.1500 
 22 H        2.3790     3.5380    -0.4080 H     1 <1>   0.1500 
 23 H        4.7850     3.6630    -0.2360 H     1 <1>   0.1500 
 24 H        5.4190    -2.8250     0.1660 H     1 <1>   0.0800 
 25 H        4.1130    -2.2340    -0.8570 H     1 <1>   0.0800 
 26 H        3.9390    -2.2280     0.9090 H     1 <1>   0.0800 
 27 H        6.8670     3.3840     0.8010 H     1 <1>   0.0800 
 28 H        6.9790     3.2210    -0.9570 H     1 <1>   0.0800 
 29 H        8.9260     1.7220    -0.6820 H     1 <1>   0.0800 
 30 H        8.8150     1.8830     1.0550 H     1 <1>   0.0800 
 31 H        9.4100     4.1500    -0.8790 H     1 <1>   0.0800 
 32 H       10.5760     3.3570     0.1510 H     1 <1>   0.0800 
 33 H        9.2990     4.3110     0.8620 H     1 <1>   0.0800 
@<TRIPOS>BOND
  1   1   2  2   
  2   2   3  am  
  3   2   4  1   
  4   3   5  1   
  5   3  17  1   
  6   4   6  ar  
  7   4   7  ar  
  8   5  18  1   
  9   5  19  1   
 10   5  20  1   
 11   6   8  ar  
 12   6  21  1   
 13   7   9  ar  
 14   7  22  1   
 15   8  10  1   
 16   8  11  ar  
 17   9  11  ar  
 18   9  23  1   
 19  10  12  1   
 20  11  13  1   
 21  12  24  1   
 22  12  25  1   
 23  12  26  1   
 24  13  14  1   
 25  14  15  1   
 26  14  27  1   
 27  14  28  1   
 28  15  16  1   
 29  15  29  1   
 30  15  30  1   
 31  16  31  1   
 32  16  32  1   
 33  16  33  1   
@<TRIPOS>SUBSTRUCTURE
  1 ****  11 GROUP 4 **** **** 0

# MOE 2024.06 (io_trps.svl 2023.06)
