@<TRIPOS>MOLECULE
NONAME
47 48 1 0 0 
SMALL
USER_CHARGES


@<TRIPOS>ATOM
  1 CL      -0.1070    -0.1550     0.4890 Cl    1 <1>  -0.1770 
  2 C        1.4020    -1.0190     0.3380 C.ar  1 <1>   0.1770 
  3 C        2.5930    -0.3170     0.4070 C.ar  1 <1>  -0.1500 
  4 C        1.3810    -2.3900     0.1510 C.ar  1 <1>  -0.1500 
  5 C        3.7930    -1.0000     0.2880 C.ar  1 <1>  -0.1500 
  6 C        2.5800    -3.0730     0.0320 C.ar  1 <1>  -0.1500 
  7 C        3.7750    -2.3760     0.1010 C.ar  1 <1>   0.1020 
  8 S        5.2870    -3.3420    -0.0640 S.3   1 <1>  -0.3320 
  9 C        6.6980    -2.1650     0.0620 C.3   1 <1>   0.0700 
 10 C        7.9750    -2.9960    -0.0790 C.3   1 <1>  -0.1600 
 11 C        9.2200    -2.1170     0.0210 C.3   1 <1>   0.3430 
 12 N       10.4460    -2.9230    -0.2410 N.4   1 <1>  -0.9590 
 13 C       10.7530    -3.8750     0.8700 C.3   1 <1>   0.3430 
 14 C       11.6070    -2.0330    -0.5300 C.3   1 <1>   0.3430 
 15 C       11.9280    -4.7650     0.4710 C.3   1 <1>  -0.1600 
 16 C       12.8030    -2.8780    -0.9660 C.3   1 <1>  -0.1600 
 17 C       13.1730    -3.9430     0.0840 C.3   1 <1>  -0.0190 
 18 C       14.2870    -4.8510    -0.4280 C.2   1 <1>   0.6590 
 19 O       14.1390    -5.5200    -1.4160 O.2   1 <1>  -0.5700 
 20 O       15.4070    -4.8510     0.2790 O.3   1 <1>  -0.4300 
 21 C       16.5080    -5.6480    -0.0920 C.3   1 <1>   0.1200 
 22 C       17.6230    -5.4170     0.9230 C.3   1 <1>  -0.2400 
 23 H        2.5740     0.7480     0.5530 H     1 <1>   0.1500 
 24 H        0.4410    -2.9090     0.1010 H     1 <1>   0.1500 
 25 H        4.7120    -0.4510     0.3430 H     1 <1>   0.1500 
 26 H        2.5900    -4.1390    -0.1140 H     1 <1>   0.1500 
 27 H        6.6270    -1.6860     1.0240 H     1 <1>   0.0800 
 28 H        6.5870    -1.4490    -0.7340 H     1 <1>   0.0800 
 29 H        7.9530    -3.4890    -1.0360 H     1 <1>   0.0800 
 30 H        7.9760    -3.7390     0.6990 H     1 <1>   0.0800 
 31 H        9.2760    -1.6630     0.9980 H     1 <1>   0.0800 
 32 H        9.1460    -1.3300    -0.7120 H     1 <1>   0.0800 
 33 H       10.2790    -3.4870    -1.0870 H     1 <1>   0.4500 
 34 H        9.8970    -4.4970     1.0780 H     1 <1>   0.0800 
 35 H       10.9990    -3.3270     1.7660 H     1 <1>   0.0800 
 36 H       11.8650    -1.4680     0.3510 H     1 <1>   0.0800 
 37 H       11.3560    -1.3400    -1.3180 H     1 <1>   0.0800 
 38 H       11.6310    -5.3940    -0.3510 H     1 <1>   0.0800 
 39 H       12.1730    -5.4130     1.2950 H     1 <1>   0.0800 
 40 H       13.6490    -2.2320    -1.1290 H     1 <1>   0.0800 
 41 H       12.5780    -3.3500    -1.9070 H     1 <1>   0.0800 
 42 H       13.5370    -3.4420     0.9640 H     1 <1>   0.0800 
 43 H       16.8210    -5.3610    -1.0820 H     1 <1>   0.0800 
 44 H       16.1980    -6.6800    -0.0970 H     1 <1>   0.0800 
 45 H       17.9170    -4.3830     0.9240 H     1 <1>   0.0800 
 46 H       18.4780    -6.0140     0.6640 H     1 <1>   0.0800 
 47 H       17.2950    -5.7000     1.9080 H     1 <1>   0.0800 
@<TRIPOS>BOND
  1   1   2  1   
  2   2   3  ar  
  3   2   4  ar  
  4   3   5  ar  
  5   3  23  1   
  6   4   6  ar  
  7   4  24  1   
  8   5   7  ar  
  9   5  25  1   
 10   6   7  ar  
 11   6  26  1   
 12   7   8  1   
 13   8   9  1   
 14   9  10  1   
 15   9  27  1   
 16   9  28  1   
 17  10  11  1   
 18  10  29  1   
 19  10  30  1   
 20  11  12  1   
 21  11  31  1   
 22  11  32  1   
 23  12  13  1   
 24  12  14  1   
 25  12  33  1   
 26  13  15  1   
 27  13  34  1   
 28  13  35  1   
 29  14  16  1   
 30  14  36  1   
 31  14  37  1   
 32  15  17  1   
 33  15  38  1   
 34  15  39  1   
 35  16  17  1   
 36  16  40  1   
 37  16  41  1   
 38  17  18  1   
 39  17  42  1   
 40  18  19  2   
 41  18  20  1   
 42  20  21  1   
 43  21  22  1   
 44  21  43  1   
 45  21  44  1   
 46  22  45  1   
 47  22  46  1   
 48  22  47  1   
@<TRIPOS>SUBSTRUCTURE
  1 ****  10 GROUP 4 **** **** 0

# MOE 2024.06 (io_trps.svl 2023.06)
