@<TRIPOS>MOLECULE
NONAME
51 53 1 0 0 
SMALL
USER_CHARGES


@<TRIPOS>ATOM
  1 S       -0.1520    -0.1410    -0.4390 S.o2  1 <1>   1.2040 
  2 O       -0.1030    -1.1450     0.6050 O.2   1 <1>  -0.6500 
  3 O       -0.7090    -0.4700    -1.7330 O.2   1 <1>  -0.6500 
  4 C        1.5130     0.5240    -0.6820 C.ar  1 <1>  -0.0090 
  5 C       -0.9860     1.3150     0.2070 C.3   1 <1>   0.0890 
  6 C        2.4750     0.4400     0.3170 C.ar  1 <1>  -0.1500 
  7 C        1.8580     1.1730    -1.8610 C.ar  1 <1>  -0.1500 
  8 C       -2.4840     1.1470     0.4380 C.ar  1 <1>  -0.1440 
  9 C        3.7350     0.9890     0.1480 C.ar  1 <1>  -0.1500 
 10 C        3.1150     1.7240    -2.0370 C.ar  1 <1>  -0.1500 
 11 C       -3.3880     1.9280    -0.2630 C.ar  1 <1>  -0.1500 
 12 C       -2.9580     0.2170     1.3500 C.ar  1 <1>  -0.1500 
 13 C        4.0600     1.6380    -1.0300 C.ar  1 <1>  -0.1430 
 14 C       -4.7650     1.8130    -0.0750 C.ar  1 <1>   0.0860 
 15 C       -4.3190     0.0720     1.5470 C.ar  1 <1>  -0.1500 
 16 C        5.4420     2.2380    -1.2200 C.3   1 <1>  -0.0970 
 17 C       -5.6940     2.6540    -0.8140 C.2   1 <1>   0.5440 
 18 C       -5.2090     0.8590     0.8410 C.ar  1 <1>  -0.1500 
 19 O       -5.4130     3.0180    -1.9420 O.2   1 <1>  -0.5700 
 20 N       -6.9110     3.0330    -0.2920 N.am  1 <1>  -0.6600 
 21 C       -7.0850     3.9610     0.8670 C.3   1 <1>   0.2200 
 22 C       -8.1170     2.9110    -1.1560 C.3   1 <1>   0.1400 
 23 C       -7.4970     5.3470     0.3460 C.3   1 <1>  -0.1600 
 24 C       -5.8370     4.0930     1.7460 C.3   1 <1>  -0.2400 
 25 C       -8.5400     4.2870    -1.6800 C.3   1 <1>  -0.1600 
 26 C       -8.7520     5.2820    -0.5340 C.3   1 <1>  -0.1600 
 27 H       -0.8350     2.1290    -0.4740 H     1 <1>   0.0800 
 28 H       -0.5340     1.5940     1.1390 H     1 <1>   0.0800 
 29 H        2.2430    -0.0670     1.2390 H     1 <1>   0.1500 
 30 H        1.1360     1.2450    -2.6590 H     1 <1>   0.1500 
 31 H        4.4620     0.9050     0.9370 H     1 <1>   0.1500 
 32 H        3.3550     2.2180    -2.9630 H     1 <1>   0.1500 
 33 H       -3.0400     2.6510    -0.9820 H     1 <1>   0.1500 
 34 H       -2.2770    -0.4060     1.9070 H     1 <1>   0.1500 
 35 H       -4.6830    -0.6580     2.2500 H     1 <1>   0.1500 
 36 H        6.0990     1.5060    -1.6560 H     1 <1>   0.0800 
 37 H        5.8500     2.5520    -0.2760 H     1 <1>   0.0800 
 38 H        5.3960     3.0930    -1.8700 H     1 <1>   0.0800 
 39 H       -6.2660     0.7370     0.9960 H     1 <1>   0.1500 
 40 H       -7.8840     3.5770     1.4800 H     1 <1>   0.0800 
 41 H       -8.9160     2.4740    -0.5840 H     1 <1>   0.0800 
 42 H       -7.9050     2.2600    -1.9880 H     1 <1>   0.0800 
 43 H       -6.6840     5.7630    -0.2230 H     1 <1>   0.0800 
 44 H       -7.6850     6.0030     1.1770 H     1 <1>   0.0800 
 45 H       -4.9980     4.4460     1.1730 H     1 <1>   0.0800 
 46 H       -5.5970     3.1550     2.2080 H     1 <1>   0.0800 
 47 H       -6.0240     4.8000     2.5340 H     1 <1>   0.0800 
 48 H       -9.4450     4.1890    -2.2510 H     1 <1>   0.0800 
 49 H       -7.7720     4.6510    -2.3420 H     1 <1>   0.0800 
 50 H       -8.9660     6.2580    -0.9360 H     1 <1>   0.0800 
 51 H       -9.5940     4.9720     0.0610 H     1 <1>   0.0800 
@<TRIPOS>BOND
  1   1   2  2   
  2   1   3  2   
  3   1   4  1   
  4   1   5  1   
  5   4   6  ar  
  6   4   7  ar  
  7   5   8  1   
  8   5  27  1   
  9   5  28  1   
 10   6   9  ar  
 11   6  29  1   
 12   7  10  ar  
 13   7  30  1   
 14   8  11  ar  
 15   8  12  ar  
 16   9  13  ar  
 17   9  31  1   
 18  10  13  ar  
 19  10  32  1   
 20  11  14  ar  
 21  11  33  1   
 22  12  15  ar  
 23  12  34  1   
 24  13  16  1   
 25  14  17  1   
 26  14  18  ar  
 27  15  18  ar  
 28  15  35  1   
 29  16  36  1   
 30  16  37  1   
 31  16  38  1   
 32  17  19  2   
 33  17  20  am  
 34  18  39  1   
 35  20  21  1   
 36  20  22  1   
 37  21  23  1   
 38  21  24  1   
 39  21  40  1   
 40  22  25  1   
 41  22  41  1   
 42  22  42  1   
 43  23  26  1   
 44  23  43  1   
 45  23  44  1   
 46  24  45  1   
 47  24  46  1   
 48  24  47  1   
 49  25  26  1   
 50  25  48  1   
 51  25  49  1   
 52  26  50  1   
 53  26  51  1   
@<TRIPOS>SUBSTRUCTURE
  1 ****  11 GROUP 4 **** **** 0

# MOE 2024.06 (io_trps.svl 2023.06)
