@<TRIPOS>MOLECULE
NONAME
43 45 1 0 0 
SMALL
USER_CHARGES


@<TRIPOS>ATOM
  1 O       -0.3720    -0.3440    -0.0490 O.3   1 <1>  -0.5600 
  2 C       -1.7310    -0.4080    -0.3810 C.3   1 <1>   0.1200 
  3 C        0.3100    -1.5500    -0.2590 C.3   1 <1>   0.1200 
  4 C       -2.4610    -1.4650     0.4660 C.3   1 <1>   0.2090 
  5 C       -0.2850    -2.6810     0.5980 C.3   1 <1>   0.2090 
  6 N       -1.7650    -2.7880     0.3930 N.pl3 1 <1>  -0.8380 
  7 C       -2.4380    -3.9890     0.3260 C.ar  1 <1>   0.7200 
  8 N       -1.7170    -5.0780     0.2370 N.ar  1 <1>  -0.6200 
  9 N       -3.7440    -3.9530     0.3580 N.ar  1 <1>  -0.6200 
 10 C       -2.4250    -6.1740     0.1820 C.ar  1 <1>   0.7030 
 11 C       -4.3360    -5.1170     0.2940 C.ar  1 <1>   0.7200 
 12 O       -1.7780    -7.3470     0.0870 O.3   1 <1>  -0.3630 
 13 N       -3.7200    -6.2690     0.2040 N.ar  1 <1>  -0.6200 
 14 N       -5.7130    -5.1350     0.3250 N.pl3 1 <1>  -0.8380 
 15 C       -0.3670    -7.4190     0.0310 C.3   1 <1>   0.1200 
 16 C       -6.5190    -6.3980     0.2900 C.3   1 <1>   0.2090 
 17 C       -6.5470    -3.9190     0.5820 C.3   1 <1>   0.2090 
 18 C        0.0400    -8.8870    -0.0850 C.3   1 <1>   0.1200 
 19 C       -7.7710    -6.2300    -0.5900 C.3   1 <1>   0.1200 
 20 C       -7.7910    -3.9040    -0.3230 C.3   1 <1>   0.1200 
 21 O        1.4170    -8.9710    -0.2400 O.3   1 <1>  -0.6800 
 22 O       -8.5100    -5.1010    -0.2130 O.3   1 <1>  -0.5600 
 23 H       -1.8190    -0.6430    -1.4270 H     1 <1>   0.0800 
 24 H       -2.1570     0.5640    -0.2080 H     1 <1>   0.0800 
 25 H        1.3410    -1.3930     0.0000 H     1 <1>   0.0800 
 26 H        0.2500    -1.8020    -1.3040 H     1 <1>   0.0800 
 27 H       -3.4740    -1.5400     0.1130 H     1 <1>   0.0800 
 28 H       -2.4910    -1.1380     1.4910 H     1 <1>   0.0800 
 29 H       -0.0890    -2.4750     1.6360 H     1 <1>   0.0800 
 30 H        0.2130    -3.5990     0.3450 H     1 <1>   0.0800 
 31 H        0.0300    -6.9880     0.9340 H     1 <1>   0.0800 
 32 H       -0.0400    -6.8620    -0.8290 H     1 <1>   0.0800 
 33 H       -6.8210    -6.6510     1.2900 H     1 <1>   0.0800 
 34 H       -5.9410    -7.2180    -0.0970 H     1 <1>   0.0800 
 35 H       -5.9880    -3.0180     0.4060 H     1 <1>   0.0800 
 36 H       -6.8600    -3.9170     1.6110 H     1 <1>   0.0800 
 37 H       -0.4260    -9.3500    -0.9380 H     1 <1>   0.0800 
 38 H       -0.2240    -9.4200     0.8120 H     1 <1>   0.0800 
 39 H       -8.4100    -7.0890    -0.4910 H     1 <1>   0.0800 
 40 H       -7.4890    -6.1270    -1.6230 H     1 <1>   0.0800 
 41 H       -7.5030    -3.7680    -1.3510 H     1 <1>   0.0800 
 42 H       -8.4460    -3.1010    -0.0380 H     1 <1>   0.0800 
 43 H        1.6900    -8.6250    -1.1120 H     1 <1>   0.4000 
@<TRIPOS>BOND
  1   1   2  1   
  2   1   3  1   
  3   2   4  1   
  4   2  23  1   
  5   2  24  1   
  6   3   5  1   
  7   3  25  1   
  8   3  26  1   
  9   4   6  1   
 10   4  27  1   
 11   4  28  1   
 12   5   6  1   
 13   5  29  1   
 14   5  30  1   
 15   6   7  1   
 16   7   8  ar  
 17   7   9  ar  
 18   8  10  ar  
 19   9  11  ar  
 20  10  12  1   
 21  10  13  ar  
 22  11  13  ar  
 23  11  14  1   
 24  12  15  1   
 25  14  16  1   
 26  14  17  1   
 27  15  18  1   
 28  15  31  1   
 29  15  32  1   
 30  16  19  1   
 31  16  33  1   
 32  16  34  1   
 33  17  20  1   
 34  17  35  1   
 35  17  36  1   
 36  18  21  1   
 37  18  37  1   
 38  18  38  1   
 39  19  22  1   
 40  19  39  1   
 41  19  40  1   
 42  20  22  1   
 43  20  41  1   
 44  20  42  1   
 45  21  43  1   
@<TRIPOS>SUBSTRUCTURE
  1 ****   7 GROUP 4 **** **** 0

# MOE 2024.06 (io_trps.svl 2023.06)
