@<TRIPOS>MOLECULE
NONAME
40 42 1 0 0 
SMALL
USER_CHARGES


@<TRIPOS>ATOM
  1 F       -1.6450    -0.1630    -1.3480 F     1 <1>  -0.1900 
  2 C       -2.1530     0.7730    -0.5950 C.ar  1 <1>   0.1900 
  3 C       -2.1530     2.0720    -1.0660 C.ar  1 <1>  -0.1500 
  4 C       -2.6660     0.4320     0.6410 C.ar  1 <1>  -0.1500 
  5 C       -2.6850     3.0790    -0.2690 C.ar  1 <1>  -0.1440 
  6 C       -3.2010     1.4350     1.4310 C.ar  1 <1>  -0.1500 
  7 C       -3.2100     2.7460     0.9790 C.ar  1 <1>  -0.1500 
  8 C       -2.6680     4.5160    -0.7680 C.3   1 <1>   0.7100 
  9 N       -1.5260     5.1480    -0.0860 N.4   1 <1>  -0.9060 
 10 C       -3.9620     5.2830    -0.4820 C.ar  1 <1>  -0.1430 
 11 C       -1.4500     6.6120    -0.3240 C.3   1 <1>   0.3430 
 12 C       -3.9550     6.5780     0.0230 C.ar  1 <1>  -0.1430 
 13 C       -5.1810     4.6800    -0.7530 C.ar  1 <1>  -0.1500 
 14 C       -2.6500     7.3000     0.3280 C.3   1 <1>  -0.0170 
 15 C       -5.1530     7.2340     0.2610 C.ar  1 <1>  -0.1500 
 16 C       -6.3850     5.3220    -0.5240 C.ar  1 <1>   0.0830 
 17 C       -6.3790     6.6270    -0.0020 C.ar  1 <1>   0.0830 
 18 O       -7.4750     4.5670    -0.8500 O.3   1 <1>  -0.3630 
 19 O       -7.5520     7.2800     0.2410 O.3   1 <1>  -0.3620 
 20 C       -8.8050     5.0290    -0.7620 C.3   1 <1>   0.0400 
 21 C       -7.6110     8.5840     0.7770 C.3   1 <1>   0.0400 
 22 H       -1.7420     2.2630    -2.0420 H     1 <1>   0.1500 
 23 H       -2.6480    -0.5920     0.9710 H     1 <1>   0.1500 
 24 H       -3.6150     1.1910     2.3960 H     1 <1>   0.1500 
 25 H       -3.6480     3.4990     1.6150 H     1 <1>   0.1500 
 26 H       -2.5010     4.5210    -1.8330 H     1 <1>   0.0800 
 27 H       -0.6740     4.6560    -0.3700 H     1 <1>   0.4500 
 28 H       -1.6700     4.9570     0.9100 H     1 <1>   0.4500 
 29 H       -1.4580     6.8090    -1.3850 H     1 <1>   0.0800 
 30 H       -0.5370     7.0120     0.0890 H     1 <1>   0.0800 
 31 H       -5.2270     3.6800    -1.1540 H     1 <1>   0.1500 
 32 H       -2.7030     8.3140    -0.0280 H     1 <1>   0.0800 
 33 H       -2.5070     7.3390     1.3940 H     1 <1>   0.0800 
 34 H       -5.1160     8.2310     0.6570 H     1 <1>   0.1500 
 35 H       -9.4540     4.2480    -1.1130 H     1 <1>   0.0800 
 36 H       -8.9140     5.9020    -1.3800 H     1 <1>   0.0800 
 37 H       -9.0280     5.2540     0.2660 H     1 <1>   0.0800 
 38 H       -8.6470     8.8570     0.8740 H     1 <1>   0.0800 
 39 H       -7.1190     9.2630     0.1030 H     1 <1>   0.0800 
 40 H       -7.1430     8.5880     1.7450 H     1 <1>   0.0800 
@<TRIPOS>BOND
  1   1   2  1   
  2   2   3  ar  
  3   2   4  ar  
  4   3   5  ar  
  5   3  22  1   
  6   4   6  ar  
  7   4  23  1   
  8   5   7  ar  
  9   5   8  1   
 10   6   7  ar  
 11   6  24  1   
 12   7  25  1   
 13   8   9  1   
 14   8  10  1   
 15   8  26  1   
 16   9  11  1   
 17   9  27  1   
 18   9  28  1   
 19  10  12  ar  
 20  10  13  ar  
 21  11  14  1   
 22  11  29  1   
 23  11  30  1   
 24  12  14  1   
 25  12  15  ar  
 26  13  16  ar  
 27  13  31  1   
 28  14  32  1   
 29  14  33  1   
 30  15  17  ar  
 31  15  34  1   
 32  16  17  ar  
 33  16  18  1   
 34  17  19  1   
 35  18  20  1   
 36  19  21  1   
 37  20  35  1   
 38  20  36  1   
 39  20  37  1   
 40  21  38  1   
 41  21  39  1   
 42  21  40  1   
@<TRIPOS>SUBSTRUCTURE
  1 ****  10 GROUP 4 **** **** 0

# MOE 2024.06 (io_trps.svl 2023.06)
