@<TRIPOS>MOLECULE
NONAME
36 37 1 0 0 
SMALL
USER_CHARGES


@<TRIPOS>ATOM
  1 S       -0.0680    -0.1210    -0.0430 S.o2  1 <1>   1.3330 
  2 O       -0.3760     0.2140    -1.4150 O.2   1 <1>  -0.6500 
  3 O       -0.8310     0.4730     1.0300 O.2   1 <1>  -0.6500 
  4 N        1.5650     0.2390     0.2080 N.am  1 <1>  -0.8490 
  5 C       -0.1060    -1.8890     0.1660 C.3   1 <1>  -0.1350 
  6 C        2.3580     0.0300    -1.0060 C.3   1 <1>   0.3340 
  7 C        1.7780     1.5730     0.7780 C.3   1 <1>   0.1160 
  8 C        3.7960    -0.2800    -0.6400 C.2   1 <1>  -0.1240 
  9 C        4.0750    -1.6200    -0.2200 C.2   1 <1>   0.6160 
 10 C        4.7890     0.6440    -0.7070 C.2   1 <1>  -0.1780 
 11 O        3.2480    -2.5160    -0.1960 O.2   1 <1>  -0.5700 
 12 N        5.3530    -1.9210     0.1420 N.am  1 <1>  -0.5470 
 13 C        6.1320     0.3060    -0.3420 C.ar  1 <1>   0.0280 
 14 C        6.3980    -1.0030     0.0920 C.ar  1 <1>   0.1170 
 15 C        7.1830     1.2210    -0.3960 C.ar  1 <1>  -0.1500 
 16 C        7.6930    -1.3610     0.4590 C.ar  1 <1>  -0.1500 
 17 C        8.4640     0.8620    -0.0320 C.ar  1 <1>   0.0820 
 18 C        8.7190    -0.4420     0.4000 C.ar  1 <1>  -0.1500 
 19 O        9.4190     1.8250    -0.1200 O.3   1 <1>  -0.3630 
 20 C       10.7610     1.5580     0.2220 C.3   1 <1>   0.0400 
 21 H       -1.1080    -2.2520     0.0540 H     1 <1>   0.0800 
 22 H        0.2500    -2.1490     1.1440 H     1 <1>   0.0800 
 23 H        0.5200    -2.3680    -0.5610 H     1 <1>   0.0800 
 24 H        2.3020     0.9030    -1.6350 H     1 <1>   0.0800 
 25 H        1.9680    -0.7990    -1.5740 H     1 <1>   0.0800 
 26 H        1.2640     1.6550     1.7220 H     1 <1>   0.0800 
 27 H        1.3990     2.3310     0.1130 H     1 <1>   0.0800 
 28 H        2.8250     1.7450     0.9570 H     1 <1>   0.0800 
 29 H        4.6070     1.6550    -1.0280 H     1 <1>   0.1500 
 30 H        5.5070    -2.8820     0.4400 H     1 <1>   0.3700 
 31 H        6.9990     2.2260    -0.7260 H     1 <1>   0.1500 
 32 H        7.8890    -2.3640     0.7910 H     1 <1>   0.1500 
 33 H        9.7070    -0.7470     0.6900 H     1 <1>   0.1500 
 34 H       11.3290     2.4580     0.0720 H     1 <1>   0.0800 
 35 H       11.1370     0.7790    -0.4180 H     1 <1>   0.0800 
 36 H       10.8070     1.2650     1.2560 H     1 <1>   0.0800 
@<TRIPOS>BOND
  1   1   2  2   
  2   1   3  2   
  3   1   4  am  
  4   1   5  1   
  5   4   6  1   
  6   4   7  1   
  7   5  21  1   
  8   5  22  1   
  9   5  23  1   
 10   6   8  1   
 11   6  24  1   
 12   6  25  1   
 13   7  26  1   
 14   7  27  1   
 15   7  28  1   
 16   8   9  1   
 17   8  10  2   
 18   9  11  2   
 19   9  12  am  
 20  10  13  1   
 21  10  29  1   
 22  12  14  1   
 23  12  30  1   
 24  13  14  ar  
 25  13  15  ar  
 26  14  16  ar  
 27  15  17  ar  
 28  15  31  1   
 29  16  18  ar  
 30  16  32  1   
 31  17  18  ar  
 32  17  19  1   
 33  18  33  1   
 34  19  20  1   
 35  20  34  1   
 36  20  35  1   
 37  20  36  1   
@<TRIPOS>SUBSTRUCTURE
  1 ****   8 GROUP 4 **** **** 0

# MOE 2024.06 (io_trps.svl 2023.06)
