@<TRIPOS>MOLECULE
NONAME
51 53 1 0 0 
SMALL
USER_CHARGES


@<TRIPOS>ATOM
  1 O       -0.3960    -0.2240    -0.6860 O.3   1 <1>  -0.3630 
  2 C       -1.5450    -0.9610    -0.5580 C.ar  1 <1>   0.0830 
  3 C       -0.3860     1.0010    -1.3830 C.3   1 <1>   0.1200 
  4 C       -1.4620    -2.2240     0.0570 C.ar  1 <1>   0.1000 
  5 C       -2.7760    -0.4980    -1.0150 C.ar  1 <1>  -0.1500 
  6 C        1.0480     1.5230    -1.3960 C.3   1 <1>  -0.2400 
  7 N       -0.2710    -2.7770     0.5510 N.pl3 1 <1>  -0.8380 
  8 C       -2.6180    -2.9800     0.1890 C.ar  1 <1>  -0.1500 
  9 C       -3.9150    -1.2720    -0.8700 C.ar  1 <1>  -0.1500 
 10 C        0.2940    -2.0510     1.7280 C.3   1 <1>   0.2090 
 11 C        0.7340    -3.1080    -0.5050 C.3   1 <1>   0.2090 
 12 C       -3.8360    -2.5130    -0.2680 C.ar  1 <1>  -0.1500 
 13 C        1.5310    -2.7760     2.2950 C.3   1 <1>   0.3430 
 14 C        1.9720    -3.8060     0.0890 C.3   1 <1>   0.3430 
 15 N        2.5710    -3.0340     1.2390 N.4   1 <1>  -0.9590 
 16 C        3.7660    -3.7300     1.7800 C.3   1 <1>   0.4860 
 17 C        4.8690    -3.6700     0.7440 C.ar  1 <1>  -0.1430 
 18 C        5.0960    -4.7630    -0.0850 C.ar  1 <1>   0.0830 
 19 C        5.6520    -2.5320     0.6210 C.ar  1 <1>  -0.1500 
 20 O        4.2950    -5.8480     0.0820 O.3   1 <1>  -0.3630 
 21 C        6.1060    -4.7030    -1.0400 C.ar  1 <1>  -0.1500 
 22 C        6.6540    -2.4780    -0.3310 C.ar  1 <1>  -0.1500 
 23 C        4.5840    -7.0740    -0.5610 C.3   1 <1>   0.0400 
 24 C        6.8790    -3.5620    -1.1610 C.ar  1 <1>  -0.1500 
 25 H       -1.0360     1.6910    -0.8720 H     1 <1>   0.0800 
 26 H       -0.7370     0.8270    -2.3860 H     1 <1>   0.0800 
 27 H       -2.8810     0.4600    -1.4850 H     1 <1>   0.1500 
 28 H        1.3940     1.6830    -0.3910 H     1 <1>   0.0800 
 29 H        1.0850     2.4590    -1.9230 H     1 <1>   0.0800 
 30 H        1.6920     0.8240    -1.8980 H     1 <1>   0.0800 
 31 H       -2.5560    -3.9450     0.6570 H     1 <1>   0.1500 
 32 H       -4.8640    -0.9070    -1.2250 H     1 <1>   0.1500 
 33 H       -0.4620    -1.9850     2.4920 H     1 <1>   0.0800 
 34 H        0.5630    -1.0480     1.4480 H     1 <1>   0.0800 
 35 H        1.0420    -2.2130    -1.0150 H     1 <1>   0.0800 
 36 H        0.2760    -3.7560    -1.2330 H     1 <1>   0.0800 
 37 H       -4.7210    -3.1160    -0.1550 H     1 <1>   0.1500 
 38 H        1.2050    -3.7120     2.7170 H     1 <1>   0.0800 
 39 H        1.9510    -2.1800     3.0890 H     1 <1>   0.0800 
 40 H        2.7060    -3.9350    -0.6890 H     1 <1>   0.0800 
 41 H        1.6790    -4.7870     0.4260 H     1 <1>   0.0800 
 42 H        2.8850    -2.1350     0.8570 H     1 <1>   0.4500 
 43 H        3.5300    -4.7560     2.0130 H     1 <1>   0.0800 
 44 H        4.1030    -3.2450     2.6810 H     1 <1>   0.0800 
 45 H        5.5000    -1.6790     1.2610 H     1 <1>   0.1500 
 46 H        6.3080    -5.5260    -1.7000 H     1 <1>   0.1500 
 47 H        7.2640    -1.5960    -0.4290 H     1 <1>   0.1500 
 48 H        4.4870    -6.9460    -1.6250 H     1 <1>   0.0800 
 49 H        3.8790    -7.8100    -0.2180 H     1 <1>   0.0800 
 50 H        5.5830    -7.3800    -0.3010 H     1 <1>   0.0800 
 51 H        7.6610    -3.5170    -1.9010 H     1 <1>   0.1500 
@<TRIPOS>BOND
  1   1   2  1   
  2   1   3  1   
  3   2   4  ar  
  4   2   5  ar  
  5   3   6  1   
  6   3  25  1   
  7   3  26  1   
  8   4   7  1   
  9   4   8  ar  
 10   5   9  ar  
 11   5  27  1   
 12   6  28  1   
 13   6  29  1   
 14   6  30  1   
 15   7  10  1   
 16   7  11  1   
 17   8  12  ar  
 18   8  31  1   
 19   9  12  ar  
 20   9  32  1   
 21  10  13  1   
 22  10  33  1   
 23  10  34  1   
 24  11  14  1   
 25  11  35  1   
 26  11  36  1   
 27  12  37  1   
 28  13  15  1   
 29  13  38  1   
 30  13  39  1   
 31  14  15  1   
 32  14  40  1   
 33  14  41  1   
 34  15  16  1   
 35  15  42  1   
 36  16  17  1   
 37  16  43  1   
 38  16  44  1   
 39  17  18  ar  
 40  17  19  ar  
 41  18  20  1   
 42  18  21  ar  
 43  19  22  ar  
 44  19  45  1   
 45  20  23  1   
 46  21  24  ar  
 47  21  46  1   
 48  22  24  ar  
 49  22  47  1   
 50  23  48  1   
 51  23  49  1   
 52  23  50  1   
 53  24  51  1   
@<TRIPOS>SUBSTRUCTURE
  1 ****  11 GROUP 4 **** **** 0

# MOE 2024.06 (io_trps.svl 2023.06)
