@<TRIPOS>MOLECULE
NONAME
47 48 1 0 0 
SMALL
USER_CHARGES


@<TRIPOS>ATOM
  1 O        0.5340     1.6980     2.4160 O.2   1 <1>  -0.5700 
  2 C        0.8760     1.7260     1.2490 C.2   1 <1>   0.5440 
  3 N       -0.0590     1.9570     0.2660 N.am  1 <1>  -0.5470 
  4 C        2.2710     1.5260     0.8990 C.ar  1 <1>   0.0860 
  5 C       -1.4340     2.2280     0.2960 C.ar  1 <1>   0.1170 
  6 C        2.6990     0.9740    -0.3180 C.ar  1 <1>   0.0830 
  7 C        3.2630     1.8930     1.8100 C.ar  1 <1>  -0.1500 
  8 C       -2.1730     2.0200    -0.8620 C.ar  1 <1>  -0.1500 
  9 C       -2.0990     2.7110     1.4170 C.ar  1 <1>  -0.1500 
 10 O        1.7740     0.5760    -1.2290 O.3   1 <1>  -0.3630 
 11 C        4.0570     0.8280    -0.6180 C.ar  1 <1>   0.0830 
 12 C        4.6060     1.7550     1.5300 C.ar  1 <1>  -0.1500 
 13 C       -3.5320     2.2770    -0.8990 C.ar  1 <1>  -0.1500 
 14 C       -3.4580     2.9680     1.3840 C.ar  1 <1>  -0.1500 
 15 C        1.4960    -0.8060    -1.2850 C.3   1 <1>   0.0400 
 16 O        4.3740     0.3010    -1.8420 O.3   1 <1>  -0.3630 
 17 C        5.0250     1.2340     0.3090 C.ar  1 <1>   0.0830 
 18 C       -4.1910     2.7540     0.2260 C.ar  1 <1>  -0.1430 
 19 C        5.3640    -0.7010    -1.9390 C.3   1 <1>   0.0400 
 20 O        6.3470     1.1330    -0.0010 O.3   1 <1>  -0.3630 
 21 C       -5.6910     3.0430     0.2080 C.3   1 <1>   0.0630 
 22 C        7.3620     1.6830     0.8100 C.3   1 <1>   0.0400 
 23 C       -6.4900     1.7680    -0.0800 C.3   1 <1>  -0.2400 
 24 C       -6.0250     4.1370    -0.8120 C.3   1 <1>  -0.2400 
 25 H        0.3250     1.7980    -0.6690 H     1 <1>   0.3700 
 26 H        2.9640     2.3020     2.7620 H     1 <1>   0.1500 
 27 H       -1.6830     1.6510    -1.7440 H     1 <1>   0.1500 
 28 H       -1.5570     2.8920     2.3260 H     1 <1>   0.1500 
 29 H        5.3120     2.0620     2.2780 H     1 <1>   0.1500 
 30 H       -4.0760     2.1040    -1.8100 H     1 <1>   0.1500 
 31 H       -3.9400     3.3380     2.2710 H     1 <1>   0.1500 
 32 H        0.7380    -0.9670    -2.0300 H     1 <1>   0.0800 
 33 H        1.1410    -1.1300    -0.3220 H     1 <1>   0.0800 
 34 H        2.3920    -1.3360    -1.5530 H     1 <1>   0.0800 
 35 H        5.1570    -1.2910    -2.8140 H     1 <1>   0.0800 
 36 H        5.3320    -1.3190    -1.0590 H     1 <1>   0.0800 
 37 H        6.3250    -0.2310    -2.0400 H     1 <1>   0.0800 
 38 H       -5.9840     3.4010     1.1800 H     1 <1>   0.0800 
 39 H        8.3030     1.5350     0.3110 H     1 <1>   0.0800 
 40 H        7.3680     1.1750     1.7580 H     1 <1>   0.0800 
 41 H        7.1780     2.7360     0.9340 H     1 <1>   0.0800 
 42 H       -6.2720     1.3920    -1.0630 H     1 <1>   0.0800 
 43 H       -7.5450     1.9660    -0.0120 H     1 <1>   0.0800 
 44 H       -6.2370     1.0100     0.6400 H     1 <1>   0.0800 
 45 H       -5.7970     3.8120    -1.8110 H     1 <1>   0.0800 
 46 H       -5.4490     5.0200    -0.6000 H     1 <1>   0.0800 
 47 H       -7.0690     4.3870    -0.7610 H     1 <1>   0.0800 
@<TRIPOS>BOND
  1   1   2  2   
  2   2   3  am  
  3   2   4  1   
  4   3   5  1   
  5   3  25  1   
  6   4   6  ar  
  7   4   7  ar  
  8   5   8  ar  
  9   5   9  ar  
 10   6  10  1   
 11   6  11  ar  
 12   7  12  ar  
 13   7  26  1   
 14   8  13  ar  
 15   8  27  1   
 16   9  14  ar  
 17   9  28  1   
 18  10  15  1   
 19  11  16  1   
 20  11  17  ar  
 21  12  17  ar  
 22  12  29  1   
 23  13  18  ar  
 24  13  30  1   
 25  14  18  ar  
 26  14  31  1   
 27  15  32  1   
 28  15  33  1   
 29  15  34  1   
 30  16  19  1   
 31  17  20  1   
 32  18  21  1   
 33  19  35  1   
 34  19  36  1   
 35  19  37  1   
 36  20  22  1   
 37  21  23  1   
 38  21  24  1   
 39  21  38  1   
 40  22  39  1   
 41  22  40  1   
 42  22  41  1   
 43  23  42  1   
 44  23  43  1   
 45  23  44  1   
 46  24  45  1   
 47  24  46  1   
 48  24  47  1   
@<TRIPOS>SUBSTRUCTURE
  1 ****   3 GROUP 4 **** **** 0

# MOE 2024.06 (io_trps.svl 2023.06)
