@<TRIPOS>MOLECULE
NONAME
35 34 1 0 0 
SMALL
USER_CHARGES


@<TRIPOS>ATOM
  1 P       -2.1630    -0.7770     0.3860 P.3   1 <1>   0.9000 
  2 O       -1.4020    -0.3850    -0.8310 O.co2 1 <1>  -0.9500 
  3 O       -3.5510    -1.2740     0.1880 O.co2 1 <1>  -0.9500 
  4 C       -2.3510     0.6730     1.4530 C.3   1 <1>   0.3430 
  5 C       -1.2130    -2.1270     1.1160 C.3   1 <1>   0.3430 
  6 N       -3.4400     1.5520     0.8980 N.4   1 <1>  -0.9060 
  7 N       -1.0720    -3.1930     0.0720 N.4   1 <1>  -0.9060 
  8 C       -3.0180     2.2200    -0.3580 C.3   1 <1>   0.3430 
  9 C       -0.2000    -4.3340     0.4010 C.3   1 <1>   0.3430 
 10 C       -4.1880     3.0370    -0.8990 C.3   1 <1>  -0.1600 
 11 C       -0.1710    -5.2890    -0.7900 C.3   1 <1>  -0.1600 
 12 C       -3.8020     3.7540    -2.1980 C.3   1 <1>  -0.2400 
 13 C        0.7250    -6.5000    -0.5070 C.3   1 <1>  -0.2400 
 14 H       -1.4410     1.2420     1.5390 H     1 <1>   0.0800 
 15 H       -2.6510     0.3750     2.4420 H     1 <1>   0.0800 
 16 H       -1.6980    -2.5450     1.9800 H     1 <1>   0.0800 
 17 H       -0.2280    -1.8030     1.4010 H     1 <1>   0.0800 
 18 H       -3.8330     2.2090     1.5750 H     1 <1>   0.4500 
 19 H       -4.1730     0.8680     0.6150 H     1 <1>   0.4500 
 20 H       -0.7570    -2.6850    -0.7780 H     1 <1>   0.4500 
 21 H       -2.0310    -3.4830    -0.1820 H     1 <1>   0.4500 
 22 H       -2.7260     1.4820    -1.0920 H     1 <1>   0.0800 
 23 H       -2.1750     2.8650    -0.1740 H     1 <1>   0.0800 
 24 H       -0.5770    -4.8500     1.2700 H     1 <1>   0.0800 
 25 H        0.7990    -3.9870     0.6100 H     1 <1>   0.0800 
 26 H       -4.4910     3.7730    -0.1740 H     1 <1>   0.0800 
 27 H       -5.0200     2.3830    -1.1030 H     1 <1>   0.0800 
 28 H        0.2050    -4.7770    -1.6590 H     1 <1>   0.0800 
 29 H       -1.1680    -5.6390    -1.0010 H     1 <1>   0.0800 
 30 H       -2.9840     4.4330    -2.0320 H     1 <1>   0.0800 
 31 H       -4.6400     4.3180    -2.5710 H     1 <1>   0.0800 
 32 H       -3.5130     3.0420    -2.9520 H     1 <1>   0.0800 
 33 H        1.7390    -6.1910    -0.3160 H     1 <1>   0.0800 
 34 H        0.7310    -7.1590    -1.3590 H     1 <1>   0.0800 
 35 H        0.3650    -7.0550     0.3430 H     1 <1>   0.0800 
@<TRIPOS>BOND
  1   1   2  ar  
  2   1   3  ar  
  3   1   4  1   
  4   1   5  1   
  5   4   6  1   
  6   4  14  1   
  7   4  15  1   
  8   5   7  1   
  9   5  16  1   
 10   5  17  1   
 11   6   8  1   
 12   6  18  1   
 13   6  19  1   
 14   7   9  1   
 15   7  20  1   
 16   7  21  1   
 17   8  10  1   
 18   8  22  1   
 19   8  23  1   
 20   9  11  1   
 21   9  24  1   
 22   9  25  1   
 23  10  12  1   
 24  10  26  1   
 25  10  27  1   
 26  11  13  1   
 27  11  28  1   
 28  11  29  1   
 29  12  30  1   
 30  12  31  1   
 31  12  32  1   
 32  13  33  1   
 33  13  34  1   
 34  13  35  1   
@<TRIPOS>SUBSTRUCTURE
  1 ****   1 GROUP 4 **** **** 0

# MOE 2024.06 (io_trps.svl 2023.06)
