@<TRIPOS>MOLECULE
NONAME
31 32 1 0 0 
SMALL
USER_CHARGES


@<TRIPOS>ATOM
  1 S       -0.1020    -0.1460    -0.9910 S.o2  1 <1>   1.3330 
  2 O        0.1820     1.0570    -1.7290 O.2   1 <1>  -0.6500 
  3 O        0.6380    -1.3620    -1.2190 O.2   1 <1>  -0.6500 
  4 N       -1.7680    -0.4610    -1.2650 N.am  1 <1>  -0.7570 
  5 C       -0.0880     0.2330     0.7470 C.3   1 <1>  -0.1350 
  6 C       -2.4980    -1.4920    -0.6870 C.ar  1 <1>   0.1990 
  7 C       -3.6770    -1.2330     0.0370 C.ar  1 <1>   0.0860 
  8 C       -2.0670    -2.8070    -0.8370 C.ar  1 <1>  -0.1500 
  9 C       -4.1900     0.1110     0.1940 C.2   1 <1>   0.5440 
 10 C       -4.3510    -2.3150     0.6140 C.ar  1 <1>  -0.1500 
 11 C       -2.7540    -3.8580    -0.2670 C.ar  1 <1>  -0.1500 
 12 O       -3.4340     1.0560     0.3480 O.2   1 <1>  -0.5700 
 13 N       -5.5380     0.3430     0.1580 N.am  1 <1>  -0.5790 
 14 C       -3.9000    -3.6110     0.4660 C.ar  1 <1>  -0.1500 
 15 C       -6.1980     1.6470     0.3190 C.3   1 <1>   0.0490 
 16 C       -7.5580     1.6720     0.9340 C.3   1 <1>  -0.2000 
 17 C       -7.3890     1.9400    -0.5320 C.3   1 <1>  -0.2000 
 18 H       -2.2420     0.4470    -1.2700 H     1 <1>   0.4200 
 19 H       -0.7400     1.0600     0.9520 H     1 <1>   0.0800 
 20 H        0.9040     0.4930     1.0580 H     1 <1>   0.0800 
 21 H       -0.4170    -0.6150     1.3150 H     1 <1>   0.0800 
 22 H       -1.1820    -3.0110    -1.4140 H     1 <1>   0.1500 
 23 H       -5.2390    -2.1390     1.1960 H     1 <1>   0.1500 
 24 H       -2.3990    -4.8680    -0.3930 H     1 <1>   0.1500 
 25 H       -6.1690    -0.4230    -0.0770 H     1 <1>   0.3700 
 26 H       -4.4340    -4.4300     0.9180 H     1 <1>   0.1500 
 27 H       -5.5140     2.4510     0.5440 H     1 <1>   0.1000 
 28 H       -7.8200     2.4980     1.5720 H     1 <1>   0.1000 
 29 H       -8.0080     0.7480     1.2490 H     1 <1>   0.1000 
 30 H       -7.7170     1.2010    -1.2410 H     1 <1>   0.1000 
 31 H       -7.5350     2.9460    -0.8840 H     1 <1>   0.1000 
@<TRIPOS>BOND
  1   1   2  2   
  2   1   3  2   
  3   1   4  am  
  4   1   5  1   
  5   4   6  1   
  6   4  18  1   
  7   5  19  1   
  8   5  20  1   
  9   5  21  1   
 10   6   7  ar  
 11   6   8  ar  
 12   7   9  1   
 13   7  10  ar  
 14   8  11  ar  
 15   8  22  1   
 16   9  12  2   
 17   9  13  am  
 18  10  14  ar  
 19  10  23  1   
 20  11  14  ar  
 21  11  24  1   
 22  13  15  1   
 23  13  25  1   
 24  14  26  1   
 25  15  16  1   
 26  15  17  1   
 27  15  27  1   
 28  16  17  1   
 29  16  28  1   
 30  16  29  1   
 31  17  30  1   
 32  17  31  1   
@<TRIPOS>SUBSTRUCTURE
  1 ****   7 GROUP 4 **** **** 0

# MOE 2024.06 (io_trps.svl 2023.06)
