@<TRIPOS>MOLECULE
NONAME
40 41 1 0 0 
SMALL
USER_CHARGES


@<TRIPOS>ATOM
  1 O       -1.5260     0.8420     0.6340 O.3   1 <1>  -0.3630 
  2 C       -0.8930     2.0000     0.2930 C.ar  1 <1>   0.0830 
  3 C       -0.8730    -0.1290     1.4300 C.3   1 <1>   0.0400 
  4 C       -1.4780     2.7820    -0.6990 C.ar  1 <1>  -0.1440 
  5 C        0.2870     2.4260     0.8960 C.ar  1 <1>  -0.1500 
  6 C       -0.8830     3.9750    -1.0750 C.ar  1 <1>  -0.1500 
  7 C       -2.7630     2.3390    -1.3660 C.3   1 <1>   0.4870 
  8 C        0.8750     3.6200     0.5170 C.ar  1 <1>  -0.1500 
  9 C        0.2870     4.4020    -0.4720 C.ar  1 <1>   0.0830 
 10 N       -3.8190     2.2530    -0.3270 N.4   1 <1>  -0.9590 
 11 O        0.7890     5.5870    -0.9020 O.3   1 <1>  -0.3620 
 12 C       -5.0400     1.5470    -0.8350 C.3   1 <1>   0.3430 
 13 C       -4.1230     3.5840     0.2730 C.3   1 <1>   0.3430 
 14 C        2.0110     6.0860    -0.4050 C.3   1 <1>   0.0400 
 15 C       -6.1140     1.3970     0.2590 C.3   1 <1>   0.2000 
 16 C       -5.1320     3.4190     1.4120 C.3   1 <1>  -0.1600 
 17 O       -7.2700     0.9430    -0.3400 O.3   1 <1>  -0.6800 
 18 C       -6.4260     2.7320     0.9440 C.3   1 <1>  -0.1600 
 19 H       -0.7190     0.2690     2.4180 H     1 <1>   0.0800 
 20 H        0.0660    -0.3860     0.9710 H     1 <1>   0.0800 
 21 H       -1.5000    -1.0010     1.4840 H     1 <1>   0.0800 
 22 H        0.7650     1.8480     1.6650 H     1 <1>   0.1500 
 23 H       -1.3100     4.5990    -1.8410 H     1 <1>   0.1500 
 24 H       -2.6070     1.3710    -1.8140 H     1 <1>   0.0800 
 25 H       -3.0470     3.0370    -2.1360 H     1 <1>   0.0800 
 26 H        1.7840     3.9250     1.0000 H     1 <1>   0.1500 
 27 H       -3.3770     1.6760     0.4090 H     1 <1>   0.4500 
 28 H       -4.7750     0.5680    -1.1980 H     1 <1>   0.0800 
 29 H       -5.4660     2.1130    -1.6470 H     1 <1>   0.0800 
 30 H       -4.5340     4.2390    -0.4800 H     1 <1>   0.0800 
 31 H       -3.2190     4.0330     0.6560 H     1 <1>   0.0800 
 32 H        2.2200     7.0160    -0.9030 H     1 <1>   0.0800 
 33 H        2.7920     5.3760    -0.6170 H     1 <1>   0.0800 
 34 H        1.9180     6.2530     0.6540 H     1 <1>   0.0800 
 35 H       -5.8020     0.6590     0.9800 H     1 <1>   0.0800 
 36 H       -5.3710     4.3910     1.8080 H     1 <1>   0.0800 
 37 H       -4.6790     2.8530     2.2080 H     1 <1>   0.0800 
 38 H       -7.9840     0.8160     0.3190 H     1 <1>   0.4000 
 39 H       -7.0710     2.5680     1.7900 H     1 <1>   0.0800 
 40 H       -6.9330     3.3810     0.2490 H     1 <1>   0.0800 
@<TRIPOS>BOND
  1   1   2  1   
  2   1   3  1   
  3   2   4  ar  
  4   2   5  ar  
  5   3  19  1   
  6   3  20  1   
  7   3  21  1   
  8   4   6  ar  
  9   4   7  1   
 10   5   8  ar  
 11   5  22  1   
 12   6   9  ar  
 13   6  23  1   
 14   7  10  1   
 15   7  24  1   
 16   7  25  1   
 17   8   9  ar  
 18   8  26  1   
 19   9  11  1   
 20  10  12  1   
 21  10  13  1   
 22  10  27  1   
 23  11  14  1   
 24  12  15  1   
 25  12  28  1   
 26  12  29  1   
 27  13  16  1   
 28  13  30  1   
 29  13  31  1   
 30  14  32  1   
 31  14  33  1   
 32  14  34  1   
 33  15  17  1   
 34  15  18  1   
 35  15  35  1   
 36  16  18  1   
 37  16  36  1   
 38  16  37  1   
 39  17  38  1   
 40  18  39  1   
 41  18  40  1   
@<TRIPOS>SUBSTRUCTURE
  1 ****   4 GROUP 4 **** **** 0

# MOE 2024.06 (io_trps.svl 2023.06)
