@<TRIPOS>MOLECULE
NONAME
48 50 1 0 0 
SMALL
USER_CHARGES


@<TRIPOS>ATOM
  1 O       -3.0030     5.5780    -0.9790 O.2   1 <1>  -0.5700 
  2 C       -2.2240     4.8530    -0.4110 C.2   1 <1>   0.4230 
  3 C       -2.6490     3.7560     0.4240 C.ar  1 <1>   0.0860 
  4 C       -0.6970     5.0990    -0.5820 C.3   1 <1>   0.5640 
  5 C       -1.7420     3.0840     1.2440 C.ar  1 <1>  -0.1440 
  6 C       -3.9760     3.3240     0.4330 C.ar  1 <1>  -0.1500 
  7 N        0.1430     3.9670    -0.0430 N.4   1 <1>  -0.9590 
  8 C       -0.3680     5.2270    -2.0780 C.3   1 <1>  -0.2400 
  9 C       -0.3180     6.4090     0.1290 C.3   1 <1>  -0.2400 
 10 C       -2.1530     2.0120     2.0140 C.ar  1 <1>  -0.1500 
 11 C       -0.2970     3.5270     1.3110 C.3   1 <1>   0.4860 
 12 C       -4.4050     2.2520     1.2080 C.ar  1 <1>   0.0830 
 13 C        1.6220     4.1750    -0.0800 C.3   1 <1>   0.4860 
 14 C       -3.4670     1.5780     2.0100 C.ar  1 <1>   0.0830 
 15 O       -5.7100     1.8560     1.1940 O.3   1 <1>  -0.3630 
 16 C        2.3040     2.8700     0.2770 C.ar  1 <1>  -0.1430 
 17 O       -3.6920     0.5100     2.8190 O.3   1 <1>  -0.3630 
 18 C       -6.7200     2.5680     0.5100 C.3   1 <1>   0.0400 
 19 C        2.9400     2.7290     1.5030 C.ar  1 <1>  -0.1500 
 20 C        2.2890     1.8050    -0.6130 C.ar  1 <1>  -0.1500 
 21 C       -4.9400    -0.1310     2.9640 C.3   1 <1>   0.0400 
 22 C        3.5400     1.5290     1.8410 C.ar  1 <1>  -0.1500 
 23 C        2.8890     0.6060    -0.2710 C.ar  1 <1>  -0.1500 
 24 C        3.5120     0.4670     0.9560 C.ar  1 <1>  -0.1500 
 25 H       -4.6680     3.8550    -0.1950 H     1 <1>   0.1500 
 26 H       -0.0350     3.1590    -0.6490 H     1 <1>   0.4500 
 27 H       -0.5940     4.3130    -2.5980 H     1 <1>   0.0800 
 28 H        0.6540     5.5020    -2.2550 H     1 <1>   0.0800 
 29 H       -0.9760     6.0010    -2.5160 H     1 <1>   0.0800 
 30 H       -0.5020     6.3500     1.1860 H     1 <1>   0.0800 
 31 H       -0.9330     7.2070    -0.2540 H     1 <1>   0.0800 
 32 H        0.7030     6.6920    -0.0470 H     1 <1>   0.0800 
 33 H       -1.4580     1.4830     2.6450 H     1 <1>   0.1500 
 34 H        0.3050     2.6980     1.6490 H     1 <1>   0.0800 
 35 H       -0.1930     4.3310     2.0220 H     1 <1>   0.0800 
 36 H        1.9120     4.9430     0.6190 H     1 <1>   0.0800 
 37 H        1.9400     4.4740    -1.0650 H     1 <1>   0.0800 
 38 H       -7.6600     2.0830     0.7060 H     1 <1>   0.0800 
 39 H       -6.5150     2.5450    -0.5450 H     1 <1>   0.0800 
 40 H       -6.7500     3.5780     0.8790 H     1 <1>   0.0800 
 41 H        2.9830     3.5420     2.2080 H     1 <1>   0.1500 
 42 H        1.8210     1.8870    -1.5790 H     1 <1>   0.1500 
 43 H       -4.8190    -0.9520     3.6470 H     1 <1>   0.0800 
 44 H       -5.2570    -0.4980     2.0040 H     1 <1>   0.0800 
 45 H       -5.6500     0.5730     3.3610 H     1 <1>   0.0800 
 46 H        4.0340     1.4170     2.7920 H     1 <1>   0.1500 
 47 H        2.8790    -0.2230    -0.9600 H     1 <1>   0.1500 
 48 H        3.9810    -0.4670     1.2190 H     1 <1>   0.1500 
@<TRIPOS>BOND
  1   1   2  2   
  2   2   3  1   
  3   2   4  1   
  4   3   5  ar  
  5   3   6  ar  
  6   4   7  1   
  7   4   8  1   
  8   4   9  1   
  9   5  10  ar  
 10   5  11  1   
 11   6  12  ar  
 12   6  25  1   
 13   7  11  1   
 14   7  13  1   
 15   7  26  1   
 16   8  27  1   
 17   8  28  1   
 18   8  29  1   
 19   9  30  1   
 20   9  31  1   
 21   9  32  1   
 22  10  14  ar  
 23  10  33  1   
 24  11  34  1   
 25  11  35  1   
 26  12  14  ar  
 27  12  15  1   
 28  13  16  1   
 29  13  36  1   
 30  13  37  1   
 31  14  17  1   
 32  15  18  1   
 33  16  19  ar  
 34  16  20  ar  
 35  17  21  1   
 36  18  38  1   
 37  18  39  1   
 38  18  40  1   
 39  19  22  ar  
 40  19  41  1   
 41  20  23  ar  
 42  20  42  1   
 43  21  43  1   
 44  21  44  1   
 45  21  45  1   
 46  22  24  ar  
 47  22  46  1   
 48  23  24  ar  
 49  23  47  1   
 50  24  48  1   
@<TRIPOS>SUBSTRUCTURE
  1 ****   5 GROUP 4 **** **** 0

# MOE 2024.06 (io_trps.svl 2023.06)
