@<TRIPOS>MOLECULE
NONAME
49 52 1 0 0 
SMALL
USER_CHARGES


@<TRIPOS>ATOM
  1 N        0.3300    -0.3500    -1.6700 N.2   1 <1>  -0.2670 
  2 N        1.3860    -0.7670    -0.8930 N.pl3 1 <1>  -0.4620 
  3 C        0.0690    -1.3850    -2.3840 C.2   1 <1>   0.7460 
  4 C        1.6700    -2.0210    -1.1580 C.cat 1 <1>   1.0690 
  5 C        2.1040     0.0250     0.1350 C.3   1 <1>   0.5730 
  6 N        0.8710    -2.4290    -2.1110 N.pl3 1 <1>  -0.7040 
  7 N       -0.9020    -1.5240    -3.3170 N.pl3 1 <1>  -0.8980 
  8 N        2.5970    -2.7180    -0.5100 N.pl3 1 <1>  -0.7180 
  9 C        2.2760     1.4820    -0.3020 C.ar  1 <1>  -0.1510 
 10 C        3.4760    -0.6120     0.4110 C.3   1 <1>  -0.1670 
 11 C        3.3810    -2.1340     0.5820 C.3   1 <1>   0.3850 
 12 C        1.9070     2.5450     0.5240 C.ar  1 <1>  -0.1510 
 13 C        2.8230     1.7590    -1.5520 C.ar  1 <1>  -0.1570 
 14 C        4.7370    -2.8140     0.5680 C.ar  1 <1>  -0.1510 
 15 C        2.0880     3.8470     0.0840 C.ar  1 <1>  -0.1570 
 16 C        1.3040     2.3440     1.9100 C.3   1 <1>  -0.1040 
 17 C        3.0000     3.0610    -1.9790 C.ar  1 <1>  -0.1570 
 18 C        5.5680    -2.7480    -0.5430 C.ar  1 <1>  -0.1570 
 19 C        5.1520    -3.5360     1.6770 C.ar  1 <1>  -0.1570 
 20 C        2.6320     4.1080    -1.1590 C.ar  1 <1>  -0.1570 
 21 C        6.7900    -3.3980    -0.5430 C.ar  1 <1>  -0.1570 
 22 C        6.3740    -4.1850     1.6730 C.ar  1 <1>  -0.1570 
 23 C        7.2000    -4.1200     0.5640 C.ar  1 <1>  -0.1510 
 24 C        8.5410    -4.8350     0.5620 C.3   1 <1>  -0.0250 
 25 C        8.3940    -6.2560     0.0160 C.3   1 <1>  -0.2470 
 26 H        1.5170    -0.0260     1.0340 H     1 <1>   0.0720 
 27 H        0.7570    -3.3500    -2.5120 H     1 <1>   0.4450 
 28 H       -0.5720    -1.8090    -4.2420 H     1 <1>   0.3940 
 29 H       -1.4690    -0.6740    -3.4080 H     1 <1>   0.3940 
 30 H        2.8910    -3.6570    -0.7840 H     1 <1>   0.4450 
 31 H        3.8950    -0.1790     1.3020 H     1 <1>   0.0720 
 32 H        4.1510    -0.3750    -0.3910 H     1 <1>   0.0720 
 33 H        2.8830    -2.3540     1.5130 H     1 <1>   0.0720 
 34 H        3.1190     0.9660    -2.2140 H     1 <1>   0.1430 
 35 H        1.8080     4.6790     0.7080 H     1 <1>   0.1430 
 36 H        1.9690     1.7700     2.5300 H     1 <1>   0.0720 
 37 H        0.3560     1.8420     1.8350 H     1 <1>   0.0720 
 38 H        1.1380     3.2890     2.3960 H     1 <1>   0.0720 
 39 H        3.4240     3.2640    -2.9480 H     1 <1>   0.1430 
 40 H        5.2860    -2.1950    -1.4210 H     1 <1>   0.1430 
 41 H        4.5360    -3.6080     2.5570 H     1 <1>   0.1430 
 42 H        2.7670     5.1240    -1.4860 H     1 <1>   0.1430 
 43 H        7.4260    -3.3410    -1.4090 H     1 <1>   0.1430 
 44 H        6.6850    -4.7440     2.5390 H     1 <1>   0.1430 
 45 H        8.9350    -4.8730     1.5630 H     1 <1>   0.0720 
 46 H        9.2440    -4.2880    -0.0430 H     1 <1>   0.0720 
 47 H        7.7070    -6.8170     0.6250 H     1 <1>   0.0720 
 48 H        9.3460    -6.7540     0.0200 H     1 <1>   0.0720 
 49 H        8.0210    -6.2300    -0.9920 H     1 <1>   0.0720 
@<TRIPOS>BOND
  1   1   2  1   
  2   1   3  2   
  3   2   4  ar  
  4   2   5  1   
  5   3   6  1   
  6   3   7  1   
  7   4   6  ar  
  8   4   8  ar  
  9   5   9  1   
 10   5  10  1   
 11   5  26  1   
 12   6  27  1   
 13   7  28  1   
 14   7  29  1   
 15   8  11  1   
 16   8  30  1   
 17   9  12  ar  
 18   9  13  ar  
 19  10  11  1   
 20  10  31  1   
 21  10  32  1   
 22  11  14  1   
 23  11  33  1   
 24  12  15  ar  
 25  12  16  1   
 26  13  17  ar  
 27  13  34  1   
 28  14  18  ar  
 29  14  19  ar  
 30  15  20  ar  
 31  15  35  1   
 32  16  36  1   
 33  16  37  1   
 34  16  38  1   
 35  17  20  ar  
 36  17  39  1   
 37  18  21  ar  
 38  18  40  1   
 39  19  22  ar  
 40  19  41  1   
 41  20  42  1   
 42  21  23  ar  
 43  21  43  1   
 44  22  23  ar  
 45  22  44  1   
 46  23  24  1   
 47  24  25  1   
 48  24  45  1   
 49  24  46  1   
 50  25  47  1   
 51  25  48  1   
 52  25  49  1   
@<TRIPOS>SUBSTRUCTURE
  1 ****  10 GROUP 4 **** **** 0

# MOE 2024.06 (io_trps.svl 2023.06)
