@<TRIPOS>MOLECULE
Structure373
29 30 1 0 0 
SMALL
USER_CHARGES


@<TRIPOS>ATOM
  1 CL       0.4790    -0.1550     1.1150 Cl    1 <1>  -0.1770 
  2 C        1.2440    -1.5720     0.4620 C.ar  1 <1>   0.7970 
  3 N        2.5590    -1.5260     0.4110 N.ar  1 <1>  -0.6200 
  4 N        0.4190    -2.5370     0.0880 N.ar  1 <1>  -0.6200 
  5 C        3.1350    -2.6030    -0.0800 C.ar  1 <1>   0.4100 
  6 C        1.0200    -3.5980    -0.4090 C.ar  1 <1>   0.1600 
  7 N        4.5100    -2.6220    -0.1460 N.pl3 1 <1>  -0.8380 
  8 C        2.3810    -3.6780    -0.5150 C.ar  1 <1>  -0.1500 
  9 C        5.2740    -1.3340    -0.1790 C.3   1 <1>   0.2090 
 10 C        5.2760    -3.7390     0.4930 C.3   1 <1>   0.2090 
 11 C        6.6600    -1.5140    -0.8240 C.3   1 <1>   0.1400 
 12 C        6.6520    -3.9210    -0.1680 C.3   1 <1>   0.1400 
 13 N        7.4180    -2.6360    -0.1820 N.am  1 <1>  -0.6600 
 14 C        8.6430    -2.5330     0.4210 C.2   1 <1>   0.5690 
 15 O        9.1590    -3.4660     0.9860 O.2   1 <1>  -0.5700 
 16 C        9.4020    -1.2270     0.4030 C.3   1 <1>  -0.1790 
 17 H        0.4000    -4.4160    -0.7390 H     1 <1>   0.1500 
 18 H        2.8610    -4.5410    -0.9320 H     1 <1>   0.1500 
 19 H        5.3910    -0.9660     0.8260 H     1 <1>   0.0800 
 20 H        4.7200    -0.5990    -0.7380 H     1 <1>   0.0800 
 21 H        4.7250    -4.6590     0.4240 H     1 <1>   0.0800 
 22 H        5.4170    -3.5170     1.5370 H     1 <1>   0.0800 
 23 H        7.2000    -0.5890    -0.7520 H     1 <1>   0.0800 
 24 H        6.5280    -1.7370    -1.8680 H     1 <1>   0.0800 
 25 H        6.5150    -4.2600    -1.1800 H     1 <1>   0.0800 
 26 H        7.1970    -4.6830     0.3620 H     1 <1>   0.0800 
 27 H        8.8530    -0.4780     0.9410 H     1 <1>   0.0800 
 28 H        9.5620    -0.9110    -0.6100 H     1 <1>   0.0800 
 29 H       10.3580    -1.3590     0.8770 H     1 <1>   0.0800 
@<TRIPOS>BOND
  1   1   2  1   
  2   2   3  ar  
  3   2   4  ar  
  4   3   5  ar  
  5   4   6  ar  
  6   5   7  1   
  7   5   8  ar  
  8   6   8  ar  
  9   6  17  1   
 10   7   9  1   
 11   7  10  1   
 12   8  18  1   
 13   9  11  1   
 14   9  19  1   
 15   9  20  1   
 16  10  12  1   
 17  10  21  1   
 18  10  22  1   
 19  11  13  1   
 20  11  23  1   
 21  11  24  1   
 22  12  13  1   
 23  12  25  1   
 24  12  26  1   
 25  13  14  am  
 26  14  15  2   
 27  14  16  1   
 28  16  27  1   
 29  16  28  1   
 30  16  29  1   
@<TRIPOS>SUBSTRUCTURE
  1 ****   7 GROUP 4 **** **** 0

# MOE 2024.06 (io_trps.svl 2023.06)
