@<TRIPOS>MOLECULE
NONAME
45 46 1 0 0 
SMALL
USER_CHARGES


@<TRIPOS>ATOM
  1 O       -6.9440     3.1920    -0.9280 O.3   1 <1>  -0.3630 
  2 C       -6.9740     2.2960     0.0930 C.ar  1 <1>   0.0830 
  3 C       -5.7120     3.8420    -1.1690 C.3   1 <1>   0.2640 
  4 C       -6.3870     1.0390    -0.0670 C.ar  1 <1>   0.0820 
  5 C       -7.6240     2.6340     1.2780 C.ar  1 <1>  -0.1440 
  6 C       -5.8020     5.2080    -0.5100 C.ar  1 <1>  -0.1440 
  7 O       -5.7660     0.7700    -1.2500 O.3   1 <1>  -0.3630 
  8 C       -6.4590     0.1210     0.9750 C.ar  1 <1>  -0.1500 
  9 C       -7.6850     1.7020     2.3040 C.ar  1 <1>  -0.1500 
 10 C       -8.2410     4.0050     1.4820 C.3   1 <1>   0.4870 
 11 C       -5.2570     5.4180     0.7480 C.ar  1 <1>  -0.1500 
 12 C       -6.4460     6.2520    -1.1570 C.ar  1 <1>  -0.1500 
 13 C       -5.2300    -0.5060    -1.5290 C.3   1 <1>   0.0400 
 14 C       -7.1070     0.4540     2.1510 C.ar  1 <1>  -0.1500 
 15 N       -9.1370     4.2910     0.3490 N.4   1 <1>  -0.9060 
 16 C       -5.3710     6.6540     1.3600 C.ar  1 <1>  -0.1500 
 17 C       -6.5560     7.4900    -0.5480 C.ar  1 <1>  -0.1500 
 18 C       -9.5510     5.7050     0.2830 C.3   1 <1>   0.3430 
 19 C       -6.0230     7.6890     0.7140 C.ar  1 <1>  -0.1500 
 20 C      -10.2920     5.9410    -1.0300 C.3   1 <1>  -0.1600 
 21 C      -10.7080     7.4090    -1.1690 C.3   1 <1>  -0.2400 
 22 H       -5.5880     3.9340    -2.2340 H     1 <1>   0.0800 
 23 H       -4.9020     3.2550    -0.7700 H     1 <1>   0.0800 
 24 H       -6.0190    -0.8560     0.8940 H     1 <1>   0.1500 
 25 H       -8.1780     1.9310     3.2350 H     1 <1>   0.1500 
 26 H       -7.4580     4.7430     1.5260 H     1 <1>   0.0800 
 27 H       -8.7900     4.0320     2.4090 H     1 <1>   0.0800 
 28 H       -4.7380     4.6210     1.2550 H     1 <1>   0.1500 
 29 H       -6.8560     6.1090    -2.1430 H     1 <1>   0.1500 
 30 H       -4.8300    -0.4890    -2.5270 H     1 <1>   0.0800 
 31 H       -6.0150    -1.2380    -1.4640 H     1 <1>   0.0800 
 32 H       -4.4440    -0.7170    -0.8260 H     1 <1>   0.0800 
 33 H       -7.1590    -0.2640     2.9530 H     1 <1>   0.1500 
 34 H       -9.9300     3.6430     0.3520 H     1 <1>   0.4500 
 35 H       -8.5710     4.0540    -0.4840 H     1 <1>   0.4500 
 36 H       -4.9420     6.8150     2.3350 H     1 <1>   0.1500 
 37 H       -7.0450     8.3030    -1.0580 H     1 <1>   0.1500 
 38 H       -8.6820     6.3430     0.3250 H     1 <1>   0.0800 
 39 H      -10.1930     5.9460     1.1160 H     1 <1>   0.0800 
 40 H       -6.1020     8.6540     1.1870 H     1 <1>   0.1500 
 41 H      -11.1750     5.3260    -1.0690 H     1 <1>   0.0800 
 42 H       -9.6550     5.6850    -1.8590 H     1 <1>   0.0800 
 43 H      -11.3700     7.6990    -0.3700 H     1 <1>   0.0800 
 44 H      -11.2250     7.5580    -2.1020 H     1 <1>   0.0800 
 45 H       -9.8460     8.0550    -1.1570 H     1 <1>   0.0800 
@<TRIPOS>BOND
  1   1   2  1   
  2   1   3  1   
  3   2   4  ar  
  4   2   5  ar  
  5   3   6  1   
  6   3  22  1   
  7   3  23  1   
  8   4   7  1   
  9   4   8  ar  
 10   5   9  ar  
 11   5  10  1   
 12   6  11  ar  
 13   6  12  ar  
 14   7  13  1   
 15   8  14  ar  
 16   8  24  1   
 17   9  14  ar  
 18   9  25  1   
 19  10  15  1   
 20  10  26  1   
 21  10  27  1   
 22  11  16  ar  
 23  11  28  1   
 24  12  17  ar  
 25  12  29  1   
 26  13  30  1   
 27  13  31  1   
 28  13  32  1   
 29  14  33  1   
 30  15  18  1   
 31  15  34  1   
 32  15  35  1   
 33  16  19  ar  
 34  16  36  1   
 35  17  19  ar  
 36  17  37  1   
 37  18  20  1   
 38  18  38  1   
 39  18  39  1   
 40  19  40  1   
 41  20  21  1   
 42  20  41  1   
 43  20  42  1   
 44  21  43  1   
 45  21  44  1   
 46  21  45  1   
@<TRIPOS>SUBSTRUCTURE
  1 ****   1 GROUP 4 **** **** 0

# MOE 2024.06 (io_trps.svl 2023.06)
