@<TRIPOS>MOLECULE
NONAME
46 47 1 0 0 
SMALL
USER_CHARGES


@<TRIPOS>ATOM
  1 F       -1.0470    -0.4150     0.3230 F     1 <1>  -0.3400 
  2 C       -1.5690     0.8100     0.3670 C.3   1 <1>   0.6800 
  3 F       -1.1510     1.3730    -0.7680 F     1 <1>  -0.3400 
  4 C       -0.9830     1.5800     1.5700 C.3   1 <1>   0.6000 
  5 C       -3.1080     0.7190     0.3540 C.3   1 <1>   0.1200 
  6 F       -1.3890     1.0540     2.7250 F     1 <1>  -0.3400 
  7 F       -1.4390     2.8320     1.6050 F     1 <1>  -0.3400 
  8 O       -3.6150     0.0080    -0.7720 O.3   1 <1>  -0.4300 
  9 C       -4.3020     0.5580    -1.7780 C.2   1 <1>   0.6340 
 10 O       -4.9870    -0.1800    -2.4450 O.2   1 <1>  -0.5700 
 11 C       -4.2090     1.9710    -2.0690 C.ar  1 <1>   0.0860 
 12 C       -5.1830     2.8780    -1.6200 C.ar  1 <1>   0.0860 
 13 C       -3.1560     2.4450    -2.8490 C.ar  1 <1>  -0.1500 
 14 C       -6.2670     2.4540    -0.7680 C.2   1 <1>   0.6340 
 15 C       -5.0750     4.2180    -1.9960 C.ar  1 <1>  -0.1500 
 16 C       -3.0570     3.7770    -3.1970 C.ar  1 <1>  -0.1500 
 17 O       -6.0930     1.7790     0.2240 O.2   1 <1>  -0.5700 
 18 O       -7.4940     2.8660    -1.0850 O.3   1 <1>  -0.4300 
 19 C       -4.0250     4.6680    -2.7720 C.ar  1 <1>  -0.1500 
 20 C       -8.6340     2.5160    -0.3320 C.3   1 <1>   0.2000 
 21 C       -9.8480     2.5910    -1.2640 C.3   1 <1>  -0.1600 
 22 C       -8.7730     3.4900     0.8460 C.3   1 <1>  -0.1600 
 23 C      -11.1540     2.3440    -0.4940 C.3   1 <1>  -0.1600 
 24 C      -10.0810     3.2450     1.6140 C.3   1 <1>  -0.1600 
 25 C      -11.3020     3.3210     0.6840 C.3   1 <1>  -0.0800 
 26 C      -12.5880     3.0260     1.4650 C.3   1 <1>  -0.2400 
 27 H        0.0910     1.6100     1.5710 H     1 <1>   0.0800 
 28 H       -3.5330     1.7040     0.3920 H     1 <1>   0.0800 
 29 H       -3.4380     0.1960     1.2330 H     1 <1>   0.0800 
 30 H       -2.4070     1.7510    -3.1950 H     1 <1>   0.1500 
 31 H       -5.8260     4.9170    -1.6680 H     1 <1>   0.1500 
 32 H       -2.2340     4.1220    -3.8010 H     1 <1>   0.1500 
 33 H       -3.9580     5.7080    -3.0470 H     1 <1>   0.1500 
 34 H       -8.5210     1.5060     0.0260 H     1 <1>   0.0800 
 35 H       -9.7460     1.8520    -2.0390 H     1 <1>   0.0800 
 36 H       -9.8870     3.5640    -1.7200 H     1 <1>   0.0800 
 37 H       -8.7680     4.5000     0.4760 H     1 <1>   0.0800 
 38 H       -7.9430     3.3640     1.5180 H     1 <1>   0.0800 
 39 H      -11.1600     1.3320    -0.1250 H     1 <1>   0.0800 
 40 H      -11.9880     2.4560    -1.1650 H     1 <1>   0.0800 
 41 H      -10.1740     3.9770     2.3980 H     1 <1>   0.0800 
 42 H      -10.0400     2.2720     2.0760 H     1 <1>   0.0800 
 43 H      -11.3690     4.3220     0.2910 H     1 <1>   0.0800 
 44 H      -13.4440     3.1090     0.8180 H     1 <1>   0.0800 
 45 H      -12.7040     3.7290     2.2700 H     1 <1>   0.0800 
 46 H      -12.5630     2.0330     1.8760 H     1 <1>   0.0800 
@<TRIPOS>BOND
  1   1   2  1   
  2   2   3  1   
  3   2   4  1   
  4   2   5  1   
  5   4   6  1   
  6   4   7  1   
  7   4  27  1   
  8   5   8  1   
  9   5  28  1   
 10   5  29  1   
 11   8   9  1   
 12   9  10  2   
 13   9  11  1   
 14  11  12  ar  
 15  11  13  ar  
 16  12  14  1   
 17  12  15  ar  
 18  13  16  ar  
 19  13  30  1   
 20  14  17  2   
 21  14  18  1   
 22  15  19  ar  
 23  15  31  1   
 24  16  19  ar  
 25  16  32  1   
 26  18  20  1   
 27  19  33  1   
 28  20  21  1   
 29  20  22  1   
 30  20  34  1   
 31  21  23  1   
 32  21  35  1   
 33  21  36  1   
 34  22  24  1   
 35  22  37  1   
 36  22  38  1   
 37  23  25  1   
 38  23  39  1   
 39  23  40  1   
 40  24  25  1   
 41  24  41  1   
 42  24  42  1   
 43  25  26  1   
 44  25  43  1   
 45  26  44  1   
 46  26  45  1   
 47  26  46  1   
@<TRIPOS>SUBSTRUCTURE
  1 ****  14 GROUP 4 **** **** 0

# MOE 2024.06 (io_trps.svl 2023.06)
