@<TRIPOS>MOLECULE
NONAME
39 41 1 0 0 
SMALL
USER_CHARGES


@<TRIPOS>ATOM
  1 S       -0.2000     0.1250    -0.9090 S.3   1 <1>  -0.0800 
  2 C        0.6990    -1.2780    -0.3340 C.2   1 <1>   0.3250 
  3 C       -1.6850    -0.7560    -0.7560 C.2   1 <1>  -0.1100 
  4 N       -0.0770    -2.2740    -0.0690 N.2   1 <1>  -0.5650 
  5 C        2.1420    -1.2050    -0.2150 C.ar  1 <1>   0.0530 
  6 C       -1.4100    -1.9880    -0.3020 C.2   1 <1>   0.0460 
  7 C        2.8640    -2.3300     0.1890 C.ar  1 <1>  -0.1500 
  8 C        2.8780    -0.0480    -0.4870 C.ar  1 <1>  -0.1500 
  9 C       -2.4170    -3.0960    -0.0210 C.3   1 <1>   0.3210 
 10 C        4.2420    -2.3150     0.3190 C.ar  1 <1>  -0.1440 
 11 C        4.2540    -0.0200    -0.3600 C.ar  1 <1>  -0.1500 
 12 N       -3.8010    -2.5710    -0.0060 N.am  1 <1>  -0.7300 
 13 C        4.9380    -1.1520     0.0420 C.ar  1 <1>  -0.1500 
 14 C        4.9940    -3.5580     0.7620 C.3   1 <1>  -0.0970 
 15 C       -4.8210    -2.9880    -0.7960 C.2   1 <1>   0.5690 
 16 O       -4.6960    -3.9180    -1.5580 O.2   1 <1>  -0.5700 
 17 C       -6.1670    -2.2510    -0.7130 C.3   1 <1>   0.2610 
 18 O       -6.0750    -1.0540     0.0180 O.3   1 <1>  -0.5600 
 19 C       -7.2580    -3.0350     0.0080 C.3   1 <1>  -0.1600 
 20 C       -7.3400    -0.6660     0.4480 C.3   1 <1>   0.1200 
 21 C       -8.1600    -1.9490     0.5770 C.3   1 <1>  -0.1600 
 22 H       -2.6010    -0.2620    -1.0240 H     1 <1>   0.1500 
 23 H        2.3230    -3.2350     0.4060 H     1 <1>   0.1500 
 24 H        2.3810     0.8510    -0.8010 H     1 <1>   0.1500 
 25 H       -2.2020    -3.5310     0.9390 H     1 <1>   0.0800 
 26 H       -2.3160    -3.8650    -0.7680 H     1 <1>   0.0800 
 27 H        4.7970     0.8840    -0.5750 H     1 <1>   0.1500 
 28 H       -3.9760    -1.7540     0.5860 H     1 <1>   0.3700 
 29 H        6.0090    -1.1240     0.1400 H     1 <1>   0.1500 
 30 H        4.3560    -4.4230     0.7310 H     1 <1>   0.0800 
 31 H        5.3510    -3.4270     1.7670 H     1 <1>   0.0800 
 32 H        5.8340    -3.7320     0.1130 H     1 <1>   0.0800 
 33 H       -6.4900    -1.9960    -1.7070 H     1 <1>   0.0800 
 34 H       -6.8180    -3.6110     0.8050 H     1 <1>   0.0800 
 35 H       -7.7730    -3.6990    -0.6630 H     1 <1>   0.0800 
 36 H       -7.7590    -0.0090    -0.2940 H     1 <1>   0.0800 
 37 H       -7.2420    -0.1480     1.3870 H     1 <1>   0.0800 
 38 H       -8.4080    -2.1450     1.6050 H     1 <1>   0.0800 
 39 H       -9.0700    -1.8590     0.0100 H     1 <1>   0.0800 
@<TRIPOS>BOND
  1   1   2  1   
  2   1   3  1   
  3   2   4  2   
  4   2   5  1   
  5   3   6  2   
  6   3  22  1   
  7   4   6  1   
  8   5   7  ar  
  9   5   8  ar  
 10   6   9  1   
 11   7  10  ar  
 12   7  23  1   
 13   8  11  ar  
 14   8  24  1   
 15   9  12  1   
 16   9  25  1   
 17   9  26  1   
 18  10  13  ar  
 19  10  14  1   
 20  11  13  ar  
 21  11  27  1   
 22  12  15  am  
 23  12  28  1   
 24  13  29  1   
 25  14  30  1   
 26  14  31  1   
 27  14  32  1   
 28  15  16  2   
 29  15  17  1   
 30  17  18  1   
 31  17  19  1   
 32  17  33  1   
 33  18  20  1   
 34  19  21  1   
 35  19  34  1   
 36  19  35  1   
 37  20  21  1   
 38  20  36  1   
 39  20  37  1   
 40  21  38  1   
 41  21  39  1   
@<TRIPOS>SUBSTRUCTURE
  1 ****   6 GROUP 4 **** **** 0

# MOE 2024.06 (io_trps.svl 2023.06)
