@<TRIPOS>MOLECULE
Structure2544
26 27 1 0 0 
SMALL
USER_CHARGES


@<TRIPOS>ATOM
  1 BR       0.3920    -1.9870     1.1860 Br    1 <1>  -0.1110 
  2 C       -1.4690    -1.6820     0.7950 C.ar  1 <1>   0.1110 
  3 C       -2.1300    -0.6650     1.4570 C.ar  1 <1>  -0.1500 
  4 C       -2.0940    -2.4870    -0.1370 C.ar  1 <1>  -0.1500 
  5 C       -3.4680    -0.4530     1.1700 C.ar  1 <1>  -0.1500 
  6 C       -3.4320    -2.2680    -0.4180 C.ar  1 <1>  -0.1500 
  7 C       -4.1250    -1.2480     0.2380 C.ar  1 <1>   0.0830 
  8 O       -5.4370    -0.9660     0.0270 O.3   1 <1>  -0.3630 
  9 C       -6.2350    -1.6930    -0.8850 C.3   1 <1>   0.2000 
 10 C       -7.5270    -0.9060    -1.0660 C.3   1 <1>   0.3430 
 11 C       -6.7230    -2.9640    -0.1990 C.3   1 <1>  -0.1600 
 12 N       -8.3160    -1.1840     0.1710 N.4   1 <1>  -0.9060 
 13 C       -7.8680    -2.5050     0.7030 C.3   1 <1>   0.3430 
 14 H       -1.6090    -0.0580     2.1750 H     1 <1>   0.1500 
 15 H       -1.5400    -3.2670    -0.6300 H     1 <1>   0.1500 
 16 H       -4.0030     0.3340     1.6700 H     1 <1>   0.1500 
 17 H       -3.9040    -2.9010    -1.1440 H     1 <1>   0.1500 
 18 H       -5.7030    -1.8360    -1.8100 H     1 <1>   0.0800 
 19 H       -8.0540    -1.2850    -1.9270 H     1 <1>   0.0800 
 20 H       -7.3310     0.1460    -1.1990 H     1 <1>   0.0800 
 21 H       -5.9500    -3.4630     0.3590 H     1 <1>   0.0800 
 22 H       -7.1080    -3.6490    -0.9330 H     1 <1>   0.0800 
 23 H       -9.3300    -1.1460     0.0080 H     1 <1>   0.4500 
 24 H       -8.0740    -0.4640     0.8660 H     1 <1>   0.4500 
 25 H       -7.5110    -2.3880     1.7140 H     1 <1>   0.0800 
 26 H       -8.6720    -3.2250     0.6940 H     1 <1>   0.0800 
@<TRIPOS>BOND
  1   1   2  1   
  2   2   3  ar  
  3   2   4  ar  
  4   3   5  ar  
  5   3  14  1   
  6   4   6  ar  
  7   4  15  1   
  8   5   7  ar  
  9   5  16  1   
 10   6   7  ar  
 11   6  17  1   
 12   7   8  1   
 13   8   9  1   
 14   9  10  1   
 15   9  11  1   
 16   9  18  1   
 17  10  12  1   
 18  10  19  1   
 19  10  20  1   
 20  11  13  1   
 21  11  21  1   
 22  11  22  1   
 23  12  13  1   
 24  12  23  1   
 25  12  24  1   
 26  13  25  1   
 27  13  26  1   
@<TRIPOS>SUBSTRUCTURE
  1 ****   7 GROUP 4 **** **** 0

# MOE 2024.06 (io_trps.svl 2023.06)
