@<TRIPOS>MOLECULE
NONAME
39 39 1 0 0 
SMALL
USER_CHARGES


@<TRIPOS>ATOM
  1 O       -1.1800    -0.2020     2.4870 O.2   1 <1>  -0.5700 
  2 C       -0.3460    -0.4300     1.6460 C.2   1 <1>   0.5690 
  3 N       -0.6400    -0.6610     0.3410 N.am  1 <1>  -0.7300 
  4 C        1.1110    -0.4650     2.0810 C.3   1 <1>   0.0440 
  5 C       -1.9070    -0.6630    -0.3960 C.3   1 <1>   0.5000 
  6 C        2.0670    -0.8110     0.9420 C.ar  1 <1>  -0.1440 
  7 C       -1.4850    -0.4540    -1.8150 C.1   1 <1>  -0.2000 
  8 C       -2.5620    -2.0600    -0.2980 C.3   1 <1>  -0.1600 
  9 C       -2.8210     0.5070     0.0430 C.3   1 <1>  -0.1600 
 10 C        2.3450    -2.1360     0.6430 C.ar  1 <1>  -0.1500 
 11 C        2.6440     0.1940     0.1820 C.ar  1 <1>  -0.1500 
 12 C       -1.1340    -0.2910    -2.9400 C.1   1 <1>  -0.1770 
 13 C       -3.0500    -2.4970     1.0960 C.3   1 <1>  -0.2400 
 14 C       -4.1160     0.6870    -0.7750 C.3   1 <1>  -0.2400 
 15 C        3.1900    -2.4620    -0.4050 C.ar  1 <1>  -0.1430 
 16 C        3.4890    -0.1250    -0.8660 C.ar  1 <1>  -0.1500 
 17 C        3.7590    -1.4490    -1.1600 C.ar  1 <1>  -0.1500 
 18 C        3.4830    -3.9160    -0.7260 C.3   1 <1>  -0.0970 
 19 H        0.1510    -0.8460    -0.2810 H     1 <1>   0.3700 
 20 H        1.2100    -1.1880     2.8690 H     1 <1>   0.0800 
 21 H        1.3630     0.4950     2.4900 H     1 <1>   0.0800 
 22 H       -1.8590    -2.7910    -0.6560 H     1 <1>   0.0800 
 23 H       -3.4020    -2.0890    -0.9690 H     1 <1>   0.0800 
 24 H       -2.2540     1.4190    -0.0190 H     1 <1>   0.0800 
 25 H       -3.1060     0.3760     1.0690 H     1 <1>   0.0800 
 26 H        1.8970    -2.9220     1.2260 H     1 <1>   0.1500 
 27 H        2.4380     1.2280     0.3990 H     1 <1>   0.1500 
 28 H       -0.8150    -0.1430    -3.9570 H     1 <1>   0.1770 
 29 H       -2.2270    -2.5570     1.7850 H     1 <1>   0.0800 
 30 H       -3.5080    -3.4680     1.0350 H     1 <1>   0.0800 
 31 H       -3.7750    -1.8060     1.4860 H     1 <1>   0.0800 
 32 H       -3.8970     0.8600    -1.8130 H     1 <1>   0.0800 
 33 H       -4.6620     1.5350    -0.4010 H     1 <1>   0.0800 
 34 H       -4.7460    -0.1800    -0.6900 H     1 <1>   0.0800 
 35 H        3.9350     0.6580    -1.4550 H     1 <1>   0.1500 
 36 H        4.4160    -1.6880    -1.9780 H     1 <1>   0.1500 
 37 H        2.7270    -4.3030    -1.3850 H     1 <1>   0.0800 
 38 H        3.4940    -4.5030     0.1740 H     1 <1>   0.0800 
 39 H        4.4420    -4.0110    -1.2040 H     1 <1>   0.0800 
@<TRIPOS>BOND
  1   1   2  2   
  2   2   3  am  
  3   2   4  1   
  4   3   5  1   
  5   3  19  1   
  6   4   6  1   
  7   4  20  1   
  8   4  21  1   
  9   5   7  1   
 10   5   8  1   
 11   5   9  1   
 12   6  10  ar  
 13   6  11  ar  
 14   7  12  3   
 15   8  13  1   
 16   8  22  1   
 17   8  23  1   
 18   9  14  1   
 19   9  24  1   
 20   9  25  1   
 21  10  15  ar  
 22  10  26  1   
 23  11  16  ar  
 24  11  27  1   
 25  12  28  1   
 26  13  29  1   
 27  13  30  1   
 28  13  31  1   
 29  14  32  1   
 30  14  33  1   
 31  14  34  1   
 32  15  17  ar  
 33  15  18  1   
 34  16  17  ar  
 35  16  35  1   
 36  17  36  1   
 37  18  37  1   
 38  18  38  1   
 39  18  39  1   
@<TRIPOS>SUBSTRUCTURE
  1 ****   3 GROUP 4 **** **** 0

# MOE 2024.06 (io_trps.svl 2023.06)
