@<TRIPOS>MOLECULE
NONAME
48 50 1 0 0 
SMALL
USER_CHARGES


@<TRIPOS>ATOM
  1 CL       0.1960    -0.9520    -2.0060 Cl    1 <1>  -0.1770 
  2 C        1.7240    -1.5140    -1.3710 C.ar  1 <1>   0.1770 
  3 C        2.5540    -2.2740    -2.1750 C.ar  1 <1>  -0.1500 
  4 C        2.0800    -1.1920    -0.0750 C.ar  1 <1>  -0.1500 
  5 C        3.7630    -2.7180    -1.6690 C.ar  1 <1>  -0.1500 
  6 C        3.2910    -1.6400     0.4230 C.ar  1 <1>  -0.1500 
  7 C        4.1430    -2.4050    -0.3660 C.ar  1 <1>   0.1000 
  8 N        5.3520    -2.8420     0.1620 N.pl3 1 <1>  -0.8380 
  9 C        6.5870    -2.2570    -0.4370 C.3   1 <1>   0.2090 
 10 C        5.4450    -4.2960     0.4810 C.3   1 <1>   0.2090 
 11 C        7.8190    -2.5650     0.4410 C.3   1 <1>   0.3430 
 12 C        6.6830    -4.5860     1.3560 C.3   1 <1>   0.3430 
 13 N        7.9570    -4.0390     0.7590 N.4   1 <1>  -0.9590 
 14 C        9.1350    -4.3030     1.6280 C.3   1 <1>   0.4860 
 15 C       10.3840    -3.9200     0.8600 C.ar  1 <1>  -0.1430 
 16 C       10.9910    -2.6970     1.1000 C.ar  1 <1>  -0.1500 
 17 C       10.9200    -4.7730    -0.0950 C.ar  1 <1>  -0.1500 
 18 C       12.1070    -2.3080     0.3810 C.ar  1 <1>   0.0830 
 19 C       12.0470    -4.3920    -0.8170 C.ar  1 <1>   0.0830 
 20 O       12.6160    -1.0870     0.6730 O.3   1 <1>  -0.3630 
 21 C       12.6330    -3.1600    -0.5820 C.ar  1 <1>  -0.1500 
 22 O       12.6270    -5.1660    -1.7670 O.3   1 <1>  -0.3630 
 23 C       13.8010    -0.6260     0.0590 C.3   1 <1>   0.0400 
 24 C       12.3030    -6.5300    -1.9200 C.3   1 <1>   0.0400 
 25 H        2.2510    -2.5090    -3.1800 H     1 <1>   0.1500 
 26 H        1.4170    -0.6000     0.5300 H     1 <1>   0.1500 
 27 H        4.4130    -3.3080    -2.2870 H     1 <1>   0.1500 
 28 H        3.5840    -1.3990     1.4280 H     1 <1>   0.1500 
 29 H        6.4680    -1.1900    -0.5220 H     1 <1>   0.0800 
 30 H        6.7360    -2.6530    -1.4270 H     1 <1>   0.0800 
 31 H        5.4970    -4.8650    -0.4310 H     1 <1>   0.0800 
 32 H        4.5560    -4.5990     1.0090 H     1 <1>   0.0800 
 33 H        7.7210    -2.0060     1.3570 H     1 <1>   0.0800 
 34 H        8.7020    -2.2130    -0.0670 H     1 <1>   0.0800 
 35 H        6.7690    -5.6500     1.4980 H     1 <1>   0.0800 
 36 H        6.5170    -4.1350     2.3210 H     1 <1>   0.0800 
 37 H        8.1330    -4.5140    -0.1340 H     1 <1>   0.4500 
 38 H        9.1830    -5.3480     1.8870 H     1 <1>   0.0800 
 39 H        9.0690    -3.7260     2.5360 H     1 <1>   0.0800 
 40 H       10.6140    -2.0180     1.8460 H     1 <1>   0.1500 
 41 H       10.4650    -5.7280    -0.2790 H     1 <1>   0.1500 
 42 H       13.4970    -2.8950    -1.1610 H     1 <1>   0.1500 
 43 H       14.0330     0.3420     0.4640 H     1 <1>   0.0800 
 44 H       13.6390    -0.5490    -1.0020 H     1 <1>   0.0800 
 45 H       14.5990    -1.3130     0.2770 H     1 <1>   0.0800 
 46 H       12.9680    -6.9490    -2.6540 H     1 <1>   0.0800 
 47 H       11.2870    -6.6140    -2.2620 H     1 <1>   0.0800 
 48 H       12.4410    -7.0310    -0.9780 H     1 <1>   0.0800 
@<TRIPOS>BOND
  1   1   2  1   
  2   2   3  ar  
  3   2   4  ar  
  4   3   5  ar  
  5   3  25  1   
  6   4   6  ar  
  7   4  26  1   
  8   5   7  ar  
  9   5  27  1   
 10   6   7  ar  
 11   6  28  1   
 12   7   8  1   
 13   8   9  1   
 14   8  10  1   
 15   9  11  1   
 16   9  29  1   
 17   9  30  1   
 18  10  12  1   
 19  10  31  1   
 20  10  32  1   
 21  11  13  1   
 22  11  33  1   
 23  11  34  1   
 24  12  13  1   
 25  12  35  1   
 26  12  36  1   
 27  13  14  1   
 28  13  37  1   
 29  14  15  1   
 30  14  38  1   
 31  14  39  1   
 32  15  16  ar  
 33  15  17  ar  
 34  16  18  ar  
 35  16  40  1   
 36  17  19  ar  
 37  17  41  1   
 38  18  20  1   
 39  18  21  ar  
 40  19  21  ar  
 41  19  22  1   
 42  20  23  1   
 43  21  42  1   
 44  22  24  1   
 45  23  43  1   
 46  23  44  1   
 47  23  45  1   
 48  24  46  1   
 49  24  47  1   
 50  24  48  1   
@<TRIPOS>SUBSTRUCTURE
  1 ****  11 GROUP 4 **** **** 0

# MOE 2024.06 (io_trps.svl 2023.06)
