@<TRIPOS>MOLECULE
NONAME
43 44 1 0 0 
SMALL
USER_CHARGES


@<TRIPOS>ATOM
  1 O       -0.9590     0.6050    -2.1220 O.2   1 <1>  -0.5700 
  2 C       -1.7690     1.0560    -1.3260 C.2   1 <1>   0.7060 
  3 O       -2.9380     0.4130    -1.2450 O.3   1 <1>  -0.2320 
  4 C       -1.5770     2.2500    -0.5530 C.2   1 <1>   0.1230 
  5 C       -3.9680     0.8580    -0.4990 C.ar  1 <1>   0.0830 
  6 N       -0.3310     2.9380    -0.5990 N.am  1 <1>  -0.5390 
  7 C       -2.6020     2.7570     0.2040 C.2   1 <1>   0.0720 
  8 C       -3.8450     2.0310     0.2580 C.ar  1 <1>   0.0280 
  9 C       -5.1420     0.1200    -0.4990 C.ar  1 <1>  -0.1500 
 10 C        0.8550     2.4460    -0.1700 C.2   1 <1>   0.6900 
 11 N       -2.4560     3.9430     0.9280 N.pl3 1 <1>  -0.8690 
 12 C       -4.9430     2.4060     1.0390 C.ar  1 <1>  -0.1500 
 13 C       -6.2170     0.5260     0.2670 C.ar  1 <1>  -0.1500 
 14 O        0.9100     1.4140     0.4680 O.2   1 <1>  -0.5700 
 15 N        1.9710     3.1620    -0.4440 N.am  1 <1>  -0.7300 
 16 C       -3.1750     5.1710     0.5270 C.3   1 <1>   0.2090 
 17 C       -6.1120     1.6710     1.0410 C.ar  1 <1>  -0.1500 
 18 C        3.3280     2.7470    -0.0370 C.3   1 <1>   0.1400 
 19 C       -2.2190     6.0780    -0.2460 C.3   1 <1>  -0.1600 
 20 C        4.1950     3.9910     0.1580 C.3   1 <1>  -0.1600 
 21 C       -2.9020     7.3860    -0.6620 C.3   1 <1>  -0.2400 
 22 C        5.6170     3.6150     0.5870 C.3   1 <1>  -0.2400 
 23 H       -0.3830     3.9470    -0.6770 H     1 <1>   0.3700 
 24 H       -5.2050    -0.7710    -1.0970 H     1 <1>   0.1500 
 25 H       -1.5200     4.1240     1.3110 H     1 <1>   0.4000 
 26 H       -4.8720     3.2800     1.6590 H     1 <1>   0.1500 
 27 H       -7.1300    -0.0450     0.2680 H     1 <1>   0.1500 
 28 H        1.9360     3.8010    -1.2360 H     1 <1>   0.3700 
 29 H       -3.5350     5.6740     1.4100 H     1 <1>   0.0800 
 30 H       -4.0210     4.9160    -0.0900 H     1 <1>   0.0800 
 31 H       -6.9450     1.9830     1.6470 H     1 <1>   0.1500 
 32 H        3.7480     2.1120    -0.8000 H     1 <1>   0.0800 
 33 H        3.2760     2.1850     0.8820 H     1 <1>   0.0800 
 34 H       -1.8840     5.5660    -1.1310 H     1 <1>   0.0800 
 35 H       -1.3670     6.3100     0.3700 H     1 <1>   0.0800 
 36 H        3.7530     4.6140     0.9160 H     1 <1>   0.0800 
 37 H        4.2420     4.5450    -0.7630 H     1 <1>   0.0800 
 38 H       -3.7510     7.1840    -1.2940 H     1 <1>   0.0800 
 39 H       -2.2120     8.0060    -1.2080 H     1 <1>   0.0800 
 40 H       -3.2370     7.9300     0.2040 H     1 <1>   0.0800 
 41 H        5.5980     3.0740     1.5170 H     1 <1>   0.0800 
 42 H        6.2080     4.5040     0.7220 H     1 <1>   0.0800 
 43 H        6.0880     3.0020    -0.1610 H     1 <1>   0.0800 
@<TRIPOS>BOND
  1   1   2  2   
  2   2   3  1   
  3   2   4  1   
  4   3   5  1   
  5   4   6  1   
  6   4   7  2   
  7   5   8  ar  
  8   5   9  ar  
  9   6  10  am  
 10   6  23  1   
 11   7   8  1   
 12   7  11  1   
 13   8  12  ar  
 14   9  13  ar  
 15   9  24  1   
 16  10  14  2   
 17  10  15  am  
 18  11  16  1   
 19  11  25  1   
 20  12  17  ar  
 21  12  26  1   
 22  13  17  ar  
 23  13  27  1   
 24  15  18  1   
 25  15  28  1   
 26  16  19  1   
 27  16  29  1   
 28  16  30  1   
 29  17  31  1   
 30  18  20  1   
 31  18  32  1   
 32  18  33  1   
 33  19  21  1   
 34  19  34  1   
 35  19  35  1   
 36  20  22  1   
 37  20  36  1   
 38  20  37  1   
 39  21  38  1   
 40  21  39  1   
 41  21  40  1   
 42  22  41  1   
 43  22  42  1   
 44  22  43  1   
@<TRIPOS>SUBSTRUCTURE
  1 ****   4 GROUP 4 **** **** 0

# MOE 2024.06 (io_trps.svl 2023.06)
