@<TRIPOS>MOLECULE
NONAME
45 47 1 0 0 
SMALL
USER_CHARGES


@<TRIPOS>ATOM
  1 O       -0.2970     0.4660     0.3900 O.2   1 <1>  -0.5700 
  2 C       -0.4790     1.5720    -0.0760 C.2   1 <1>   0.5440 
  3 N        0.4860     2.1270    -0.8690 N.am  1 <1>  -0.7300 
  4 C       -1.7070     2.2910     0.2150 C.ar  1 <1>   0.0860 
  5 C        1.7740     1.4930    -1.2160 C.3   1 <1>   0.1400 
  6 C       -2.3450     2.1390     1.4450 C.ar  1 <1>  -0.1500 
  7 C       -2.3040     3.1480    -0.7110 C.ar  1 <1>  -0.1500 
  8 C        2.8860     2.5170    -1.0230 C.3   1 <1>  -0.2400 
  9 C       -3.5220     2.8010     1.7400 C.ar  1 <1>  -0.1500 
 10 C       -3.4830     3.8140    -0.4250 C.ar  1 <1>  -0.1500 
 11 C       -4.1060     3.6370     0.8020 C.ar  1 <1>  -0.1430 
 12 C       -5.4170     4.3340     1.1120 C.3   1 <1>   0.4860 
 13 N       -6.5040     3.6510     0.3640 N.4   1 <1>  -0.9590 
 14 C       -7.7980     4.3760     0.4700 C.3   1 <1>   0.4860 
 15 C       -6.6780     2.2200     0.7590 C.3   1 <1>   0.3430 
 16 C       -8.8560     3.6780    -0.3690 C.ar  1 <1>  -0.1430 
 17 C       -7.5530     1.4980    -0.2680 C.3   1 <1>  -0.0170 
 18 C       -8.7510     2.3310    -0.7040 C.ar  1 <1>  -0.1430 
 19 C       -9.9560     4.4050    -0.7990 C.ar  1 <1>  -0.1500 
 20 C       -9.7440     1.7310    -1.4610 C.ar  1 <1>  -0.1500 
 21 C      -10.9440     3.8010    -1.5540 C.ar  1 <1>  -0.1500 
 22 C      -10.8380     2.4630    -1.8850 C.ar  1 <1>  -0.1500 
 23 H        0.3850     3.0910    -1.1830 H     1 <1>   0.3700 
 24 H        1.7440     1.1620    -2.2400 H     1 <1>   0.0800 
 25 H        1.9490     0.6360    -0.5850 H     1 <1>   0.0800 
 26 H       -1.8990     1.4830     2.1760 H     1 <1>   0.1500 
 27 H       -1.8410     3.2850    -1.6730 H     1 <1>   0.1500 
 28 H        2.7400     3.3620    -1.6700 H     1 <1>   0.0800 
 29 H        3.8320     2.0660    -1.2600 H     1 <1>   0.0800 
 30 H        2.9140     2.8440     0.0020 H     1 <1>   0.0800 
 31 H       -3.9700     2.6500     2.7090 H     1 <1>   0.1500 
 32 H       -3.9030     4.4670    -1.1720 H     1 <1>   0.1500 
 33 H       -5.3500     5.3680     0.8120 H     1 <1>   0.0800 
 34 H       -5.6110     4.2970     2.1720 H     1 <1>   0.0800 
 35 H       -6.2490     3.6480    -0.6310 H     1 <1>   0.4500 
 36 H       -7.6840     5.3890     0.1210 H     1 <1>   0.0800 
 37 H       -8.1250     4.4020     1.4960 H     1 <1>   0.0800 
 38 H       -7.1470     2.1660     1.7280 H     1 <1>   0.0800 
 39 H       -5.7230     1.7220     0.8140 H     1 <1>   0.0800 
 40 H       -7.8910     0.5680     0.1550 H     1 <1>   0.0800 
 41 H       -6.9590     1.2610    -1.1330 H     1 <1>   0.0800 
 42 H      -10.0630     5.4490    -0.5520 H     1 <1>   0.1500 
 43 H       -9.6760     0.6900    -1.7300 H     1 <1>   0.1500 
 44 H      -11.7970     4.3680    -1.8860 H     1 <1>   0.1500 
 45 H      -11.6070     1.9920    -2.4730 H     1 <1>   0.1500 
@<TRIPOS>BOND
  1   1   2  2   
  2   2   3  am  
  3   2   4  1   
  4   3   5  1   
  5   3  23  1   
  6   4   6  ar  
  7   4   7  ar  
  8   5   8  1   
  9   5  24  1   
 10   5  25  1   
 11   6   9  ar  
 12   6  26  1   
 13   7  10  ar  
 14   7  27  1   
 15   8  28  1   
 16   8  29  1   
 17   8  30  1   
 18   9  11  ar  
 19   9  31  1   
 20  10  11  ar  
 21  10  32  1   
 22  11  12  1   
 23  12  13  1   
 24  12  33  1   
 25  12  34  1   
 26  13  14  1   
 27  13  15  1   
 28  13  35  1   
 29  14  16  1   
 30  14  36  1   
 31  14  37  1   
 32  15  17  1   
 33  15  38  1   
 34  15  39  1   
 35  16  18  ar  
 36  16  19  ar  
 37  17  18  1   
 38  17  40  1   
 39  17  41  1   
 40  18  20  ar  
 41  19  21  ar  
 42  19  42  1   
 43  20  22  ar  
 44  20  43  1   
 45  21  22  ar  
 46  21  44  1   
 47  22  45  1   
@<TRIPOS>SUBSTRUCTURE
  1 ****  11 GROUP 4 **** **** 0

# MOE 2024.06 (io_trps.svl 2023.06)
