@<TRIPOS>MOLECULE
NONAME
33 34 1 0 0 
SMALL
USER_CHARGES


@<TRIPOS>ATOM
  1 O       -0.7620     0.0830     1.2530 O.2   1 <1>  -0.5700 
  2 C       -1.6640     0.7970     0.8580 C.2   1 <1>   0.7060 
  3 O       -2.8620     0.2340     0.7190 O.3   1 <1>  -0.2330 
  4 C       -1.5130     2.1920     0.5340 C.2   1 <1>  -0.1240 
  5 C       -3.9610     0.8990     0.3010 C.ar  1 <1>   0.0820 
  6 C       -2.5790     2.9100     0.0840 C.2   1 <1>  -0.1670 
  7 C       -0.1080     2.7760     0.7280 C.3   1 <1>  -0.0220 
  8 C       -3.8630     2.2620    -0.0200 C.ar  1 <1>   0.0280 
  9 C       -5.1650     0.2020     0.2130 C.ar  1 <1>  -0.1440 
 10 C       -2.4990     4.3800    -0.3370 C.3   1 <1>  -0.1020 
 11 C        0.7250     2.6260    -0.5480 C.3   1 <1>  -0.2400 
 12 C       -5.0400     2.9040    -0.4190 C.ar  1 <1>  -0.1500 
 13 C       -6.3140     0.8740    -0.1840 C.ar  1 <1>   0.0830 
 14 C       -5.2190    -1.2860     0.5640 C.3   1 <1>  -0.0970 
 15 C       -6.2380     2.2300    -0.5000 C.ar  1 <1>  -0.1500 
 16 O       -7.4790     0.1820    -0.2440 O.3   1 <1>  -0.3630 
 17 C       -8.6980     0.7790    -0.6250 C.3   1 <1>   0.0400 
 18 H        0.3930     2.2730     1.5380 H     1 <1>   0.0800 
 19 H       -0.1580     3.8100     1.0130 H     1 <1>   0.0800 
 20 H       -3.0680     4.9870     0.3440 H     1 <1>   0.0800 
 21 H       -2.8990     4.4980    -1.3280 H     1 <1>   0.0800 
 22 H       -1.4960     4.7590    -0.3650 H     1 <1>   0.0800 
 23 H        0.8320     1.5850    -0.7980 H     1 <1>   0.0800 
 24 H        1.7040     3.0450    -0.4010 H     1 <1>   0.0800 
 25 H        0.2500     3.1320    -1.3700 H     1 <1>   0.0800 
 26 H       -5.0320     3.9480    -0.6680 H     1 <1>   0.1500 
 27 H       -4.2940    -1.7770     0.3190 H     1 <1>   0.0800 
 28 H       -6.0000    -1.7860     0.0200 H     1 <1>   0.0800 
 29 H       -5.4040    -1.4020     1.6160 H     1 <1>   0.0800 
 30 H       -7.1100     2.7740    -0.8100 H     1 <1>   0.1500 
 31 H       -9.4640     0.0250    -0.5900 H     1 <1>   0.0800 
 32 H       -8.6040     1.1560    -1.6280 H     1 <1>   0.0800 
 33 H       -8.9310     1.5690     0.0660 H     1 <1>   0.0800 
@<TRIPOS>BOND
  1   1   2  2   
  2   2   3  1   
  3   2   4  1   
  4   3   5  1   
  5   4   6  2   
  6   4   7  1   
  7   5   8  ar  
  8   5   9  ar  
  9   6   8  1   
 10   6  10  1   
 11   7  11  1   
 12   7  18  1   
 13   7  19  1   
 14   8  12  ar  
 15   9  13  ar  
 16   9  14  1   
 17  10  20  1   
 18  10  21  1   
 19  10  22  1   
 20  11  23  1   
 21  11  24  1   
 22  11  25  1   
 23  12  15  ar  
 24  12  26  1   
 25  13  15  ar  
 26  13  16  1   
 27  14  27  1   
 28  14  28  1   
 29  14  29  1   
 30  15  30  1   
 31  16  17  1   
 32  17  31  1   
 33  17  32  1   
 34  17  33  1   
@<TRIPOS>SUBSTRUCTURE
  1 ****   5 GROUP 4 **** **** 0

# MOE 2024.06 (io_trps.svl 2023.06)
