@<TRIPOS>MOLECULE
NONAME
50 52 1 0 0 
SMALL
USER_CHARGES


@<TRIPOS>ATOM
  1 O       -1.5110    -0.3750     2.4560 O.2   1 <1>  -0.5700 
  2 C       -1.9730    -0.8530     1.4390 C.2   1 <1>   0.7060 
  3 O       -3.1530    -0.3800     1.0260 O.3   1 <1>  -0.2320 
  4 C       -1.3260    -1.8600     0.6470 C.2   1 <1>   0.0290 
  5 C       -3.7810    -0.7960    -0.1010 C.ar  1 <1>   0.0830 
  6 C       -0.0640    -2.3710     1.1040 C.2   1 <1>   0.6160 
  7 C       -1.9340    -2.3140    -0.4820 C.2   1 <1>  -0.1780 
  8 C       -5.0080    -0.2350    -0.4570 C.ar  1 <1>   0.0830 
  9 C       -3.1890    -1.7840    -0.8940 C.ar  1 <1>   0.0280 
 10 O        0.0070    -3.5590     1.3540 O.2   1 <1>  -0.5700 
 11 N        1.0740    -1.5930     1.2090 N.am  1 <1>  -0.6600 
 12 O       -5.5220     0.7260     0.3590 O.3   1 <1>  -0.3630 
 13 C       -5.6460    -0.6700    -1.6130 C.ar  1 <1>  -0.1500 
 14 C       -3.8520    -2.2040    -2.0470 C.ar  1 <1>  -0.1500 
 15 C        2.3160    -2.1170     1.8460 C.3   1 <1>   0.1400 
 16 C        1.1530    -0.1620     0.8010 C.3   1 <1>   0.1400 
 17 C       -6.7670     1.3300     0.1020 C.3   1 <1>   0.1200 
 18 C       -5.0660    -1.6530    -2.4020 C.ar  1 <1>  -0.1500 
 19 C        3.5010    -1.9340     0.8970 C.3   1 <1>  -0.1600 
 20 C        2.3350     0.0420    -0.1500 C.3   1 <1>  -0.1600 
 21 C       -7.0360     2.3380     1.2150 C.3   1 <1>  -0.2400 
 22 C        3.6560    -0.4630     0.4600 C.3   1 <1>  -0.0190 
 23 C        4.8210    -0.2480    -0.5050 C.2   1 <1>   0.6590 
 24 O        5.3340    -1.1470    -1.1200 O.2   1 <1>  -0.5700 
 25 O        5.2320     1.0080    -0.6260 O.3   1 <1>  -0.4300 
 26 C        6.2920     1.3530    -1.4870 C.3   1 <1>   0.1200 
 27 C        6.5010     2.8610    -1.3990 C.3   1 <1>  -0.2400 
 28 H       -1.4840    -3.0850    -1.0840 H     1 <1>   0.1500 
 29 H       -6.5910    -0.2630    -1.9200 H     1 <1>   0.1500 
 30 H       -3.4090    -2.9660    -2.6640 H     1 <1>   0.1500 
 31 H        2.2140    -3.1610     2.0920 H     1 <1>   0.0800 
 32 H        2.4900    -1.5800     2.7630 H     1 <1>   0.0800 
 33 H        1.2760     0.4450     1.6820 H     1 <1>   0.0800 
 34 H        0.2520     0.1510     0.3060 H     1 <1>   0.0800 
 35 H       -7.5230     0.5640     0.0910 H     1 <1>   0.0800 
 36 H       -6.7160     1.8240    -0.8530 H     1 <1>   0.0800 
 37 H       -5.5680    -1.9840    -3.2940 H     1 <1>   0.1500 
 38 H        3.3520    -2.5610     0.0340 H     1 <1>   0.0800 
 39 H        4.4010    -2.2630     1.3850 H     1 <1>   0.0800 
 40 H        2.4210     1.0900    -0.3810 H     1 <1>   0.0800 
 41 H        2.1380    -0.4810    -1.0700 H     1 <1>   0.0800 
 42 H       -7.0660     1.8370     2.1660 H     1 <1>   0.0800 
 43 H       -7.9820     2.8200     1.0500 H     1 <1>   0.0800 
 44 H       -6.2650     3.0870     1.2290 H     1 <1>   0.0800 
 45 H        3.8670     0.1220     1.3380 H     1 <1>   0.0800 
 46 H        6.0280     1.0560    -2.4890 H     1 <1>   0.0800 
 47 H        7.1740     0.8200    -1.1730 H     1 <1>   0.0800 
 48 H        5.6090     3.3790    -1.7060 H     1 <1>   0.0800 
 49 H        7.3060     3.1530    -2.0480 H     1 <1>   0.0800 
 50 H        6.7530     3.1430    -0.3930 H     1 <1>   0.0800 
@<TRIPOS>BOND
  1   1   2  2   
  2   2   3  1   
  3   2   4  1   
  4   3   5  1   
  5   4   6  1   
  6   4   7  2   
  7   5   8  ar  
  8   5   9  ar  
  9   6  10  2   
 10   6  11  am  
 11   7   9  1   
 12   7  28  1   
 13   8  12  1   
 14   8  13  ar  
 15   9  14  ar  
 16  11  15  1   
 17  11  16  1   
 18  12  17  1   
 19  13  18  ar  
 20  13  29  1   
 21  14  18  ar  
 22  14  30  1   
 23  15  19  1   
 24  15  31  1   
 25  15  32  1   
 26  16  20  1   
 27  16  33  1   
 28  16  34  1   
 29  17  21  1   
 30  17  35  1   
 31  17  36  1   
 32  18  37  1   
 33  19  22  1   
 34  19  38  1   
 35  19  39  1   
 36  20  22  1   
 37  20  40  1   
 38  20  41  1   
 39  21  42  1   
 40  21  43  1   
 41  21  44  1   
 42  22  23  1   
 43  22  45  1   
 44  23  24  2   
 45  23  25  1   
 46  25  26  1   
 47  26  27  1   
 48  26  46  1   
 49  26  47  1   
 50  27  48  1   
 51  27  49  1   
 52  27  50  1   
@<TRIPOS>SUBSTRUCTURE
  1 ****   4 GROUP 4 **** **** 0

# MOE 2024.06 (io_trps.svl 2023.06)
