@<TRIPOS>MOLECULE
NONAME
43 44 1 0 0 
SMALL
USER_CHARGES


@<TRIPOS>ATOM
  1 O       -0.1870     0.4140    -1.4440 O.2   1 <1>  -0.5700 
  2 C       -0.6680     1.3030    -0.7720 C.2   1 <1>   0.6160 
  3 N       -1.8910     1.1220    -0.1650 N.am  1 <1>  -0.5470 
  4 C        0.0350     2.5630    -0.6240 C.2   1 <1>   0.0790 
  5 C       -2.7730     0.0310    -0.1530 C.ar  1 <1>   0.1170 
  6 C       -0.8600     3.6630    -0.8240 C.1   1 <1>   0.4920 
  7 C        1.3560     2.7200    -0.3340 C.2   1 <1>  -0.2760 
  8 C       -4.1480     0.2590    -0.0440 C.ar  1 <1>  -0.1440 
  9 C       -2.3130    -1.2810    -0.2150 C.ar  1 <1>  -0.1500 
 10 N       -1.6160     4.5110    -0.9300 N.1   1 <1>  -0.5570 
 11 C        2.2710     1.5170    -0.0610 C.3   1 <1>  -0.0220 
 12 C        2.0370     4.0960    -0.2560 C.3   1 <1>  -0.0220 
 13 C       -5.0210    -0.8170     0.0030 C.ar  1 <1>  -0.1500 
 14 C       -4.7330     1.6690     0.0140 C.3   1 <1>  -0.0170 
 15 C       -3.1900    -2.3470    -0.1710 C.ar  1 <1>  -0.1500 
 16 C        3.3740     1.7440     0.9840 C.3   1 <1>  -0.1600 
 17 C        3.4050     4.1590    -0.9490 C.3   1 <1>  -0.1600 
 18 C       -4.5480    -2.1160    -0.0600 C.ar  1 <1>  -0.1500 
 19 C       -4.6890     2.2240     1.4410 C.3   1 <1>  -0.2400 
 20 C        4.6570     2.3320     0.3790 C.3   1 <1>  -0.1600 
 21 C        4.5660     3.8140    -0.0040 C.3   1 <1>  -0.1600 
 22 H       -2.2930     1.9530     0.2670 H     1 <1>   0.3700 
 23 H       -1.2590    -1.4750    -0.2950 H     1 <1>   0.1500 
 24 H        1.6760     0.6930     0.2910 H     1 <1>   0.0800 
 25 H        2.7140     1.1960    -0.9880 H     1 <1>   0.0800 
 26 H        1.4200     4.8450    -0.7180 H     1 <1>   0.0800 
 27 H        2.1390     4.3860     0.7760 H     1 <1>   0.0800 
 28 H       -6.0810    -0.6520     0.0900 H     1 <1>   0.1500 
 29 H       -4.2010     2.3240    -0.6540 H     1 <1>   0.0800 
 30 H       -5.7550     1.6500    -0.3220 H     1 <1>   0.0800 
 31 H       -2.8160    -3.3550    -0.2230 H     1 <1>   0.1500 
 32 H        3.0140     2.3530     1.7950 H     1 <1>   0.0800 
 33 H        3.6280     0.7840     1.4000 H     1 <1>   0.0800 
 34 H        3.4190     3.5270    -1.8200 H     1 <1>   0.0800 
 35 H        3.5570     5.1700    -1.2880 H     1 <1>   0.0800 
 36 H       -5.2350    -2.9440    -0.0240 H     1 <1>   0.1500 
 37 H       -3.6800     2.2640     1.8080 H     1 <1>   0.0800 
 38 H       -5.2650     1.5940     2.0970 H     1 <1>   0.0800 
 39 H       -5.1060     3.2150     1.4640 H     1 <1>   0.0800 
 40 H        5.4520     2.2250     1.0970 H     1 <1>   0.0800 
 41 H        4.9400     1.7590    -0.4880 H     1 <1>   0.0800 
 42 H        5.4890     4.0910    -0.4840 H     1 <1>   0.0800 
 43 H        4.4890     4.4080     0.8910 H     1 <1>   0.0800 
@<TRIPOS>BOND
  1   1   2  2   
  2   2   3  am  
  3   2   4  1   
  4   3   5  1   
  5   3  22  1   
  6   4   6  1   
  7   4   7  2   
  8   5   8  ar  
  9   5   9  ar  
 10   6  10  3   
 11   7  11  1   
 12   7  12  1   
 13   8  13  ar  
 14   8  14  1   
 15   9  15  ar  
 16   9  23  1   
 17  11  16  1   
 18  11  24  1   
 19  11  25  1   
 20  12  17  1   
 21  12  26  1   
 22  12  27  1   
 23  13  18  ar  
 24  13  28  1   
 25  14  19  1   
 26  14  29  1   
 27  14  30  1   
 28  15  18  ar  
 29  15  31  1   
 30  16  20  1   
 31  16  32  1   
 32  16  33  1   
 33  17  21  1   
 34  17  34  1   
 35  17  35  1   
 36  18  36  1   
 37  19  37  1   
 38  19  38  1   
 39  19  39  1   
 40  20  21  1   
 41  20  40  1   
 42  20  41  1   
 43  21  42  1   
 44  21  43  1   
@<TRIPOS>SUBSTRUCTURE
  1 ****   2 GROUP 4 **** **** 0

# MOE 2024.06 (io_trps.svl 2023.06)
