@<TRIPOS>MOLECULE
NONAME
42 43 1 0 0 
SMALL
USER_CHARGES


@<TRIPOS>ATOM
  1 O        0.1240    -1.2570     2.5250 O.2   1 <1>  -0.5700 
  2 C       -0.1550    -1.7490     1.4600 C.2   1 <1>   0.5690 
  3 N       -1.4210    -1.7250     0.9830 N.am  1 <1>  -0.7300 
  4 C        0.9260    -2.4370     0.6450 C.3   1 <1>  -0.0990 
  5 C       -2.5730    -1.1290     1.7060 C.3   1 <1>   0.3200 
  6 C        1.6260    -1.5510    -0.4120 C.3   1 <1>   0.0000 
  7 C       -3.8090    -2.0060     1.5870 C.2   1 <1>   0.2980 
  8 C        2.7060    -2.3870    -1.1150 C.3   1 <1>  -0.2400 
  9 C        2.3000    -0.3410     0.2520 C.3   1 <1>  -0.2400 
 10 C        0.6330    -1.0510    -1.4730 C.3   1 <1>  -0.2400 
 11 O       -3.8580    -3.1140     2.2790 O.3   1 <1>  -0.0190 
 12 N       -4.8230    -1.7730     0.8590 N.2   1 <1>  -0.5650 
 13 N       -5.0030    -3.6310     1.9660 N.2   1 <1>  -0.4100 
 14 C       -5.5800    -2.8440     1.1270 C.2   1 <1>   0.4620 
 15 C       -6.8860    -3.0550     0.5240 C.ar  1 <1>   0.0540 
 16 C       -7.6440    -4.1900     0.8160 C.ar  1 <1>  -0.1500 
 17 C       -7.4400    -2.1390    -0.3720 C.ar  1 <1>  -0.1500 
 18 C       -8.8860    -4.4010     0.2470 C.ar  1 <1>  -0.1500 
 19 C       -8.6820    -2.3450    -0.9450 C.ar  1 <1>  -0.1500 
 20 C       -9.4150    -3.4770    -0.6380 C.ar  1 <1>  -0.1440 
 21 C      -10.7780    -3.7060    -1.2670 C.3   1 <1>  -0.0970 
 22 H       -1.6340    -2.1290     0.0700 H     1 <1>   0.3700 
 23 H        0.4930    -3.2950     0.1660 H     1 <1>   0.0800 
 24 H        1.6630    -2.8040     1.3370 H     1 <1>   0.0800 
 25 H       -2.7870    -0.1630     1.2840 H     1 <1>   0.0800 
 26 H       -2.3330    -0.9960     2.7470 H     1 <1>   0.0800 
 27 H        2.2690    -3.2380    -1.6060 H     1 <1>   0.0800 
 28 H        3.4320    -2.7410    -0.4040 H     1 <1>   0.0800 
 29 H        3.2200    -1.7980    -1.8540 H     1 <1>   0.0800 
 30 H        2.9940    -0.6640     1.0090 H     1 <1>   0.0800 
 31 H        1.5720     0.2980     0.7180 H     1 <1>   0.0800 
 32 H        2.8390     0.2410    -0.4750 H     1 <1>   0.0800 
 33 H        0.1230    -1.8770    -1.9360 H     1 <1>   0.0800 
 34 H        1.1510    -0.5040    -2.2410 H     1 <1>   0.0800 
 35 H       -0.0970    -0.3920    -1.0380 H     1 <1>   0.0800 
 36 H       -7.2540    -4.9220     1.5020 H     1 <1>   0.1500 
 37 H       -6.8900    -1.2500    -0.6270 H     1 <1>   0.1500 
 38 H       -9.4410    -5.2890     0.4960 H     1 <1>   0.1500 
 39 H       -9.0760    -1.6170    -1.6330 H     1 <1>   0.1500 
 40 H      -10.6660    -4.2460    -2.1890 H     1 <1>   0.0800 
 41 H      -11.2600    -2.7660    -1.4690 H     1 <1>   0.0800 
 42 H      -11.4070    -4.2740    -0.6050 H     1 <1>   0.0800 
@<TRIPOS>BOND
  1   1   2  2   
  2   2   3  am  
  3   2   4  1   
  4   3   5  1   
  5   3  22  1   
  6   4   6  1   
  7   4  23  1   
  8   4  24  1   
  9   5   7  1   
 10   5  25  1   
 11   5  26  1   
 12   6   8  1   
 13   6   9  1   
 14   6  10  1   
 15   7  11  1   
 16   7  12  2   
 17   8  27  1   
 18   8  28  1   
 19   8  29  1   
 20   9  30  1   
 21   9  31  1   
 22   9  32  1   
 23  10  33  1   
 24  10  34  1   
 25  10  35  1   
 26  11  13  1   
 27  12  14  1   
 28  13  14  2   
 29  14  15  1   
 30  15  16  ar  
 31  15  17  ar  
 32  16  18  ar  
 33  16  36  1   
 34  17  19  ar  
 35  17  37  1   
 36  18  20  ar  
 37  18  38  1   
 38  19  20  ar  
 39  19  39  1   
 40  20  21  1   
 41  21  40  1   
 42  21  41  1   
 43  21  42  1   
@<TRIPOS>SUBSTRUCTURE
  1 ****   7 GROUP 4 **** **** 0

# MOE 2024.06 (io_trps.svl 2023.06)
