@<TRIPOS>MOLECULE
NONAME
43 43 1 0 0 
SMALL
USER_CHARGES


@<TRIPOS>ATOM
  1 BR       0.3840     1.2360     2.1970 Br    1 <1>  -0.1110 
  2 C        1.1880     2.3700     0.8590 C.ar  1 <1>   0.1110 
  3 C        0.4480     3.3940     0.2860 C.ar  1 <1>   0.0820 
  4 C        2.5000     2.1100     0.5080 C.ar  1 <1>  -0.1500 
  5 O       -0.8390     3.5750     0.6660 O.3   1 <1>  -0.3630 
  6 C        1.0740     4.2030    -0.6710 C.ar  1 <1>   0.0830 
  7 C        3.1080     2.9040    -0.4530 C.ar  1 <1>  -0.1440 
  8 C       -1.8090     2.9670    -0.1560 C.3   1 <1>   0.2580 
  9 O        0.4940     5.2610    -1.2990 O.3   1 <1>  -0.3630 
 10 C        2.3860     3.9380    -1.0380 C.ar  1 <1>  -0.1500 
 11 C        4.5460     2.6620    -0.8550 C.3   1 <1>   0.4870 
 12 C       -3.1690     3.4840     0.2680 C.2   1 <1>  -0.2880 
 13 C       -0.3920     6.1130    -0.5990 C.3   1 <1>   0.0400 
 14 N        5.3730     3.5450     0.0000 N.4   1 <1>  -0.9060 
 15 C       -4.0380     4.1210    -0.5240 C.2   1 <1>  -0.3000 
 16 C        6.8400     3.5010    -0.1890 C.3   1 <1>   0.5030 
 17 C        7.4950     4.5010     0.8100 C.3   1 <1>   0.1200 
 18 C        7.1560     3.9040    -1.6350 C.3   1 <1>  -0.2400 
 19 C        7.3240     2.0720     0.0860 C.3   1 <1>  -0.2400 
 20 O        8.8810     4.5070     0.6920 O.3   1 <1>  -0.6800 
 21 H        3.0130     1.2940     0.9880 H     1 <1>   0.1500 
 22 H       -1.7450     1.9010    -0.0250 H     1 <1>   0.0800 
 23 H       -1.6040     3.2220    -1.1820 H     1 <1>   0.0800 
 24 H        2.8250     4.5660    -1.7940 H     1 <1>   0.1500 
 25 H        4.6810     2.9030    -1.8970 H     1 <1>   0.0800 
 26 H        4.8020     1.6270    -0.6980 H     1 <1>   0.0800 
 27 H       -3.3690     3.2820     1.3070 H     1 <1>   0.1500 
 28 H       -0.4080     7.0640    -1.0990 H     1 <1>   0.0800 
 29 H       -0.0460     6.2340     0.4120 H     1 <1>   0.0800 
 30 H       -1.3780     5.6860    -0.6120 H     1 <1>   0.0800 
 31 H        5.1540     3.3160     0.9740 H     1 <1>   0.4500 
 32 H        5.0440     4.5030    -0.1500 H     1 <1>   0.4500 
 33 H       -4.9970     4.4780    -0.1920 H     1 <1>   0.1500 
 34 H       -3.8670     4.3390    -1.5640 H     1 <1>   0.1500 
 35 H        7.2620     4.2270     1.8250 H     1 <1>   0.0800 
 36 H        7.1530     5.5040     0.6200 H     1 <1>   0.0800 
 37 H        6.7800     4.8870    -1.8550 H     1 <1>   0.0800 
 38 H        6.7670     3.2000    -2.3470 H     1 <1>   0.0800 
 39 H        8.2240     3.9290    -1.7760 H     1 <1>   0.0800 
 40 H        8.3970     2.0340     0.0040 H     1 <1>   0.0800 
 41 H        7.0670     1.7610     1.0820 H     1 <1>   0.0800 
 42 H        6.9350     1.3670    -0.6250 H     1 <1>   0.0800 
 43 H        9.3030     5.1360     1.3160 H     1 <1>   0.4000 
@<TRIPOS>BOND
  1   1   2  1   
  2   2   3  ar  
  3   2   4  ar  
  4   3   5  1   
  5   3   6  ar  
  6   4   7  ar  
  7   4  21  1   
  8   5   8  1   
  9   6   9  1   
 10   6  10  ar  
 11   7  10  ar  
 12   7  11  1   
 13   8  12  1   
 14   8  22  1   
 15   8  23  1   
 16   9  13  1   
 17  10  24  1   
 18  11  14  1   
 19  11  25  1   
 20  11  26  1   
 21  12  15  2   
 22  12  27  1   
 23  13  28  1   
 24  13  29  1   
 25  13  30  1   
 26  14  16  1   
 27  14  31  1   
 28  14  32  1   
 29  15  33  1   
 30  15  34  1   
 31  16  17  1   
 32  16  18  1   
 33  16  19  1   
 34  17  20  1   
 35  17  35  1   
 36  17  36  1   
 37  18  37  1   
 38  18  38  1   
 39  18  39  1   
 40  19  40  1   
 41  19  41  1   
 42  19  42  1   
 43  20  43  1   
@<TRIPOS>SUBSTRUCTURE
  1 ****   7 GROUP 4 **** **** 0

# MOE 2024.06 (io_trps.svl 2023.06)
