@<TRIPOS>MOLECULE
NONAME
43 45 1 0 0 
SMALL
USER_CHARGES


@<TRIPOS>ATOM
  1 S        0.5240     0.2580    -1.0650 S.o2  1 <1>   1.3330 
  2 O        1.6370     0.6780    -1.8830 O.2   1 <1>  -0.6500 
  3 O       -0.7380    -0.0460    -1.6920 O.2   1 <1>  -0.6500 
  4 N        0.2430     1.4520     0.1030 N.am  1 <1>  -0.8490 
  5 C        0.9980    -1.1680    -0.1090 C.3   1 <1>  -0.1350 
  6 C       -0.4570     2.6140    -0.4620 C.3   1 <1>   0.3340 
  7 C        1.3660     1.8180     1.0030 C.3   1 <1>   0.1960 
  8 C       -1.9670     2.5450    -0.2760 C.2   1 <1>  -0.1240 
  9 C        2.6820     2.3070     0.3560 C.3   1 <1>   0.2000 
 10 C       -2.6770     3.6870    -0.7670 C.2   1 <1>   0.6160 
 11 C       -2.6480     1.5210     0.3050 C.2   1 <1>  -0.1780 
 12 O        3.5780     2.6160     1.3710 O.3   1 <1>  -0.5600 
 13 C        2.6190     3.5860    -0.4680 C.3   1 <1>  -0.1600 
 14 O       -2.1300     4.6470    -1.2800 O.2   1 <1>  -0.5700 
 15 N       -4.0320     3.7130    -0.6390 N.am  1 <1>  -0.5470 
 16 C       -4.0740     1.5610     0.4360 C.ar  1 <1>   0.0280 
 17 C        4.5830     3.4590     0.8970 C.3   1 <1>   0.1200 
 18 C        4.0440     4.1000    -0.3810 C.3   1 <1>  -0.1600 
 19 C       -4.7610     2.6860    -0.0500 C.ar  1 <1>   0.1170 
 20 C       -4.8080     0.5310     1.0250 C.ar  1 <1>  -0.1500 
 21 C       -6.1470     2.7560     0.0650 C.ar  1 <1>  -0.1500 
 22 C       -6.1810     0.6110     1.1330 C.ar  1 <1>  -0.1500 
 23 C       -6.8530     1.7280     0.6520 C.ar  1 <1>  -0.1500 
 24 H        1.9200    -0.9880     0.4060 H     1 <1>   0.0800 
 25 H        1.1300    -2.0110    -0.7590 H     1 <1>   0.0800 
 26 H        0.2340    -1.4020     0.6060 H     1 <1>   0.0800 
 27 H       -0.2260     2.7170    -1.5110 H     1 <1>   0.0800 
 28 H       -0.1280     3.5140     0.0270 H     1 <1>   0.0800 
 29 H        1.6060     0.9600     1.6040 H     1 <1>   0.0800 
 30 H        1.0250     2.5810     1.6820 H     1 <1>   0.0800 
 31 H        3.1400     1.5190    -0.2150 H     1 <1>   0.0800 
 32 H       -2.1490     0.6470     0.6810 H     1 <1>   0.1500 
 33 H        1.9530     4.2920    -0.0060 H     1 <1>   0.0800 
 34 H        2.3090     3.3980    -1.4810 H     1 <1>   0.0800 
 35 H       -4.4900     4.5420    -1.0110 H     1 <1>   0.3700 
 36 H        5.4610     2.8680     0.7010 H     1 <1>   0.0800 
 37 H        4.7930     4.1920     1.6560 H     1 <1>   0.0800 
 38 H        4.0870     5.1730    -0.3360 H     1 <1>   0.0800 
 39 H        4.6220     3.7590    -1.2220 H     1 <1>   0.0800 
 40 H       -4.2900    -0.3360     1.3950 H     1 <1>   0.1500 
 41 H       -6.6660     3.6190    -0.3090 H     1 <1>   0.1500 
 42 H       -6.7370    -0.1900     1.5900 H     1 <1>   0.1500 
 43 H       -7.9240     1.7840     0.7400 H     1 <1>   0.1500 
@<TRIPOS>BOND
  1   1   2  2   
  2   1   3  2   
  3   1   4  am  
  4   1   5  1   
  5   4   6  1   
  6   4   7  1   
  7   5  24  1   
  8   5  25  1   
  9   5  26  1   
 10   6   8  1   
 11   6  27  1   
 12   6  28  1   
 13   7   9  1   
 14   7  29  1   
 15   7  30  1   
 16   8  10  1   
 17   8  11  2   
 18   9  12  1   
 19   9  13  1   
 20   9  31  1   
 21  10  14  2   
 22  10  15  am  
 23  11  16  1   
 24  11  32  1   
 25  12  17  1   
 26  13  18  1   
 27  13  33  1   
 28  13  34  1   
 29  15  19  1   
 30  15  35  1   
 31  16  19  ar  
 32  16  20  ar  
 33  17  18  1   
 34  17  36  1   
 35  17  37  1   
 36  18  38  1   
 37  18  39  1   
 38  19  21  ar  
 39  20  22  ar  
 40  20  40  1   
 41  21  23  ar  
 42  21  41  1   
 43  22  23  ar  
 44  22  42  1   
 45  23  43  1   
@<TRIPOS>SUBSTRUCTURE
  1 ****   6 GROUP 4 **** **** 0

# MOE 2024.06 (io_trps.svl 2023.06)
