@<TRIPOS>MOLECULE
NONAME
41 42 1 0 0 
SMALL
USER_CHARGES


@<TRIPOS>ATOM
  1 O       -0.2670    -0.3940    -0.1950 O.3   1 <1>  -0.3630 
  2 C       -1.5120    -0.8970    -0.0010 C.ar  1 <1>   0.0830 
  3 C        0.8810    -1.1320     0.1410 C.3   1 <1>   0.1200 
  4 C       -1.7670    -2.1560     0.5380 C.ar  1 <1>  -0.1500 
  5 C       -2.5750    -0.0870    -0.3700 C.ar  1 <1>  -0.1500 
  6 C        2.0970    -0.2710    -0.2090 C.3   1 <1>  -0.1600 
  7 C       -3.0720    -2.5890     0.7000 C.ar  1 <1>  -0.1500 
  8 C       -3.8780    -0.5210    -0.2070 C.ar  1 <1>  -0.1500 
  9 C        3.4180    -0.9850     0.1120 C.3   1 <1>  -0.1600 
 10 C       -4.1270    -1.7730     0.3290 C.ar  1 <1>  -0.1500 
 11 C        4.6060    -0.0890    -0.2470 C.3   1 <1>   0.3430 
 12 N        5.8890    -0.7270     0.1560 N.4   1 <1>  -0.9590 
 13 C        6.9870     0.2840     0.1790 C.3   1 <1>   0.3430 
 14 C        6.2440    -1.8910    -0.7130 C.3   1 <1>   0.3430 
 15 C        8.2630    -0.3500     0.7380 C.3   1 <1>  -0.1600 
 16 C        7.5040    -2.5730    -0.1760 C.3   1 <1>  -0.1600 
 17 C        8.6770    -1.5910    -0.0620 C.3   1 <1>  -0.1600 
 18 H        0.8750    -2.0450    -0.4290 H     1 <1>   0.0800 
 19 H        0.8480    -1.3470     1.1960 H     1 <1>   0.0800 
 20 H       -0.9710    -2.8110     0.8360 H     1 <1>   0.1500 
 21 H       -2.3730     0.8830    -0.7860 H     1 <1>   0.1500 
 22 H        2.0340     0.6480     0.3490 H     1 <1>   0.0800 
 23 H        2.0560    -0.0370    -1.2600 H     1 <1>   0.0800 
 24 H       -3.2700    -3.5610     1.1170 H     1 <1>   0.1500 
 25 H       -4.6970     0.1150    -0.4970 H     1 <1>   0.1500 
 26 H        3.4580    -1.9010    -0.4490 H     1 <1>   0.0800 
 27 H        3.4420    -1.2150     1.1630 H     1 <1>   0.0800 
 28 H       -5.1410    -2.1110     0.4560 H     1 <1>   0.1500 
 29 H        4.4940     0.8510     0.2710 H     1 <1>   0.0800 
 30 H        4.6080     0.1130    -1.3060 H     1 <1>   0.0800 
 31 H        5.7870    -1.0800     1.1160 H     1 <1>   0.4500 
 32 H        6.7060     1.1230     0.7950 H     1 <1>   0.0800 
 33 H        7.1730     0.6430    -0.8210 H     1 <1>   0.0800 
 34 H        6.4210    -1.5520    -1.7210 H     1 <1>   0.0800 
 35 H        5.4370    -2.6050    -0.7320 H     1 <1>   0.0800 
 36 H        8.1100    -0.6110     1.7700 H     1 <1>   0.0800 
 37 H        9.0590     0.3750     0.7050 H     1 <1>   0.0800 
 38 H        7.7770    -3.3770    -0.8360 H     1 <1>   0.0800 
 39 H        7.2930    -3.0070     0.7870 H     1 <1>   0.0800 
 40 H        9.5140    -2.0740     0.4170 H     1 <1>   0.0800 
 41 H        8.9940    -1.2940    -1.0480 H     1 <1>   0.0800 
@<TRIPOS>BOND
  1   1   2  1   
  2   1   3  1   
  3   2   4  ar  
  4   2   5  ar  
  5   3   6  1   
  6   3  18  1   
  7   3  19  1   
  8   4   7  ar  
  9   4  20  1   
 10   5   8  ar  
 11   5  21  1   
 12   6   9  1   
 13   6  22  1   
 14   6  23  1   
 15   7  10  ar  
 16   7  24  1   
 17   8  10  ar  
 18   8  25  1   
 19   9  11  1   
 20   9  26  1   
 21   9  27  1   
 22  10  28  1   
 23  11  12  1   
 24  11  29  1   
 25  11  30  1   
 26  12  13  1   
 27  12  14  1   
 28  12  31  1   
 29  13  15  1   
 30  13  32  1   
 31  13  33  1   
 32  14  16  1   
 33  14  34  1   
 34  14  35  1   
 35  15  17  1   
 36  15  36  1   
 37  15  37  1   
 38  16  17  1   
 39  16  38  1   
 40  16  39  1   
 41  17  40  1   
 42  17  41  1   
@<TRIPOS>SUBSTRUCTURE
  1 ****   6 GROUP 4 **** **** 0

# MOE 2024.06 (io_trps.svl 2023.06)
