@<TRIPOS>MOLECULE
NONAME
46 48 1 0 0 
SMALL
USER_CHARGES


@<TRIPOS>ATOM
  1 CL       0.1160     0.2550    -1.0890 Cl    1 <1>  -0.1770 
  2 C        1.6720     0.8120    -0.5260 C.ar  1 <1>   0.1770 
  3 C        2.8060     0.1060    -0.8690 C.ar  1 <1>  -0.1500 
  4 C        1.7390     1.9510     0.2540 C.ar  1 <1>  -0.1500 
  5 C        4.0510     0.5340    -0.4260 C.ar  1 <1>   0.1000 
  6 C        2.9760     2.3880     0.6980 C.ar  1 <1>  -0.1500 
  7 N        5.1910    -0.1920    -0.7680 N.pl3 1 <1>  -0.8380 
  8 C        4.1190     1.6830     0.3600 C.ar  1 <1>  -0.1500 
  9 C        6.4370     0.4950    -1.2290 C.3   1 <1>   0.2090 
 10 C        5.3380    -1.5900    -0.2640 C.3   1 <1>   0.2090 
 11 C        7.5840     0.3290    -0.2090 C.3   1 <1>   0.3430 
 12 C        6.5040    -1.7030     0.7420 C.3   1 <1>   0.3430 
 13 N        7.7830    -1.1070     0.2150 N.4   1 <1>  -0.9590 
 14 C        8.9080    -1.2480     1.1770 C.3   1 <1>   0.4860 
 15 C       10.1810    -0.7980     0.4860 C.ar  1 <1>  -0.1430 
 16 C       10.8310    -1.5960    -0.4520 C.ar  1 <1>  -0.1430 
 17 C       10.6920     0.4540     0.8000 C.ar  1 <1>  -0.1500 
 18 C       11.9690    -1.1090    -1.0750 C.ar  1 <1>  -0.1500 
 19 C       10.3540    -2.9960    -0.8230 C.3   1 <1>  -0.0970 
 20 C       11.8290     0.9330     0.1740 C.ar  1 <1>  -0.1430 
 21 C       12.4630     0.1440    -0.7680 C.ar  1 <1>  -0.1500 
 22 C       12.3890     2.3020     0.5180 C.3   1 <1>  -0.0970 
 23 H        2.7230    -0.7690    -1.4850 H     1 <1>   0.1500 
 24 H        0.8390     2.4830     0.5050 H     1 <1>   0.1500 
 25 H        3.0430     3.2740     1.3050 H     1 <1>   0.1500 
 26 H        5.0690     2.0310     0.7160 H     1 <1>   0.1500 
 27 H        6.2410     1.5420    -1.3860 H     1 <1>   0.0800 
 28 H        6.7350     0.0800    -2.1760 H     1 <1>   0.0800 
 29 H        5.5080    -2.2500    -1.0970 H     1 <1>   0.0800 
 30 H        4.4260    -1.9000     0.2180 H     1 <1>   0.0800 
 31 H        7.3560     0.9300     0.6540 H     1 <1>   0.0800 
 32 H        8.4920     0.7120    -0.6470 H     1 <1>   0.0800 
 33 H        6.6530    -2.7420     0.9870 H     1 <1>   0.0800 
 34 H        6.2130    -1.1900     1.6440 H     1 <1>   0.0800 
 35 H        8.0660    -1.6180    -0.6300 H     1 <1>   0.4500 
 36 H        9.0130    -2.2750     1.4870 H     1 <1>   0.0800 
 37 H        8.7310    -0.6440     2.0520 H     1 <1>   0.0800 
 38 H       10.2120     1.0730     1.5390 H     1 <1>   0.1500 
 39 H       12.4890    -1.7040    -1.8070 H     1 <1>   0.1500 
 40 H        9.5300    -2.9440    -1.5100 H     1 <1>   0.0800 
 41 H       10.0650    -3.5510     0.0500 H     1 <1>   0.0800 
 42 H       11.1470    -3.5460    -1.3010 H     1 <1>   0.0800 
 43 H       13.3510     0.5000    -1.2630 H     1 <1>   0.1500 
 44 H       11.6190     2.9470     0.9000 H     1 <1>   0.0800 
 45 H       12.8130     2.7630    -0.3560 H     1 <1>   0.0800 
 46 H       13.1590     2.2030     1.2620 H     1 <1>   0.0800 
@<TRIPOS>BOND
  1   1   2  1   
  2   2   3  ar  
  3   2   4  ar  
  4   3   5  ar  
  5   3  23  1   
  6   4   6  ar  
  7   4  24  1   
  8   5   7  1   
  9   5   8  ar  
 10   6   8  ar  
 11   6  25  1   
 12   7   9  1   
 13   7  10  1   
 14   8  26  1   
 15   9  11  1   
 16   9  27  1   
 17   9  28  1   
 18  10  12  1   
 19  10  29  1   
 20  10  30  1   
 21  11  13  1   
 22  11  31  1   
 23  11  32  1   
 24  12  13  1   
 25  12  33  1   
 26  12  34  1   
 27  13  14  1   
 28  13  35  1   
 29  14  15  1   
 30  14  36  1   
 31  14  37  1   
 32  15  16  ar  
 33  15  17  ar  
 34  16  18  ar  
 35  16  19  1   
 36  17  20  ar  
 37  17  38  1   
 38  18  21  ar  
 39  18  39  1   
 40  19  40  1   
 41  19  41  1   
 42  19  42  1   
 43  20  21  ar  
 44  20  22  1   
 45  21  43  1   
 46  22  44  1   
 47  22  45  1   
 48  22  46  1   
@<TRIPOS>SUBSTRUCTURE
  1 ****  11 GROUP 4 **** **** 0

# MOE 2024.06 (io_trps.svl 2023.06)
