@<TRIPOS>MOLECULE
NONAME
46 48 1 0 0 
SMALL
USER_CHARGES


@<TRIPOS>ATOM
  1 O        0.8560    -0.3060    -0.0420 O.2   1 <1>  -0.5700 
  2 C        1.3320    -1.4250    -0.1500 C.2   1 <1>   0.5440 
  3 N        2.5680    -1.5630    -0.7340 N.am  1 <1>  -0.6600 
  4 C        0.6090    -2.5700     0.3390 C.ar  1 <1>   0.0860 
  5 C        3.2130    -2.8740    -0.9400 C.3   1 <1>   0.7330 
  6 C        3.2900    -0.3920    -1.3050 C.3   1 <1>   0.1400 
  7 C        1.1260    -3.8400     0.0780 C.ar  1 <1>   0.1000 
  8 C       -0.5780    -2.4710     1.0670 C.ar  1 <1>  -0.1500 
  9 N        2.2970    -3.9860    -0.6450 N.pl3 1 <1>  -0.8690 
 10 C        4.4490    -3.0280    -0.0610 C.ar  1 <1>  -0.1430 
 11 C        4.0980     0.3280    -0.2200 C.3   1 <1>  -0.1600 
 12 C        0.4630    -4.9690     0.5460 C.ar  1 <1>  -0.1500 
 13 C       -1.2320    -3.5960     1.5300 C.ar  1 <1>  -0.1500 
 14 C        5.6930    -3.2290    -0.6430 C.ar  1 <1>  -0.1500 
 15 C        4.3550    -2.9660     1.3250 C.ar  1 <1>  -0.1500 
 16 C        4.8110     1.5620    -0.7840 C.3   1 <1>  -0.2400 
 17 C       -0.7080    -4.8520     1.2680 C.ar  1 <1>  -0.1500 
 18 C        6.8270    -3.3690     0.1380 C.ar  1 <1>   0.0830 
 19 C        5.4840    -3.0920     2.1160 C.ar  1 <1>  -0.1500 
 20 O        8.0060    -3.5550    -0.5080 O.3   1 <1>  -0.3630 
 21 C        6.7230    -3.2870     1.5290 C.ar  1 <1>   0.0830 
 22 C        8.6860    -4.7770    -0.3180 C.3   1 <1>   0.1200 
 23 O        7.8070    -3.3750     2.3290 O.3   1 <1>  -0.5330 
 24 C        8.0540    -5.8460    -1.2100 C.3   1 <1>  -0.2400 
 25 H        3.5000    -2.9490    -1.9750 H     1 <1>   0.0800 
 26 H        2.5730     0.2930    -1.7270 H     1 <1>   0.0800 
 27 H        3.9440    -0.7110    -2.0980 H     1 <1>   0.0800 
 28 H       -0.9840    -1.4940     1.2690 H     1 <1>   0.1500 
 29 H        2.8300    -4.8400    -0.4710 H     1 <1>   0.4000 
 30 H        4.8340    -0.3370     0.1940 H     1 <1>   0.0800 
 31 H        3.4330     0.6360     0.5680 H     1 <1>   0.0800 
 32 H        0.8670    -5.9420     0.3360 H     1 <1>   0.1500 
 33 H       -2.1460    -3.5000     2.0900 H     1 <1>   0.1500 
 34 H        5.8040    -3.2790    -1.7120 H     1 <1>   0.1500 
 35 H        3.3940    -2.8100     1.7870 H     1 <1>   0.1500 
 36 H        5.4960     1.2790    -1.5640 H     1 <1>   0.0800 
 37 H        5.3650     2.0520    -0.0040 H     1 <1>   0.0800 
 38 H        4.0940     2.2580    -1.1840 H     1 <1>   0.0800 
 39 H       -1.2160    -5.7310     1.6260 H     1 <1>   0.1500 
 40 H        5.3880    -3.0320     3.1850 H     1 <1>   0.1500 
 41 H        8.6420    -5.0610     0.7180 H     1 <1>   0.0800 
 42 H        9.7140    -4.6190    -0.5920 H     1 <1>   0.0800 
 43 H        7.6000    -3.2120     3.2650 H     1 <1>   0.4500 
 44 H        7.0340    -6.0190    -0.9200 H     1 <1>   0.0800 
 45 H        8.5970    -6.7680    -1.1080 H     1 <1>   0.0800 
 46 H        8.0930    -5.5370    -2.2390 H     1 <1>   0.0800 
@<TRIPOS>BOND
  1   1   2  2   
  2   2   3  am  
  3   2   4  1   
  4   3   5  1   
  5   3   6  1   
  6   4   7  ar  
  7   4   8  ar  
  8   5   9  1   
  9   5  10  1   
 10   5  25  1   
 11   6  11  1   
 12   6  26  1   
 13   6  27  1   
 14   7   9  1   
 15   7  12  ar  
 16   8  13  ar  
 17   8  28  1   
 18   9  29  1   
 19  10  14  ar  
 20  10  15  ar  
 21  11  16  1   
 22  11  30  1   
 23  11  31  1   
 24  12  17  ar  
 25  12  32  1   
 26  13  17  ar  
 27  13  33  1   
 28  14  18  ar  
 29  14  34  1   
 30  15  19  ar  
 31  15  35  1   
 32  16  36  1   
 33  16  37  1   
 34  16  38  1   
 35  17  39  1   
 36  18  20  1   
 37  18  21  ar  
 38  19  21  ar  
 39  19  40  1   
 40  20  22  1   
 41  21  23  1   
 42  22  24  1   
 43  22  41  1   
 44  22  42  1   
 45  23  43  1   
 46  24  44  1   
 47  24  45  1   
 48  24  46  1   
@<TRIPOS>SUBSTRUCTURE
  1 ****  10 GROUP 4 **** **** 0

# MOE 2024.06 (io_trps.svl 2023.06)
