@<TRIPOS>MOLECULE
NONAME
35 35 1 0 0 
SMALL
USER_CHARGES


@<TRIPOS>ATOM
  1 O        0.5840    -1.3650    -2.4660 O.2   1 <1>  -0.5700 
  2 C        0.3910    -1.9220    -1.4100 C.2   1 <1>   0.4950 
  3 C        1.4040    -2.1350    -0.4170 C.2   1 <1>   0.0290 
  4 C       -1.0470    -2.3670    -1.1930 C.3   1 <1>  -0.0990 
  5 C        1.0510    -2.8930     0.7530 C.2   1 <1>   0.4950 
  6 C        2.6610    -1.6060    -0.6200 C.2   1 <1>  -0.0500 
  7 C       -1.1790    -3.5750    -0.2600 C.3   1 <1>   0.0000 
  8 O        1.8210    -3.2940     1.5960 O.2   1 <1>  -0.5700 
  9 C       -0.3990    -3.2630     1.0220 C.3   1 <1>  -0.0990 
 10 N        3.7260    -1.6670     0.2140 N.pl3 1 <1>  -0.8690 
 11 C       -0.6310    -4.8460    -0.9360 C.3   1 <1>  -0.2400 
 12 C       -2.6600    -3.8060     0.0800 C.3   1 <1>  -0.2400 
 13 C        5.0820    -1.0180    -0.0120 C.3   1 <1>   0.1830 
 14 C        5.6530    -0.3020     1.2560 C.2   1 <1>   0.9060 
 15 C        5.9970    -2.1170    -0.5820 C.3   1 <1>  -0.2660 
 16 O        5.8470    -0.9580     2.2980 O.co2 1 <1>  -0.9000 
 17 O        5.8200     0.9300     1.2580 O.co2 1 <1>  -0.9000 
 18 C        7.0890    -1.5810    -1.4710 C.2   1 <1>   0.9060 
 19 O        6.7870    -0.8600    -2.4290 O.co2 1 <1>  -0.9000 
 20 O        8.2490    -1.9770    -1.3000 O.co2 1 <1>  -0.9000 
 21 H       -1.5840    -1.5280    -0.7900 H     1 <1>   0.0800 
 22 H       -1.4860    -2.5990    -2.1480 H     1 <1>   0.0800 
 23 H        2.8470    -1.0680    -1.5390 H     1 <1>   0.1500 
 24 H       -0.4260    -4.1170     1.6760 H     1 <1>   0.0800 
 25 H       -0.8540    -2.4430     1.5470 H     1 <1>   0.0800 
 26 H        3.6890    -2.1370     1.1370 H     1 <1>   0.4000 
 27 H       -1.1870    -5.0670    -1.8300 H     1 <1>   0.0800 
 28 H       -0.7160    -5.6900    -0.2740 H     1 <1>   0.0800 
 29 H        0.4050    -4.7410    -1.2070 H     1 <1>   0.0800 
 30 H       -3.0850    -2.9410     0.5600 H     1 <1>   0.0800 
 31 H       -2.7690    -4.6460     0.7430 H     1 <1>   0.0800 
 32 H       -3.2260    -4.0070    -0.8130 H     1 <1>   0.0800 
 33 H        4.9620    -0.2570    -0.7620 H     1 <1>   0.0800 
 34 H        5.4240    -2.7900    -1.1870 H     1 <1>   0.0800 
 35 H        6.4440    -2.6670     0.2230 H     1 <1>   0.0800 
@<TRIPOS>BOND
  1   1   2  2   
  2   2   3  1   
  3   2   4  1   
  4   3   5  1   
  5   3   6  2   
  6   4   7  1   
  7   4  21  1   
  8   4  22  1   
  9   5   8  2   
 10   5   9  1   
 11   6  10  1   
 12   6  23  1   
 13   7   9  1   
 14   7  11  1   
 15   7  12  1   
 16   9  24  1   
 17   9  25  1   
 18  10  13  1   
 19  10  26  1   
 20  11  27  1   
 21  11  28  1   
 22  11  29  1   
 23  12  30  1   
 24  12  31  1   
 25  12  32  1   
 26  13  14  1   
 27  13  15  1   
 28  13  33  1   
 29  14  16  ar  
 30  14  17  ar  
 31  15  18  1   
 32  15  34  1   
 33  15  35  1   
 34  18  19  ar  
 35  18  20  ar  
@<TRIPOS>SUBSTRUCTURE
  1 ****   6 GROUP 4 **** **** 0

# MOE 2024.06 (io_trps.svl 2023.06)
