@<TRIPOS>MOLECULE
NONAME
42 44 1 0 0 
SMALL
USER_CHARGES


@<TRIPOS>ATOM
  1 O        0.1880     1.9410    -2.3630 O.2   1 <1>  -0.5700 
  2 C       -0.0910     2.1500    -1.1970 C.2   1 <1>   0.5440 
  3 N       -0.8640     1.2330    -0.5190 N.am  1 <1>  -0.6600 
  4 C        0.3980     3.3660    -0.5830 C.ar  1 <1>   0.0860 
  5 C       -1.3800     1.4130     0.8720 C.3   1 <1>   0.1400 
  6 C       -1.2600    -0.0750    -1.1200 C.3   1 <1>   0.1400 
  7 C        1.3050     3.3460     0.4870 C.ar  1 <1>   0.0860 
  8 C       -0.0300     4.5980    -1.0780 C.ar  1 <1>  -0.1500 
  9 C       -2.8790     1.0750     0.9450 C.3   1 <1>   0.1200 
 10 C       -2.7670    -0.3190    -0.9400 C.3   1 <1>   0.1200 
 11 C        1.8060     2.1070     1.0440 C.2   1 <1>   0.5440 
 12 C        1.7210     4.5570     1.0380 C.ar  1 <1>  -0.1500 
 13 C        0.4010     5.7880    -0.5250 C.ar  1 <1>  -0.1500 
 14 O       -3.1340    -0.1910     0.4050 O.3   1 <1>  -0.5600 
 15 O        1.5300     1.8420     2.1990 O.2   1 <1>  -0.5700 
 16 N        2.5880     1.2300     0.3240 N.am  1 <1>  -0.6600 
 17 C        1.2790     5.7670     0.5420 C.ar  1 <1>  -0.1500 
 18 C        3.1020     1.4800    -1.0580 C.3   1 <1>   0.1400 
 19 C        2.9970    -0.1010     0.8630 C.3   1 <1>   0.1400 
 20 C        4.6040     1.1610    -1.1460 C.3   1 <1>   0.1200 
 21 C        4.5060    -0.3200     0.6730 C.3   1 <1>   0.1200 
 22 O        4.8720    -0.1260    -0.6650 O.3   1 <1>  -0.5600 
 23 H       -1.2330     2.4230     1.2100 H     1 <1>   0.0800 
 24 H       -0.8400     0.7600     1.5360 H     1 <1>   0.0800 
 25 H       -0.7130    -0.8640    -0.6350 H     1 <1>   0.0800 
 26 H       -1.0210    -0.1040    -2.1680 H     1 <1>   0.0800 
 27 H       -0.7110     4.6120    -1.9120 H     1 <1>   0.1500 
 28 H       -3.4570     1.8030     0.4030 H     1 <1>   0.0800 
 29 H       -3.2060     1.0670     1.9700 H     1 <1>   0.0800 
 30 H       -3.0220    -1.3140    -1.2570 H     1 <1>   0.0800 
 31 H       -3.3340     0.3860    -1.5230 H     1 <1>   0.0800 
 32 H        2.4020     4.5390     1.8720 H     1 <1>   0.1500 
 33 H        0.0550     6.7280    -0.9230 H     1 <1>   0.1500 
 34 H        1.6150     6.6910     0.9820 H     1 <1>   0.1500 
 35 H        2.9440     2.5030    -1.3480 H     1 <1>   0.0800 
 36 H        2.5680     0.8530    -1.7510 H     1 <1>   0.0800 
 37 H        2.4580    -0.8720     0.3420 H     1 <1>   0.0800 
 38 H        2.7580    -0.1800     1.9090 H     1 <1>   0.0800 
 39 H        5.1750     1.8690    -0.5700 H     1 <1>   0.0800 
 40 H        4.9310     1.2030    -2.1690 H     1 <1>   0.0800 
 41 H        4.7710    -1.3270     0.9440 H     1 <1>   0.0800 
 42 H        5.0660     0.3630     1.2880 H     1 <1>   0.0800 
@<TRIPOS>BOND
  1   1   2  2   
  2   2   3  am  
  3   2   4  1   
  4   3   5  1   
  5   3   6  1   
  6   4   7  ar  
  7   4   8  ar  
  8   5   9  1   
  9   5  23  1   
 10   5  24  1   
 11   6  10  1   
 12   6  25  1   
 13   6  26  1   
 14   7  11  1   
 15   7  12  ar  
 16   8  13  ar  
 17   8  27  1   
 18   9  14  1   
 19   9  28  1   
 20   9  29  1   
 21  10  14  1   
 22  10  30  1   
 23  10  31  1   
 24  11  15  2   
 25  11  16  am  
 26  12  17  ar  
 27  12  32  1   
 28  13  17  ar  
 29  13  33  1   
 30  16  18  1   
 31  16  19  1   
 32  17  34  1   
 33  18  20  1   
 34  18  35  1   
 35  18  36  1   
 36  19  21  1   
 37  19  37  1   
 38  19  38  1   
 39  20  22  1   
 40  20  39  1   
 41  20  40  1   
 42  21  22  1   
 43  21  41  1   
 44  21  42  1   
@<TRIPOS>SUBSTRUCTURE
  1 ****   2 GROUP 4 **** **** 0

# MOE 2024.06 (io_trps.svl 2023.06)
