@<TRIPOS>MOLECULE
NONAME
31 31 1 0 0 
SMALL
USER_CHARGES


@<TRIPOS>ATOM
  1 S        0.0830    -0.2230    -0.0050 S.o2  1 <1>   1.4470 
  2 O        0.4110    -1.0460    -1.1460 O.2   1 <1>  -0.6500 
  3 O        0.0970    -0.7870     1.3270 O.2   1 <1>  -0.6500 
  4 N       -1.5220     0.1440    -0.3400 N.am  1 <1>  -0.9140 
  5 C        0.9230     1.3830    -0.0380 C.ar  1 <1>  -0.0090 
  6 C       -2.4450    -0.8670     0.1680 C.3   1 <1>   0.1960 
  7 C        2.3070     1.4430    -0.1690 C.ar  1 <1>   0.0830 
  8 C        0.2240     2.5800     0.0920 C.ar  1 <1>  -0.1500 
  9 C       -3.8700    -0.5760    -0.3160 C.3   1 <1>   0.1200 
 10 O        2.9750     0.2660    -0.2630 O.3   1 <1>  -0.3630 
 11 C        2.9600     2.6730    -0.1960 C.ar  1 <1>  -0.1500 
 12 C        0.8670     3.8060     0.0700 C.ar  1 <1>  -0.1430 
 13 O       -4.7260    -1.5860     0.1030 O.3   1 <1>  -0.6800 
 14 C        4.3770     0.1990    -0.4050 C.3   1 <1>   0.0400 
 15 C        2.2410     3.8460    -0.0800 C.ar  1 <1>  -0.1500 
 16 C        0.0690     5.0900     0.2080 C.3   1 <1>  -0.0970 
 17 H       -1.5360     0.0790    -1.3570 H     1 <1>   0.4200 
 18 H       -2.4320    -0.8550     1.2460 H     1 <1>   0.0800 
 19 H       -2.1360    -1.8400    -0.1750 H     1 <1>   0.0800 
 20 H       -0.8450     2.5570     0.2160 H     1 <1>   0.1500 
 21 H       -3.9120    -0.5270    -1.3900 H     1 <1>   0.0800 
 22 H       -4.2230     0.3500     0.1050 H     1 <1>   0.0800 
 23 H        4.0260     2.7390    -0.3050 H     1 <1>   0.1500 
 24 H       -4.5030    -2.4390    -0.3180 H     1 <1>   0.4000 
 25 H        4.6560    -0.8380    -0.4600 H     1 <1>   0.0800 
 26 H        4.8380     0.6570     0.4520 H     1 <1>   0.0800 
 27 H        4.6600     0.7020    -1.3130 H     1 <1>   0.0800 
 28 H        2.7560     4.7910    -0.1030 H     1 <1>   0.1500 
 29 H       -0.7500     4.9510     0.8910 H     1 <1>   0.0800 
 30 H       -0.3250     5.3790    -0.7500 H     1 <1>   0.0800 
 31 H        0.6890     5.8840     0.5820 H     1 <1>   0.0800 
@<TRIPOS>BOND
  1   1   2  2   
  2   1   3  2   
  3   1   4  am  
  4   1   5  1   
  5   4   6  1   
  6   4  17  1   
  7   5   7  ar  
  8   5   8  ar  
  9   6   9  1   
 10   6  18  1   
 11   6  19  1   
 12   7  10  1   
 13   7  11  ar  
 14   8  12  ar  
 15   8  20  1   
 16   9  13  1   
 17   9  21  1   
 18   9  22  1   
 19  10  14  1   
 20  11  15  ar  
 21  11  23  1   
 22  12  15  ar  
 23  12  16  1   
 24  13  24  1   
 25  14  25  1   
 26  14  26  1   
 27  14  27  1   
 28  15  28  1   
 29  16  29  1   
 30  16  30  1   
 31  16  31  1   
@<TRIPOS>SUBSTRUCTURE
  1 ****   5 GROUP 4 **** **** 0

# MOE 2024.06 (io_trps.svl 2023.06)
