@<TRIPOS>MOLECULE
NONAME
45 47 1 0 0 
SMALL
USER_CHARGES


@<TRIPOS>ATOM
  1 O        0.3680     0.9730     1.8890 O.2   1 <1>  -0.5700 
  2 C        0.2010     1.6290     0.8790 C.2   1 <1>   0.5440 
  3 N        1.2770     1.9200     0.0980 N.am  1 <1>  -0.7300 
  4 C       -1.1120     2.1110     0.4930 C.ar  1 <1>   0.0860 
  5 C        2.6800     1.6250     0.4310 C.3   1 <1>   0.3640 
  6 C       -2.2090     1.2610     0.2940 C.ar  1 <1>  -0.1440 
  7 C       -1.3030     3.4790     0.2940 C.ar  1 <1>  -0.1500 
  8 C        3.5020     2.8730     0.1170 C.ar  1 <1>  -0.1430 
  9 C        3.1660     0.3840    -0.3480 C.3   1 <1>  -0.0800 
 10 C       -3.4350     1.7800    -0.0890 C.ar  1 <1>  -0.1500 
 11 C       -2.0750    -0.2440     0.4920 C.3   1 <1>  -0.0970 
 12 C       -2.5270     3.9920    -0.0900 C.ar  1 <1>  -0.1500 
 13 C        4.1100     3.5700     1.1520 C.ar  1 <1>  -0.1500 
 14 C        3.6540     3.3350    -1.1840 C.ar  1 <1>  -0.1500 
 15 C        2.4190    -0.9060     0.0000 C.3   1 <1>  -0.1600 
 16 C        4.6270     0.0240    -0.0730 C.3   1 <1>  -0.1600 
 17 C       -3.5970     3.1400    -0.2830 C.ar  1 <1>  -0.1500 
 18 C        4.8590     4.7040     0.8930 C.ar  1 <1>  -0.1500 
 19 C        4.4030     4.4700    -1.4450 C.ar  1 <1>  -0.1500 
 20 C        3.3570    -2.0430    -0.4130 C.3   1 <1>  -0.1600 
 21 C        4.7620    -1.4350    -0.5070 C.3   1 <1>  -0.1600 
 22 C        5.0070     5.1540    -0.4060 C.ar  1 <1>  -0.1500 
 23 H        1.1600     2.5220    -0.7150 H     1 <1>   0.3700 
 24 H        2.7530     1.4130     1.4850 H     1 <1>   0.0800 
 25 H       -0.4750     4.1500     0.4510 H     1 <1>   0.1500 
 26 H        3.0600     0.5600    -1.4040 H     1 <1>   0.0800 
 27 H       -4.2780     1.1280    -0.2400 H     1 <1>   0.1500 
 28 H       -1.2420    -0.6210    -0.0740 H     1 <1>   0.0800 
 29 H       -2.9630    -0.7600     0.1730 H     1 <1>   0.0800 
 30 H       -1.9100    -0.4610     1.5320 H     1 <1>   0.0800 
 31 H       -2.6490     5.0520    -0.2360 H     1 <1>   0.1500 
 32 H        4.0000     3.2320     2.1690 H     1 <1>   0.1500 
 33 H        3.1920     2.8150    -2.0050 H     1 <1>   0.1500 
 34 H        1.4680    -0.9650    -0.4990 H     1 <1>   0.0800 
 35 H        2.2540    -0.9520     1.0640 H     1 <1>   0.0800 
 36 H        4.8260     0.0990     0.9830 H     1 <1>   0.0800 
 37 H        5.3080     0.6670    -0.6040 H     1 <1>   0.0800 
 38 H       -4.5540     3.5330    -0.5800 H     1 <1>   0.1500 
 39 H        5.3270     5.2360     1.7030 H     1 <1>   0.1500 
 40 H        4.5160     4.8190    -2.4560 H     1 <1>   0.1500 
 41 H        3.0650    -2.4300    -1.3740 H     1 <1>   0.0800 
 42 H        3.3230    -2.8410     0.3080 H     1 <1>   0.0800 
 43 H        5.4630    -1.9610     0.1180 H     1 <1>   0.0800 
 44 H        5.1030    -1.4800    -1.5270 H     1 <1>   0.0800 
 45 H        5.5900     6.0360    -0.6080 H     1 <1>   0.1500 
@<TRIPOS>BOND
  1   1   2  2   
  2   2   3  am  
  3   2   4  1   
  4   3   5  1   
  5   3  23  1   
  6   4   6  ar  
  7   4   7  ar  
  8   5   8  1   
  9   5   9  1   
 10   5  24  1   
 11   6  10  ar  
 12   6  11  1   
 13   7  12  ar  
 14   7  25  1   
 15   8  13  ar  
 16   8  14  ar  
 17   9  15  1   
 18   9  16  1   
 19   9  26  1   
 20  10  17  ar  
 21  10  27  1   
 22  11  28  1   
 23  11  29  1   
 24  11  30  1   
 25  12  17  ar  
 26  12  31  1   
 27  13  18  ar  
 28  13  32  1   
 29  14  19  ar  
 30  14  33  1   
 31  15  20  1   
 32  15  34  1   
 33  15  35  1   
 34  16  21  1   
 35  16  36  1   
 36  16  37  1   
 37  17  38  1   
 38  18  22  ar  
 39  18  39  1   
 40  19  22  ar  
 41  19  40  1   
 42  20  21  1   
 43  20  41  1   
 44  20  42  1   
 45  21  43  1   
 46  21  44  1   
 47  22  45  1   
@<TRIPOS>SUBSTRUCTURE
  1 ****   3 GROUP 4 **** **** 0

# MOE 2024.06 (io_trps.svl 2023.06)
