@<TRIPOS>MOLECULE
NONAME
38 39 1 0 0 
SMALL
USER_CHARGES


@<TRIPOS>ATOM
  1 O        0.5150    -0.8670     0.9370 O.3   1 <1>  -0.5600 
  2 C        0.1600    -1.7380    -0.1050 C.3   1 <1>   0.2000 
  3 C        1.2990     0.2570     0.6180 C.3   1 <1>   0.2000 
  4 C        1.4280    -2.3240    -0.7830 C.3   1 <1>   0.3430 
  5 C       -0.7810    -1.0170    -1.0790 C.3   1 <1>  -0.2400 
  6 C        2.3760    -0.0730    -0.4470 C.3   1 <1>   0.3430 
  7 C        1.9330     0.7130     1.9310 C.3   1 <1>  -0.2400 
  8 N        2.6710    -1.5440    -0.4590 N.4   1 <1>  -0.9590 
  9 C        3.8490    -1.9110    -1.2880 C.3   1 <1>   0.4860 
 10 C        5.0530    -1.1540    -0.7680 C.ar  1 <1>  -0.1440 
 11 C        5.6160    -1.4880     0.4570 C.ar  1 <1>  -0.1500 
 12 C        5.5920    -0.1100    -1.5060 C.ar  1 <1>  -0.1500 
 13 C        6.6980    -0.7780     0.9500 C.ar  1 <1>  -0.1440 
 14 C        6.6750     0.5970    -1.0170 C.ar  1 <1>  -0.1500 
 15 C        7.2240     0.2650     0.2080 C.ar  1 <1>  -0.1500 
 16 C        7.3160    -1.1430     2.2890 C.3   1 <1>  -0.0970 
 17 H       -0.3900    -2.5470     0.3470 H     1 <1>   0.0800 
 18 H        0.6470     1.0330     0.2530 H     1 <1>   0.0800 
 19 H        1.2680    -2.3400    -1.8480 H     1 <1>   0.0800 
 20 H        1.5500    -3.3450    -0.4610 H     1 <1>   0.0800 
 21 H       -0.2820    -0.2380    -1.6250 H     1 <1>   0.0800 
 22 H       -1.6100    -0.5960    -0.5370 H     1 <1>   0.0800 
 23 H       -1.1770    -1.7200    -1.7890 H     1 <1>   0.0800 
 24 H        3.2680     0.4930    -0.2290 H     1 <1>   0.0800 
 25 H        2.0210     0.2360    -1.4150 H     1 <1>   0.0800 
 26 H        2.5690    -0.0520     2.3370 H     1 <1>   0.0800 
 27 H        1.1620     0.9440     2.6460 H     1 <1>   0.0800 
 28 H        2.5190     1.6010     1.7750 H     1 <1>   0.0800 
 29 H        2.9030    -1.7580     0.5200 H     1 <1>   0.4500 
 30 H        3.6740    -1.6570    -2.3210 H     1 <1>   0.0800 
 31 H        4.0370    -2.9700    -1.2210 H     1 <1>   0.0800 
 32 H        5.2230    -2.3040     1.0380 H     1 <1>   0.1500 
 33 H        5.1850     0.1640    -2.4640 H     1 <1>   0.1500 
 34 H        7.0980     1.4070    -1.5890 H     1 <1>   0.1500 
 35 H        8.0690     0.8210     0.5780 H     1 <1>   0.1500 
 36 H        6.5840    -1.5870     2.9390 H     1 <1>   0.0800 
 37 H        7.7080    -0.2660     2.7730 H     1 <1>   0.0800 
 38 H        8.1190    -1.8430     2.1410 H     1 <1>   0.0800 
@<TRIPOS>BOND
  1   1   2  1   
  2   1   3  1   
  3   2   4  1   
  4   2   5  1   
  5   2  17  1   
  6   3   6  1   
  7   3   7  1   
  8   3  18  1   
  9   4   8  1   
 10   4  19  1   
 11   4  20  1   
 12   5  21  1   
 13   5  22  1   
 14   5  23  1   
 15   6   8  1   
 16   6  24  1   
 17   6  25  1   
 18   7  26  1   
 19   7  27  1   
 20   7  28  1   
 21   8   9  1   
 22   8  29  1   
 23   9  10  1   
 24   9  30  1   
 25   9  31  1   
 26  10  11  ar  
 27  10  12  ar  
 28  11  13  ar  
 29  11  32  1   
 30  12  14  ar  
 31  12  33  1   
 32  13  15  ar  
 33  13  16  1   
 34  14  15  ar  
 35  14  34  1   
 36  15  35  1   
 37  16  36  1   
 38  16  37  1   
 39  16  38  1   
@<TRIPOS>SUBSTRUCTURE
  1 ****   8 GROUP 4 **** **** 0

# MOE 2024.06 (io_trps.svl 2023.06)
