@<TRIPOS>MOLECULE
NONAME
39 40 1 0 0 
SMALL
USER_CHARGES


@<TRIPOS>ATOM
  1 CL      -1.3260     0.3880    -0.6940 Cl    1 <1>  -0.1770 
  2 C       -2.7670    -0.5860    -0.5930 C.ar  1 <1>   0.1770 
  3 C       -3.1790    -1.3090    -1.6960 C.ar  1 <1>  -0.1500 
  4 C       -3.4820    -0.6230     0.5880 C.ar  1 <1>  -0.1500 
  5 C       -4.3240    -2.0820    -1.6070 C.ar  1 <1>  -0.1500 
  6 C       -4.6260    -1.3990     0.6650 C.ar  1 <1>  -0.1500 
  7 C       -5.0700    -2.1530    -0.4270 C.ar  1 <1>   0.0860 
  8 C       -6.2630    -2.9790    -0.3550 C.2   1 <1>   0.5440 
  9 O       -6.9530    -3.1650    -1.3390 O.2   1 <1>  -0.5700 
 10 N       -6.6440    -3.5630     0.8190 N.am  1 <1>  -0.7300 
 11 C       -7.8920    -4.3760     1.0010 C.3   1 <1>   0.2010 
 12 C       -9.1650    -3.5300     1.0620 C.2   1 <1>   0.5690 
 13 O       -9.8490    -3.5660     2.0580 O.2   1 <1>  -0.5700 
 14 N       -9.4770    -2.7620    -0.0110 N.am  1 <1>  -0.7300 
 15 C      -10.6250    -1.8560    -0.1350 C.3   1 <1>   0.2200 
 16 C      -11.4530    -2.2720    -1.3540 C.3   1 <1>  -0.1600 
 17 C      -10.1060    -0.4220    -0.2770 C.3   1 <1>  -0.1600 
 18 C      -12.6080    -1.2900    -1.6030 C.3   1 <1>  -0.1600 
 19 C      -11.2570     0.5640    -0.5230 C.3   1 <1>  -0.1600 
 20 C      -12.0920     0.1490    -1.7430 C.3   1 <1>  -0.1600 
 21 H       -2.6110    -1.2640    -2.6080 H     1 <1>   0.1500 
 22 H       -3.1450    -0.0460     1.4310 H     1 <1>   0.1500 
 23 H       -4.6520    -2.6460    -2.4650 H     1 <1>   0.1500 
 24 H       -5.1850    -1.4120     1.5840 H     1 <1>   0.1500 
 25 H       -6.1090    -3.3890     1.6710 H     1 <1>   0.3700 
 26 H       -7.8140    -4.9500     1.9060 H     1 <1>   0.0800 
 27 H       -7.9860    -5.0640     0.1790 H     1 <1>   0.0800 
 28 H       -8.8020    -2.7450    -0.7900 H     1 <1>   0.3700 
 29 H      -11.2370    -1.9260     0.7500 H     1 <1>   0.0800 
 30 H      -11.8510    -3.2580    -1.1920 H     1 <1>   0.0800 
 31 H      -10.8210    -2.2970    -2.2250 H     1 <1>   0.0800 
 32 H       -9.4170    -0.3710    -1.1020 H     1 <1>   0.0800 
 33 H       -9.5840    -0.1440     0.6220 H     1 <1>   0.0800 
 34 H      -13.3010    -1.3410    -0.7800 H     1 <1>   0.0800 
 35 H      -13.1360    -1.5730    -2.4970 H     1 <1>   0.0800 
 36 H      -10.8590     1.5520    -0.6770 H     1 <1>   0.0800 
 37 H      -11.8900     0.5950     0.3480 H     1 <1>   0.0800 
 38 H      -12.9250     0.8210    -1.8550 H     1 <1>   0.0800 
 39 H      -11.4860     0.2240    -2.6300 H     1 <1>   0.0800 
@<TRIPOS>BOND
  1   1   2  1   
  2   2   3  ar  
  3   2   4  ar  
  4   3   5  ar  
  5   3  21  1   
  6   4   6  ar  
  7   4  22  1   
  8   5   7  ar  
  9   5  23  1   
 10   6   7  ar  
 11   6  24  1   
 12   7   8  1   
 13   8   9  2   
 14   8  10  am  
 15  10  11  1   
 16  10  25  1   
 17  11  12  1   
 18  11  26  1   
 19  11  27  1   
 20  12  13  2   
 21  12  14  am  
 22  14  15  1   
 23  14  28  1   
 24  15  16  1   
 25  15  17  1   
 26  15  29  1   
 27  16  18  1   
 28  16  30  1   
 29  16  31  1   
 30  17  19  1   
 31  17  32  1   
 32  17  33  1   
 33  18  20  1   
 34  18  34  1   
 35  18  35  1   
 36  19  20  1   
 37  19  36  1   
 38  19  37  1   
 39  20  38  1   
 40  20  39  1   
@<TRIPOS>SUBSTRUCTURE
  1 ****   8 GROUP 4 **** **** 0

# MOE 2024.06 (io_trps.svl 2023.06)
