@<TRIPOS>MOLECULE
NONAME
32 32 1 0 0 
SMALL
USER_CHARGES


@<TRIPOS>ATOM
  1 O        0.3060     0.4880    -0.8700 O.2   1 <1>  -0.5700 
  2 C        1.3560     1.0180    -0.5820 C.2   1 <1>   0.6900 
  3 N        1.4710     2.3800    -0.6220 N.am  1 <1>  -0.3680 
  4 N        2.4090     0.2700    -0.2230 N.am  1 <1>  -0.8000 
  5 N        2.5870     3.1550    -0.3360 N.2   1 <1>  -0.5120 
  6 C        2.5500     4.4380    -0.3820 C.2   1 <1>   0.3750 
  7 C        3.7220     5.2540    -0.1390 C.2   1 <1>  -0.1240 
  8 C        1.2680     5.2120    -0.7210 C.3   1 <1>  -0.0990 
  9 C        3.7150     6.6000    -0.1530 C.2   1 <1>  -0.2880 
 10 C        5.0320     4.5230     0.1330 C.3   1 <1>  -0.1020 
 11 C        1.2110     6.5920    -0.0450 C.3   1 <1>   0.0580 
 12 C        2.4600     7.4170    -0.3980 C.3   1 <1>  -0.0220 
 13 C       -0.1050     7.3110    -0.3690 C.2   1 <1>  -0.2760 
 14 C       -0.2590     8.2900    -1.2690 C.2   1 <1>  -0.3000 
 15 C       -1.2900     6.8200     0.4530 C.3   1 <1>  -0.1020 
 16 H        0.6040     2.8270    -0.9230 H     1 <1>   0.3700 
 17 H        2.3480    -0.7440    -0.1950 H     1 <1>   0.3700 
 18 H        3.2870     0.7310     0.0090 H     1 <1>   0.3700 
 19 H        1.2190     5.3390    -1.7870 H     1 <1>   0.0800 
 20 H        0.4050     4.6580    -0.4100 H     1 <1>   0.0800 
 21 H        4.5950     7.2020     0.0010 H     1 <1>   0.1500 
 22 H        5.2820     3.8940    -0.7030 H     1 <1>   0.0800 
 23 H        4.9340     3.9080     1.0100 H     1 <1>   0.0800 
 24 H        5.8390     5.2150     0.2920 H     1 <1>   0.0800 
 25 H        1.2460     6.4350     1.0210 H     1 <1>   0.0800 
 26 H        2.4490     7.7130    -1.4310 H     1 <1>   0.0800 
 27 H        2.4760     8.3040     0.2120 H     1 <1>   0.0800 
 28 H        0.5180     8.6970    -1.8900 H     1 <1>   0.1500 
 29 H       -1.1990     8.7770    -1.4670 H     1 <1>   0.1500 
 30 H       -1.4920     5.7830     0.2550 H     1 <1>   0.0800 
 31 H       -2.1760     7.3810     0.2150 H     1 <1>   0.0800 
 32 H       -1.0920     6.9410     1.5030 H     1 <1>   0.0800 
@<TRIPOS>BOND
  1   1   2  2   
  2   2   3  am  
  3   2   4  am  
  4   3   5  1   
  5   3  16  1   
  6   4  17  1   
  7   4  18  1   
  8   5   6  2   
  9   6   7  1   
 10   6   8  1   
 11   7   9  2   
 12   7  10  1   
 13   8  11  1   
 14   8  19  1   
 15   8  20  1   
 16   9  12  1   
 17   9  21  1   
 18  10  22  1   
 19  10  23  1   
 20  10  24  1   
 21  11  12  1   
 22  11  13  1   
 23  11  25  1   
 24  12  26  1   
 25  12  27  1   
 26  13  14  2   
 27  13  15  1   
 28  14  28  1   
 29  14  29  1   
 30  15  30  1   
 31  15  31  1   
 32  15  32  1   
@<TRIPOS>SUBSTRUCTURE
  1 ****   6 GROUP 4 **** **** 0

# MOE 2024.06 (io_trps.svl 2023.06)
