@<TRIPOS>MOLECULE
NONAME
42 43 1 0 0 
SMALL
USER_CHARGES


@<TRIPOS>ATOM
  1 I        0.5740    -0.5150     0.7590 I     1 <1>  -0.0810 
  2 C       -1.4360    -1.1720     0.5020 C.ar  1 <1>   0.0810 
  3 C       -1.6620    -2.4670     0.0760 C.ar  1 <1>  -0.1500 
  4 C       -2.4620    -0.2860     0.7700 C.ar  1 <1>  -0.1500 
  5 C       -2.9690    -2.8970    -0.0920 C.ar  1 <1>  -0.1440 
  6 C       -3.7650    -0.7190     0.6010 C.ar  1 <1>  -0.1500 
  7 C       -4.0250    -2.0220     0.1710 C.ar  1 <1>   0.0830 
  8 C       -3.2360    -4.3200    -0.5610 C.3   1 <1>  -0.0960 
  9 O       -5.2870    -2.4980    -0.0110 O.3   1 <1>  -0.3630 
 10 C       -6.4220    -1.7010     0.2210 C.3   1 <1>   0.1200 
 11 C       -7.6540    -2.5570    -0.0830 C.3   1 <1>  -0.1600 
 12 C       -8.9610    -1.7810     0.1320 C.3   1 <1>  -0.1600 
 13 C      -10.1670    -2.6740    -0.1730 C.3   1 <1>   0.3430 
 14 N      -11.4400    -1.9620     0.1250 N.4   1 <1>  -0.9590 
 15 C      -12.5940    -2.9290     0.1560 C.3   1 <1>   0.3430 
 16 C      -11.7260    -0.8530    -0.8550 C.3   1 <1>   0.3430 
 17 C      -13.9390    -2.2040     0.3570 C.3   1 <1>   0.1200 
 18 C      -13.1110    -0.2210    -0.6120 C.3   1 <1>   0.1200 
 19 O      -14.1000    -1.2090    -0.6110 O.3   1 <1>  -0.5600 
 20 H       -0.8320    -3.1210    -0.1200 H     1 <1>   0.1500 
 21 H       -2.2480     0.7150     1.1000 H     1 <1>   0.1500 
 22 H       -4.5580    -0.0280     0.8100 H     1 <1>   0.1500 
 23 H       -2.3180    -4.8590    -0.7130 H     1 <1>   0.0800 
 24 H       -3.7810    -4.3010    -1.4870 H     1 <1>   0.0800 
 25 H       -3.8220    -4.8410     0.1750 H     1 <1>   0.0800 
 26 H       -6.3730    -0.8460    -0.4320 H     1 <1>   0.0800 
 27 H       -6.4110    -1.3890     1.2510 H     1 <1>   0.0800 
 28 H       -7.6320    -3.4210     0.5610 H     1 <1>   0.0800 
 29 H       -7.5920    -2.8900    -1.1050 H     1 <1>   0.0800 
 30 H       -8.9600    -0.9220    -0.5150 H     1 <1>   0.0800 
 31 H       -9.0050    -1.4510     1.1560 H     1 <1>   0.0800 
 32 H      -10.0990    -3.5620     0.4360 H     1 <1>   0.0800 
 33 H      -10.1450    -2.9780    -1.2080 H     1 <1>   0.0800 
 34 H      -11.3660    -1.5430     1.0620 H     1 <1>   0.4500 
 35 H      -12.4560    -3.6460     0.9490 H     1 <1>   0.0800 
 36 H      -12.6410    -3.4710    -0.7750 H     1 <1>   0.0800 
 37 H      -11.7050    -1.2410    -1.8600 H     1 <1>   0.0800 
 38 H      -10.9720    -0.0870    -0.7800 H     1 <1>   0.0800 
 39 H      -14.0000    -1.7550     1.3330 H     1 <1>   0.0800 
 40 H      -14.7550    -2.8980     0.2480 H     1 <1>   0.0800 
 41 H      -13.3450     0.4740    -1.3990 H     1 <1>   0.0800 
 42 H      -13.1420     0.3030     0.3280 H     1 <1>   0.0800 
@<TRIPOS>BOND
  1   1   2  1   
  2   2   3  ar  
  3   2   4  ar  
  4   3   5  ar  
  5   3  20  1   
  6   4   6  ar  
  7   4  21  1   
  8   5   7  ar  
  9   5   8  1   
 10   6   7  ar  
 11   6  22  1   
 12   7   9  1   
 13   8  23  1   
 14   8  24  1   
 15   8  25  1   
 16   9  10  1   
 17  10  11  1   
 18  10  26  1   
 19  10  27  1   
 20  11  12  1   
 21  11  28  1   
 22  11  29  1   
 23  12  13  1   
 24  12  30  1   
 25  12  31  1   
 26  13  14  1   
 27  13  32  1   
 28  13  33  1   
 29  14  15  1   
 30  14  16  1   
 31  14  34  1   
 32  15  17  1   
 33  15  35  1   
 34  15  36  1   
 35  16  18  1   
 36  16  37  1   
 37  16  38  1   
 38  17  19  1   
 39  17  39  1   
 40  17  40  1   
 41  18  19  1   
 42  18  41  1   
 43  18  42  1   
@<TRIPOS>SUBSTRUCTURE
  1 ****  10 GROUP 4 **** **** 0

# MOE 2024.06 (io_trps.svl 2023.06)
