@<TRIPOS>MOLECULE
NONAME
44 45 1 0 0 
SMALL
USER_CHARGES


@<TRIPOS>ATOM
  1 CL       0.1290     0.6440    -0.1230 Cl    1 <1>  -0.1770 
  2 C        1.8290     0.2250    -0.0620 C.ar  1 <1>   0.1770 
  3 C        2.7300     1.0330     0.6200 C.ar  1 <1>   0.0830 
  4 C        2.2360    -0.9240    -0.7110 C.ar  1 <1>  -0.1500 
  5 O        2.2530     2.1530     1.2360 O.3   1 <1>  -0.3630 
  6 C        4.0710     0.6630     0.6440 C.ar  1 <1>  -0.1500 
  7 C        3.5780    -1.2860    -0.6820 C.ar  1 <1>   0.0830 
  8 C        3.1120     3.0200     1.9460 C.3   1 <1>   0.0400 
  9 C        4.5070    -0.4900    -0.0010 C.ar  1 <1>   0.1170 
 10 O        4.0550    -2.4110    -1.3030 O.3   1 <1>  -0.3630 
 11 N        5.8520    -0.9100    -0.0080 N.am  1 <1>  -0.5470 
 12 C        3.1870    -3.2760    -2.0040 C.3   1 <1>   0.0400 
 13 C        7.0020    -0.4040     0.5310 C.2   1 <1>   0.5690 
 14 O        7.0430     0.6120     1.1820 O.2   1 <1>  -0.5700 
 15 C        8.2920    -1.1840     0.2710 C.3   1 <1>  -0.0190 
 16 C        9.3170    -1.0430     1.4160 C.3   1 <1>  -0.1600 
 17 C        8.9320    -0.7570    -1.0630 C.3   1 <1>  -0.1600 
 18 C       10.6080    -1.8060     1.1160 C.3   1 <1>   0.1400 
 19 C       10.2320    -1.5180    -1.3390 C.3   1 <1>   0.1400 
 20 N       11.1620    -1.3470    -0.1890 N.am  1 <1>  -0.6600 
 21 C       12.4000    -0.7820    -0.3650 C.2   1 <1>   0.5690 
 22 O       12.8120    -0.4560    -1.4520 O.2   1 <1>  -0.5700 
 23 C       13.3130    -0.5410     0.8150 C.3   1 <1>  -0.1790 
 24 H        1.4920    -1.5050    -1.2200 H     1 <1>   0.1500 
 25 H        4.7840     1.2690     1.1630 H     1 <1>   0.1500 
 26 H        2.5200     3.8260     2.3400 H     1 <1>   0.0800 
 27 H        3.8540     3.4080     1.2710 H     1 <1>   0.0800 
 28 H        3.5710     2.4760     2.7520 H     1 <1>   0.0800 
 29 H        5.9610    -1.7720    -0.5440 H     1 <1>   0.3700 
 30 H        3.7710    -4.0870    -2.4020 H     1 <1>   0.0800 
 31 H        2.7240    -2.7330    -2.8090 H     1 <1>   0.0800 
 32 H        2.4480    -3.6610    -1.3230 H     1 <1>   0.0800 
 33 H        8.0330    -2.2260     0.1990 H     1 <1>   0.0800 
 34 H        8.8880    -1.4100     2.3320 H     1 <1>   0.0800 
 35 H        9.5580    -0.0040     1.5650 H     1 <1>   0.0800 
 36 H        9.1480     0.2980    -1.0390 H     1 <1>   0.0800 
 37 H        8.2450    -0.9290    -1.8720 H     1 <1>   0.0800 
 38 H       10.4040    -2.8620     1.0540 H     1 <1>   0.0800 
 39 H       11.3080    -1.6530     1.9160 H     1 <1>   0.0800 
 40 H       10.6760    -1.1480    -2.2480 H     1 <1>   0.0800 
 41 H       10.0290    -2.5660    -1.4730 H     1 <1>   0.0800 
 42 H       13.5680    -1.4760     1.2760 H     1 <1>   0.0800 
 43 H       12.8290     0.1010     1.5250 H     1 <1>   0.0800 
 44 H       14.2160    -0.0650     0.4810 H     1 <1>   0.0800 
@<TRIPOS>BOND
  1   1   2  1   
  2   2   3  ar  
  3   2   4  ar  
  4   3   5  1   
  5   3   6  ar  
  6   4   7  ar  
  7   4  24  1   
  8   5   8  1   
  9   6   9  ar  
 10   6  25  1   
 11   7   9  ar  
 12   7  10  1   
 13   8  26  1   
 14   8  27  1   
 15   8  28  1   
 16   9  11  1   
 17  10  12  1   
 18  11  13  am  
 19  11  29  1   
 20  12  30  1   
 21  12  31  1   
 22  12  32  1   
 23  13  14  2   
 24  13  15  1   
 25  15  16  1   
 26  15  17  1   
 27  15  33  1   
 28  16  18  1   
 29  16  34  1   
 30  16  35  1   
 31  17  19  1   
 32  17  36  1   
 33  17  37  1   
 34  18  20  1   
 35  18  38  1   
 36  18  39  1   
 37  19  20  1   
 38  19  40  1   
 39  19  41  1   
 40  20  21  am  
 41  21  22  2   
 42  21  23  1   
 43  23  42  1   
 44  23  43  1   
 45  23  44  1   
@<TRIPOS>SUBSTRUCTURE
  1 ****  13 GROUP 4 **** **** 0

# MOE 2024.06 (io_trps.svl 2023.06)
