@<TRIPOS>MOLECULE
NONAME
49 50 1 0 0 
SMALL
USER_CHARGES


@<TRIPOS>ATOM
  1 S        0.2130    -0.6200    -1.2310 S.o2  1 <1>   1.4470 
  2 O       -0.6980     0.4400    -1.6070 O.2   1 <1>  -0.6500 
  3 O        0.5610    -1.6360    -2.2010 O.2   1 <1>  -0.6500 
  4 N       -0.4750    -1.4280     0.0920 N.am  1 <1>  -0.8490 
  5 C        1.7120     0.1140    -0.5170 C.ar  1 <1>  -0.0090 
  6 C        0.2920    -2.6220     0.4640 C.3   1 <1>   0.1960 
  7 C       -1.8780    -1.7670    -0.1650 C.3   1 <1>   0.1960 
  8 C        2.9730    -0.1700    -1.0210 C.ar  1 <1>  -0.1500 
  9 C        1.6320     0.9780     0.5650 C.ar  1 <1>  -0.1500 
 10 C       -0.2670    -3.2290     1.7550 C.3   1 <1>  -0.1600 
 11 C       -2.5220    -2.3570     1.0940 C.3   1 <1>  -0.1600 
 12 C        4.1410     0.3650    -0.4810 C.ar  1 <1>   0.0860 
 13 C        2.7680     1.5400     1.1160 C.ar  1 <1>  -0.1500 
 14 C       -1.7520    -3.5800     1.6040 C.3   1 <1>  -0.1600 
 15 C        4.0190     1.2470     0.6000 C.ar  1 <1>  -0.1430 
 16 C        5.4160    -0.0200    -1.0550 C.2   1 <1>   0.5440 
 17 C        5.2380     1.9190     1.2210 C.3   1 <1>  -0.0970 
 18 O        5.6460     0.1720    -2.2310 O.2   1 <1>  -0.5700 
 19 N        6.3600    -0.6350    -0.2820 N.am  1 <1>  -0.7300 
 20 C        7.6600    -1.1580    -0.7630 C.3   1 <1>   0.1400 
 21 C        7.8850    -2.5940    -0.2610 C.3   1 <1>  -0.0800 
 22 C        9.2740    -3.0860    -0.6880 C.3   1 <1>  -0.2400 
 23 C        6.8150    -3.5620    -0.7890 C.3   1 <1>  -0.2400 
 24 H        1.3240    -2.3600     0.6220 H     1 <1>   0.0800 
 25 H        0.2480    -3.3510    -0.3300 H     1 <1>   0.0800 
 26 H       -1.9400    -2.4700    -0.9800 H     1 <1>   0.0800 
 27 H       -2.4230    -0.8800    -0.4440 H     1 <1>   0.0800 
 28 H        3.0620    -0.8320    -1.8670 H     1 <1>   0.1500 
 29 H        0.6640     1.2140     0.9770 H     1 <1>   0.1500 
 30 H       -0.1390    -2.5220     2.5550 H     1 <1>   0.0800 
 31 H        0.2900    -4.1150     2.0040 H     1 <1>   0.0800 
 32 H       -3.5390    -2.6340     0.8780 H     1 <1>   0.0800 
 33 H       -2.5450    -1.5980     1.8570 H     1 <1>   0.0800 
 34 H        2.6670     2.2140     1.9500 H     1 <1>   0.1500 
 35 H       -2.1540    -3.9020     2.5490 H     1 <1>   0.0800 
 36 H       -1.8590    -4.3890     0.9010 H     1 <1>   0.0800 
 37 H        5.7550     1.2310     1.8650 H     1 <1>   0.0800 
 38 H        4.9500     2.7780     1.8000 H     1 <1>   0.0800 
 39 H        5.9150     2.2520     0.4530 H     1 <1>   0.0800 
 40 H        6.1360    -0.8420     0.6910 H     1 <1>   0.3700 
 41 H        8.4450    -0.5170    -0.4020 H     1 <1>   0.0800 
 42 H        7.6850    -1.1420    -1.8400 H     1 <1>   0.0800 
 43 H        7.8530    -2.5890     0.8160 H     1 <1>   0.0800 
 44 H        9.3540    -3.1090    -1.7610 H     1 <1>   0.0800 
 45 H        9.4530    -4.0770    -0.3100 H     1 <1>   0.0800 
 46 H       10.0390    -2.4350    -0.3010 H     1 <1>   0.0800 
 47 H        6.8060    -3.5620    -1.8650 H     1 <1>   0.0800 
 48 H        5.8380    -3.2750    -0.4430 H     1 <1>   0.0800 
 49 H        7.0110    -4.5630    -0.4460 H     1 <1>   0.0800 
@<TRIPOS>BOND
  1   1   2  2   
  2   1   3  2   
  3   1   4  am  
  4   1   5  1   
  5   4   6  1   
  6   4   7  1   
  7   5   8  ar  
  8   5   9  ar  
  9   6  10  1   
 10   6  24  1   
 11   6  25  1   
 12   7  11  1   
 13   7  26  1   
 14   7  27  1   
 15   8  12  ar  
 16   8  28  1   
 17   9  13  ar  
 18   9  29  1   
 19  10  14  1   
 20  10  30  1   
 21  10  31  1   
 22  11  14  1   
 23  11  32  1   
 24  11  33  1   
 25  12  15  ar  
 26  12  16  1   
 27  13  15  ar  
 28  13  34  1   
 29  14  35  1   
 30  14  36  1   
 31  15  17  1   
 32  16  18  2   
 33  16  19  am  
 34  17  37  1   
 35  17  38  1   
 36  17  39  1   
 37  19  20  1   
 38  19  40  1   
 39  20  21  1   
 40  20  41  1   
 41  20  42  1   
 42  21  22  1   
 43  21  23  1   
 44  21  43  1   
 45  22  44  1   
 46  22  45  1   
 47  22  46  1   
 48  23  47  1   
 49  23  48  1   
 50  23  49  1   
@<TRIPOS>SUBSTRUCTURE
  1 ****   8 GROUP 4 **** **** 0

# MOE 2024.06 (io_trps.svl 2023.06)
