@<TRIPOS>MOLECULE
NONAME
56 59 1 0 0 
SMALL
USER_CHARGES


@<TRIPOS>ATOM
  1 O        0.1540    -0.3780     0.3440 O.2   1 <1>  -0.5700 
  2 C       -0.8360    -0.7580    -0.2230 C.2   1 <1>   0.4950 
  3 C       -1.3530    -2.1060    -0.0630 C.2   1 <1>  -0.1240 
  4 C       -1.4910     0.2590    -1.1320 C.3   1 <1>  -0.1790 
  5 C       -0.6260    -3.2280     0.0500 C.2   1 <1>  -0.2760 
  6 C       -2.8490    -2.4220     0.0940 C.3   1 <1>   0.1380 
  7 C       -1.4370    -4.4660     0.2950 C.3   1 <1>  -0.0220 
  8 C        0.8830    -3.4160    -0.0210 C.3   1 <1>  -0.1020 
  9 C       -2.8970    -3.9700     0.3400 C.3   1 <1>  -0.0800 
 10 C       -3.6980    -2.0360    -1.1430 C.3   1 <1>  -0.1600 
 11 C       -3.3460    -1.6740     1.3450 C.3   1 <1>  -0.2400 
 12 C       -3.7800    -4.7610    -0.6630 C.3   1 <1>  -0.0800 
 13 C       -5.1220    -2.6160    -1.1110 C.3   1 <1>  -0.1600 
 14 C       -5.1870    -4.1510    -0.8920 C.3   1 <1>  -0.0800 
 15 C       -3.8080    -6.2900    -0.4250 C.3   1 <1>  -0.0220 
 16 C       -6.3440    -4.6280     0.0580 C.3   1 <1>   0.1380 
 17 C       -5.1380    -6.8480     0.0360 C.2   1 <1>  -0.2880 
 18 C       -6.2520    -6.1470     0.2600 C.2   1 <1>  -0.2760 
 19 C       -7.6910    -4.2560    -0.6220 C.3   1 <1>  -0.1600 
 20 C       -6.2900    -4.0020     1.4670 C.3   1 <1>  -0.2400 
 21 C       -7.5090    -6.8450     0.7830 C.3   1 <1>  -0.0220 
 22 C       -8.9330    -4.9240    -0.0130 C.3   1 <1>  -0.1600 
 23 C       -8.7540    -6.4390    -0.0040 C.3   1 <1>   0.2000 
 24 O       -9.8690    -7.0030     0.5850 O.3   1 <1>  -0.6800 
 25 H       -1.7760    -0.2010    -2.0590 H     1 <1>   0.0800 
 26 H       -0.7920     1.0460    -1.3520 H     1 <1>   0.0800 
 27 H       -2.3440     0.6930    -0.6470 H     1 <1>   0.0800 
 28 H       -1.1600    -4.9140     1.2340 H     1 <1>   0.0800 
 29 H       -1.2620    -5.1680    -0.5000 H     1 <1>   0.0800 
 30 H        1.1310    -4.1360    -0.7800 H     1 <1>   0.0800 
 31 H        1.2530    -3.7660     0.9250 H     1 <1>   0.0800 
 32 H        1.3830    -2.4950    -0.2580 H     1 <1>   0.0800 
 33 H       -3.2630    -4.1610     1.3320 H     1 <1>   0.0800 
 34 H       -3.1980    -2.3750    -2.0340 H     1 <1>   0.0800 
 35 H       -3.7980    -0.9710    -1.2130 H     1 <1>   0.0800 
 36 H       -4.3520    -1.9490     1.5900 H     1 <1>   0.0800 
 37 H       -2.7190    -1.9090     2.1870 H     1 <1>   0.0800 
 38 H       -3.3160    -0.6110     1.1940 H     1 <1>   0.0800 
 39 H       -3.2760    -4.6530    -1.6090 H     1 <1>   0.0800 
 40 H       -5.6060    -2.3820    -2.0430 H     1 <1>   0.0800 
 41 H       -5.6720    -2.0920    -0.3550 H     1 <1>   0.0800 
 42 H       -5.4530    -4.5560    -1.8540 H     1 <1>   0.0800 
 43 H       -3.0630    -6.5760     0.2950 H     1 <1>   0.0800 
 44 H       -3.5590    -6.7820    -1.3490 H     1 <1>   0.0800 
 45 H       -5.0910    -7.9130     0.1850 H     1 <1>   0.1500 
 46 H       -7.6540    -4.5500    -1.6560 H     1 <1>   0.0800 
 47 H       -7.8290    -3.1900    -0.6020 H     1 <1>   0.0800 
 48 H       -5.3530    -4.2220     1.9380 H     1 <1>   0.0800 
 49 H       -7.0590    -4.4050     2.0970 H     1 <1>   0.0800 
 50 H       -6.4340    -2.9400     1.4440 H     1 <1>   0.0800 
 51 H       -7.6410    -6.5950     1.8190 H     1 <1>   0.0800 
 52 H       -7.3890    -7.9120     0.7130 H     1 <1>   0.0800 
 53 H       -9.7950    -4.6730    -0.6070 H     1 <1>   0.0800 
 54 H       -9.0890    -4.5600     0.9860 H     1 <1>   0.0800 
 55 H       -8.6880    -6.8150    -1.0120 H     1 <1>   0.0800 
 56 H       -9.9850    -6.6460     1.4850 H     1 <1>   0.4000 
@<TRIPOS>BOND
  1   1   2  2   
  2   2   3  1   
  3   2   4  1   
  4   3   5  2   
  5   3   6  1   
  6   4  25  1   
  7   4  26  1   
  8   4  27  1   
  9   5   7  1   
 10   5   8  1   
 11   6   9  1   
 12   6  10  1   
 13   6  11  1   
 14   7   9  1   
 15   7  28  1   
 16   7  29  1   
 17   8  30  1   
 18   8  31  1   
 19   8  32  1   
 20   9  12  1   
 21   9  33  1   
 22  10  13  1   
 23  10  34  1   
 24  10  35  1   
 25  11  36  1   
 26  11  37  1   
 27  11  38  1   
 28  12  14  1   
 29  12  15  1   
 30  12  39  1   
 31  13  14  1   
 32  13  40  1   
 33  13  41  1   
 34  14  16  1   
 35  14  42  1   
 36  15  17  1   
 37  15  43  1   
 38  15  44  1   
 39  16  18  1   
 40  16  19  1   
 41  16  20  1   
 42  17  18  2   
 43  17  45  1   
 44  18  21  1   
 45  19  22  1   
 46  19  46  1   
 47  19  47  1   
 48  20  48  1   
 49  20  49  1   
 50  20  50  1   
 51  21  23  1   
 52  21  51  1   
 53  21  52  1   
 54  22  23  1   
 55  22  53  1   
 56  22  54  1   
 57  23  24  1   
 58  23  55  1   
 59  24  56  1   
@<TRIPOS>SUBSTRUCTURE
  1 ****  12 GROUP 4 **** **** 0

# MOE 2024.06 (io_trps.svl 2023.06)
