@<TRIPOS>MOLECULE
NONAME
48 49 1 0 0 
SMALL
USER_CHARGES


@<TRIPOS>ATOM
  1 O       -2.8290     4.3390     0.2120 O.3   1 <1>  -0.3630 
  2 C       -3.9560     3.6530     0.5390 C.ar  1 <1>   0.0830 
  3 C       -1.5840     4.0540     0.8130 C.3   1 <1>   0.1200 
  4 C       -5.1440     4.0350    -0.0790 C.ar  1 <1>  -0.1440 
  5 C       -3.9630     2.6020     1.4550 C.ar  1 <1>  -0.1500 
  6 C       -0.5360     5.0070     0.2260 C.3   1 <1>   0.2000 
  7 C       -6.3190     3.3640     0.2220 C.ar  1 <1>  -0.1500 
  8 C       -5.1710     5.1800    -1.0820 C.3   1 <1>  -0.0960 
  9 C       -5.1420     1.9410     1.7470 C.ar  1 <1>  -0.1500 
 10 O       -0.6170     4.9650    -1.1690 O.3   1 <1>  -0.6800 
 11 C        0.9020     4.6560     0.6700 C.3   1 <1>   0.3430 
 12 C       -6.3200     2.3210     1.1310 C.ar  1 <1>  -0.1500 
 13 N        1.8920     5.0640    -0.3800 N.4   1 <1>  -0.9590 
 14 C        2.7690     3.9270    -0.7670 C.3   1 <1>   0.4230 
 15 C        2.6450     6.3150    -0.1030 C.3   1 <1>   0.4230 
 16 C        4.2030     4.0700    -0.2180 C.3   1 <1>  -0.1600 
 17 C        2.7640     3.8360    -2.2880 C.3   1 <1>  -0.2400 
 18 C        3.5670     6.1260     1.1150 C.3   1 <1>  -0.1600 
 19 C        1.7010     7.5020     0.0660 C.3   1 <1>  -0.2400 
 20 C        4.2320     4.7370     1.1650 C.3   1 <1>  -0.1600 
 21 H       -1.3320     3.0300     0.5970 H     1 <1>   0.0800 
 22 H       -1.6790     4.1960     1.8750 H     1 <1>   0.0800 
 23 H       -3.0700     2.2790     1.9510 H     1 <1>   0.1500 
 24 H       -0.7740     6.0100     0.5340 H     1 <1>   0.0800 
 25 H       -7.2440     3.6480    -0.2500 H     1 <1>   0.1500 
 26 H       -4.5550     4.9370    -1.9290 H     1 <1>   0.0800 
 27 H       -4.7960     6.0770    -0.6230 H     1 <1>   0.0800 
 28 H       -6.1710     5.3680    -1.4300 H     1 <1>   0.0800 
 29 H       -5.1460     1.1290     2.4540 H     1 <1>   0.1500 
 30 H       -1.5720     4.9400    -1.4180 H     1 <1>   0.4000 
 31 H        0.9570     3.5910     0.8200 H     1 <1>   0.0800 
 32 H        1.1250     5.1280     1.6130 H     1 <1>   0.0800 
 33 H       -7.2380     1.8060     1.3580 H     1 <1>   0.1500 
 34 H        1.2780     5.2390    -1.1980 H     1 <1>   0.4500 
 35 H        2.3480     3.0140    -0.3780 H     1 <1>   0.0800 
 36 H        3.2710     6.5140    -0.9580 H     1 <1>   0.0800 
 37 H        4.8020     4.6500    -0.8990 H     1 <1>   0.0800 
 38 H        4.6530     3.0940    -0.1620 H     1 <1>   0.0800 
 39 H        3.1600     4.7320    -2.7330 H     1 <1>   0.0800 
 40 H        1.7650     3.6680    -2.6500 H     1 <1>   0.0800 
 41 H        3.3720     3.0070    -2.6030 H     1 <1>   0.0800 
 42 H        3.0290     6.2980     2.0310 H     1 <1>   0.0800 
 43 H        4.3330     6.8790     1.0610 H     1 <1>   0.0800 
 44 H        1.1200     7.4270     0.9670 H     1 <1>   0.0800 
 45 H        1.0470     7.5870    -0.7830 H     1 <1>   0.0800 
 46 H        2.2800     8.4070     0.1270 H     1 <1>   0.0800 
 47 H        5.2490     4.8280     1.5120 H     1 <1>   0.0800 
 48 H        3.7070     4.1110     1.8670 H     1 <1>   0.0800 
@<TRIPOS>BOND
  1   1   2  1   
  2   1   3  1   
  3   2   4  ar  
  4   2   5  ar  
  5   3   6  1   
  6   3  21  1   
  7   3  22  1   
  8   4   7  ar  
  9   4   8  1   
 10   5   9  ar  
 11   5  23  1   
 12   6  10  1   
 13   6  11  1   
 14   6  24  1   
 15   7  12  ar  
 16   7  25  1   
 17   8  26  1   
 18   8  27  1   
 19   8  28  1   
 20   9  12  ar  
 21   9  29  1   
 22  10  30  1   
 23  11  13  1   
 24  11  31  1   
 25  11  32  1   
 26  12  33  1   
 27  13  14  1   
 28  13  15  1   
 29  13  34  1   
 30  14  16  1   
 31  14  17  1   
 32  14  35  1   
 33  15  18  1   
 34  15  19  1   
 35  15  36  1   
 36  16  20  1   
 37  16  37  1   
 38  16  38  1   
 39  17  39  1   
 40  17  40  1   
 41  17  41  1   
 42  18  20  1   
 43  18  42  1   
 44  18  43  1   
 45  19  44  1   
 46  19  45  1   
 47  19  46  1   
 48  20  47  1   
 49  20  48  1   
@<TRIPOS>SUBSTRUCTURE
  1 ****   6 GROUP 4 **** **** 0

# MOE 2024.06 (io_trps.svl 2023.06)
