@<TRIPOS>MOLECULE
NONAME
36 37 1 0 0 
SMALL
USER_CHARGES


@<TRIPOS>ATOM
  1 BR      -0.9410     1.5170     4.0150 Br    1 <1>  -0.1110 
  2 C       -1.3730     2.6410     2.5150 C.ar  1 <1>   0.1110 
  3 C       -1.9820     2.0750     1.4140 C.ar  1 <1>  -0.1500 
  4 C       -1.0630     3.9860     2.5810 C.ar  1 <1>  -0.1500 
  5 C       -2.3010     2.8830     0.3340 C.ar  1 <1>   0.0830 
  6 C       -1.3780     4.7900     1.4980 C.ar  1 <1>  -0.1500 
  7 O       -2.9130     2.2740    -0.7120 O.3   1 <1>  -0.3630 
  8 C       -1.9910     4.2430     0.3800 C.ar  1 <1>  -0.1500 
  9 C       -3.4330     2.9970    -1.8210 C.3   1 <1>   0.2610 
 10 C       -4.5660     3.9760    -1.4410 C.2   1 <1>   0.5690 
 11 C       -3.8570     1.9760    -2.8840 C.3   1 <1>  -0.2400 
 12 O       -4.4610     5.0930    -1.9000 O.2   1 <1>  -0.5700 
 13 N       -5.6430     3.6410    -0.6450 N.am  1 <1>  -0.6600 
 14 C       -6.6490     4.6660    -0.2430 C.3   1 <1>   0.1400 
 15 C       -5.8830     2.3130    -0.0110 C.3   1 <1>   0.1400 
 16 C       -6.6130     4.8460     1.2780 C.3   1 <1>  -0.1600 
 17 C       -5.8350     2.4580     1.5140 C.3   1 <1>  -0.1600 
 18 C       -6.8300     3.5150     2.0120 C.3   1 <1>  -0.1600 
 19 H       -2.2090     1.0260     1.3920 H     1 <1>   0.1500 
 20 H       -0.5880     4.3920     3.4560 H     1 <1>   0.1500 
 21 H       -1.1470     5.8410     1.5220 H     1 <1>   0.1500 
 22 H       -2.2190     4.8980    -0.4410 H     1 <1>   0.1500 
 23 H       -2.6180     3.5710    -2.2250 H     1 <1>   0.0800 
 24 H       -4.6630     1.3630    -2.5280 H     1 <1>   0.0800 
 25 H       -4.1890     2.4950    -3.7640 H     1 <1>   0.0800 
 26 H       -3.0220     1.3530    -3.1490 H     1 <1>   0.0800 
 27 H       -7.6260     4.3390    -0.5520 H     1 <1>   0.0800 
 28 H       -6.4500     5.6100    -0.7210 H     1 <1>   0.0800 
 29 H       -5.1620     1.5840    -0.3260 H     1 <1>   0.0800 
 30 H       -6.8550     1.9590    -0.3090 H     1 <1>   0.0800 
 31 H       -7.3720     5.5500     1.5710 H     1 <1>   0.0800 
 32 H       -5.6580     5.2600     1.5530 H     1 <1>   0.0800 
 33 H       -4.8370     2.7370     1.8050 H     1 <1>   0.0800 
 34 H       -6.0550     1.5090     1.9690 H     1 <1>   0.0800 
 35 H       -7.8350     3.1700     1.8350 H     1 <1>   0.0800 
 36 H       -6.7090     3.6590     3.0720 H     1 <1>   0.0800 
@<TRIPOS>BOND
  1   1   2  1   
  2   2   3  ar  
  3   2   4  ar  
  4   3   5  ar  
  5   3  19  1   
  6   4   6  ar  
  7   4  20  1   
  8   5   7  1   
  9   5   8  ar  
 10   6   8  ar  
 11   6  21  1   
 12   7   9  1   
 13   8  22  1   
 14   9  10  1   
 15   9  11  1   
 16   9  23  1   
 17  10  12  2   
 18  10  13  am  
 19  11  24  1   
 20  11  25  1   
 21  11  26  1   
 22  13  14  1   
 23  13  15  1   
 24  14  16  1   
 25  14  27  1   
 26  14  28  1   
 27  15  17  1   
 28  15  29  1   
 29  15  30  1   
 30  16  18  1   
 31  16  31  1   
 32  16  32  1   
 33  17  18  1   
 34  17  33  1   
 35  17  34  1   
 36  18  35  1   
 37  18  36  1   
@<TRIPOS>SUBSTRUCTURE
  1 ****   5 GROUP 4 **** **** 0

# MOE 2024.06 (io_trps.svl 2023.06)
