@<TRIPOS>MOLECULE
NONAME
41 42 1 0 0 
SMALL
USER_CHARGES


@<TRIPOS>ATOM
  1 O       -0.5360     0.3130     0.0670 O.3   1 <1>  -0.2800 
  2 C       -1.6180    -0.3620    -0.2610 C.2   1 <1>  -0.0400 
  3 C       -0.6470     1.5260    -0.4370 C.2   1 <1>  -0.0100 
  4 C       -2.4540     0.4160    -0.9900 C.2   1 <1>  -0.1500 
  5 C       -1.6990    -1.7970     0.2220 C.3   1 <1>   0.5230 
  6 C       -1.8130     1.6560    -1.1030 C.2   1 <1>  -0.1500 
  7 N       -2.9740    -2.4040    -0.2270 N.4   1 <1>  -0.9060 
  8 C       -3.1550    -3.8030     0.2360 C.3   1 <1>   0.3430 
  9 C       -4.5430    -4.3310    -0.1510 C.3   1 <1>  -0.0800 
 10 C       -5.6420    -3.9420     0.8760 C.3   1 <1>   0.0580 
 11 C       -4.4820    -5.8620    -0.3740 C.3   1 <1>  -0.0800 
 12 C       -6.9240    -4.7050     0.5840 C.2   1 <1>  -0.2880 
 13 C       -5.9570    -2.4380     0.8790 C.3   1 <1>  -0.2400 
 14 C       -5.8200    -6.3630    -0.9520 C.3   1 <1>  -0.0220 
 15 C       -4.1180    -6.6490     0.9010 C.3   1 <1>  -0.2400 
 16 C       -7.0160    -5.7630    -0.2270 C.2   1 <1>  -0.2760 
 17 C       -8.3280    -6.4760    -0.5060 C.3   1 <1>  -0.1020 
 18 H        0.1480     2.2350    -0.2750 H     1 <1>   0.1500 
 19 H       -3.4160     0.2040    -1.4230 H     1 <1>   0.1500 
 20 H       -1.6390    -1.8070     1.2980 H     1 <1>   0.0800 
 21 H       -0.8620    -2.3490    -0.1730 H     1 <1>   0.0800 
 22 H       -2.1940     2.5190    -1.6220 H     1 <1>   0.1500 
 23 H       -3.0070    -2.3620    -1.2520 H     1 <1>   0.4500 
 24 H       -3.7460    -1.8230     0.1170 H     1 <1>   0.4500 
 25 H       -3.0360    -3.8690     1.3060 H     1 <1>   0.0800 
 26 H       -2.4040    -4.4270    -0.2230 H     1 <1>   0.0800 
 27 H       -4.8160    -3.9110    -1.1050 H     1 <1>   0.0800 
 28 H       -5.3290    -4.2190     1.8690 H     1 <1>   0.0800 
 29 H       -3.7250    -6.0760    -1.1100 H     1 <1>   0.0800 
 30 H       -7.7810    -4.3160     1.1100 H     1 <1>   0.1500 
 31 H       -6.1980    -2.0980    -0.1130 H     1 <1>   0.0800 
 32 H       -5.1460    -1.8640     1.2840 H     1 <1>   0.0800 
 33 H       -6.8120    -2.2500     1.5060 H     1 <1>   0.0800 
 34 H       -5.8570    -7.4380    -0.8920 H     1 <1>   0.0800 
 35 H       -5.8880    -6.0980    -1.9930 H     1 <1>   0.0800 
 36 H       -4.8850    -6.5500     1.6500 H     1 <1>   0.0800 
 37 H       -3.1820    -6.3260     1.3180 H     1 <1>   0.0800 
 38 H       -4.0270    -7.6960     0.6690 H     1 <1>   0.0800 
 39 H       -8.5470    -6.4530    -1.5590 H     1 <1>   0.0800 
 40 H       -9.1380    -6.0030     0.0190 H     1 <1>   0.0800 
 41 H       -8.2690    -7.5010    -0.1860 H     1 <1>   0.0800 
@<TRIPOS>BOND
  1   1   2  1   
  2   1   3  1   
  3   2   4  2   
  4   2   5  1   
  5   3   6  2   
  6   3  18  1   
  7   4   6  1   
  8   4  19  1   
  9   5   7  1   
 10   5  20  1   
 11   5  21  1   
 12   6  22  1   
 13   7   8  1   
 14   7  23  1   
 15   7  24  1   
 16   8   9  1   
 17   8  25  1   
 18   8  26  1   
 19   9  10  1   
 20   9  11  1   
 21   9  27  1   
 22  10  12  1   
 23  10  13  1   
 24  10  28  1   
 25  11  14  1   
 26  11  15  1   
 27  11  29  1   
 28  12  16  2   
 29  12  30  1   
 30  13  31  1   
 31  13  32  1   
 32  13  33  1   
 33  14  16  1   
 34  14  34  1   
 35  14  35  1   
 36  15  36  1   
 37  15  37  1   
 38  15  38  1   
 39  16  17  1   
 40  17  39  1   
 41  17  40  1   
 42  17  41  1   
@<TRIPOS>SUBSTRUCTURE
  1 ****   7 GROUP 4 **** **** 0

# MOE 2024.06 (io_trps.svl 2023.06)
