@<TRIPOS>MOLECULE
NONAME
38 40 1 0 0 
SMALL
USER_CHARGES


@<TRIPOS>ATOM
  1 CL      -0.6680    -0.6400     0.4390 Cl    1 <1>  -0.1770 
  2 C       -2.3550    -0.2940     0.1570 C.ar  1 <1>   0.1770 
  3 C       -3.0210     0.5740     1.0030 C.ar  1 <1>  -0.1500 
  4 C       -3.0010    -0.8920    -0.9100 C.ar  1 <1>  -0.1500 
  5 C       -4.3610     0.8410     0.7780 C.ar  1 <1>  -0.1500 
  6 C       -4.3390    -0.6180    -1.1290 C.ar  1 <1>  -0.1500 
  7 C       -5.0320     0.2440    -0.2830 C.ar  1 <1>   0.1170 
  8 N       -6.3860     0.5180    -0.4920 N.am  1 <1>  -0.5470 
  9 C       -7.4680    -0.3070    -0.4890 C.2   1 <1>   0.5690 
 10 O       -8.5500     0.1540    -0.7530 O.2   1 <1>  -0.5700 
 11 C       -7.3450    -1.7970    -0.1430 C.3   1 <1>  -0.0190 
 12 C       -7.6110    -2.6790    -1.3880 C.3   1 <1>  -0.1600 
 13 C       -8.2500    -2.1750     1.0570 C.3   1 <1>  -0.1600 
 14 C       -7.7900    -4.1840    -1.0910 C.3   1 <1>  -0.0190 
 15 C       -8.4080    -3.6940     1.2930 C.3   1 <1>  -0.0190 
 16 C       -8.8310    -4.3480    -0.0040 C.2   1 <1>   0.4480 
 17 C       -6.5010    -4.9140    -0.6520 C.3   1 <1>  -0.1600 
 18 C       -7.1360    -4.4040     1.8110 C.3   1 <1>  -0.1600 
 19 O       -9.8620    -4.9330    -0.1520 O.2   1 <1>  -0.5700 
 20 C       -6.0070    -4.5770     0.7720 C.3   1 <1>  -0.1600 
 21 H       -2.4950     1.0290     1.8220 H     1 <1>   0.1500 
 22 H       -2.4570    -1.5580    -1.5560 H     1 <1>   0.1500 
 23 H       -4.8910     1.5120     1.4310 H     1 <1>   0.1500 
 24 H       -4.8490    -1.0680    -1.9620 H     1 <1>   0.1500 
 25 H       -6.6390     1.4940    -0.6490 H     1 <1>   0.3700 
 26 H       -6.3370    -1.9550     0.1660 H     1 <1>   0.0800 
 27 H       -8.5220    -2.3330    -1.8490 H     1 <1>   0.0800 
 28 H       -6.8230    -2.5420    -2.1080 H     1 <1>   0.0800 
 29 H       -9.2350    -1.7780     0.8730 H     1 <1>   0.0800 
 30 H       -7.8810    -1.7030     1.9500 H     1 <1>   0.0800 
 31 H       -8.1590    -4.6600    -1.9830 H     1 <1>   0.0800 
 32 H       -9.1930    -3.8410     2.0150 H     1 <1>   0.0800 
 33 H       -5.7140    -4.7310    -1.3630 H     1 <1>   0.0800 
 34 H       -6.7100    -5.9700    -0.6800 H     1 <1>   0.0800 
 35 H       -6.7570    -3.8920     2.6790 H     1 <1>   0.0800 
 36 H       -7.4320    -5.3890     2.1330 H     1 <1>   0.0800 
 37 H       -5.3930    -3.6980     0.7480 H     1 <1>   0.0800 
 38 H       -5.3550    -5.3680     1.1040 H     1 <1>   0.0800 
@<TRIPOS>BOND
  1   1   2  1   
  2   2   3  ar  
  3   2   4  ar  
  4   3   5  ar  
  5   3  21  1   
  6   4   6  ar  
  7   4  22  1   
  8   5   7  ar  
  9   5  23  1   
 10   6   7  ar  
 11   6  24  1   
 12   7   8  1   
 13   8   9  am  
 14   8  25  1   
 15   9  10  2   
 16   9  11  1   
 17  11  12  1   
 18  11  13  1   
 19  11  26  1   
 20  12  14  1   
 21  12  27  1   
 22  12  28  1   
 23  13  15  1   
 24  13  29  1   
 25  13  30  1   
 26  14  16  1   
 27  14  17  1   
 28  14  31  1   
 29  15  16  1   
 30  15  18  1   
 31  15  32  1   
 32  16  19  2   
 33  17  20  1   
 34  17  33  1   
 35  17  34  1   
 36  18  20  1   
 37  18  35  1   
 38  18  36  1   
 39  20  37  1   
 40  20  38  1   
@<TRIPOS>SUBSTRUCTURE
  1 ****  11 GROUP 4 **** **** 0

# MOE 2024.06 (io_trps.svl 2023.06)
