@<TRIPOS>MOLECULE
NONAME
48 50 1 0 0 
SMALL
USER_CHARGES


@<TRIPOS>ATOM
  1 F        1.4630    -1.9090     1.3270 F     1 <1>  -0.1900 
  2 C        2.2680    -1.1280     0.6580 C.ar  1 <1>   0.1900 
  3 C        2.6750    -1.4790    -0.6240 C.ar  1 <1>  -0.1440 
  4 C        2.6860     0.0330     1.2810 C.ar  1 <1>  -0.1500 
  5 C        3.5410    -0.6130    -1.2800 C.ar  1 <1>  -0.1500 
  6 C        2.2120    -2.7600    -1.3170 C.3   1 <1>   0.5020 
  7 C        3.5450     0.8820     0.6070 C.ar  1 <1>  -0.1500 
  8 C        3.9710     0.5560    -0.6700 C.ar  1 <1>  -0.1500 
  9 N        0.7770    -2.6180    -1.6240 N.am  1 <1>  -0.7300 
 10 C        2.5360    -4.0260    -0.5130 C.2   1 <1>  -0.1240 
 11 C       -0.1740    -3.4040    -1.0970 C.2   1 <1>   0.6900 
 12 C        1.5120    -4.8170    -0.0820 C.2   1 <1>  -0.0290 
 13 C        3.9470    -4.1820    -0.3290 C.2   1 <1>   0.7060 
 14 O       -1.3460    -3.1590    -1.2680 O.2   1 <1>  -0.5700 
 15 N        0.2030    -4.4810    -0.3650 N.am  1 <1>  -0.5390 
 16 C        1.6320    -6.1080     0.7130 C.3   1 <1>  -0.1020 
 17 O        4.7640    -3.6860    -1.0820 O.2   1 <1>  -0.5700 
 18 O        4.3930    -4.8780     0.7220 O.3   1 <1>  -0.4300 
 19 C        5.7710    -5.0140     1.0240 C.3   1 <1>   0.1200 
 20 C        6.4240    -6.1090     0.1620 C.3   1 <1>  -0.0800 
 21 C        5.7290    -7.4740     0.3340 C.3   1 <1>  -0.1600 
 22 C        7.9180    -6.2210     0.5140 C.3   1 <1>  -0.1600 
 23 C        6.4270    -8.5720    -0.4790 C.3   1 <1>  -0.1600 
 24 C        8.6130    -7.3160    -0.3060 C.3   1 <1>  -0.1600 
 25 C        7.9150    -8.6690    -0.1230 C.3   1 <1>  -0.1600 
 26 H        2.3420     0.2630     2.2730 H     1 <1>   0.1500 
 27 H        3.8950    -0.8450    -2.2700 H     1 <1>   0.1500 
 28 H        2.7210    -2.8400    -2.2630 H     1 <1>   0.0800 
 29 H        3.8830     1.7920     1.0740 H     1 <1>   0.1500 
 30 H        4.6440     1.2140    -1.1930 H     1 <1>   0.1500 
 31 H        0.4730    -1.7260    -2.0060 H     1 <1>   0.3700 
 32 H       -0.5810    -5.0230    -0.0060 H     1 <1>   0.3700 
 33 H        0.9570    -6.8470     0.3190 H     1 <1>   0.0800 
 34 H        1.3810    -5.9250     1.7420 H     1 <1>   0.0800 
 35 H        2.6180    -6.5240     0.6680 H     1 <1>   0.0800 
 36 H        5.8440    -5.2720     2.0660 H     1 <1>   0.0800 
 37 H        6.2530    -4.0630     0.8720 H     1 <1>   0.0800 
 38 H        6.3540    -5.8130    -0.8710 H     1 <1>   0.0800 
 39 H        4.7060    -7.4040     0.0100 H     1 <1>   0.0800 
 40 H        5.7290    -7.7490     1.3750 H     1 <1>   0.0800 
 41 H        8.0260    -6.4450     1.5620 H     1 <1>   0.0800 
 42 H        8.4050    -5.2790     0.3260 H     1 <1>   0.0800 
 43 H        6.3270    -8.3540    -1.5290 H     1 <1>   0.0800 
 44 H        5.9500    -9.5180    -0.2920 H     1 <1>   0.0800 
 45 H        9.6420    -7.3970    -0.0010 H     1 <1>   0.0800 
 46 H        8.5970    -7.0450    -1.3480 H     1 <1>   0.0800 
 47 H        8.3890    -9.4060    -0.7480 H     1 <1>   0.0800 
 48 H        8.0180    -8.9880     0.9000 H     1 <1>   0.0800 
@<TRIPOS>BOND
  1   1   2  1   
  2   2   3  ar  
  3   2   4  ar  
  4   3   5  ar  
  5   3   6  1   
  6   4   7  ar  
  7   4  26  1   
  8   5   8  ar  
  9   5  27  1   
 10   6   9  1   
 11   6  10  1   
 12   6  28  1   
 13   7   8  ar  
 14   7  29  1   
 15   8  30  1   
 16   9  11  am  
 17   9  31  1   
 18  10  12  2   
 19  10  13  1   
 20  11  14  2   
 21  11  15  am  
 22  12  15  1   
 23  12  16  1   
 24  13  17  2   
 25  13  18  1   
 26  15  32  1   
 27  16  33  1   
 28  16  34  1   
 29  16  35  1   
 30  18  19  1   
 31  19  20  1   
 32  19  36  1   
 33  19  37  1   
 34  20  21  1   
 35  20  22  1   
 36  20  38  1   
 37  21  23  1   
 38  21  39  1   
 39  21  40  1   
 40  22  24  1   
 41  22  41  1   
 42  22  42  1   
 43  23  25  1   
 44  23  43  1   
 45  23  44  1   
 46  24  25  1   
 47  24  45  1   
 48  24  46  1   
 49  25  47  1   
 50  25  48  1   
@<TRIPOS>SUBSTRUCTURE
  1 ****  13 GROUP 4 **** **** 0

# MOE 2024.06 (io_trps.svl 2023.06)
