@<TRIPOS>MOLECULE
NONAME
44 46 1 0 0 
SMALL
USER_CHARGES


@<TRIPOS>ATOM
  1 F       -0.1410    -0.3380     0.3250 F     1 <1>  -0.1900 
  2 C       -1.1210    -1.1650     0.6070 C.ar  1 <1>   0.1900 
  3 C       -0.9910    -2.5230     0.2860 C.ar  1 <1>   0.1000 
  4 C       -2.2450    -0.6430     1.2150 C.ar  1 <1>  -0.1500 
  5 N        0.1340    -3.0900    -0.3300 N.pl3 1 <1>  -0.8380 
  6 C       -2.0600    -3.3480     0.6090 C.ar  1 <1>  -0.1500 
  7 C       -3.2930    -1.4940     1.5240 C.ar  1 <1>  -0.1500 
  8 C        1.3690    -3.1050     0.5100 C.3   1 <1>   0.2090 
  9 C        0.3600    -2.6630    -1.7440 C.3   1 <1>   0.2090 
 10 C       -3.1970    -2.8430     1.2190 C.ar  1 <1>  -0.1500 
 11 C        2.4900    -3.9180    -0.1670 C.3   1 <1>   0.3430 
 12 C        1.4940    -3.4790    -2.4010 C.3   1 <1>   0.3430 
 13 N        2.7600    -3.4600    -1.5820 N.4   1 <1>  -0.9590 
 14 C        3.8540    -4.2420    -2.2190 C.3   1 <1>   0.4860 
 15 C        5.1180    -4.0410    -1.4030 C.ar  1 <1>  -0.1430 
 16 C        5.5870    -5.0590    -0.5830 C.ar  1 <1>  -0.1500 
 17 C        5.8050    -2.8340    -1.4600 C.ar  1 <1>  -0.1500 
 18 C        6.7140    -4.8640     0.1940 C.ar  1 <1>  -0.1500 
 19 C        6.9320    -2.6390    -0.6830 C.ar  1 <1>  -0.1500 
 20 C        7.3770    -3.6480     0.1550 C.ar  1 <1>   0.0830 
 21 O        8.4640    -3.4500     0.9270 O.3   1 <1>  -0.3630 
 22 C        8.2470    -2.9250     2.2210 C.3   1 <1>   1.3000 
 23 F        9.4000    -2.7830     2.8570 F     1 <1>  -0.3400 
 24 F        7.6620    -1.7330     2.1660 F     1 <1>  -0.3400 
 25 F        7.4780    -3.7300     2.9460 F     1 <1>  -0.3400 
 26 H       -2.3000     0.4060     1.4430 H     1 <1>   0.1500 
 27 H       -1.9970    -4.3960     0.3780 H     1 <1>   0.1500 
 28 H       -4.1800    -1.1090     1.9980 H     1 <1>   0.1500 
 29 H        1.1390    -3.5440     1.4660 H     1 <1>   0.0800 
 30 H        1.7070    -2.0980     0.6840 H     1 <1>   0.0800 
 31 H        0.6030    -1.6150    -1.7750 H     1 <1>   0.0800 
 32 H       -0.5500    -2.8050    -2.3030 H     1 <1>   0.0800 
 33 H       -4.0140    -3.5030     1.4600 H     1 <1>   0.1500 
 34 H        2.1960    -4.9540    -0.1720 H     1 <1>   0.0800 
 35 H        3.3860    -3.8310     0.4260 H     1 <1>   0.0800 
 36 H        1.6840    -3.0830    -3.3850 H     1 <1>   0.0800 
 37 H        1.1510    -4.4940    -2.5120 H     1 <1>   0.0800 
 38 H        3.0850    -2.4880    -1.5140 H     1 <1>   0.4500 
 39 H        4.0210    -3.9000    -3.2270 H     1 <1>   0.0800 
 40 H        3.5970    -5.2880    -2.2490 H     1 <1>   0.0800 
 41 H        5.0850    -6.0120    -0.5370 H     1 <1>   0.1500 
 42 H        5.4780    -2.0360    -2.1050 H     1 <1>   0.1500 
 43 H        7.0830    -5.6520     0.8290 H     1 <1>   0.1500 
 44 H        7.4700    -1.7060    -0.7250 H     1 <1>   0.1500 
@<TRIPOS>BOND
  1   1   2  1   
  2   2   3  ar  
  3   2   4  ar  
  4   3   5  1   
  5   3   6  ar  
  6   4   7  ar  
  7   4  26  1   
  8   5   8  1   
  9   5   9  1   
 10   6  10  ar  
 11   6  27  1   
 12   7  10  ar  
 13   7  28  1   
 14   8  11  1   
 15   8  29  1   
 16   8  30  1   
 17   9  12  1   
 18   9  31  1   
 19   9  32  1   
 20  10  33  1   
 21  11  13  1   
 22  11  34  1   
 23  11  35  1   
 24  12  13  1   
 25  12  36  1   
 26  12  37  1   
 27  13  14  1   
 28  13  38  1   
 29  14  15  1   
 30  14  39  1   
 31  14  40  1   
 32  15  16  ar  
 33  15  17  ar  
 34  16  18  ar  
 35  16  41  1   
 36  17  19  ar  
 37  17  42  1   
 38  18  20  ar  
 39  18  43  1   
 40  19  20  ar  
 41  19  44  1   
 42  20  21  1   
 43  21  22  1   
 44  22  23  1   
 45  22  24  1   
 46  22  25  1   
@<TRIPOS>SUBSTRUCTURE
  1 ****  11 GROUP 4 **** **** 0

# MOE 2024.06 (io_trps.svl 2023.06)
