@<TRIPOS>MOLECULE
NONAME
41 42 1 0 0 
SMALL
USER_CHARGES


@<TRIPOS>ATOM
  1 O        0.3820     1.3500     2.7160 O.2   1 <1>  -0.5700 
  2 C        0.3730     1.5850     1.5320 C.2   1 <1>   0.5690 
  3 N        1.5170     1.6520     0.8100 N.am  1 <1>  -0.7300 
  4 C       -0.9610     1.8190     0.8280 C.3   1 <1>  -0.0190 
  5 C        2.8700     1.5870     1.3620 C.3   1 <1>   0.3640 
  6 C       -1.2450     0.8640    -0.3340 C.3   1 <1>  -0.1600 
  7 C       -1.1130     3.2100     0.2030 C.3   1 <1>  -0.1600 
  8 C        3.8010     2.4150     0.4700 C.ar  1 <1>  -0.1440 
  9 C        3.3000     0.1310     1.5360 C.3   1 <1>  -0.2400 
 10 C       -2.3490     1.5540    -1.1330 C.3   1 <1>  -0.1600 
 11 C       -2.1690     3.0580    -0.8970 C.3   1 <1>  -0.1600 
 12 C        4.1090     2.1290    -0.8660 C.ar  1 <1>  -0.1440 
 13 C        4.3630     3.5430     1.0570 C.ar  1 <1>  -0.1500 
 14 C        4.9670     2.9720    -1.5580 C.ar  1 <1>  -0.1500 
 15 C        3.5720     0.9290    -1.6370 C.3   1 <1>  -0.0970 
 16 C        5.2160     4.3790     0.3600 C.ar  1 <1>  -0.1440 
 17 C        5.5160     4.0870    -0.9560 C.ar  1 <1>  -0.1500 
 18 C        5.8090     5.6020     1.0350 C.3   1 <1>  -0.0970 
 19 H        1.4920     1.9630    -0.1590 H     1 <1>   0.3700 
 20 H       -1.7460     1.6950     1.5550 H     1 <1>   0.0800 
 21 H        2.8460     2.0300     2.3440 H     1 <1>   0.0800 
 22 H       -1.5440    -0.1090     0.0140 H     1 <1>   0.0800 
 23 H       -0.3710     0.7620    -0.9530 H     1 <1>   0.0800 
 24 H       -0.1840     3.5210    -0.2420 H     1 <1>   0.0800 
 25 H       -1.4030     3.9390     0.9400 H     1 <1>   0.0800 
 26 H        3.1760    -0.4350     0.6350 H     1 <1>   0.0800 
 27 H        2.7090    -0.3220     2.3120 H     1 <1>   0.0800 
 28 H        4.3320     0.0960     1.8320 H     1 <1>   0.0800 
 29 H       -3.3090     1.2470    -0.7530 H     1 <1>   0.0800 
 30 H       -2.2940     1.3030    -2.1790 H     1 <1>   0.0800 
 31 H       -1.8420     3.5510    -1.7970 H     1 <1>   0.0800 
 32 H       -3.1030     3.4940    -0.5850 H     1 <1>   0.0800 
 33 H        4.1330     3.7830     2.0800 H     1 <1>   0.1500 
 34 H        5.2190     2.7640    -2.5830 H     1 <1>   0.1500 
 35 H        2.5580     0.7020    -1.3750 H     1 <1>   0.0800 
 36 H        4.1870     0.0690    -1.4390 H     1 <1>   0.0800 
 37 H        3.5950     1.1180    -2.6950 H     1 <1>   0.0800 
 38 H        6.1760     4.7240    -1.5180 H     1 <1>   0.1500 
 39 H        5.0930     6.4040     1.0260 H     1 <1>   0.0800 
 40 H        6.6980     5.9250     0.5240 H     1 <1>   0.0800 
 41 H        6.0670     5.3770     2.0540 H     1 <1>   0.0800 
@<TRIPOS>BOND
  1   1   2  2   
  2   2   3  am  
  3   2   4  1   
  4   3   5  1   
  5   3  19  1   
  6   4   6  1   
  7   4   7  1   
  8   4  20  1   
  9   5   8  1   
 10   5   9  1   
 11   5  21  1   
 12   6  10  1   
 13   6  22  1   
 14   6  23  1   
 15   7  11  1   
 16   7  24  1   
 17   7  25  1   
 18   8  12  ar  
 19   8  13  ar  
 20   9  26  1   
 21   9  27  1   
 22   9  28  1   
 23  10  11  1   
 24  10  29  1   
 25  10  30  1   
 26  11  31  1   
 27  11  32  1   
 28  12  14  ar  
 29  12  15  1   
 30  13  16  ar  
 31  13  33  1   
 32  14  17  ar  
 33  14  34  1   
 34  15  35  1   
 35  15  36  1   
 36  15  37  1   
 37  16  17  ar  
 38  16  18  1   
 39  17  38  1   
 40  18  39  1   
 41  18  40  1   
 42  18  41  1   
@<TRIPOS>SUBSTRUCTURE
  1 ****   3 GROUP 4 **** **** 0

# MOE 2024.06 (io_trps.svl 2023.06)
