@<TRIPOS>MOLECULE
NONAME
41 43 1 0 0 
SMALL
USER_CHARGES


@<TRIPOS>ATOM
  1 O        1.2540     1.7960    -1.4930 O.co2 1 <1>  -0.9000 
  2 C        0.1790     2.4100    -1.4580 C.2   1 <1>   0.9060 
  3 O       -0.4310     2.7250    -2.4830 O.co2 1 <1>  -0.9000 
  4 C       -0.3620     2.7990    -0.0860 C.3   1 <1>  -0.1860 
  5 C       -1.8660     2.1560     0.3360 C.3   1 <1>  -0.0190 
  6 C       -0.4340     4.4260     0.1140 C.3   1 <1>  -0.0800 
  7 C       -2.4350     1.0320    -0.5620 C.2   1 <1>   0.5690 
  8 C       -2.8660     3.4360     0.6210 C.3   1 <1>  -0.0800 
  9 C       -1.6420     3.9300     0.3930 C.3   1 <1>  -0.1600 
 10 C       -1.4310     5.6780     0.4470 C.3   1 <1>  -0.1600 
 11 O       -3.5480     1.1740    -1.0240 O.2   1 <1>  -0.5700 
 12 N       -1.7630    -0.1590    -0.7480 N.am  1 <1>  -0.6600 
 13 C       -2.9150     5.0470     0.8840 C.3   1 <1>  -0.1600 
 14 C       -0.4390    -0.4980    -0.1550 C.3   1 <1>   0.1400 
 15 C       -2.2680    -1.1310    -1.7480 C.3   1 <1>   0.1400 
 16 C       -0.3460    -1.9450     0.3570 C.3   1 <1>  -0.1600 
 17 C       -3.2260    -2.1180    -1.0710 C.3   1 <1>  -0.1600 
 18 C       -1.6460    -2.5290     0.9390 C.3   1 <1>  -0.1600 
 19 C       -2.5510    -3.1410    -0.1430 C.3   1 <1>  -0.1600 
 20 H        0.3610     2.4100     0.6110 H     1 <1>   0.0800 
 21 H       -1.7400     1.6660     1.2890 H     1 <1>   0.0800 
 22 H        0.3210     4.5640     0.8760 H     1 <1>   0.0800 
 23 H       -3.5910     3.3630    -0.1770 H     1 <1>   0.0800 
 24 H       -1.9200     4.0260    -0.7460 H     1 <1>   0.0800 
 25 H       -1.3450     3.8150     1.5240 H     1 <1>   0.0800 
 26 H       -1.5360     6.2970    -0.4310 H     1 <1>   0.0800 
 27 H       -1.0320     6.2950     1.2370 H     1 <1>   0.0800 
 28 H       -3.1150     5.2470     1.9250 H     1 <1>   0.0800 
 29 H       -3.7010     5.5050     0.3050 H     1 <1>   0.0800 
 30 H       -0.2270     0.1610     0.6650 H     1 <1>   0.0800 
 31 H        0.3240    -0.3450    -0.8990 H     1 <1>   0.0800 
 32 H       -1.4460    -1.6480    -2.2130 H     1 <1>   0.0800 
 33 H       -2.7910    -0.5970    -2.5240 H     1 <1>   0.0800 
 34 H        0.4140    -1.9620     1.1170 H     1 <1>   0.0800 
 35 H        0.0110    -2.5720    -0.4400 H     1 <1>   0.0800 
 36 H       -3.7510    -2.6540    -1.8410 H     1 <1>   0.0800 
 37 H       -3.9610    -1.5550    -0.5210 H     1 <1>   0.0800 
 38 H       -2.1800    -1.7760     1.4930 H     1 <1>   0.0800 
 39 H       -1.3810    -3.3110     1.6280 H     1 <1>   0.0800 
 40 H       -1.9760    -3.8300    -0.7370 H     1 <1>   0.0800 
 41 H       -3.3250    -3.7100     0.3420 H     1 <1>   0.0800 
@<TRIPOS>BOND
  1   1   2  ar  
  2   2   3  ar  
  3   2   4  1   
  4   4   5  1   
  5   4   6  1   
  6   4  20  1   
  7   5   7  1   
  8   5   8  1   
  9   5  21  1   
 10   6   9  1   
 11   6  10  1   
 12   6  22  1   
 13   7  11  2   
 14   7  12  am  
 15   8   9  1   
 16   8  13  1   
 17   8  23  1   
 18   9  24  1   
 19   9  25  1   
 20  10  13  1   
 21  10  26  1   
 22  10  27  1   
 23  12  14  1   
 24  12  15  1   
 25  13  28  1   
 26  13  29  1   
 27  14  16  1   
 28  14  30  1   
 29  14  31  1   
 30  15  17  1   
 31  15  32  1   
 32  15  33  1   
 33  16  18  1   
 34  16  34  1   
 35  16  35  1   
 36  17  19  1   
 37  17  36  1   
 38  17  37  1   
 39  18  19  1   
 40  18  38  1   
 41  18  39  1   
 42  19  40  1   
 43  19  41  1   
@<TRIPOS>SUBSTRUCTURE
  1 ****   7 GROUP 4 **** **** 0

# MOE 2024.06 (io_trps.svl 2023.06)
