@<TRIPOS>MOLECULE
NONAME
39 39 1 0 0 
SMALL
USER_CHARGES


@<TRIPOS>ATOM
  1 S       -0.0020    -0.0940     0.6660 S.3   1 <1>  -0.4600 
  2 C        1.3440    -0.5530    -0.4640 C.3   1 <1>   0.0700 
  3 C       -1.5030    -0.5100    -0.2630 C.3   1 <1>   0.0700 
  4 C        2.6740    -0.2230     0.2260 C.3   1 <1>   0.2000 
  5 C       -2.7050    -0.1530     0.6100 C.3   1 <1>  -0.1600 
  6 O        2.6510     1.1170     0.6170 O.3   1 <1>  -0.6800 
  7 C        3.8990    -0.4590    -0.6830 C.3   1 <1>   0.3430 
  8 C       -4.0240    -0.4760    -0.1040 C.3   1 <1>  -0.1600 
  9 N        5.0460     0.3910    -0.2370 N.4   1 <1>  -0.9590 
 10 C       -5.2260    -0.1160     0.7740 C.3   1 <1>  -0.2400 
 11 C        6.0140     0.7140    -1.3380 C.3   1 <1>   0.3430 
 12 C        5.7480    -0.1550     0.9740 C.3   1 <1>   0.3430 
 13 C        7.1970     1.5530    -0.8170 C.3   1 <1>   0.1200 
 14 C        6.9440     0.7310     1.3750 C.3   1 <1>   0.1200 
 15 O        7.7930     0.9240     0.2810 O.3   1 <1>  -0.5600 
 16 H        1.2130     0.0100    -1.3710 H     1 <1>   0.0800 
 17 H        1.2500    -1.6060    -0.6640 H     1 <1>   0.0800 
 18 H       -1.4720    -1.5640    -0.4800 H     1 <1>   0.0800 
 19 H       -1.4930     0.0620    -1.1750 H     1 <1>   0.0800 
 20 H        2.7620    -0.8190     1.1190 H     1 <1>   0.0800 
 21 H       -2.6720     0.8970     0.8450 H     1 <1>   0.0800 
 22 H       -2.6500    -0.7060     1.5310 H     1 <1>   0.0800 
 23 H        1.7670     1.3020     1.0190 H     1 <1>   0.4000 
 24 H        3.6250    -0.1830    -1.6880 H     1 <1>   0.0800 
 25 H        4.1710    -1.5020    -0.6880 H     1 <1>   0.0800 
 26 H       -4.0610    -1.5260    -0.3390 H     1 <1>   0.0800 
 27 H       -4.0830     0.0770    -1.0260 H     1 <1>   0.0800 
 28 H        4.5790     1.2680     0.0690 H     1 <1>   0.4500 
 29 H       -5.2000    -0.6730     1.6950 H     1 <1>   0.0800 
 30 H       -6.1410    -0.3490     0.2590 H     1 <1>   0.0800 
 31 H       -5.2220     0.9350     1.0050 H     1 <1>   0.0800 
 32 H        5.5120     1.2550    -2.1230 H     1 <1>   0.0800 
 33 H        6.4050    -0.1980    -1.7580 H     1 <1>   0.0800 
 34 H        6.1160    -1.1460     0.7680 H     1 <1>   0.0800 
 35 H        5.0600    -0.2170     1.8010 H     1 <1>   0.0800 
 36 H        6.8750     2.5370    -0.5220 H     1 <1>   0.0800 
 37 H        7.9460     1.6540    -1.5830 H     1 <1>   0.0800 
 38 H        7.5150     0.2530     2.1530 H     1 <1>   0.0800 
 39 H        6.6130     1.6910     1.7340 H     1 <1>   0.0800 
@<TRIPOS>BOND
  1   1   2  1   
  2   1   3  1   
  3   2   4  1   
  4   2  16  1   
  5   2  17  1   
  6   3   5  1   
  7   3  18  1   
  8   3  19  1   
  9   4   6  1   
 10   4   7  1   
 11   4  20  1   
 12   5   8  1   
 13   5  21  1   
 14   5  22  1   
 15   6  23  1   
 16   7   9  1   
 17   7  24  1   
 18   7  25  1   
 19   8  10  1   
 20   8  26  1   
 21   8  27  1   
 22   9  11  1   
 23   9  12  1   
 24   9  28  1   
 25  10  29  1   
 26  10  30  1   
 27  10  31  1   
 28  11  13  1   
 29  11  32  1   
 30  11  33  1   
 31  12  14  1   
 32  12  34  1   
 33  12  35  1   
 34  13  15  1   
 35  13  36  1   
 36  13  37  1   
 37  14  15  1   
 38  14  38  1   
 39  14  39  1   
@<TRIPOS>SUBSTRUCTURE
  1 ****   4 GROUP 4 **** **** 0

# MOE 2024.06 (io_trps.svl 2023.06)
