@<TRIPOS>MOLECULE
NONAME
24 24 1 0 0 
SMALL
USER_CHARGES


@<TRIPOS>ATOM
  1 S        0.1280    -0.0540    -0.1010 S.3   1 <1>   0.1810 
  2 N        1.2350     1.2480    -0.0640 N.2   1 <1>  -0.5100 
  3 C       -1.2720     0.9710    -0.0830 C.2   1 <1>   0.0960 
  4 C        0.5380     2.3220    -0.0410 C.2   1 <1>   0.3440 
  5 S       -2.8560     0.1330    -0.1110 S.3   1 <1>  -0.2860 
  6 C       -0.8870     2.2600    -0.0490 C.2   1 <1>  -0.2330 
  7 S        1.3710     3.9120     0.0030 S.3   1 <1>  -0.2850 
  8 C       -4.1130     1.4870    -0.0840 C.3   1 <1>   0.0700 
  9 C       -1.7090     3.4270    -0.0240 C.2   1 <1>   1.0330 
 10 C        3.1600     3.4730     0.0010 C.3   1 <1>   0.0700 
 11 C       -5.4980     0.8440    -0.1070 C.3   1 <1>  -0.2400 
 12 O       -2.1110     3.9310    -1.0850 O.co2 1 <1>  -0.9000 
 13 O       -2.1220     3.8770     1.0560 O.co2 1 <1>  -0.9000 
 14 C        3.9650     4.7710     0.0370 C.3   1 <1>  -0.2400 
 15 H       -3.9450     2.1040    -0.9500 H     1 <1>   0.0800 
 16 H       -3.9540     2.0600     0.8130 H     1 <1>   0.0800 
 17 H        3.3470     2.9070    -0.8950 H     1 <1>   0.0800 
 18 H        3.3380     2.8640     0.8700 H     1 <1>   0.0800 
 19 H       -5.6170     0.2580    -1.0000 H     1 <1>   0.0800 
 20 H       -6.2500     1.6120    -0.0920 H     1 <1>   0.0800 
 21 H       -5.6260     0.2140     0.7550 H     1 <1>   0.0800 
 22 H        3.7340     5.3700    -0.8250 H     1 <1>   0.0800 
 23 H        5.0170     4.5500     0.0370 H     1 <1>   0.0800 
 24 H        3.7250     5.3270     0.9260 H     1 <1>   0.0800 
@<TRIPOS>BOND
  1   1   2  1   
  2   1   3  1   
  3   2   4  2   
  4   3   5  1   
  5   3   6  2   
  6   4   6  1   
  7   4   7  1   
  8   5   8  1   
  9   6   9  1   
 10   7  10  1   
 11   8  11  1   
 12   8  15  1   
 13   8  16  1   
 14   9  12  ar  
 15   9  13  ar  
 16  10  14  1   
 17  10  17  1   
 18  10  18  1   
 19  11  19  1   
 20  11  20  1   
 21  11  21  1   
 22  14  22  1   
 23  14  23  1   
 24  14  24  1   
@<TRIPOS>SUBSTRUCTURE
  1 ****   6 GROUP 4 **** **** 0

# MOE 2024.06 (io_trps.svl 2023.06)
