@<TRIPOS>MOLECULE
NONAME
56 58 1 0 0 
SMALL
USER_CHARGES


@<TRIPOS>ATOM
  1 S        0.2100    -0.5300     0.3470 S.o2  1 <1>   1.4470 
  2 O        1.3340    -0.9030     1.1780 O.2   1 <1>  -0.6500 
  3 O        0.0960    -1.1040    -0.9740 O.2   1 <1>  -0.6500 
  4 N        0.3260     1.1810     0.1200 N.am  1 <1>  -0.6930 
  5 C       -1.3380    -0.7330     1.2690 C.ar  1 <1>  -0.0090 
  6 C       -0.6150     1.8570    -0.6600 C.ar  1 <1>   0.1990 
  7 C        1.1820     1.9830     1.0520 C.3   1 <1>   0.2570 
  8 C       -2.5440    -0.9340     0.6070 C.ar  1 <1>  -0.1500 
  9 C       -1.3670    -0.6700     2.6580 C.ar  1 <1>  -0.1500 
 10 C       -1.7390     2.4800    -0.0990 C.ar  1 <1>   0.0830 
 11 C       -0.4350     1.9130    -2.0330 C.ar  1 <1>  -0.1500 
 12 C        2.0710     3.0090     0.3370 C.2   1 <1>   0.5690 
 13 C       -3.7320    -1.0730     1.3020 C.ar  1 <1>  -0.1500 
 14 C       -2.5520    -0.8070     3.3600 C.ar  1 <1>  -0.1500 
 15 O       -1.9140     2.3990     1.2550 O.3   1 <1>  -0.3620 
 16 C       -2.6400     3.1520    -0.9170 C.ar  1 <1>  -0.1500 
 17 C       -1.3320     2.5770    -2.8500 C.ar  1 <1>   0.0830 
 18 O        1.9440     4.1690     0.6610 O.2   1 <1>  -0.5700 
 19 N        2.9880     2.6340    -0.6180 N.am  1 <1>  -0.6600 
 20 C       -3.7430    -1.0090     2.6840 C.ar  1 <1>  -0.1430 
 21 C       -3.2100     2.4790     1.8080 C.3   1 <1>   0.0400 
 22 C       -2.4400     3.2020    -2.2860 C.ar  1 <1>  -0.1500 
 23 O       -1.0600     2.5760    -4.1820 O.3   1 <1>  -0.3620 
 24 C        3.7360     3.6450    -1.4220 C.3   1 <1>   0.1400 
 25 C        3.2940     1.2260    -1.0190 C.3   1 <1>   0.1400 
 26 C       -5.0440    -1.1650     3.4500 C.3   1 <1>  -0.0970 
 27 C       -1.8980     3.2460    -5.0970 C.3   1 <1>   0.0400 
 28 C        5.2270     3.2850    -1.5030 C.3   1 <1>   0.1200 
 29 C        4.8110     1.0040    -1.1430 C.3   1 <1>   0.1200 
 30 O        5.3950     1.9740    -1.9660 O.3   1 <1>  -0.5600 
 31 H        1.8240     1.3490     1.6310 H     1 <1>   0.0800 
 32 H        0.5480     2.5100     1.7410 H     1 <1>   0.0800 
 33 H       -2.5500    -0.9810    -0.4700 H     1 <1>   0.1500 
 34 H       -0.4490    -0.5130     3.1980 H     1 <1>   0.1500 
 35 H        0.4170     1.4300    -2.4740 H     1 <1>   0.1500 
 36 H       -4.6480    -1.2340     0.7590 H     1 <1>   0.1500 
 37 H       -2.5410    -0.7590     4.4350 H     1 <1>   0.1500 
 38 H       -3.4970     3.6490    -0.5050 H     1 <1>   0.1500 
 39 H       -3.8650     1.8210     1.2640 H     1 <1>   0.0800 
 40 H       -3.5520     3.4970     1.7550 H     1 <1>   0.0800 
 41 H       -3.1530     2.1660     2.8350 H     1 <1>   0.0800 
 42 H       -3.1510     3.7300    -2.8920 H     1 <1>   0.1500 
 43 H        3.6320     4.6260    -0.9910 H     1 <1>   0.0800 
 44 H        3.3250     3.6770    -2.4160 H     1 <1>   0.0800 
 45 H        2.8260     1.0160    -1.9650 H     1 <1>   0.0800 
 46 H        2.9110     0.5290    -0.2980 H     1 <1>   0.0800 
 47 H       -5.2110    -2.2040     3.6730 H     1 <1>   0.0800 
 48 H       -5.8710    -0.7990     2.8680 H     1 <1>   0.0800 
 49 H       -5.0080    -0.6150     4.3730 H     1 <1>   0.0800 
 50 H       -1.4860     3.1170    -6.0810 H     1 <1>   0.0800 
 51 H       -1.9240     4.2910    -4.8460 H     1 <1>   0.0800 
 52 H       -2.8810     2.8110    -5.0530 H     1 <1>   0.0800 
 53 H        5.6890     3.3730    -0.5350 H     1 <1>   0.0800 
 54 H        5.7300     3.9420    -2.1890 H     1 <1>   0.0800 
 55 H        5.0080     0.0410    -1.5790 H     1 <1>   0.0800 
 56 H        5.2780     1.0470    -0.1750 H     1 <1>   0.0800 
@<TRIPOS>BOND
  1   1   2  2   
  2   1   3  2   
  3   1   4  am  
  4   1   5  1   
  5   4   6  1   
  6   4   7  1   
  7   5   8  ar  
  8   5   9  ar  
  9   6  10  ar  
 10   6  11  ar  
 11   7  12  1   
 12   7  31  1   
 13   7  32  1   
 14   8  13  ar  
 15   8  33  1   
 16   9  14  ar  
 17   9  34  1   
 18  10  15  1   
 19  10  16  ar  
 20  11  17  ar  
 21  11  35  1   
 22  12  18  2   
 23  12  19  am  
 24  13  20  ar  
 25  13  36  1   
 26  14  20  ar  
 27  14  37  1   
 28  15  21  1   
 29  16  22  ar  
 30  16  38  1   
 31  17  22  ar  
 32  17  23  1   
 33  19  24  1   
 34  19  25  1   
 35  20  26  1   
 36  21  39  1   
 37  21  40  1   
 38  21  41  1   
 39  22  42  1   
 40  23  27  1   
 41  24  28  1   
 42  24  43  1   
 43  24  44  1   
 44  25  29  1   
 45  25  45  1   
 46  25  46  1   
 47  26  47  1   
 48  26  48  1   
 49  26  49  1   
 50  27  50  1   
 51  27  51  1   
 52  27  52  1   
 53  28  30  1   
 54  28  53  1   
 55  28  54  1   
 56  29  30  1   
 57  29  55  1   
 58  29  56  1   
@<TRIPOS>SUBSTRUCTURE
  1 ****   4 GROUP 4 **** **** 0

# MOE 2024.06 (io_trps.svl 2023.06)
