@<TRIPOS>MOLECULE
NONAME
43 44 1 0 0 
SMALL
USER_CHARGES


@<TRIPOS>ATOM
  1 CL      -0.1860    -1.7420     0.8700 Cl    1 <1>  -0.1770 
  2 C        1.5030    -1.8000     0.4250 C.ar  1 <1>   0.1770 
  3 C        1.9400    -1.0850    -0.6740 C.ar  1 <1>  -0.1500 
  4 C        2.3780    -2.5550     1.1800 C.ar  1 <1>  -0.1500 
  5 C        3.2780    -1.1220    -1.0370 C.ar  1 <1>  -0.1440 
  6 C        3.7110    -2.5980     0.8180 C.ar  1 <1>  -0.1500 
  7 C        4.1770    -1.8960    -0.2930 C.ar  1 <1>   0.1990 
  8 C        3.7180    -0.3050    -2.2470 C.3   1 <1>  -0.0960 
  9 N        5.5280    -1.9780    -0.6190 N.am  1 <1>  -0.6930 
 10 S        6.1200    -3.0540    -1.8400 S.o2  1 <1>   1.3330 
 11 C        6.5240    -1.3570     0.3070 C.3   1 <1>   0.2570 
 12 O        7.5440    -2.8270    -1.9420 O.2   1 <1>  -0.6500 
 13 O        5.2790    -2.9330    -3.0040 O.2   1 <1>  -0.6500 
 14 C        5.8400    -4.6480    -1.0990 C.3   1 <1>  -0.1350 
 15 C        7.2630    -2.3530     1.2080 C.2   1 <1>   0.5690 
 16 O        6.8430    -2.5630     2.3210 O.2   1 <1>  -0.5700 
 17 N        8.3700    -2.9790     0.7340 N.am  1 <1>  -0.7300 
 18 C        9.2680    -3.8660     1.4890 C.3   1 <1>   0.2200 
 19 C       10.6960    -3.3670     1.3110 C.3   1 <1>  -0.1600 
 20 C        9.2970    -5.2330     0.8170 C.3   1 <1>  -0.1600 
 21 C       11.1560    -3.8980    -0.0530 C.3   1 <1>  -0.1600 
 22 C       10.2320    -5.0770    -0.3870 C.3   1 <1>  -0.1600 
 23 H        1.2300    -0.5060    -1.2360 H     1 <1>   0.1500 
 24 H        2.0170    -3.0970     2.0360 H     1 <1>   0.1500 
 25 H        4.4000    -3.1790     1.4050 H     1 <1>   0.1500 
 26 H        3.0920     0.5610    -2.3670 H     1 <1>   0.0800 
 27 H        3.6460    -0.9030    -3.1370 H     1 <1>   0.0800 
 28 H        4.7330     0.0310    -2.1400 H     1 <1>   0.0800 
 29 H        6.0210    -0.6470     0.9380 H     1 <1>   0.0800 
 30 H        7.2480    -0.8140    -0.2740 H     1 <1>   0.0800 
 31 H        6.3070    -4.7030    -0.1370 H     1 <1>   0.0800 
 32 H        6.2410    -5.4200    -1.7260 H     1 <1>   0.0800 
 33 H        4.7880    -4.8170    -0.9790 H     1 <1>   0.0800 
 34 H        8.6150    -2.8750    -0.2620 H     1 <1>   0.3700 
 35 H        8.9740    -3.9190     2.5260 H     1 <1>   0.0800 
 36 H       11.3080    -3.8040     2.0800 H     1 <1>   0.0800 
 37 H       10.7660    -2.2960     1.3850 H     1 <1>   0.0800 
 38 H        8.3180    -5.5810     0.5450 H     1 <1>   0.0800 
 39 H        9.7310    -5.9390     1.5040 H     1 <1>   0.0800 
 40 H       12.1870    -4.2060    -0.0160 H     1 <1>   0.0800 
 41 H       11.0490    -3.1320    -0.8030 H     1 <1>   0.0800 
 42 H        9.6570    -4.8440    -1.2680 H     1 <1>   0.0800 
 43 H       10.7900    -5.9800    -0.5650 H     1 <1>   0.0800 
@<TRIPOS>BOND
  1   1   2  1   
  2   2   3  ar  
  3   2   4  ar  
  4   3   5  ar  
  5   3  23  1   
  6   4   6  ar  
  7   4  24  1   
  8   5   7  ar  
  9   5   8  1   
 10   6   7  ar  
 11   6  25  1   
 12   7   9  1   
 13   8  26  1   
 14   8  27  1   
 15   8  28  1   
 16   9  10  am  
 17   9  11  1   
 18  10  12  2   
 19  10  13  2   
 20  10  14  1   
 21  11  15  1   
 22  11  29  1   
 23  11  30  1   
 24  14  31  1   
 25  14  32  1   
 26  14  33  1   
 27  15  16  2   
 28  15  17  am  
 29  17  18  1   
 30  17  34  1   
 31  18  19  1   
 32  18  20  1   
 33  18  35  1   
 34  19  21  1   
 35  19  36  1   
 36  19  37  1   
 37  20  22  1   
 38  20  38  1   
 39  20  39  1   
 40  21  22  1   
 41  21  40  1   
 42  21  41  1   
 43  22  42  1   
 44  22  43  1   
@<TRIPOS>SUBSTRUCTURE
  1 ****   9 GROUP 4 **** **** 0

# MOE 2024.06 (io_trps.svl 2023.06)
