@<TRIPOS>MOLECULE
NONAME
45 48 1 0 0 
SMALL
USER_CHARGES


@<TRIPOS>ATOM
  1 O       -1.5330     0.6550    -1.5060 O.2   1 <1>  -0.5700 
  2 C       -1.2250     0.2290    -0.4050 C.2   1 <1>   0.6300 
  3 N        0.0110     0.5890     0.0800 N.am  1 <1>  -0.7300 
  4 C       -2.1170    -0.6200     0.3990 C.2   1 <1>   0.6560 
  5 C        1.0180     1.4290    -0.6050 C.3   1 <1>   0.1400 
  6 O       -1.8290    -0.8410     1.5680 O.2   1 <1>  -0.5700 
  7 C       -3.3210    -1.1950    -0.1510 C.2   1 <1>  -0.0860 
  8 C        2.4270     0.8830    -0.3290 C.3   1 <1>  -0.0800 
  9 C       -4.5560    -1.2390     0.5580 C.ar  1 <1>   0.0000 
 10 C       -3.5710    -1.7820    -1.3700 C.2   1 <1>  -0.3320 
 11 C        2.8470     0.8740     1.2580 C.3   1 <1>  -0.0800 
 12 C        3.6010     1.7530    -1.1490 C.3   1 <1>  -0.1600 
 13 C       -5.4950    -1.8260    -0.2800 C.ar  1 <1>  -0.1520 
 14 C       -4.9520    -0.8240     1.8340 C.ar  1 <1>  -0.1500 
 15 N       -4.8720    -2.1500    -1.4540 N.pl3 1 <1>   0.0330 
 16 C       -2.6180    -2.0450    -2.5260 C.3   1 <1>  -0.0600 
 17 C        3.8410     1.4580     0.5770 C.3   1 <1>  -0.1600 
 18 C        4.0710     1.1640     2.3010 C.3   1 <1>  -0.1600 
 19 C        4.8200     2.0620    -0.1030 C.3   1 <1>  -0.0800 
 20 C       -6.8200    -2.0040     0.1220 C.ar  1 <1>  -0.1500 
 21 C       -6.2580    -0.9980     2.2360 C.ar  1 <1>  -0.1500 
 22 C        5.2520     2.0150     1.4750 C.3   1 <1>  -0.1600 
 23 C       -7.1930    -1.5870     1.3790 C.ar  1 <1>  -0.1500 
 24 H        0.2560     0.2710     1.0240 H     1 <1>   0.3700 
 25 H        0.9380     2.4420    -0.2480 H     1 <1>   0.0800 
 26 H        0.8320     1.4300    -1.6660 H     1 <1>   0.0800 
 27 H        2.4460    -0.1320    -0.7020 H     1 <1>   0.0800 
 28 H        2.0580     1.4600     1.7100 H     1 <1>   0.0800 
 29 H        3.1970     2.6830    -1.5190 H     1 <1>   0.0800 
 30 H        3.9550     1.1940    -2.0010 H     1 <1>   0.0800 
 31 H       -4.2290    -0.3750     2.4920 H     1 <1>   0.1500 
 32 H       -5.3330    -2.6020    -2.2500 H     1 <1>   0.2700 
 33 H       -1.5950    -1.9330    -2.2170 H     1 <1>   0.0800 
 34 H       -2.8100    -1.3510    -3.3250 H     1 <1>   0.0800 
 35 H       -2.7450    -3.0470    -2.8950 H     1 <1>   0.0800 
 36 H        3.3410     2.5050     0.7810 H     1 <1>   0.0800 
 37 H        4.3440     0.4130     0.3680 H     1 <1>   0.0800 
 38 H        4.4750     0.2320     2.6680 H     1 <1>   0.0800 
 39 H        3.7290     1.7270     3.1550 H     1 <1>   0.0800 
 40 H        5.6270     1.4980    -0.5530 H     1 <1>   0.0800 
 41 H       -7.5300    -2.4590    -0.5440 H     1 <1>   0.1500 
 42 H       -6.5690    -0.6810     3.2160 H     1 <1>   0.1500 
 43 H        6.2140     1.5430     1.6000 H     1 <1>   0.0800 
 44 H        5.3300     3.0180     1.8660 H     1 <1>   0.0800 
 45 H       -8.2070    -1.7120     1.7150 H     1 <1>   0.1500 
@<TRIPOS>BOND
  1   1   2  2   
  2   2   3  am  
  3   2   4  1   
  4   3   5  1   
  5   3  24  1   
  6   4   6  2   
  7   4   7  1   
  8   5   8  1   
  9   5  25  1   
 10   5  26  1   
 11   7   9  1   
 12   7  10  2   
 13   8  11  1   
 14   8  12  1   
 15   8  27  1   
 16   9  13  ar  
 17   9  14  ar  
 18  10  15  1   
 19  10  16  1   
 20  11  17  1   
 21  11  18  1   
 22  11  28  1   
 23  12  19  1   
 24  12  29  1   
 25  12  30  1   
 26  13  15  1   
 27  13  20  ar  
 28  14  21  ar  
 29  14  31  1   
 30  15  32  1   
 31  16  33  1   
 32  16  34  1   
 33  16  35  1   
 34  17  19  1   
 35  17  36  1   
 36  17  37  1   
 37  18  22  1   
 38  18  38  1   
 39  18  39  1   
 40  19  22  1   
 41  19  40  1   
 42  20  23  ar  
 43  20  41  1   
 44  21  23  ar  
 45  21  42  1   
 46  22  43  1   
 47  22  44  1   
 48  23  45  1   
@<TRIPOS>SUBSTRUCTURE
  1 ****   2 GROUP 4 **** **** 0

# MOE 2024.06 (io_trps.svl 2023.06)
