@<TRIPOS>MOLECULE
NONAME
35 36 1 0 0 
SMALL
USER_CHARGES


@<TRIPOS>ATOM
  1 O       -2.2570     2.2280     1.9540 O.2   1 <1>  -0.5700 
  2 C       -1.4790     2.1890     1.0170 C.2   1 <1>   0.7160 
  3 N       -1.9380     1.6000    -0.1330 N.am  1 <1>  -0.6600 
  4 C       -0.2010     2.8600     1.0740 C.2   1 <1>  -0.0860 
  5 C       -2.4450     2.4730    -1.2330 C.3   1 <1>   0.1400 
  6 C       -2.4460     0.2010    -0.1290 C.3   1 <1>   0.1400 
  7 C        0.9010     2.7950     0.2700 C.2   1 <1>  -0.0400 
  8 C        0.1560     3.7980     2.0660 C.2   1 <1>  -0.1500 
  9 C       -3.7490     3.2020    -0.8330 C.3   1 <1>   0.3430 
 10 C       -3.8850     0.0890     0.4020 C.3   1 <1>  -0.1600 
 11 O        1.8360     3.6120     0.6900 O.3   1 <1>  -0.2800 
 12 C        1.2270     1.9680    -0.9580 C.3   1 <1>  -0.0600 
 13 C        1.4010     4.2160     1.7720 C.2   1 <1>  -0.0100 
 14 N       -4.5320     2.4610     0.2130 N.4   1 <1>  -0.9590 
 15 C       -4.8940     1.0760    -0.1920 C.3   1 <1>   0.3430 
 16 C       -5.7040     3.2420     0.7000 C.3   1 <1>   0.2630 
 17 H       -2.6220     1.8780    -2.1120 H     1 <1>   0.0800 
 18 H       -1.6960     3.2040    -1.4890 H     1 <1>   0.0800 
 19 H       -1.7980    -0.4030     0.4870 H     1 <1>   0.0800 
 20 H       -2.3930    -0.1940    -1.1300 H     1 <1>   0.0800 
 21 H       -0.4720     4.0940     2.8890 H     1 <1>   0.1500 
 22 H       -4.3530     3.3630    -1.7100 H     1 <1>   0.0800 
 23 H       -3.4810     4.1700    -0.4420 H     1 <1>   0.0800 
 24 H       -3.8790     0.1850     1.4730 H     1 <1>   0.0800 
 25 H       -4.2310    -0.9070     0.1930 H     1 <1>   0.0800 
 26 H        0.4570     1.2530    -1.1710 H     1 <1>   0.0800 
 27 H        2.1470     1.4360    -0.7940 H     1 <1>   0.0800 
 28 H        1.3540     2.6150    -1.8070 H     1 <1>   0.0800 
 29 H        2.0440     4.9240     2.2670 H     1 <1>   0.1500 
 30 H       -3.8640     2.3430     1.0110 H     1 <1>   0.4500 
 31 H       -5.8730     0.8330     0.1890 H     1 <1>   0.0800 
 32 H       -4.9190     0.9900    -1.2660 H     1 <1>   0.0800 
 33 H       -6.4170     3.3880    -0.0960 H     1 <1>   0.0800 
 34 H       -5.3850     4.2060     1.0620 H     1 <1>   0.0800 
 35 H       -6.1890     2.7190     1.5090 H     1 <1>   0.0800 
@<TRIPOS>BOND
  1   1   2  2   
  2   2   3  am  
  3   2   4  1   
  4   3   5  1   
  5   3   6  1   
  6   4   7  2   
  7   4   8  1   
  8   5   9  1   
  9   5  17  1   
 10   5  18  1   
 11   6  10  1   
 12   6  19  1   
 13   6  20  1   
 14   7  11  1   
 15   7  12  1   
 16   8  13  2   
 17   8  21  1   
 18   9  14  1   
 19   9  22  1   
 20   9  23  1   
 21  10  15  1   
 22  10  24  1   
 23  10  25  1   
 24  11  13  1   
 25  12  26  1   
 26  12  27  1   
 27  12  28  1   
 28  13  29  1   
 29  14  15  1   
 30  14  16  1   
 31  14  30  1   
 32  15  31  1   
 33  15  32  1   
 34  16  33  1   
 35  16  34  1   
 36  16  35  1   
@<TRIPOS>SUBSTRUCTURE
  1 ****   2 GROUP 4 **** **** 0

# MOE 2024.06 (io_trps.svl 2023.06)
