@<TRIPOS>MOLECULE
NONAME
52 54 1 0 0 
SMALL
USER_CHARGES


@<TRIPOS>ATOM
  1 N        0.0520    -0.6680    -0.1390 N.4   1 <1>  -0.9590 
  2 C        1.3050     0.0810    -0.4180 C.3   1 <1>   0.4230 
  3 C       -0.9200    -0.0170     0.8030 C.3   1 <1>   0.3430 
  4 C        0.2540    -2.1090     0.2280 C.3   1 <1>   0.3430 
  5 C        2.1160     0.2970     0.8710 C.3   1 <1>  -0.1600 
  6 C        0.9510     1.3720    -1.1710 C.3   1 <1>  -0.1600 
  7 C       -2.2710    -0.7700     0.7990 C.3   1 <1>   0.1100 
  8 C       -1.1010    -2.8570     0.3210 C.3   1 <1>   0.1100 
  9 C        3.4490     1.0380     0.6710 C.3   1 <1>  -0.1600 
 10 C        2.1620     1.9460    -1.9210 C.3   1 <1>  -0.1600 
 11 N       -2.2400    -1.9890    -0.0520 N.3   1 <1>  -0.8100 
 12 C        3.2570     2.5330     0.3860 C.3   1 <1>  -0.1600 
 13 C        3.0450     2.8910    -1.0930 C.3   1 <1>  -0.1600 
 14 C       -3.5230    -2.7210    -0.0200 C.3   1 <1>   0.2530 
 15 C       -4.6570    -1.8310    -0.5060 C.ar  1 <1>  -0.1430 
 16 C       -5.6810    -1.4590     0.3530 C.ar  1 <1>  -0.1500 
 17 C       -4.6720    -1.3770    -1.8160 C.ar  1 <1>  -0.1500 
 18 C       -6.7080    -0.6390    -0.0850 C.ar  1 <1>  -0.1430 
 19 C       -5.6940    -0.5580    -2.2590 C.ar  1 <1>  -0.1500 
 20 C       -6.7090    -0.1890    -1.3950 C.ar  1 <1>  -0.1500 
 21 C       -7.8260    -0.2330     0.8580 C.3   1 <1>  -0.0970 
 22 H       -0.4940    -0.7300    -1.0120 H     1 <1>   0.4500 
 23 H        1.9060    -0.5180    -1.0850 H     1 <1>   0.0800 
 24 H       -1.0930     1.0060     0.5110 H     1 <1>   0.0800 
 25 H       -0.5190    -0.0110     1.8020 H     1 <1>   0.0800 
 26 H        0.7640    -2.1840     1.1740 H     1 <1>   0.0800 
 27 H        0.8670    -2.5920    -0.5150 H     1 <1>   0.0800 
 28 H        2.3520    -0.6620     1.2950 H     1 <1>   0.0800 
 29 H        1.5340     0.8410     1.5930 H     1 <1>   0.0800 
 30 H        0.5420     2.1150    -0.5080 H     1 <1>   0.0800 
 31 H        0.2050     1.1410    -1.9120 H     1 <1>   0.0800 
 32 H       -3.0280    -0.0940     0.4350 H     1 <1>   0.0800 
 33 H       -2.5350    -1.0310     1.8100 H     1 <1>   0.0800 
 34 H       -1.2340    -3.2250     1.3250 H     1 <1>   0.0800 
 35 H       -1.0700    -3.7110    -0.3350 H     1 <1>   0.0800 
 36 H        4.0400     0.5770    -0.1030 H     1 <1>   0.0800 
 37 H        4.0100     0.9520     1.5870 H     1 <1>   0.0800 
 38 H        1.8100     2.4990    -2.7770 H     1 <1>   0.0800 
 39 H        2.7660     1.1410    -2.3060 H     1 <1>   0.0800 
 40 H        4.1350     3.0600     0.7210 H     1 <1>   0.0800 
 41 H        2.4360     2.9140     0.9700 H     1 <1>   0.0800 
 42 H        2.6230     3.8820    -1.1340 H     1 <1>   0.0800 
 43 H        4.0070     2.9500    -1.5740 H     1 <1>   0.0800 
 44 H       -3.7270    -3.0660     0.9790 H     1 <1>   0.0800 
 45 H       -3.4630    -3.5810    -0.6660 H     1 <1>   0.0800 
 46 H       -5.6820    -1.8080     1.3700 H     1 <1>   0.1500 
 47 H       -3.8840    -1.6600    -2.4910 H     1 <1>   0.1500 
 48 H       -5.7030    -0.2080    -3.2770 H     1 <1>   0.1500 
 49 H       -7.5010     0.4490    -1.7470 H     1 <1>   0.1500 
 50 H       -7.6100     0.7290     1.2870 H     1 <1>   0.0800 
 51 H       -7.9340    -0.9510     1.6510 H     1 <1>   0.0800 
 52 H       -8.7590    -0.1750     0.3270 H     1 <1>   0.0800 
@<TRIPOS>BOND
  1   1   2  1   
  2   1   3  1   
  3   1   4  1   
  4   1  22  1   
  5   2   5  1   
  6   2   6  1   
  7   2  23  1   
  8   3   7  1   
  9   3  24  1   
 10   3  25  1   
 11   4   8  1   
 12   4  26  1   
 13   4  27  1   
 14   5   9  1   
 15   5  28  1   
 16   5  29  1   
 17   6  10  1   
 18   6  30  1   
 19   6  31  1   
 20   7  11  1   
 21   7  32  1   
 22   7  33  1   
 23   8  11  1   
 24   8  34  1   
 25   8  35  1   
 26   9  12  1   
 27   9  36  1   
 28   9  37  1   
 29  10  13  1   
 30  10  38  1   
 31  10  39  1   
 32  11  14  1   
 33  12  13  1   
 34  12  40  1   
 35  12  41  1   
 36  13  42  1   
 37  13  43  1   
 38  14  15  1   
 39  14  44  1   
 40  14  45  1   
 41  15  16  ar  
 42  15  17  ar  
 43  16  18  ar  
 44  16  46  1   
 45  17  19  ar  
 46  17  47  1   
 47  18  20  ar  
 48  18  21  1   
 49  19  20  ar  
 50  19  48  1   
 51  20  49  1   
 52  21  50  1   
 53  21  51  1   
 54  21  52  1   
@<TRIPOS>SUBSTRUCTURE
  1 ****   7 GROUP 4 **** **** 0

# MOE 2024.06 (io_trps.svl 2023.06)
