@<TRIPOS>MOLECULE
NONAME
49 51 1 0 0 
SMALL
USER_CHARGES


@<TRIPOS>ATOM
  1 S        1.1450    -0.9740     1.5620 S.o2  1 <1>   1.4470 
  2 O        1.6420    -1.7920     2.6480 O.2   1 <1>  -0.6500 
  3 O        1.1170     0.4640     1.7090 O.2   1 <1>  -0.6500 
  4 N        2.1050    -1.3120     0.2080 N.am  1 <1>  -0.8490 
  5 C       -0.4980    -1.5500     1.0460 C.ar  1 <1>  -0.0090 
  6 C        2.3620    -2.7530     0.0430 C.3   1 <1>   0.1960 
  7 C        3.3900    -0.5960     0.2710 C.3   1 <1>   0.1960 
  8 C       -1.0900    -1.0540    -0.1140 C.ar  1 <1>  -0.1500 
  9 C       -1.1970    -2.4980     1.7920 C.ar  1 <1>  -0.1500 
 10 C        3.2040    -3.0320    -1.2170 C.3   1 <1>   0.1100 
 11 C        4.2500    -0.8670    -0.9780 C.3   1 <1>   0.1100 
 12 C       -2.3390    -1.4860    -0.5280 C.ar  1 <1>  -0.1500 
 13 C       -2.4480    -2.9440     1.3950 C.ar  1 <1>  -0.1500 
 14 N        4.4940    -2.3150    -1.1750 N.3   1 <1>  -0.8100 
 15 C       -2.9970    -2.4280     0.2390 C.ar  1 <1>   0.1900 
 16 C        5.2790    -2.5600    -2.4210 C.3   1 <1>   0.1710 
 17 F       -4.1730    -2.8430    -0.1430 F     1 <1>  -0.1900 
 18 C        6.7310    -2.0720    -2.3700 C.2   1 <1>   0.5690 
 19 O        7.2660    -1.6860    -3.3820 O.2   1 <1>  -0.5700 
 20 N        7.3780    -2.0890    -1.1800 N.am  1 <1>  -0.7300 
 21 C        8.7820    -1.7150    -0.9620 C.3   1 <1>   0.2840 
 22 C        9.3210    -2.5320     0.1980 C.ar  1 <1>  -0.1440 
 23 C        9.2770    -2.0320     1.4910 C.ar  1 <1>  -0.1500 
 24 C        9.8600    -3.7890    -0.0270 C.ar  1 <1>  -0.1500 
 25 C        9.7710    -2.7800     2.5460 C.ar  1 <1>  -0.1500 
 26 C       10.3560    -4.5370     1.0270 C.ar  1 <1>  -0.1500 
 27 C       10.3120    -4.0320     2.3140 C.ar  1 <1>  -0.1500 
 28 H        1.4270    -3.2800    -0.0410 H     1 <1>   0.0800 
 29 H        2.8870    -3.1390     0.9020 H     1 <1>   0.0800 
 30 H        3.9360    -0.8950     1.1510 H     1 <1>   0.0800 
 31 H        3.2100     0.4640     0.3370 H     1 <1>   0.0800 
 32 H       -0.5600    -0.3180    -0.6980 H     1 <1>   0.1500 
 33 H       -0.7580    -2.8910     2.6950 H     1 <1>   0.1500 
 34 H        2.6430    -2.7320    -2.0850 H     1 <1>   0.0800 
 35 H        3.3890    -4.0910    -1.2840 H     1 <1>   0.0800 
 36 H        5.1900    -0.3540    -0.8660 H     1 <1>   0.0800 
 37 H        3.7480    -0.4580    -1.8380 H     1 <1>   0.0800 
 38 H       -2.7970    -1.1030    -1.4220 H     1 <1>   0.1500 
 39 H       -2.9890    -3.6750     1.9690 H     1 <1>   0.1500 
 40 H        4.7910    -2.0900    -3.2570 H     1 <1>   0.0800 
 41 H        5.3120    -3.6170    -2.6130 H     1 <1>   0.0800 
 42 H        6.8630    -2.4160    -0.3580 H     1 <1>   0.3700 
 43 H        8.8400    -0.6640    -0.7390 H     1 <1>   0.0800 
 44 H        9.3550    -1.9050    -1.8540 H     1 <1>   0.0800 
 45 H        8.8570    -1.0600     1.6830 H     1 <1>   0.1500 
 46 H        9.8920    -4.1900    -1.0260 H     1 <1>   0.1500 
 47 H        9.7350    -2.3880     3.5480 H     1 <1>   0.1500 
 48 H       10.7740    -5.5120     0.8450 H     1 <1>   0.1500 
 49 H       10.6980    -4.6130     3.1340 H     1 <1>   0.1500 
@<TRIPOS>BOND
  1   1   2  2   
  2   1   3  2   
  3   1   4  am  
  4   1   5  1   
  5   4   6  1   
  6   4   7  1   
  7   5   8  ar  
  8   5   9  ar  
  9   6  10  1   
 10   6  28  1   
 11   6  29  1   
 12   7  11  1   
 13   7  30  1   
 14   7  31  1   
 15   8  12  ar  
 16   8  32  1   
 17   9  13  ar  
 18   9  33  1   
 19  10  14  1   
 20  10  34  1   
 21  10  35  1   
 22  11  14  1   
 23  11  36  1   
 24  11  37  1   
 25  12  15  ar  
 26  12  38  1   
 27  13  15  ar  
 28  13  39  1   
 29  14  16  1   
 30  15  17  1   
 31  16  18  1   
 32  16  40  1   
 33  16  41  1   
 34  18  19  2   
 35  18  20  am  
 36  20  21  1   
 37  20  42  1   
 38  21  22  1   
 39  21  43  1   
 40  21  44  1   
 41  22  23  ar  
 42  22  24  ar  
 43  23  25  ar  
 44  23  45  1   
 45  24  26  ar  
 46  24  46  1   
 47  25  27  ar  
 48  25  47  1   
 49  26  27  ar  
 50  26  48  1   
 51  27  49  1   
@<TRIPOS>SUBSTRUCTURE
  1 ****  14 GROUP 4 **** **** 0

# MOE 2024.06 (io_trps.svl 2023.06)
