@<TRIPOS>MOLECULE
NONAME
38 39 1 0 0 
SMALL
USER_CHARGES


@<TRIPOS>ATOM
  1 O        0.1670     0.8620     1.3080 O.2   1 <1>  -0.5700 
  2 C        0.0270     2.0170     0.9550 C.2   1 <1>   0.5440 
  3 N        1.1250     2.8490     1.0450 N.am  1 <1>  -0.6600 
  4 C       -1.2350     2.4970     0.4160 C.ar  1 <1>   0.0860 
  5 C        2.3290     2.4320     1.8220 C.3   1 <1>   0.1400 
  6 C        1.4050     3.8880     0.0120 C.3   1 <1>   0.1400 
  7 C       -1.9010     1.8770    -0.6490 C.ar  1 <1>  -0.1440 
  8 C       -1.8080     3.6470     0.9630 C.ar  1 <1>  -0.1500 
  9 C        3.4070     1.9080     0.8590 C.3   1 <1>   0.3430 
 10 C        2.5160     3.3950    -0.9400 C.3   1 <1>   0.3430 
 11 C       -3.0800     2.4140    -1.1390 C.ar  1 <1>  -0.1500 
 12 C       -1.3610     0.6040    -1.2900 C.3   1 <1>  -0.0970 
 13 C       -2.9830     4.1840     0.4720 C.ar  1 <1>  -0.1440 
 14 N        3.7500     2.9250    -0.2060 N.4   1 <1>  -0.9590 
 15 C       -3.6170     3.5620    -0.5860 C.ar  1 <1>  -0.1500 
 16 C       -3.5880     5.4370     1.0820 C.3   1 <1>  -0.0970 
 17 C        4.7590     2.3720    -1.1580 C.3   1 <1>   0.2630 
 18 H        2.0720     1.6600     2.5280 H     1 <1>   0.0800 
 19 H        2.7050     3.2690     2.3830 H     1 <1>   0.0800 
 20 H        1.7100     4.8000     0.4960 H     1 <1>   0.0800 
 21 H        0.5210     4.1030    -0.5620 H     1 <1>   0.0800 
 22 H       -1.3150     4.1210     1.7930 H     1 <1>   0.1500 
 23 H        3.0330     1.0070     0.3980 H     1 <1>   0.0800 
 24 H        4.2890     1.6500     1.4220 H     1 <1>   0.0800 
 25 H        2.7740     4.1900    -1.6210 H     1 <1>   0.0800 
 26 H        2.1160     2.5810    -1.5230 H     1 <1>   0.0800 
 27 H       -3.5970     1.9400    -1.9550 H     1 <1>   0.1500 
 28 H       -0.3270     0.7250    -1.5580 H     1 <1>   0.0800 
 29 H       -1.9120     0.3510    -2.1780 H     1 <1>   0.0800 
 30 H       -1.4440    -0.2140    -0.5960 H     1 <1>   0.0800 
 31 H        4.1570     3.7420     0.2720 H     1 <1>   0.4500 
 32 H       -4.5350     3.9640    -0.9800 H     1 <1>   0.1500 
 33 H       -2.9430     5.8500     1.8360 H     1 <1>   0.0800 
 34 H       -4.5340     5.2000     1.5340 H     1 <1>   0.0800 
 35 H       -3.7440     6.1790     0.3200 H     1 <1>   0.0800 
 36 H        4.3590     1.5110    -1.6680 H     1 <1>   0.0800 
 37 H        5.6510     2.0750    -0.6290 H     1 <1>   0.0800 
 38 H        5.0290     3.1140    -1.8920 H     1 <1>   0.0800 
@<TRIPOS>BOND
  1   1   2  2   
  2   2   3  am  
  3   2   4  1   
  4   3   5  1   
  5   3   6  1   
  6   4   7  ar  
  7   4   8  ar  
  8   5   9  1   
  9   5  18  1   
 10   5  19  1   
 11   6  10  1   
 12   6  20  1   
 13   6  21  1   
 14   7  11  ar  
 15   7  12  1   
 16   8  13  ar  
 17   8  22  1   
 18   9  14  1   
 19   9  23  1   
 20   9  24  1   
 21  10  14  1   
 22  10  25  1   
 23  10  26  1   
 24  11  15  ar  
 25  11  27  1   
 26  12  28  1   
 27  12  29  1   
 28  12  30  1   
 29  13  15  ar  
 30  13  16  1   
 31  14  17  1   
 32  14  31  1   
 33  15  32  1   
 34  16  33  1   
 35  16  34  1   
 36  16  35  1   
 37  17  36  1   
 38  17  37  1   
 39  17  38  1   
@<TRIPOS>SUBSTRUCTURE
  1 ****   2 GROUP 4 **** **** 0

# MOE 2024.06 (io_trps.svl 2023.06)
