@<TRIPOS>MOLECULE
NONAME
37 38 1 0 0 
SMALL
USER_CHARGES


@<TRIPOS>ATOM
  1 O        0.1520    -0.9670    -1.5820 O.2   1 <1>  -0.5700 
  2 C        0.2300    -2.0290    -1.0110 C.2   1 <1>   0.4950 
  3 C        1.4270    -2.4840    -0.3660 C.2   1 <1>   0.0290 
  4 C       -1.0340    -2.8720    -1.0310 C.3   1 <1>  -0.0990 
  5 C        1.4060    -3.7740     0.2700 C.2   1 <1>   0.4950 
  6 C        2.5440    -1.6780    -0.3750 C.2   1 <1>  -0.0500 
  7 C       -1.1430    -3.8230     0.1690 C.3   1 <1>   0.0000 
  8 O        2.3540    -4.2650     0.8380 O.2   1 <1>  -0.5700 
  9 C        0.1550    -4.6380     0.2510 C.3   1 <1>  -0.0990 
 10 N        3.7570    -1.9570     0.1900 N.pl3 1 <1>  -0.6000 
 11 C       -2.3350    -4.7710    -0.0330 C.3   1 <1>  -0.2400 
 12 C       -1.3690    -3.0300     1.4700 C.3   1 <1>  -0.2400 
 13 C        4.9400    -1.2430     0.2500 C.ar  1 <1>   0.4100 
 14 N        5.9050    -1.8670     0.9040 N.ar  1 <1>  -0.6200 
 15 C        5.0920     0.0150    -0.3280 C.ar  1 <1>  -0.1500 
 16 C        7.0560    -1.2220     0.9880 C.ar  1 <1>   0.1600 
 17 C        6.2970     0.6730    -0.2320 C.ar  1 <1>  -0.1500 
 18 C        7.3110     0.0310     0.4490 C.ar  1 <1>  -0.1430 
 19 C        8.6680     0.6980     0.5940 C.3   1 <1>  -0.0970 
 20 H       -1.8880    -2.2180    -1.0530 H     1 <1>   0.0800 
 21 H       -1.0360    -3.4330    -1.9490 H     1 <1>   0.0800 
 22 H        2.4730    -0.7260    -0.8730 H     1 <1>   0.1500 
 23 H        0.2300    -5.3010    -0.5910 H     1 <1>   0.0800 
 24 H        0.1410    -5.2480     1.1380 H     1 <1>   0.0800 
 25 H        3.8560    -2.8620     0.6760 H     1 <1>   0.4000 
 26 H       -3.2540    -4.2140    -0.1050 H     1 <1>   0.0800 
 27 H       -2.4200    -5.4530     0.7960 H     1 <1>   0.0800 
 28 H       -2.2210    -5.3490    -0.9330 H     1 <1>   0.0800 
 29 H       -0.5650    -2.3440     1.6710 H     1 <1>   0.0800 
 30 H       -1.4490    -3.7000     2.3090 H     1 <1>   0.0800 
 31 H       -2.2810    -2.4620     1.4110 H     1 <1>   0.0800 
 32 H        4.2740     0.4720    -0.8460 H     1 <1>   0.1500 
 33 H        7.8450    -1.7250     1.5190 H     1 <1>   0.1500 
 34 H        6.4390     1.6460    -0.6700 H     1 <1>   0.1500 
 35 H        8.5620     1.6340     1.1120 H     1 <1>   0.0800 
 36 H        9.0900     0.8830    -0.3770 H     1 <1>   0.0800 
 37 H        9.3460     0.0740     1.1490 H     1 <1>   0.0800 
@<TRIPOS>BOND
  1   1   2  2   
  2   2   3  1   
  3   2   4  1   
  4   3   5  1   
  5   3   6  2   
  6   4   7  1   
  7   4  20  1   
  8   4  21  1   
  9   5   8  2   
 10   5   9  1   
 11   6  10  1   
 12   6  22  1   
 13   7   9  1   
 14   7  11  1   
 15   7  12  1   
 16   9  23  1   
 17   9  24  1   
 18  10  13  1   
 19  10  25  1   
 20  11  26  1   
 21  11  27  1   
 22  11  28  1   
 23  12  29  1   
 24  12  30  1   
 25  12  31  1   
 26  13  14  ar  
 27  13  15  ar  
 28  14  16  ar  
 29  15  17  ar  
 30  15  32  1   
 31  16  18  ar  
 32  16  33  1   
 33  17  18  ar  
 34  17  34  1   
 35  18  19  1   
 36  19  35  1   
 37  19  36  1   
 38  19  37  1   
@<TRIPOS>SUBSTRUCTURE
  1 ****   6 GROUP 4 **** **** 0

# MOE 2024.06 (io_trps.svl 2023.06)
