@<TRIPOS>MOLECULE
NONAME
47 49 1 0 0 
SMALL
USER_CHARGES


@<TRIPOS>ATOM
  1 O        0.0960     1.1340     0.6180 O.2   1 <1>  -0.5700 
  2 C       -0.6260     2.0800     0.5320 C.2   1 <1>   0.4480 
  3 C       -0.1380     3.4530     0.1260 C.3   1 <1>   0.1030 
  4 C       -2.1150     1.9620     0.8010 C.3   1 <1>  -0.0990 
  5 C       -0.9700     3.8990    -1.0540 C.2   1 <1>   0.4480 
  6 C        1.3320     3.4130    -0.2160 C.2   1 <1>   0.3290 
  7 C       -2.9210     2.4590    -0.4110 C.3   1 <1>   0.0640 
  8 O       -0.4960     4.2340    -2.0960 O.2   1 <1>  -0.5700 
  9 C       -2.4740     3.8620    -0.8510 C.3   1 <1>  -0.0990 
 10 N        2.2170     4.0490     0.4370 N.2   1 <1>  -0.5030 
 11 C       -4.4190     2.4230    -0.1260 C.ar  1 <1>  -0.1440 
 12 N        3.5310     3.9290     0.0970 N.pl3 1 <1>  -0.4870 
 13 C       -5.2430     1.6050    -0.8860 C.ar  1 <1>  -0.1500 
 14 C       -4.9850     3.1940     0.8820 C.ar  1 <1>  -0.1500 
 15 C        4.1350     2.5660     0.1900 C.3   1 <1>   0.1100 
 16 C        4.3900     5.0190     0.6260 C.3   1 <1>   0.1100 
 17 C       -6.6050     1.5570    -0.6460 C.ar  1 <1>  -0.1500 
 18 C       -6.3470     3.1470     1.1240 C.ar  1 <1>  -0.1500 
 19 C        5.5440     2.5460    -0.4270 C.3   1 <1>   0.3430 
 20 C        5.7890     4.9710    -0.0060 C.3   1 <1>   0.3430 
 21 C       -7.1580     2.3280     0.3600 C.ar  1 <1>  -0.1500 
 22 N        6.4300     3.6170     0.1510 N.4   1 <1>  -0.9590 
 23 C        7.7890     3.5870    -0.4650 C.3   1 <1>   0.2630 
 24 H       -0.2880     4.1350     0.9410 H     1 <1>   0.0800 
 25 H       -2.3560     2.5330     1.6790 H     1 <1>   0.0800 
 26 H       -2.3610     0.9330     0.9980 H     1 <1>   0.0800 
 27 H        1.5640     2.7870    -1.0610 H     1 <1>   0.0600 
 28 H       -2.7140     1.7870    -1.2290 H     1 <1>   0.0800 
 29 H       -2.9650     4.1230    -1.7720 H     1 <1>   0.0800 
 30 H       -2.7430     4.5970    -0.1150 H     1 <1>   0.0800 
 31 H       -4.8340     0.9970    -1.6740 H     1 <1>   0.1500 
 32 H       -4.3770     3.8390     1.4910 H     1 <1>   0.1500 
 33 H        3.5150     1.8570    -0.3290 H     1 <1>   0.0800 
 34 H        4.1780     2.2680     1.2230 H     1 <1>   0.0800 
 35 H        4.4590     4.9290     1.6960 H     1 <1>   0.0800 
 36 H        3.9270     5.9640     0.4020 H     1 <1>   0.0800 
 37 H       -7.2350     0.9190    -1.2410 H     1 <1>   0.1500 
 38 H       -6.7780     3.7470     1.9070 H     1 <1>   0.1500 
 39 H        5.4490     2.6890    -1.4900 H     1 <1>   0.0800 
 40 H        5.9840     1.5760    -0.2620 H     1 <1>   0.0800 
 41 H        6.4060     5.7260     0.4520 H     1 <1>   0.0800 
 42 H        5.6950     5.2100    -1.0530 H     1 <1>   0.0800 
 43 H       -8.2170     2.2900     0.5470 H     1 <1>   0.1500 
 44 H        6.5100     3.4340     1.1620 H     1 <1>   0.4500 
 45 H        7.7240     3.7780    -1.5250 H     1 <1>   0.0800 
 46 H        8.2470     2.6220    -0.3160 H     1 <1>   0.0800 
 47 H        8.4200     4.3380    -0.0180 H     1 <1>   0.0800 
@<TRIPOS>BOND
  1   1   2  2   
  2   2   3  1   
  3   2   4  1   
  4   3   5  1   
  5   3   6  1   
  6   3  24  1   
  7   4   7  1   
  8   4  25  1   
  9   4  26  1   
 10   5   8  2   
 11   5   9  1   
 12   6  10  2   
 13   6  27  1   
 14   7   9  1   
 15   7  11  1   
 16   7  28  1   
 17   9  29  1   
 18   9  30  1   
 19  10  12  1   
 20  11  13  ar  
 21  11  14  ar  
 22  12  15  1   
 23  12  16  1   
 24  13  17  ar  
 25  13  31  1   
 26  14  18  ar  
 27  14  32  1   
 28  15  19  1   
 29  15  33  1   
 30  15  34  1   
 31  16  20  1   
 32  16  35  1   
 33  16  36  1   
 34  17  21  ar  
 35  17  37  1   
 36  18  21  ar  
 37  18  38  1   
 38  19  22  1   
 39  19  39  1   
 40  19  40  1   
 41  20  22  1   
 42  20  41  1   
 43  20  42  1   
 44  21  43  1   
 45  22  23  1   
 46  22  44  1   
 47  23  45  1   
 48  23  46  1   
 49  23  47  1   
@<TRIPOS>SUBSTRUCTURE
  1 ****   3 GROUP 4 **** **** 0

# MOE 2024.06 (io_trps.svl 2023.06)
