@<TRIPOS>MOLECULE
NONAME
43 44 1 0 0 
SMALL
USER_CHARGES


@<TRIPOS>ATOM
  1 BR      -0.2410     0.1510    -0.5730 Br    1 <1>  -0.1110 
  2 C       -1.9750    -0.6670    -0.3840 C.ar  1 <1>   0.1110 
  3 C       -2.4580    -0.9220     0.8850 C.ar  1 <1>  -0.1500 
  4 C       -2.6930    -0.9780    -1.5220 C.ar  1 <1>  -0.1500 
  5 C       -3.7050    -1.5090     1.0130 C.ar  1 <1>  -0.1500 
  6 C       -3.9390    -1.5630    -1.3770 C.ar  1 <1>  -0.1500 
  7 C       -4.4610    -1.8320    -0.1130 C.ar  1 <1>   0.1170 
  8 N       -5.7280    -2.4260    -0.0380 N.am  1 <1>  -0.5470 
  9 C       -6.6680    -2.4480     0.9570 C.2   1 <1>   0.5690 
 10 O       -6.5090    -1.9120     2.0270 O.2   1 <1>  -0.5700 
 11 C       -7.9920    -3.1850     0.6970 C.3   1 <1>   0.2570 
 12 N       -9.0830    -2.3820     0.0700 N.am  1 <1>  -0.8490 
 13 S       -8.7170    -1.7790    -1.4770 S.o2  1 <1>   1.3330 
 14 C      -10.4020    -2.9890     0.3100 C.3   1 <1>   0.2760 
 15 O       -7.6260    -2.5710    -2.0060 O.2   1 <1>  -0.6500 
 16 O       -9.9050    -1.6090    -2.2780 O.2   1 <1>  -0.6500 
 17 C       -8.1180    -0.1430    -1.1070 C.3   1 <1>  -0.1350 
 18 C      -10.7240    -4.1670    -0.6270 C.3   1 <1>  -0.1600 
 19 C      -11.5250    -1.9420     0.3400 C.3   1 <1>  -0.1600 
 20 C      -12.0680    -4.8070    -0.2470 C.3   1 <1>  -0.1600 
 21 C      -12.8630    -2.5950     0.7180 C.3   1 <1>  -0.1600 
 22 C      -13.1940    -3.7630    -0.2230 C.3   1 <1>  -0.1600 
 23 H       -1.8720    -0.6690     1.7510 H     1 <1>   0.1500 
 24 H       -2.2850    -0.7670    -2.4940 H     1 <1>   0.1500 
 25 H       -4.0860    -1.7160     1.9960 H     1 <1>   0.1500 
 26 H       -4.5110    -1.8120    -2.2530 H     1 <1>   0.1500 
 27 H       -6.0820    -2.7740    -0.9410 H     1 <1>   0.3700 
 28 H       -8.3230    -3.5410     1.6560 H     1 <1>   0.0800 
 29 H       -7.7910    -4.0500     0.0900 H     1 <1>   0.0800 
 30 H      -10.3870    -3.3960     1.3080 H     1 <1>   0.0800 
 31 H       -7.2700    -0.1810    -0.4530 H     1 <1>   0.0800 
 32 H       -8.8900     0.4280    -0.6300 H     1 <1>   0.0800 
 33 H       -7.8320     0.3560    -2.0110 H     1 <1>   0.0800 
 34 H       -9.9520    -4.9110    -0.5670 H     1 <1>   0.0800 
 35 H      -10.7940    -3.8320    -1.6460 H     1 <1>   0.0800 
 36 H      -11.6450    -1.4750    -0.6180 H     1 <1>   0.0800 
 37 H      -11.2840    -1.1810     1.0610 H     1 <1>   0.0800 
 38 H      -11.9870    -5.2660     0.7240 H     1 <1>   0.0800 
 39 H      -12.3110    -5.5800    -0.9570 H     1 <1>   0.0800 
 40 H      -13.6480    -1.8600     0.6680 H     1 <1>   0.0800 
 41 H      -12.8150    -2.9560     1.7320 H     1 <1>   0.0800 
 42 H      -14.1110    -4.2300     0.0910 H     1 <1>   0.0800 
 43 H      -13.3440    -3.3820    -1.2190 H     1 <1>   0.0800 
@<TRIPOS>BOND
  1   1   2  1   
  2   2   3  ar  
  3   2   4  ar  
  4   3   5  ar  
  5   3  23  1   
  6   4   6  ar  
  7   4  24  1   
  8   5   7  ar  
  9   5  25  1   
 10   6   7  ar  
 11   6  26  1   
 12   7   8  1   
 13   8   9  am  
 14   8  27  1   
 15   9  10  2   
 16   9  11  1   
 17  11  12  1   
 18  11  28  1   
 19  11  29  1   
 20  12  13  am  
 21  12  14  1   
 22  13  15  2   
 23  13  16  2   
 24  13  17  1   
 25  14  18  1   
 26  14  19  1   
 27  14  30  1   
 28  17  31  1   
 29  17  32  1   
 30  17  33  1   
 31  18  20  1   
 32  18  34  1   
 33  18  35  1   
 34  19  21  1   
 35  19  36  1   
 36  19  37  1   
 37  20  22  1   
 38  20  38  1   
 39  20  39  1   
 40  21  22  1   
 41  21  40  1   
 42  21  41  1   
 43  22  42  1   
 44  22  43  1   
@<TRIPOS>SUBSTRUCTURE
  1 ****   9 GROUP 4 **** **** 0

# MOE 2024.06 (io_trps.svl 2023.06)
