@<TRIPOS>MOLECULE
NONAME
38 39 1 0 0 
SMALL
USER_CHARGES


@<TRIPOS>ATOM
  1 O        0.2730    -2.9840     1.8560 O.2   1 <1>  -0.5700 
  2 C        0.1100    -2.3120     0.8610 C.2   1 <1>   0.6900 
  3 N        1.1140    -1.6070     0.2710 N.am  1 <1>  -0.5470 
  4 N       -1.1180    -2.2870     0.3140 N.am  1 <1>  -0.7300 
  5 C        2.4260    -1.3340     0.6860 C.ar  1 <1>   0.1170 
  6 C       -1.9020    -1.0970    -0.0280 C.3   1 <1>   0.5000 
  7 C        3.3680    -0.9890    -0.2820 C.ar  1 <1>  -0.1500 
  8 C        2.8130    -1.3760     2.0310 C.ar  1 <1>  -0.1500 
  9 C       -3.3040    -1.6080    -0.1070 C.1   1 <1>  -0.2000 
 10 C       -1.4090    -0.5630    -1.4000 C.3   1 <1>  -0.1600 
 11 C       -1.7820    -0.0690     1.1260 C.3   1 <1>  -0.1600 
 12 C        4.6550    -0.7020     0.1220 C.ar  1 <1>   0.0830 
 13 C        4.1140    -1.0850     2.4190 C.ar  1 <1>  -0.1500 
 14 C       -4.4180    -2.0240    -0.1590 C.1   1 <1>  -0.1770 
 15 C       -2.4370     0.1740    -2.2840 C.3   1 <1>  -0.2400 
 16 C       -2.6150     1.2190     0.9940 C.3   1 <1>  -0.2400 
 17 O        5.7010    -0.3540    -0.6350 O.3   1 <1>  -0.3630 
 18 C        5.0200    -0.7490     1.4350 C.ar  1 <1>   0.0830 
 19 C        6.8040    -0.1730     0.2520 C.3   1 <1>   0.4000 
 20 O        6.3150    -0.4310     1.5670 O.3   1 <1>  -0.3620 
 21 H        0.8880    -1.3330    -0.6800 H     1 <1>   0.3700 
 22 H       -1.7300    -2.9850     0.7330 H     1 <1>   0.3700 
 23 H        3.1140    -0.9460    -1.3230 H     1 <1>   0.1500 
 24 H        2.0930    -1.6360     2.7850 H     1 <1>   0.1500 
 25 H       -1.0530    -1.3970    -1.9800 H     1 <1>   0.0800 
 26 H       -0.5780     0.0980    -1.2330 H     1 <1>   0.0800 
 27 H       -0.7550     0.2250     1.2410 H     1 <1>   0.0800 
 28 H       -2.0800    -0.5580     2.0380 H     1 <1>   0.0800 
 29 H        4.4160    -1.1180     3.4500 H     1 <1>   0.1500 
 30 H       -5.4260    -2.3990    -0.2070 H     1 <1>   0.1770 
 31 H       -3.2140    -0.4980    -2.6040 H     1 <1>   0.0800 
 32 H       -1.9500     0.5570    -3.1640 H     1 <1>   0.0800 
 33 H       -2.8910     0.9970    -1.7680 H     1 <1>   0.0800 
 34 H       -2.2340     1.8410     0.2050 H     1 <1>   0.0800 
 35 H       -2.5580     1.7800     1.9110 H     1 <1>   0.0800 
 36 H       -3.6500     0.9950     0.8020 H     1 <1>   0.0800 
 37 H        7.1540     0.8420     0.1910 H     1 <1>   0.0800 
 38 H        7.5800    -0.8770     0.0110 H     1 <1>   0.0800 
@<TRIPOS>BOND
  1   1   2  2   
  2   2   3  am  
  3   2   4  am  
  4   3   5  1   
  5   3  21  1   
  6   4   6  1   
  7   4  22  1   
  8   5   7  ar  
  9   5   8  ar  
 10   6   9  1   
 11   6  10  1   
 12   6  11  1   
 13   7  12  ar  
 14   7  23  1   
 15   8  13  ar  
 16   8  24  1   
 17   9  14  3   
 18  10  15  1   
 19  10  25  1   
 20  10  26  1   
 21  11  16  1   
 22  11  27  1   
 23  11  28  1   
 24  12  17  1   
 25  12  18  ar  
 26  13  18  ar  
 27  13  29  1   
 28  14  30  1   
 29  15  31  1   
 30  15  32  1   
 31  15  33  1   
 32  16  34  1   
 33  16  35  1   
 34  16  36  1   
 35  17  19  1   
 36  18  20  1   
 37  19  20  1   
 38  19  37  1   
 39  19  38  1   
@<TRIPOS>SUBSTRUCTURE
  1 ****   3 GROUP 4 **** **** 0

# MOE 2024.06 (io_trps.svl 2023.06)
