@<TRIPOS>MOLECULE
NONAME
34 35 1 0 0 
SMALL
USER_CHARGES


@<TRIPOS>ATOM
  1 O       -0.9290    -1.2470    -1.5450 O.2   1 <1>  -0.5700 
  2 C       -0.4250    -1.8650    -0.6270 C.2   1 <1>   0.5440 
  3 N       -1.2330    -2.1680     0.4510 N.am  1 <1>  -0.6600 
  4 C        0.9570    -2.2900    -0.7130 C.ar  1 <1>   0.0860 
  5 C       -2.4450    -1.3360     0.7180 C.3   1 <1>   0.1400 
  6 C       -1.0970    -3.4270     1.2280 C.3   1 <1>   0.1400 
  7 C        1.4830    -2.7230    -1.9290 C.ar  1 <1>   0.1600 
  8 C        1.8150    -2.2880     0.3800 C.ar  1 <1>  -0.1500 
  9 C       -3.5830    -1.6790    -0.2630 C.3   1 <1>   0.3430 
 10 C       -2.3800    -4.2660     1.1700 C.3   1 <1>  -0.1600 
 11 N        2.7140    -3.1660    -2.1270 N.ar  1 <1>  -0.6200 
 12 C        3.1050    -2.7350     0.1930 C.ar  1 <1>  -0.1500 
 13 N       -4.1560    -3.0670    -0.1060 N.4   1 <1>  -0.9590 
 14 C       -3.1330    -4.1580    -0.1610 C.3   1 <1>   0.3430 
 15 C        3.5000    -3.1620    -1.0630 C.ar  1 <1>   0.1600 
 16 C       -5.1850    -3.2890    -1.1660 C.3   1 <1>   0.2630 
 17 H       -2.1810    -0.3010     0.5790 H     1 <1>   0.0800 
 18 H       -2.7690    -1.4540     1.7360 H     1 <1>   0.0800 
 19 H       -0.8500    -3.1950     2.2520 H     1 <1>   0.0800 
 20 H       -0.2880    -4.0120     0.8220 H     1 <1>   0.0800 
 21 H        0.8370    -2.7020    -2.7910 H     1 <1>   0.1500 
 22 H        1.4830    -1.9410     1.3430 H     1 <1>   0.1500 
 23 H       -3.2060    -1.5560    -1.2650 H     1 <1>   0.0800 
 24 H       -4.3710    -0.9570    -0.1280 H     1 <1>   0.0800 
 25 H       -3.0250    -4.0160     1.9930 H     1 <1>   0.0800 
 26 H       -2.0910    -5.2920     1.3110 H     1 <1>   0.0800 
 27 H        3.8050    -2.7530     1.0100 H     1 <1>   0.1500 
 28 H       -4.6180    -3.1220     0.8120 H     1 <1>   0.4500 
 29 H       -3.6330    -5.0960    -0.3410 H     1 <1>   0.0800 
 30 H       -2.4420    -3.9860    -0.9710 H     1 <1>   0.0800 
 31 H        4.5090    -3.5130    -1.2000 H     1 <1>   0.1500 
 32 H       -4.7310    -3.2380    -2.1430 H     1 <1>   0.0800 
 33 H       -5.9550    -2.5370    -1.1050 H     1 <1>   0.0800 
 34 H       -5.6430    -4.2580    -1.0490 H     1 <1>   0.0800 
@<TRIPOS>BOND
  1   1   2  2   
  2   2   3  am  
  3   2   4  1   
  4   3   5  1   
  5   3   6  1   
  6   4   7  ar  
  7   4   8  ar  
  8   5   9  1   
  9   5  17  1   
 10   5  18  1   
 11   6  10  1   
 12   6  19  1   
 13   6  20  1   
 14   7  11  ar  
 15   7  21  1   
 16   8  12  ar  
 17   8  22  1   
 18   9  13  1   
 19   9  23  1   
 20   9  24  1   
 21  10  14  1   
 22  10  25  1   
 23  10  26  1   
 24  11  15  ar  
 25  12  15  ar  
 26  12  27  1   
 27  13  14  1   
 28  13  16  1   
 29  13  28  1   
 30  14  29  1   
 31  14  30  1   
 32  15  31  1   
 33  16  32  1   
 34  16  33  1   
 35  16  34  1   
@<TRIPOS>SUBSTRUCTURE
  1 ****   2 GROUP 4 **** **** 0

# MOE 2024.06 (io_trps.svl 2023.06)
