@<TRIPOS>MOLECULE
NONAME
29 30 1 0 0 
SMALL
USER_CHARGES


@<TRIPOS>ATOM
  1 O        3.9370     1.0140    -0.1010 O.3   1 <1>  -0.6800 
  2 C        2.8570     1.6990     0.4030 C.3   1 <1>   0.2000 
  3 C        1.5940     0.9360    -0.0050 C.3   1 <1>  -0.1600 
  4 C        2.8970     3.1140    -0.1840 C.3   1 <1>  -0.1600 
  5 C        0.3490     1.7440     0.3610 C.3   1 <1>   0.4230 
  6 C        1.6300     3.9120     0.1600 C.3   1 <1>  -0.1600 
  7 N       -0.8600     1.0150    -0.0870 N.4   1 <1>  -0.9060 
  8 C        0.3730     3.1450    -0.2780 C.3   1 <1>  -0.0800 
  9 C       -2.1220     1.7030     0.3040 C.3   1 <1>   0.3430 
 10 C       -0.9020     3.9260     0.0760 C.3   1 <1>  -0.1600 
 11 C       -2.1500     3.1120    -0.2980 C.3   1 <1>  -0.1600 
 12 H        4.1430     0.2210     0.4320 H     1 <1>   0.4000 
 13 H        2.9580     1.7450     1.4760 H     1 <1>   0.0800 
 14 H        1.5790    -0.0100     0.5050 H     1 <1>   0.0800 
 15 H        1.6200     0.7740    -1.0690 H     1 <1>   0.0800 
 16 H        2.9940     3.0530    -1.2560 H     1 <1>   0.0800 
 17 H        3.7600     3.6330     0.1970 H     1 <1>   0.0800 
 18 H        0.3170     1.8600     1.4330 H     1 <1>   0.0800 
 19 H        1.6700     4.8670    -0.3370 H     1 <1>   0.0800 
 20 H        1.6030     4.0970     1.2220 H     1 <1>   0.0800 
 21 H       -0.8460     0.0610     0.2910 H     1 <1>   0.4500 
 22 H       -0.8240     0.9380    -1.1090 H     1 <1>   0.4500 
 23 H        0.4200     3.0350    -1.3490 H     1 <1>   0.0800 
 24 H       -2.1800     1.7730     1.3780 H     1 <1>   0.0800 
 25 H       -2.9750     1.1430    -0.0460 H     1 <1>   0.0800 
 26 H       -0.9140     4.8670    -0.4500 H     1 <1>   0.0800 
 27 H       -0.9180     4.1420     1.1320 H     1 <1>   0.0800 
 28 H       -3.0280     3.6260     0.0550 H     1 <1>   0.0800 
 29 H       -2.2330     3.0410    -1.3690 H     1 <1>   0.0800 
@<TRIPOS>BOND
  1   1   2  1   
  2   1  12  1   
  3   2   3  1   
  4   2   4  1   
  5   2  13  1   
  6   3   5  1   
  7   3  14  1   
  8   3  15  1   
  9   4   6  1   
 10   4  16  1   
 11   4  17  1   
 12   5   7  1   
 13   5   8  1   
 14   5  18  1   
 15   6   8  1   
 16   6  19  1   
 17   6  20  1   
 18   7   9  1   
 19   7  21  1   
 20   7  22  1   
 21   8  10  1   
 22   8  23  1   
 23   9  11  1   
 24   9  24  1   
 25   9  25  1   
 26  10  11  1   
 27  10  26  1   
 28  10  27  1   
 29  11  28  1   
 30  11  29  1   
@<TRIPOS>SUBSTRUCTURE
  1 ****   5 GROUP 4 **** **** 0

# MOE 2024.06 (io_trps.svl 2023.06)
