@<TRIPOS>MOLECULE
NONAME
38 38 1 0 0 
SMALL
USER_CHARGES


@<TRIPOS>ATOM
  1 O        0.3680    -1.5670    -0.2320 O.3   1 <1>  -0.3630 
  2 C       -0.9690    -1.4060    -0.4180 C.ar  1 <1>   0.0820 
  3 C        1.2610    -0.4850    -0.2840 C.3   1 <1>   0.1200 
  4 C       -1.7880    -2.5210    -0.2490 C.ar  1 <1>  -0.1440 
  5 C       -1.5380    -0.1800    -0.7620 C.ar  1 <1>  -0.1500 
  6 C        2.6500    -1.0380     0.0380 C.3   1 <1>  -0.1600 
  7 C       -3.1580    -2.3940    -0.4200 C.ar  1 <1>  -0.1500 
  8 C       -1.2160    -3.8840     0.1250 C.3   1 <1>  -0.0160 
  9 C       -2.9060    -0.0690    -0.9320 C.ar  1 <1>  -0.1500 
 10 C        3.6970     0.0680     0.0160 C.3   1 <1>   0.3430 
 11 C       -3.7170    -1.1750    -0.7600 C.ar  1 <1>  -0.1500 
 12 C       -1.0600    -4.0070     1.6430 C.3   1 <1>  -0.2400 
 13 N        5.0210    -0.5200     0.3350 N.4   1 <1>  -0.9060 
 14 C        6.1050     0.5090     0.3360 C.3   1 <1>   0.3430 
 15 C        7.4750    -0.0990     0.6650 C.3   1 <1>   0.1200 
 16 O        8.3990     0.9290     0.6400 O.3   1 <1>  -0.6800 
 17 H        0.9480     0.2430     0.4460 H     1 <1>   0.0800 
 18 H        1.2230    -0.0660    -1.2760 H     1 <1>   0.0800 
 19 H       -0.9420     0.6980    -0.9060 H     1 <1>   0.1500 
 20 H        2.8930    -1.7870    -0.6960 H     1 <1>   0.0800 
 21 H        2.6140    -1.4890     1.0140 H     1 <1>   0.0800 
 22 H       -3.8000    -3.2480    -0.2870 H     1 <1>   0.1500 
 23 H       -0.2630    -4.0280    -0.3520 H     1 <1>   0.0800 
 24 H       -1.8700    -4.6620    -0.2300 H     1 <1>   0.0800 
 25 H       -3.3430     0.8780    -1.1980 H     1 <1>   0.1500 
 26 H        3.4430     0.8240     0.7440 H     1 <1>   0.0800 
 27 H        3.7220     0.5270    -0.9600 H     1 <1>   0.0800 
 28 H       -4.7820    -1.0900    -0.8900 H     1 <1>   0.1500 
 29 H       -0.3920    -3.2480     2.0080 H     1 <1>   0.0800 
 30 H       -0.6630    -4.9730     1.8980 H     1 <1>   0.0800 
 31 H       -2.0150    -3.8860     2.1240 H     1 <1>   0.0800 
 32 H        5.2370    -1.2530    -0.3530 H     1 <1>   0.4500 
 33 H        4.9730    -0.9760     1.2560 H     1 <1>   0.4500 
 34 H        5.8840     1.2690     1.0680 H     1 <1>   0.0800 
 35 H        6.1630     0.9770    -0.6340 H     1 <1>   0.0800 
 36 H        7.7680    -0.8270    -0.0730 H     1 <1>   0.0800 
 37 H        7.4860    -0.5320     1.6500 H     1 <1>   0.0800 
 38 H        9.3070     0.6130     0.8430 H     1 <1>   0.4000 
@<TRIPOS>BOND
  1   1   2  1   
  2   1   3  1   
  3   2   4  ar  
  4   2   5  ar  
  5   3   6  1   
  6   3  17  1   
  7   3  18  1   
  8   4   7  ar  
  9   4   8  1   
 10   5   9  ar  
 11   5  19  1   
 12   6  10  1   
 13   6  20  1   
 14   6  21  1   
 15   7  11  ar  
 16   7  22  1   
 17   8  12  1   
 18   8  23  1   
 19   8  24  1   
 20   9  11  ar  
 21   9  25  1   
 22  10  13  1   
 23  10  26  1   
 24  10  27  1   
 25  11  28  1   
 26  12  29  1   
 27  12  30  1   
 28  12  31  1   
 29  13  14  1   
 30  13  32  1   
 31  13  33  1   
 32  14  15  1   
 33  14  34  1   
 34  14  35  1   
 35  15  16  1   
 36  15  36  1   
 37  15  37  1   
 38  16  38  1   
@<TRIPOS>SUBSTRUCTURE
  1 ****   3 GROUP 4 **** **** 0

# MOE 2024.06 (io_trps.svl 2023.06)
