@<TRIPOS>MOLECULE
NONAME
48 51 1 0 0 
SMALL
USER_CHARGES


@<TRIPOS>ATOM
  1 N        0.1080     0.1100     0.6490 N.3   1 <1>  -0.8100 
  2 C       -0.2410     1.3290    -0.1130 C.3   1 <1>   0.1100 
  3 C       -1.0470    -0.4190     1.3930 C.3   1 <1>   0.1100 
  4 C        1.2980     0.2820     1.5130 C.3   1 <1>   0.2540 
  5 C       -1.4140     1.0640    -1.0740 C.3   1 <1>   0.3430 
  6 C       -2.2330    -0.6990     0.4460 C.3   1 <1>   0.3430 
  7 C        2.4990     0.7900     0.7080 C.ar  1 <1>  -0.1440 
  8 N       -2.6180     0.5180    -0.3550 N.4   1 <1>  -0.9590 
  9 C        3.1560    -0.1140    -0.1430 C.ar  1 <1>   0.0000 
 10 C        2.9100     2.1300     0.8200 C.ar  1 <1>   0.0000 
 11 C       -3.7140     0.2420    -1.3160 C.3   1 <1>   0.3430 
 12 C        4.2840     0.3340    -0.8800 C.ar  1 <1>   0.0000 
 13 C        2.7670    -1.4730    -0.3400 C.ar  1 <1>  -0.1500 
 14 C        4.0400     2.5570     0.0680 C.ar  1 <1>   0.0000 
 15 C        2.2770     3.1260     1.6250 C.ar  1 <1>  -0.1500 
 16 C       -5.0240     0.0490    -0.5610 C.3   1 <1>  -0.2400 
 17 C        4.6930     1.6510    -0.7510 C.ar  1 <1>  -0.1500 
 18 C        4.9680    -0.5700    -1.7330 C.ar  1 <1>  -0.1500 
 19 C        3.4420    -2.3170    -1.1690 C.ar  1 <1>  -0.1500 
 20 C        4.4810     3.9020     0.1620 C.ar  1 <1>  -0.1500 
 21 C        2.7230     4.4110     1.6910 C.ar  1 <1>  -0.1500 
 22 C        4.5640    -1.8600    -1.8770 C.ar  1 <1>  -0.1500 
 23 C        3.8450     4.8090     0.9490 C.ar  1 <1>  -0.1500 
 24 H        0.6010     1.6420    -0.7080 H     1 <1>   0.0800 
 25 H       -0.4870     2.1320     0.5590 H     1 <1>   0.0800 
 26 H       -1.3470     0.2770     2.1570 H     1 <1>   0.0800 
 27 H       -0.7660    -1.3410     1.8740 H     1 <1>   0.0800 
 28 H        1.5580    -0.6670     1.9500 H     1 <1>   0.0800 
 29 H        1.0620     0.9220     2.3390 H     1 <1>   0.0800 
 30 H       -1.0830     0.3570    -1.8170 H     1 <1>   0.0800 
 31 H       -1.6690     1.9810    -1.5790 H     1 <1>   0.0800 
 32 H       -3.0730    -1.0380     1.0290 H     1 <1>   0.0800 
 33 H       -1.9490    -1.4960    -0.2220 H     1 <1>   0.0800 
 34 H       -2.9330     1.2400     0.3040 H     1 <1>   0.4500 
 35 H       -3.4860    -0.6370    -1.8990 H     1 <1>   0.0800 
 36 H       -3.8220     1.0760    -1.9920 H     1 <1>   0.0800 
 37 H        1.9070    -1.8500     0.1770 H     1 <1>   0.1500 
 38 H        1.4150     2.8770     2.2070 H     1 <1>   0.1500 
 39 H       -4.9980    -0.8300     0.0570 H     1 <1>   0.0800 
 40 H       -5.8220    -0.0790    -1.2720 H     1 <1>   0.0800 
 41 H       -5.2530     0.9120     0.0390 H     1 <1>   0.0800 
 42 H        5.5480     1.9820    -1.3110 H     1 <1>   0.1500 
 43 H        5.8240    -0.2060    -2.2710 H     1 <1>   0.1500 
 44 H        3.1320    -3.3390    -1.3000 H     1 <1>   0.1500 
 45 H        5.3430     4.1920    -0.4120 H     1 <1>   0.1500 
 46 H        2.2330     5.1440     2.3080 H     1 <1>   0.1500 
 47 H        5.0840    -2.5440    -2.5250 H     1 <1>   0.1500 
 48 H        4.1830     5.8280     1.0190 H     1 <1>   0.1500 
@<TRIPOS>BOND
  1   1   2  1   
  2   1   3  1   
  3   1   4  1   
  4   2   5  1   
  5   2  24  1   
  6   2  25  1   
  7   3   6  1   
  8   3  26  1   
  9   3  27  1   
 10   4   7  1   
 11   4  28  1   
 12   4  29  1   
 13   5   8  1   
 14   5  30  1   
 15   5  31  1   
 16   6   8  1   
 17   6  32  1   
 18   6  33  1   
 19   7   9  ar  
 20   7  10  ar  
 21   8  11  1   
 22   8  34  1   
 23   9  12  ar  
 24   9  13  ar  
 25  10  14  ar  
 26  10  15  ar  
 27  11  16  1   
 28  11  35  1   
 29  11  36  1   
 30  12  17  ar  
 31  12  18  ar  
 32  13  19  ar  
 33  13  37  1   
 34  14  17  ar  
 35  14  20  ar  
 36  15  21  ar  
 37  15  38  1   
 38  16  39  1   
 39  16  40  1   
 40  16  41  1   
 41  17  42  1   
 42  18  22  ar  
 43  18  43  1   
 44  19  22  ar  
 45  19  44  1   
 46  20  23  ar  
 47  20  45  1   
 48  21  23  ar  
 49  21  46  1   
 50  22  47  1   
 51  23  48  1   
@<TRIPOS>SUBSTRUCTURE
  1 ****   7 GROUP 4 **** **** 0

# MOE 2024.06 (io_trps.svl 2023.06)
