@<TRIPOS>MOLECULE
NONAME
45 47 1 0 0 
SMALL
USER_CHARGES


@<TRIPOS>ATOM
  1 S       -0.3040     0.2360    -2.2560 S.3   1 <1>  -0.2860 
  2 C        0.5310    -0.9850    -1.2320 C.2   1 <1>   0.2420 
  3 C       -1.7050    -0.6870    -3.0600 C.3   1 <1>   0.1310 
  4 N        0.2480    -2.2400    -1.2300 N.2   1 <1>  -0.3380 
  5 N        1.5030    -0.6450    -0.3750 N.pl3 1 <1>   0.3260 
  6 C       -3.0450    -0.1460    -2.5770 C.2   1 <1>   0.5690 
  7 N        1.0540    -2.7920    -0.3190 N.2   1 <1>  -0.3380 
  8 C        2.0480     0.6310    -0.0720 C.ar  1 <1>  -0.0230 
  9 C        1.7800    -1.8460     0.1730 C.2   1 <1>   0.0060 
 10 O       -3.6030     0.6400    -3.3090 O.2   1 <1>  -0.5700 
 11 N       -3.6100    -0.5340    -1.3830 N.am  1 <1>  -0.6600 
 12 C        3.3700     0.9280    -0.4020 C.ar  1 <1>  -0.1500 
 13 C        1.2660     1.5970     0.5600 C.ar  1 <1>  -0.1500 
 14 C        2.8210    -2.0560     1.2580 C.3   1 <1>  -0.0600 
 15 C       -3.0670    -1.5610    -0.4490 C.3   1 <1>   0.1400 
 16 C       -4.9080     0.0430    -0.9460 C.3   1 <1>   0.1400 
 17 C        3.9080     2.1670    -0.1000 C.ar  1 <1>  -0.1500 
 18 C        1.7940     2.8390     0.8660 C.ar  1 <1>  -0.1500 
 19 C       -2.4120    -0.9270     0.7850 C.3   1 <1>  -0.1600 
 20 C       -4.7030     1.3490    -0.1700 C.3   1 <1>  -0.1600 
 21 C        3.1080     3.1010     0.5300 C.ar  1 <1>   0.1900 
 22 C       -3.2880     0.0620     1.5770 C.3   1 <1>  -0.1600 
 23 C       -3.5220     1.3780     0.8170 C.3   1 <1>  -0.1600 
 24 F        3.6120     4.2700     0.8180 F     1 <1>  -0.1900 
 25 H       -1.6010    -1.7340    -2.8640 H     1 <1>   0.0800 
 26 H       -1.6100    -0.5190    -4.1160 H     1 <1>   0.0800 
 27 H        3.9790     0.1920    -0.9000 H     1 <1>   0.1500 
 28 H        0.2410     1.3810     0.8120 H     1 <1>   0.1500 
 29 H        2.6170    -1.4160     2.0980 H     1 <1>   0.0800 
 30 H        3.8020    -1.8380     0.8780 H     1 <1>   0.0800 
 31 H        2.8020    -3.0780     1.5910 H     1 <1>   0.0800 
 32 H       -2.3530    -2.1880    -0.9480 H     1 <1>   0.0800 
 33 H       -3.8710    -2.2030    -0.1310 H     1 <1>   0.0800 
 34 H       -5.4250    -0.6660    -0.3240 H     1 <1>   0.0800 
 35 H       -5.5320     0.2300    -1.8030 H     1 <1>   0.0800 
 36 H        4.9260     2.4120    -0.3480 H     1 <1>   0.1500 
 37 H        1.2020     3.5950     1.3520 H     1 <1>   0.1500 
 38 H       -1.5090    -0.4330     0.4840 H     1 <1>   0.0800 
 39 H       -2.1210    -1.7270     1.4420 H     1 <1>   0.0800 
 40 H       -5.6130     1.5560     0.3650 H     1 <1>   0.0800 
 41 H       -4.5730     2.1460    -0.8820 H     1 <1>   0.0800 
 42 H       -2.7680     0.2960     2.4900 H     1 <1>   0.0800 
 43 H       -4.2250    -0.3920     1.8510 H     1 <1>   0.0800 
 44 H       -3.7030     2.1660     1.5280 H     1 <1>   0.0800 
 45 H       -2.6270     1.6410     0.2800 H     1 <1>   0.0800 
@<TRIPOS>BOND
  1   1   2  1   
  2   1   3  1   
  3   2   4  2   
  4   2   5  1   
  5   3   6  1   
  6   3  25  1   
  7   3  26  1   
  8   4   7  1   
  9   5   8  1   
 10   5   9  1   
 11   6  10  2   
 12   6  11  am  
 13   7   9  2   
 14   8  12  ar  
 15   8  13  ar  
 16   9  14  1   
 17  11  15  1   
 18  11  16  1   
 19  12  17  ar  
 20  12  27  1   
 21  13  18  ar  
 22  13  28  1   
 23  14  29  1   
 24  14  30  1   
 25  14  31  1   
 26  15  19  1   
 27  15  32  1   
 28  15  33  1   
 29  16  20  1   
 30  16  34  1   
 31  16  35  1   
 32  17  21  ar  
 33  17  36  1   
 34  18  21  ar  
 35  18  37  1   
 36  19  22  1   
 37  19  38  1   
 38  19  39  1   
 39  20  23  1   
 40  20  40  1   
 41  20  41  1   
 42  21  24  1   
 43  22  23  1   
 44  22  42  1   
 45  22  43  1   
 46  23  44  1   
 47  23  45  1   
@<TRIPOS>SUBSTRUCTURE
  1 ****   2 GROUP 4 **** **** 0

# MOE 2024.06 (io_trps.svl 2023.06)
