@<TRIPOS>MOLECULE
NONAME
43 45 1 0 0 
SMALL
USER_CHARGES


@<TRIPOS>ATOM
  1 S        0.1320     0.3810    -0.4180 S.o2  1 <1>   1.4470 
  2 O       -0.0470    -0.7470     0.4710 O.2   1 <1>  -0.6500 
  3 O        0.1310     0.1670    -1.8500 O.2   1 <1>  -0.6500 
  4 N        1.6300     1.0740    -0.0340 N.am  1 <1>  -0.8490 
  5 C       -1.0460     1.6870     0.0250 C.ar  1 <1>  -0.0090 
  6 C        2.6780     0.0470     0.0650 C.3   1 <1>   0.1960 
  7 C        2.0190     2.1350    -0.9630 C.3   1 <1>   0.1960 
  8 C       -1.8190     2.3230    -0.9140 C.ar  1 <1>  -0.1500 
  9 C       -1.1750     2.0920     1.3650 C.ar  1 <1>  -0.1500 
 10 C        4.0910     0.6510     0.1560 C.3   1 <1>  -0.1600 
 11 C        3.1870     2.9420    -0.3760 C.3   1 <1>  -0.1600 
 12 C       -2.7200     3.3540    -0.5820 C.ar  1 <1>   0.0000 
 13 C       -2.0400     3.0880     1.7260 C.ar  1 <1>  -0.1500 
 14 C        4.0680     2.1260     0.5950 C.3   1 <1>  -0.0190 
 15 C       -2.8330     3.7470     0.7670 C.ar  1 <1>   0.0000 
 16 C       -3.5120     4.0080    -1.5470 C.ar  1 <1>  -0.1500 
 17 C        5.4710     2.7140     0.7150 C.2   1 <1>   0.5690 
 18 C       -3.7310     4.7800     1.1010 C.ar  1 <1>  -0.1500 
 19 C       -4.3760     5.0090    -1.1960 C.ar  1 <1>  -0.1500 
 20 O        6.2140     2.6710    -0.2360 O.2   1 <1>  -0.5700 
 21 N        5.8450     3.2760     1.8960 N.am  1 <1>  -0.7300 
 22 C       -4.4860     5.3990     0.1440 C.ar  1 <1>  -0.1500 
 23 C        7.1700     3.8890     2.1690 C.3   1 <1>   0.0600 
 24 H        2.6310    -0.6120    -0.7870 H     1 <1>   0.0800 
 25 H        2.4910    -0.5440     0.9470 H     1 <1>   0.0800 
 26 H        1.1920     2.7990    -1.1490 H     1 <1>   0.0800 
 27 H        2.3110     1.6960    -1.9050 H     1 <1>   0.0800 
 28 H       -1.7460     2.0340    -1.9490 H     1 <1>   0.1500 
 29 H       -0.5720     1.5940     2.1070 H     1 <1>   0.1500 
 30 H        4.5610     0.5790    -0.8100 H     1 <1>   0.0800 
 31 H        4.6850     0.0690     0.8390 H     1 <1>   0.0800 
 32 H        2.8000     3.8020     0.1410 H     1 <1>   0.0800 
 33 H        3.7810     3.3060    -1.1960 H     1 <1>   0.0800 
 34 H       -2.1280     3.3850     2.7560 H     1 <1>   0.1500 
 35 H        3.6050     2.1590     1.5650 H     1 <1>   0.0800 
 36 H       -3.4250     3.7040    -2.5740 H     1 <1>   0.1500 
 37 H       -3.8130     5.0760     2.1310 H     1 <1>   0.1500 
 38 H       -4.9780     5.5060    -1.9360 H     1 <1>   0.1500 
 39 H        5.1810     3.2920     2.6720 H     1 <1>   0.3700 
 40 H       -5.1710     6.1880     0.4040 H     1 <1>   0.1500 
 41 H        7.8000     3.8260     1.2970 H     1 <1>   0.0800 
 42 H        7.6510     3.3720     2.9800 H     1 <1>   0.0800 
 43 H        7.0460     4.9260     2.4310 H     1 <1>   0.0800 
@<TRIPOS>BOND
  1   1   2  2   
  2   1   3  2   
  3   1   4  am  
  4   1   5  1   
  5   4   6  1   
  6   4   7  1   
  7   5   8  ar  
  8   5   9  ar  
  9   6  10  1   
 10   6  24  1   
 11   6  25  1   
 12   7  11  1   
 13   7  26  1   
 14   7  27  1   
 15   8  12  ar  
 16   8  28  1   
 17   9  13  ar  
 18   9  29  1   
 19  10  14  1   
 20  10  30  1   
 21  10  31  1   
 22  11  14  1   
 23  11  32  1   
 24  11  33  1   
 25  12  15  ar  
 26  12  16  ar  
 27  13  15  ar  
 28  13  34  1   
 29  14  17  1   
 30  14  35  1   
 31  15  18  ar  
 32  16  19  ar  
 33  16  36  1   
 34  17  20  2   
 35  17  21  am  
 36  18  22  ar  
 37  18  37  1   
 38  19  22  ar  
 39  19  38  1   
 40  21  23  1   
 41  21  39  1   
 42  22  40  1   
 43  23  41  1   
 44  23  42  1   
 45  23  43  1   
@<TRIPOS>SUBSTRUCTURE
  1 ****   4 GROUP 4 **** **** 0

# MOE 2024.06 (io_trps.svl 2023.06)
