@<TRIPOS>MOLECULE
NONAME
38 39 1 0 0 
SMALL
USER_CHARGES


@<TRIPOS>ATOM
  1 S        0.3230    -1.8900     0.2980 S.3   1 <1>  -0.2860 
  2 C       -1.3510    -1.2580     0.1580 C.2   1 <1>   0.2420 
  3 C        1.2660    -0.4130     0.9210 C.3   1 <1>   0.1310 
  4 N       -1.6740    -0.0410     0.4120 N.2   1 <1>  -0.3380 
  5 N       -2.3770    -2.0170    -0.2230 N.pl3 1 <1>   0.0480 
  6 C        2.7580    -0.7000     0.9750 C.2   1 <1>   0.5690 
  7 N       -2.9900     0.0330     0.1950 N.2   1 <1>  -0.3380 
  8 C       -3.3930    -1.1410    -0.1780 C.2   1 <1>   0.0060 
  9 C       -2.3630    -3.4500    -0.5810 C.3   1 <1>   0.0160 
 10 O        3.4330    -0.0690     1.7510 O.2   1 <1>  -0.5700 
 11 N        3.2710    -1.6590     0.1420 N.am  1 <1>  -0.5470 
 12 C       -4.8320    -1.5090    -0.5260 C.3   1 <1>   0.0200 
 13 C        4.5910    -2.1220    -0.0090 C.ar  1 <1>   0.1170 
 14 C       -5.8240    -0.3620    -0.2980 C.3   1 <1>  -0.2400 
 15 C        4.8670    -3.4690    -0.2720 C.ar  1 <1>  -0.1430 
 16 C        5.6520    -1.2260     0.0850 C.ar  1 <1>  -0.1500 
 17 C        6.1900    -3.8750    -0.4310 C.ar  1 <1>  -0.1500 
 18 C        3.7270    -4.4900    -0.3710 C.3   1 <1>   1.1630 
 19 C        6.9590    -1.6400    -0.0740 C.ar  1 <1>  -0.1500 
 20 C        7.2300    -2.9690    -0.3340 C.ar  1 <1>  -0.1500 
 21 F        4.1230    -5.6920    -0.7720 F     1 <1>  -0.3400 
 22 F        2.7850    -4.1140    -1.2320 F     1 <1>  -0.3400 
 23 F        3.1100    -4.6760     0.7890 F     1 <1>  -0.3400 
 24 H        0.8890    -0.1840     1.9010 H     1 <1>   0.0800 
 25 H        1.0650     0.4040     0.2540 H     1 <1>   0.0800 
 26 H       -2.3120    -4.0380     0.3170 H     1 <1>   0.0800 
 27 H       -1.5040    -3.6580    -1.1930 H     1 <1>   0.0800 
 28 H       -3.2530    -3.7030    -1.1260 H     1 <1>   0.0800 
 29 H        2.5550    -2.1500    -0.4020 H     1 <1>   0.3700 
 30 H       -5.1320    -2.3480     0.0760 H     1 <1>   0.0800 
 31 H       -4.8740    -1.8030    -1.5600 H     1 <1>   0.0800 
 32 H       -5.8070    -0.0560     0.7330 H     1 <1>   0.0800 
 33 H       -6.8210    -0.6740    -0.5520 H     1 <1>   0.0800 
 34 H       -5.5610     0.4840    -0.9100 H     1 <1>   0.0800 
 35 H        5.4550    -0.1880     0.2860 H     1 <1>   0.1500 
 36 H        6.4340    -4.9060    -0.6310 H     1 <1>   0.1500 
 37 H        7.7630    -0.9290     0.0050 H     1 <1>   0.1500 
 38 H        8.2480    -3.2960    -0.4580 H     1 <1>   0.1500 
@<TRIPOS>BOND
  1   1   2  1   
  2   1   3  1   
  3   2   4  2   
  4   2   5  1   
  5   3   6  1   
  6   3  24  1   
  7   3  25  1   
  8   4   7  1   
  9   5   8  1   
 10   5   9  1   
 11   6  10  2   
 12   6  11  am  
 13   7   8  2   
 14   8  12  1   
 15   9  26  1   
 16   9  27  1   
 17   9  28  1   
 18  11  13  1   
 19  11  29  1   
 20  12  14  1   
 21  12  30  1   
 22  12  31  1   
 23  13  15  ar  
 24  13  16  ar  
 25  14  32  1   
 26  14  33  1   
 27  14  34  1   
 28  15  17  ar  
 29  15  18  1   
 30  16  19  ar  
 31  16  35  1   
 32  17  20  ar  
 33  17  36  1   
 34  18  21  1   
 35  18  22  1   
 36  18  23  1   
 37  19  20  ar  
 38  19  37  1   
 39  20  38  1   
@<TRIPOS>SUBSTRUCTURE
  1 ****   1 GROUP 4 **** **** 0

# MOE 2024.06 (io_trps.svl 2023.06)
