@<TRIPOS>MOLECULE
NONAME
29 30 1 0 0 
SMALL
USER_CHARGES


@<TRIPOS>ATOM
  1 CL      -1.4060     0.5030     1.0510 Cl    1 <1>  -0.1770 
  2 C       -0.3380     1.7180     0.3900 C.ar  1 <1>   0.1770 
  3 C       -0.3270     3.0040     0.9140 C.ar  1 <1>  -0.1440 
  4 C        0.4680     1.3610    -0.6750 C.ar  1 <1>  -0.1500 
  5 C        0.5210     3.9400     0.3380 C.ar  1 <1>  -0.1500 
  6 C       -1.1980     3.4110     2.0960 C.3   1 <1>   0.2140 
  7 C        1.3060     2.3060    -1.2400 C.ar  1 <1>  -0.1500 
  8 C        1.3290     3.5940    -0.7320 C.ar  1 <1>  -0.1500 
  9 S       -2.3560     4.7530     1.5610 S.3   1 <1>  -0.3610 
 10 C       -3.4430     4.0710     0.3730 C.cat 1 <1>   0.8400 
 11 N       -4.3280     4.8850    -0.1370 N.pl3 1 <1>  -0.7940 
 12 N       -3.3710     2.8100     0.0300 N.pl3 1 <1>  -0.7940 
 13 C       -5.3260     4.4880    -1.1500 C.3   1 <1>   0.3290 
 14 C       -4.2630     2.1790    -0.9640 C.3   1 <1>   0.3290 
 15 C       -4.8200     3.2530    -1.9070 C.3   1 <1>  -0.1600 
 16 H        0.4440     0.3560    -1.0580 H     1 <1>   0.1500 
 17 H        0.5620     4.9470     0.7200 H     1 <1>   0.1500 
 18 H       -0.5920     3.8230     2.8840 H     1 <1>   0.0800 
 19 H       -1.7920     2.6100     2.4960 H     1 <1>   0.0800 
 20 H        1.9410     2.0420    -2.0690 H     1 <1>   0.1500 
 21 H        1.9840     4.3290    -1.1700 H     1 <1>   0.1500 
 22 H       -4.3500     5.8560     0.1850 H     1 <1>   0.4500 
 23 H       -2.6670     2.1930     0.4430 H     1 <1>   0.4500 
 24 H       -5.4870     5.2990    -1.8430 H     1 <1>   0.0800 
 25 H       -6.2610     4.2690    -0.6590 H     1 <1>   0.0800 
 26 H       -5.0680     1.6790    -0.4500 H     1 <1>   0.0800 
 27 H       -3.7140     1.4450    -1.5330 H     1 <1>   0.0800 
 28 H       -4.0430     3.5560    -2.5880 H     1 <1>   0.0800 
 29 H       -5.6160     2.8390    -2.4990 H     1 <1>   0.0800 
@<TRIPOS>BOND
  1   1   2  1   
  2   2   3  ar  
  3   2   4  ar  
  4   3   5  ar  
  5   3   6  1   
  6   4   7  ar  
  7   4  16  1   
  8   5   8  ar  
  9   5  17  1   
 10   6   9  1   
 11   6  18  1   
 12   6  19  1   
 13   7   8  ar  
 14   7  20  1   
 15   8  21  1   
 16   9  10  1   
 17  10  11  ar  
 18  10  12  ar  
 19  11  13  1   
 20  11  22  1   
 21  12  14  1   
 22  12  23  1   
 23  13  15  1   
 24  13  24  1   
 25  13  25  1   
 26  14  15  1   
 27  14  26  1   
 28  14  27  1   
 29  15  28  1   
 30  15  29  1   
@<TRIPOS>SUBSTRUCTURE
  1 ****  12 GROUP 4 **** **** 0

# MOE 2024.06 (io_trps.svl 2023.06)
