@<TRIPOS>MOLECULE
NONAME
56 58 1 0 0 
SMALL
USER_CHARGES


@<TRIPOS>ATOM
  1 CL       1.6620     0.4320     2.3980 Cl    1 <1>  -0.1770 
  2 C        2.5640    -0.6870     1.4110 C.ar  1 <1>   0.1770 
  3 C        3.6600    -1.3350     1.9460 C.ar  1 <1>  -0.1500 
  4 C        2.1720    -0.9110     0.1060 C.ar  1 <1>  -0.1500 
  5 C        4.3700    -2.2250     1.1560 C.ar  1 <1>  -0.1500 
  6 C        2.8910    -1.8030    -0.6730 C.ar  1 <1>  -0.1500 
  7 C        3.9980    -2.4760    -0.1620 C.ar  1 <1>  -0.0090 
  8 S        4.9410    -3.6440    -1.1830 S.o2  1 <1>   1.4470 
  9 O        4.1580    -4.0570    -2.3280 O.2   1 <1>  -0.6500 
 10 O        6.2660    -3.1160    -1.4150 O.2   1 <1>  -0.6500 
 11 N        5.0710    -4.9930    -0.1620 N.am  1 <1>  -0.8490 
 12 C        6.4290    -5.5970    -0.1510 C.3   1 <1>   0.2570 
 13 C        3.9760    -5.9590    -0.2930 C.3   1 <1>   0.1960 
 14 C        7.4510    -4.8490     0.7320 C.2   1 <1>   0.5690 
 15 C        3.7280    -6.6820     1.0350 C.3   1 <1>  -0.0160 
 16 O        7.1270    -4.6260     1.8780 O.2   1 <1>  -0.5700 
 17 N        8.6980    -4.4970     0.2660 N.am  1 <1>  -0.6600 
 18 C        2.5130    -7.5870     0.9150 C.ar  1 <1>  -0.1430 
 19 C        9.7050    -3.8680     1.1630 C.3   1 <1>   0.1400 
 20 C        9.1620    -4.6310    -1.1400 C.3   1 <1>   0.1400 
 21 C        2.6580    -8.9110     0.5280 C.ar  1 <1>  -0.1500 
 22 C        1.2460    -7.0930     1.1870 C.ar  1 <1>  -0.1500 
 23 C       10.7490    -4.8930     1.6220 C.3   1 <1>  -0.1600 
 24 C        9.7580    -6.0190    -1.4050 C.3   1 <1>  -0.1600 
 25 C        1.5490    -9.7320     0.4140 C.ar  1 <1>  -0.1500 
 26 C        0.1370    -7.9130     1.0730 C.ar  1 <1>  -0.1500 
 27 C       11.4840    -5.6420     0.4930 C.3   1 <1>  -0.1600 
 28 C       10.5780    -6.6350    -0.2560 C.3   1 <1>  -0.1600 
 29 C        0.2870    -9.2330     0.6870 C.ar  1 <1>  -0.1500 
 30 H        3.9520    -1.1480     2.9640 H     1 <1>   0.1500 
 31 H        1.3170    -0.3930    -0.2910 H     1 <1>   0.1500 
 32 H        5.2260    -2.7350     1.5700 H     1 <1>   0.1500 
 33 H        2.5880    -1.9800    -1.6920 H     1 <1>   0.1500 
 34 H        6.7820    -5.6870    -1.1600 H     1 <1>   0.0800 
 35 H        6.3770    -6.5920     0.2480 H     1 <1>   0.0800 
 36 H        4.1870    -6.6630    -1.0810 H     1 <1>   0.0800 
 37 H        3.0660    -5.4420    -0.5510 H     1 <1>   0.0800 
 38 H        3.5580    -5.9540     1.8090 H     1 <1>   0.0800 
 39 H        4.5810    -7.2710     1.3150 H     1 <1>   0.0800 
 40 H        9.2190    -3.4480     2.0270 H     1 <1>   0.0800 
 41 H       10.1890    -3.0560     0.6480 H     1 <1>   0.0800 
 42 H        9.9140    -3.8860    -1.3330 H     1 <1>   0.0800 
 43 H        8.3580    -4.4330    -1.8260 H     1 <1>   0.0800 
 44 H        3.6330    -9.3110     0.3140 H     1 <1>   0.1500 
 45 H        1.1160    -6.0690     1.4900 H     1 <1>   0.1500 
 46 H       10.2680    -5.6000     2.2750 H     1 <1>   0.0800 
 47 H       11.4780    -4.3700     2.2130 H     1 <1>   0.0800 
 48 H       10.3870    -5.9380    -2.2740 H     1 <1>   0.0800 
 49 H        8.9650    -6.6980    -1.6620 H     1 <1>   0.0800 
 50 H        1.6670   -10.7580     0.1150 H     1 <1>   0.1500 
 51 H       -0.8440    -7.5240     1.2860 H     1 <1>   0.1500 
 52 H       12.2830    -6.2030     0.9460 H     1 <1>   0.0800 
 53 H       11.9340    -4.9470    -0.1950 H     1 <1>   0.0800 
 54 H       11.1900    -7.4190    -0.6680 H     1 <1>   0.0800 
 55 H        9.9100    -7.1000     0.4490 H     1 <1>   0.0800 
 56 H       -0.5750    -9.8710     0.5990 H     1 <1>   0.1500 
@<TRIPOS>BOND
  1   1   2  1   
  2   2   3  ar  
  3   2   4  ar  
  4   3   5  ar  
  5   3  30  1   
  6   4   6  ar  
  7   4  31  1   
  8   5   7  ar  
  9   5  32  1   
 10   6   7  ar  
 11   6  33  1   
 12   7   8  1   
 13   8   9  2   
 14   8  10  2   
 15   8  11  am  
 16  11  12  1   
 17  11  13  1   
 18  12  14  1   
 19  12  34  1   
 20  12  35  1   
 21  13  15  1   
 22  13  36  1   
 23  13  37  1   
 24  14  16  2   
 25  14  17  am  
 26  15  18  1   
 27  15  38  1   
 28  15  39  1   
 29  17  19  1   
 30  17  20  1   
 31  18  21  ar  
 32  18  22  ar  
 33  19  23  1   
 34  19  40  1   
 35  19  41  1   
 36  20  24  1   
 37  20  42  1   
 38  20  43  1   
 39  21  25  ar  
 40  21  44  1   
 41  22  26  ar  
 42  22  45  1   
 43  23  27  1   
 44  23  46  1   
 45  23  47  1   
 46  24  28  1   
 47  24  48  1   
 48  24  49  1   
 49  25  29  ar  
 50  25  50  1   
 51  26  29  ar  
 52  26  51  1   
 53  27  28  1   
 54  27  52  1   
 55  27  53  1   
 56  28  54  1   
 57  28  55  1   
 58  29  56  1   
@<TRIPOS>SUBSTRUCTURE
  1 ****  11 GROUP 4 **** **** 0

# MOE 2024.06 (io_trps.svl 2023.06)
