@<TRIPOS>MOLECULE
NONAME
43 45 1 0 0 
SMALL
USER_CHARGES


@<TRIPOS>ATOM
  1 S       -0.3190    -0.8950     0.9290 S.3   1 <1>  -0.0800 
  2 C        1.1050    -0.0450     0.3250 C.2   1 <1>   0.1660 
  3 C       -1.3000     0.5210     0.6030 C.2   1 <1>  -0.1400 
  4 N        2.3280    -0.6200     0.2930 N.2   1 <1>  -0.5760 
  5 C        0.8020     1.2190    -0.0820 C.2   1 <1>  -0.0860 
  6 C       -0.5900     1.5150     0.0910 C.2   1 <1>  -0.1810 
  7 C       -2.7590     0.7780     0.8040 C.3   1 <1>   0.0200 
  8 C        3.2610     0.1360    -0.1780 C.2   1 <1>   0.6510 
  9 C        1.8660     2.0100    -0.5920 C.2   1 <1>   0.7160 
 10 C       -1.4590     2.7130    -0.1770 C.3   1 <1>   0.0210 
 11 C       -2.8680     2.2370     0.2840 C.3   1 <1>  -0.1600 
 12 S        4.8950    -0.5820    -0.2270 S.3   1 <1>  -0.3710 
 13 N        3.1210     1.4310    -0.6390 N.am  1 <1>  -0.4200 
 14 O        1.6920     3.1600    -0.9750 O.2   1 <1>  -0.5700 
 15 C        4.6650    -2.2770     0.5050 C.3   1 <1>   0.1310 
 16 C        4.2670     2.2290    -1.1660 C.3   1 <1>   0.1400 
 17 C        5.9790    -3.0340     0.5280 C.2   1 <1>   0.6590 
 18 C        4.9670     2.9710    -0.0220 C.3   1 <1>  -0.1600 
 19 O        6.5570    -3.2660     1.5590 O.2   1 <1>  -0.5700 
 20 O        6.4440    -3.4410    -0.6490 O.3   1 <1>  -0.4300 
 21 C        6.1610     3.7830    -0.5390 C.3   1 <1>  -0.1600 
 22 C        7.6580    -4.1560    -0.7590 C.3   1 <1>   0.0400 
 23 C        6.8590     4.5220     0.6060 C.3   1 <1>  -0.2400 
 24 H       -3.0190     0.7030     1.8450 H     1 <1>   0.0800 
 25 H       -3.3500     0.0980     0.2160 H     1 <1>   0.0800 
 26 H       -1.4480     2.9580    -1.2250 H     1 <1>   0.0800 
 27 H       -1.1210     3.5580     0.3980 H     1 <1>   0.0800 
 28 H       -3.2320     2.8780     1.0670 H     1 <1>   0.0800 
 29 H       -3.5550     2.2800    -0.5430 H     1 <1>   0.0800 
 30 H        3.9430    -2.7950    -0.0980 H     1 <1>   0.0800 
 31 H        4.2890    -2.1470     1.5030 H     1 <1>   0.0800 
 32 H        3.9110     2.9430    -1.8890 H     1 <1>   0.0800 
 33 H        4.9640     1.5920    -1.6810 H     1 <1>   0.0800 
 34 H        5.3140     2.2620     0.7100 H     1 <1>   0.0800 
 35 H        4.2640     3.6360     0.4500 H     1 <1>   0.0800 
 36 H        5.8230     4.5010    -1.2680 H     1 <1>   0.0800 
 37 H        6.8680     3.1260    -1.0170 H     1 <1>   0.0800 
 38 H        7.8320    -4.3750    -1.7970 H     1 <1>   0.0800 
 39 H        7.5770    -5.0690    -0.1940 H     1 <1>   0.0800 
 40 H        8.4560    -3.5480    -0.3690 H     1 <1>   0.0800 
 41 H        6.1770     5.2010     1.0870 H     1 <1>   0.0800 
 42 H        7.6920     5.0860     0.2270 H     1 <1>   0.0800 
 43 H        7.2250     3.8230     1.3380 H     1 <1>   0.0800 
@<TRIPOS>BOND
  1   1   2  1   
  2   1   3  1   
  3   2   4  1   
  4   2   5  2   
  5   3   6  2   
  6   3   7  1   
  7   4   8  2   
  8   5   6  1   
  9   5   9  1   
 10   6  10  1   
 11   7  11  1   
 12   7  24  1   
 13   7  25  1   
 14   8  12  1   
 15   8  13  1   
 16   9  13  am  
 17   9  14  2   
 18  10  11  1   
 19  10  26  1   
 20  10  27  1   
 21  11  28  1   
 22  11  29  1   
 23  12  15  1   
 24  13  16  1   
 25  15  17  1   
 26  15  30  1   
 27  15  31  1   
 28  16  18  1   
 29  16  32  1   
 30  16  33  1   
 31  17  19  2   
 32  17  20  1   
 33  18  21  1   
 34  18  34  1   
 35  18  35  1   
 36  20  22  1   
 37  21  23  1   
 38  21  36  1   
 39  21  37  1   
 40  22  38  1   
 41  22  39  1   
 42  22  40  1   
 43  23  41  1   
 44  23  42  1   
 45  23  43  1   
@<TRIPOS>SUBSTRUCTURE
  1 ****   8 GROUP 4 **** **** 0

# MOE 2024.06 (io_trps.svl 2023.06)
