@<TRIPOS>MOLECULE
NONAME
38 39 1 0 0 
SMALL
USER_CHARGES


@<TRIPOS>ATOM
  1 F       -5.5160    -2.0790    -2.5100 F     1 <1>  -0.1900 
  2 C       -4.4690    -2.4790    -1.8370 C.ar  1 <1>   0.1900 
  3 C       -4.6490    -3.3590    -0.7870 C.ar  1 <1>  -0.1500 
  4 C       -3.2230    -2.0060    -2.1990 C.ar  1 <1>  -0.1500 
  5 C       -3.5390    -3.7840    -0.0740 C.ar  1 <1>  -0.1500 
  6 C       -2.1190    -2.4350    -1.4810 C.ar  1 <1>  -0.1500 
  7 C       -2.2680    -3.3210    -0.4210 C.ar  1 <1>   0.0830 
  8 O       -1.1330    -3.6900     0.2250 O.3   1 <1>  -0.3630 
  9 C       -1.1750    -4.6070     1.3100 C.3   1 <1>   0.1810 
 10 C        0.2330    -4.8470     1.8250 C.2   1 <1>   0.6590 
 11 O        0.5880    -4.5020     2.9220 O.2   1 <1>  -0.5700 
 12 O        1.0860    -5.3980     0.9690 O.3   1 <1>  -0.4300 
 13 C        2.4600    -5.5710     1.2720 C.3   1 <1>   0.2000 
 14 C        3.1250    -4.1900     1.4720 C.3   1 <1>   0.3430 
 15 C        3.1100    -6.2790     0.0720 C.3   1 <1>  -0.1600 
 16 N        2.8690    -3.2700     0.2980 N.4   1 <1>  -0.9590 
 17 C        3.5720    -5.2910    -1.0250 C.3   1 <1>  -0.1600 
 18 C        2.7700    -3.9820    -1.0260 C.3   1 <1>   0.3430 
 19 C        3.8680    -2.1620     0.2600 C.3   1 <1>   0.2630 
 20 H       -5.6380    -3.7010    -0.5390 H     1 <1>   0.1500 
 21 H       -3.1260    -1.3210    -3.0220 H     1 <1>   0.1500 
 22 H       -3.6930    -4.4670     0.7400 H     1 <1>   0.1500 
 23 H       -1.1400    -2.0800    -1.7430 H     1 <1>   0.1500 
 24 H       -1.5970    -5.5320     0.9640 H     1 <1>   0.0800 
 25 H       -1.7810    -4.1860     2.0920 H     1 <1>   0.0800 
 26 H        2.5360    -6.1760     2.1610 H     1 <1>   0.0800 
 27 H        4.1850    -4.3460     1.5820 H     1 <1>   0.0800 
 28 H        2.7640    -3.7420     2.3830 H     1 <1>   0.0800 
 29 H        2.4150    -6.9950    -0.3350 H     1 <1>   0.0800 
 30 H        3.9690    -6.8330     0.4110 H     1 <1>   0.0800 
 31 H        1.9370    -2.8570     0.4610 H     1 <1>   0.4500 
 32 H        3.4760    -5.7640    -1.9880 H     1 <1>   0.0800 
 33 H        4.6140    -5.0570    -0.8930 H     1 <1>   0.0800 
 34 H        3.1100    -3.3390    -1.8220 H     1 <1>   0.0800 
 35 H        1.7360    -4.2240    -1.2160 H     1 <1>   0.0800 
 36 H        4.8560    -2.5560     0.0850 H     1 <1>   0.0800 
 37 H        3.8700    -1.6280     1.1970 H     1 <1>   0.0800 
 38 H        3.6280    -1.4680    -0.5290 H     1 <1>   0.0800 
@<TRIPOS>BOND
  1   1   2  1   
  2   2   3  ar  
  3   2   4  ar  
  4   3   5  ar  
  5   3  20  1   
  6   4   6  ar  
  7   4  21  1   
  8   5   7  ar  
  9   5  22  1   
 10   6   7  ar  
 11   6  23  1   
 12   7   8  1   
 13   8   9  1   
 14   9  10  1   
 15   9  24  1   
 16   9  25  1   
 17  10  11  2   
 18  10  12  1   
 19  12  13  1   
 20  13  14  1   
 21  13  15  1   
 22  13  26  1   
 23  14  16  1   
 24  14  27  1   
 25  14  28  1   
 26  15  17  1   
 27  15  29  1   
 28  15  30  1   
 29  16  18  1   
 30  16  19  1   
 31  16  31  1   
 32  17  18  1   
 33  17  32  1   
 34  17  33  1   
 35  18  34  1   
 36  18  35  1   
 37  19  36  1   
 38  19  37  1   
 39  19  38  1   
@<TRIPOS>SUBSTRUCTURE
  1 ****   8 GROUP 4 **** **** 0

# MOE 2024.06 (io_trps.svl 2023.06)
