@<TRIPOS>MOLECULE
NONAME
69 70 1 0 0 
SMALL
USER_CHARGES


@<TRIPOS>ATOM
  1 SI       0.2170     0.1770    -1.2080 Si    1 <1>   0.7560 
  2 O       -0.6170     0.3110     0.2110 O.3   1 <1>  -0.5770 
  3 O        1.7830    -0.1130    -0.7960 O.3   1 <1>  -0.5770 
  4 C       -0.3750    -1.1980    -2.2120 C.3   1 <1>  -0.3200 
  5 C        0.1160     1.7320    -2.1160 C.3   1 <1>  -0.3200 
  6 C       -1.9640     0.2570     0.5510 C.3   1 <1>   0.2000 
  7 C        2.8490    -0.1310    -1.6860 C.3   1 <1>   0.2000 
  8 C       -2.4580    -1.1880     0.5680 C.3   1 <1>  -0.1600 
  9 C       -2.8290     1.1060    -0.3790 C.3   1 <1>  -0.1600 
 10 C        3.7970    -1.2520    -1.2620 C.3   1 <1>  -0.1600 
 11 C        3.6110     1.1930    -1.5920 C.3   1 <1>  -0.1600 
 12 C       -3.9280    -1.2840     1.0000 C.3   1 <1>   0.5030 
 13 C       -4.3080     1.0710     0.0310 C.3   1 <1>   0.5030 
 14 C        4.3800    -1.0620     0.1540 C.3   1 <1>   0.5030 
 15 C        4.1730     1.4760    -0.1820 C.3   1 <1>   0.5030 
 16 N       -4.7660    -0.3080     0.2780 N.4   1 <1>  -0.9060 
 17 C       -4.0990    -1.1070     2.5110 C.3   1 <1>  -0.2400 
 18 C       -4.4810    -2.6570     0.6200 C.3   1 <1>  -0.2400 
 19 C       -4.5880     1.9460     1.2560 C.3   1 <1>  -0.2400 
 20 C       -5.1670     1.5860    -1.1230 C.3   1 <1>  -0.2400 
 21 N        4.1170     0.2860     0.6760 N.4   1 <1>  -0.9060 
 22 C        5.8810    -1.3520     0.1960 C.3   1 <1>  -0.2400 
 23 C        3.6820    -2.0030     1.1360 C.3   1 <1>  -0.2400 
 24 C        5.6040     2.0130    -0.2370 C.3   1 <1>  -0.2400 
 25 C        3.3010     2.5110     0.5290 C.3   1 <1>  -0.2400 
 26 H        0.2070    -1.3180    -3.1060 H     1 <1>   0.0800 
 27 H       -1.3920    -1.0720    -2.5290 H     1 <1>   0.0800 
 28 H       -0.3170    -2.1320    -1.6840 H     1 <1>   0.0800 
 29 H        0.7100     1.7180    -3.0110 H     1 <1>   0.0800 
 30 H        0.4580     2.5610    -1.5260 H     1 <1>   0.0800 
 31 H       -0.8850     1.9650    -2.4240 H     1 <1>   0.0800 
 32 H       -2.0160     0.6550     1.5500 H     1 <1>   0.0800 
 33 H        2.4830    -0.3080    -2.6860 H     1 <1>   0.0800 
 34 H       -1.8470    -1.7650     1.2400 H     1 <1>   0.0800 
 35 H       -2.3580    -1.6150    -0.4110 H     1 <1>   0.0800 
 36 H       -2.7420     0.7380    -1.3850 H     1 <1>   0.0800 
 37 H       -2.4780     2.1240    -0.3640 H     1 <1>   0.0800 
 38 H        4.5990    -1.2940    -1.9770 H     1 <1>   0.0800 
 39 H        3.2880    -2.1970    -1.3440 H     1 <1>   0.0800 
 40 H        2.9870     2.0020    -1.9250 H     1 <1>   0.0800 
 41 H        4.4230     1.1520    -2.2950 H     1 <1>   0.0800 
 42 H       -5.6700    -0.2600     0.7510 H     1 <1>   0.4500 
 43 H       -4.9490    -0.7170    -0.6400 H     1 <1>   0.4500 
 44 H       -3.6160    -0.2260     2.8810 H     1 <1>   0.0800 
 45 H       -3.6470    -1.9380     3.0240 H     1 <1>   0.0800 
 46 H       -5.1390    -1.0840     2.7870 H     1 <1>   0.0800 
 47 H       -4.4150    -2.8290    -0.4400 H     1 <1>   0.0800 
 48 H       -5.5060    -2.7640     0.9320 H     1 <1>   0.0800 
 49 H       -3.9110    -3.4290     1.1080 H     1 <1>   0.0800 
 50 H       -3.9250     1.7400     2.0710 H     1 <1>   0.0800 
 51 H       -5.6050     1.8370     1.5890 H     1 <1>   0.0800 
 52 H       -4.4400     2.9810     1.0010 H     1 <1>   0.0800 
 53 H       -5.0350     0.9900    -2.0090 H     1 <1>   0.0800 
 54 H       -4.8860     2.5960    -1.3680 H     1 <1>   0.0800 
 55 H       -6.2100     1.5950    -0.8580 H     1 <1>   0.0800 
 56 H        4.6240     0.4420     1.5450 H     1 <1>   0.4500 
 57 H        3.1160     0.2320     0.9050 H     1 <1>   0.4500 
 58 H        6.4170    -0.7820    -0.5370 H     1 <1>   0.0800 
 59 H        6.0540    -2.3910    -0.0280 H     1 <1>   0.0800 
 60 H        6.2900    -1.1530     1.1700 H     1 <1>   0.0800 
 61 H        2.6190    -1.8370     1.1390 H     1 <1>   0.0800 
 62 H        4.0620    -1.8780     2.1350 H     1 <1>   0.0800 
 63 H        3.8490    -3.0260     0.8500 H     1 <1>   0.0800 
 64 H        6.2510     1.3680    -0.7980 H     1 <1>   0.0800 
 65 H        6.0070     2.1480     0.7510 H     1 <1>   0.0800 
 66 H        5.6120     2.9700    -0.7290 H     1 <1>   0.0800 
 67 H        2.2800     2.1770     0.5990 H     1 <1>   0.0800 
 68 H        3.3020     3.4370    -0.0210 H     1 <1>   0.0800 
 69 H        3.6700     2.7210     1.5170 H     1 <1>   0.0800 
@<TRIPOS>BOND
  1   1   2  1   
  2   1   3  1   
  3   1   4  1   
  4   1   5  1   
  5   2   6  1   
  6   3   7  1   
  7   4  26  1   
  8   4  27  1   
  9   4  28  1   
 10   5  29  1   
 11   5  30  1   
 12   5  31  1   
 13   6   8  1   
 14   6   9  1   
 15   6  32  1   
 16   7  10  1   
 17   7  11  1   
 18   7  33  1   
 19   8  12  1   
 20   8  34  1   
 21   8  35  1   
 22   9  13  1   
 23   9  36  1   
 24   9  37  1   
 25  10  14  1   
 26  10  38  1   
 27  10  39  1   
 28  11  15  1   
 29  11  40  1   
 30  11  41  1   
 31  12  16  1   
 32  12  17  1   
 33  12  18  1   
 34  13  16  1   
 35  13  19  1   
 36  13  20  1   
 37  14  21  1   
 38  14  22  1   
 39  14  23  1   
 40  15  21  1   
 41  15  24  1   
 42  15  25  1   
 43  16  42  1   
 44  16  43  1   
 45  17  44  1   
 46  17  45  1   
 47  17  46  1   
 48  18  47  1   
 49  18  48  1   
 50  18  49  1   
 51  19  50  1   
 52  19  51  1   
 53  19  52  1   
 54  20  53  1   
 55  20  54  1   
 56  20  55  1   
 57  21  56  1   
 58  21  57  1   
 59  22  58  1   
 60  22  59  1   
 61  22  60  1   
 62  23  61  1   
 63  23  62  1   
 64  23  63  1   
 65  24  64  1   
 66  24  65  1   
 67  24  66  1   
 68  25  67  1   
 69  25  68  1   
 70  25  69  1   
@<TRIPOS>SUBSTRUCTURE
  1 ****   2 GROUP 4 **** **** 0

# MOE 2024.06 (io_trps.svl 2023.06)
