@<TRIPOS>MOLECULE
NONAME
40 41 1 0 0 
SMALL
USER_CHARGES


@<TRIPOS>ATOM
  1 CL      -4.9570    -3.6500    -3.6640 Cl    1 <1>  -0.1770 
  2 C       -5.0590    -2.6010    -2.2680 C.ar  1 <1>   0.1770 
  3 C       -4.9410    -3.1260    -0.9870 C.ar  1 <1>  -0.1440 
  4 C       -5.2650    -1.2510    -2.4800 C.ar  1 <1>  -0.1500 
  5 C       -5.0430    -2.2650     0.0950 C.ar  1 <1>  -0.1500 
  6 C       -4.7110    -4.6130    -0.7660 C.3   1 <1>  -0.0960 
  7 C       -5.3710    -0.4030    -1.3930 C.ar  1 <1>  -0.1500 
  8 C       -5.2720    -0.9040    -0.1040 C.ar  1 <1>   0.0830 
  9 O       -5.4360    -0.0110     0.9060 O.3   1 <1>  -0.3630 
 10 C       -5.7300    -0.4210     2.2380 C.3   1 <1>   0.2610 
 11 C       -7.0010    -1.2850     2.3050 C.2   1 <1>   0.5690 
 12 C       -5.8540     0.8530     3.0790 C.3   1 <1>  -0.2400 
 13 O       -7.0660    -2.1610     3.1360 O.2   1 <1>  -0.5700 
 14 N       -7.9990    -1.0830     1.4040 N.am  1 <1>  -0.7300 
 15 C       -9.0900    -2.0370     1.1080 C.3   1 <1>   0.1400 
 16 C       -8.8350    -2.6910    -0.2580 C.3   1 <1>   0.2000 
 17 O       -8.6960    -1.7170    -1.2420 O.3   1 <1>  -0.5600 
 18 C       -9.9660    -3.5720    -0.7680 C.3   1 <1>  -0.1600 
 19 C       -8.8790    -2.2920    -2.4950 C.3   1 <1>   0.1200 
 20 C       -9.8030    -3.4900    -2.2780 C.3   1 <1>  -0.1600 
 21 H       -5.3460    -0.8720    -3.4820 H     1 <1>   0.1500 
 22 H       -4.9470    -2.6660     1.0860 H     1 <1>   0.1500 
 23 H       -5.5180    -5.1780    -1.1960 H     1 <1>   0.0800 
 24 H       -4.6550    -4.8450     0.2830 H     1 <1>   0.0800 
 25 H       -3.7900    -4.9150    -1.2310 H     1 <1>   0.0800 
 26 H       -5.5410     0.6490    -1.5370 H     1 <1>   0.1500 
 27 H       -4.8950    -0.9970     2.5940 H     1 <1>   0.0800 
 28 H       -6.6730     1.4530     2.7240 H     1 <1>   0.0800 
 29 H       -4.9420     1.4200     3.0300 H     1 <1>   0.0800 
 30 H       -6.0420     0.5910     4.1050 H     1 <1>   0.0800 
 31 H       -7.8000    -0.4600     0.6110 H     1 <1>   0.3700 
 32 H      -10.0290    -1.5120     1.0910 H     1 <1>   0.0800 
 33 H       -9.1370    -2.7950     1.8710 H     1 <1>   0.0800 
 34 H       -7.9160    -3.2540    -0.2270 H     1 <1>   0.0800 
 35 H      -10.9140    -3.1550    -0.4750 H     1 <1>   0.0800 
 36 H       -9.8870    -4.5770    -0.3950 H     1 <1>   0.0800 
 37 H       -7.9170    -2.6040    -2.8650 H     1 <1>   0.0800 
 38 H       -9.3080    -1.5560    -3.1520 H     1 <1>   0.0800 
 39 H      -10.7480    -3.3420    -2.7700 H     1 <1>   0.0800 
 40 H       -9.3400    -4.3790    -2.6700 H     1 <1>   0.0800 
@<TRIPOS>BOND
  1   1   2  1   
  2   2   3  ar  
  3   2   4  ar  
  4   3   5  ar  
  5   3   6  1   
  6   4   7  ar  
  7   4  21  1   
  8   5   8  ar  
  9   5  22  1   
 10   6  23  1   
 11   6  24  1   
 12   6  25  1   
 13   7   8  ar  
 14   7  26  1   
 15   8   9  1   
 16   9  10  1   
 17  10  11  1   
 18  10  12  1   
 19  10  27  1   
 20  11  13  2   
 21  11  14  am  
 22  12  28  1   
 23  12  29  1   
 24  12  30  1   
 25  14  15  1   
 26  14  31  1   
 27  15  16  1   
 28  15  32  1   
 29  15  33  1   
 30  16  17  1   
 31  16  18  1   
 32  16  34  1   
 33  17  19  1   
 34  18  20  1   
 35  18  35  1   
 36  18  36  1   
 37  19  20  1   
 38  19  37  1   
 39  19  38  1   
 40  20  39  1   
 41  20  40  1   
@<TRIPOS>SUBSTRUCTURE
  1 ****   5 GROUP 4 **** **** 0

# MOE 2024.06 (io_trps.svl 2023.06)
