@<TRIPOS>MOLECULE
NONAME
32 33 1 0 0 
SMALL
USER_CHARGES


@<TRIPOS>ATOM
  1 CL      -0.0160    -0.8800     0.9970 Cl    1 <1>  -0.1770 
  2 C       -1.1570     0.3460     0.4730 C.ar  1 <1>   0.1770 
  3 C       -0.7850     1.5930    -0.0590 C.ar  1 <1>   0.0830 
  4 C       -2.4900     0.0030     0.6100 C.ar  1 <1>  -0.1500 
  5 O        0.4780     2.0740    -0.2500 O.3   1 <1>  -0.3630 
  6 C       -1.7900     2.4710    -0.4470 C.ar  1 <1>  -0.1500 
  7 C       -3.4620     0.9010     0.2170 C.ar  1 <1>   0.1770 
  8 C        1.6460     1.4180     0.1750 C.3   1 <1>   0.1200 
  9 C       -3.1260     2.1330    -0.3120 C.ar  1 <1>  -0.1500 
 10 CL      -5.1440     0.4730     0.3890 Cl    1 <1>  -0.1770 
 11 C        2.8360     2.3310    -0.1320 C.3   1 <1>   0.3430 
 12 N        4.1380     1.7460     0.3260 N.4   1 <1>  -0.9590 
 13 C        5.2740     2.6820     0.1390 C.3   1 <1>   0.3430 
 14 C        4.5290     0.4960    -0.3770 C.3   1 <1>   0.3430 
 15 C        6.5090     1.7940     0.2010 C.3   1 <1>  -0.1600 
 16 C        6.0280     0.3800    -0.1380 C.3   1 <1>  -0.1600 
 17 H       -2.7720    -0.9510     1.0170 H     1 <1>   0.1500 
 18 H       -1.5230     3.4290    -0.8580 H     1 <1>   0.1500 
 19 H        1.7250     0.4960    -0.3730 H     1 <1>   0.0800 
 20 H        1.5660     1.2440     1.2330 H     1 <1>   0.0800 
 21 H       -3.9020     2.8150    -0.6120 H     1 <1>   0.1500 
 22 H        2.6750     3.2740     0.3650 H     1 <1>   0.0800 
 23 H        2.8730     2.5090    -1.1950 H     1 <1>   0.0800 
 24 H        4.0870     1.5340     1.3320 H     1 <1>   0.4500 
 25 H        5.2930     3.4480     0.8980 H     1 <1>   0.0800 
 26 H        5.2120     3.1420    -0.8350 H     1 <1>   0.0800 
 27 H        4.3420     0.5970    -1.4350 H     1 <1>   0.0800 
 28 H        3.9980    -0.3630     0.0020 H     1 <1>   0.0800 
 29 H        6.9280     1.8210     1.1930 H     1 <1>   0.0800 
 30 H        7.2560     2.1400    -0.4930 H     1 <1>   0.0800 
 31 H        6.5180    -0.0100    -1.0130 H     1 <1>   0.0800 
 32 H        6.2170    -0.2890     0.6840 H     1 <1>   0.0800 
@<TRIPOS>BOND
  1   1   2  1   
  2   2   3  ar  
  3   2   4  ar  
  4   3   5  1   
  5   3   6  ar  
  6   4   7  ar  
  7   4  17  1   
  8   5   8  1   
  9   6   9  ar  
 10   6  18  1   
 11   7   9  ar  
 12   7  10  1   
 13   8  11  1   
 14   8  19  1   
 15   8  20  1   
 16   9  21  1   
 17  11  12  1   
 18  11  22  1   
 19  11  23  1   
 20  12  13  1   
 21  12  14  1   
 22  12  24  1   
 23  13  15  1   
 24  13  25  1   
 25  13  26  1   
 26  14  16  1   
 27  14  27  1   
 28  14  28  1   
 29  15  16  1   
 30  15  29  1   
 31  15  30  1   
 32  16  31  1   
 33  16  32  1   
@<TRIPOS>SUBSTRUCTURE
  1 ****   8 GROUP 4 **** **** 0

# MOE 2024.06 (io_trps.svl 2023.06)
