@<TRIPOS>MOLECULE
NONAME
49 51 1 0 0 
SMALL
USER_CHARGES


@<TRIPOS>ATOM
  1 F        0.5950     1.0760    -1.6800 F     1 <1>  -0.1900 
  2 C        1.2970     1.3230    -0.5990 C.ar  1 <1>   0.1900 
  3 C        0.9160     2.3640     0.2580 C.ar  1 <1>   0.1000 
  4 C        2.3970     0.5230    -0.3610 C.ar  1 <1>  -0.1500 
  5 N       -0.1880     3.2030     0.0670 N.pl3 1 <1>  -0.8380 
  6 C        1.7060     2.5680     1.3820 C.ar  1 <1>  -0.1500 
  7 C        3.1630     0.7530     0.7700 C.ar  1 <1>  -0.1500 
  8 C       -0.1220     4.1160    -1.1120 C.3   1 <1>   0.2090 
  9 C       -1.5280     2.5510     0.1370 C.3   1 <1>   0.2090 
 10 C        2.8150     1.7770     1.6380 C.ar  1 <1>  -0.1500 
 11 C       -1.2490     5.1650    -1.0510 C.3   1 <1>   0.1100 
 12 C       -2.6480     3.6070     0.1910 C.3   1 <1>   0.1100 
 13 N       -2.5930     4.5490    -0.9530 N.3   1 <1>  -0.8100 
 14 C       -3.6480     5.6020    -0.9070 C.3   1 <1>   0.1710 
 15 C       -5.1040     5.1110    -0.8860 C.2   1 <1>   0.5690 
 16 O       -5.7310     5.1020    -1.9190 O.2   1 <1>  -0.5700 
 17 N       -5.6500     4.7430     0.3100 N.am  1 <1>  -0.7300 
 18 C       -7.0050     4.2110     0.5730 C.3   1 <1>   0.2200 
 19 C       -7.2240     2.8840    -0.1660 C.3   1 <1>  -0.1600 
 20 C       -8.0830     5.2420     0.2190 C.3   1 <1>  -0.1600 
 21 C       -8.6270     2.3260     0.1150 C.3   1 <1>  -0.1600 
 22 C       -9.4870     4.6850     0.5000 C.3   1 <1>  -0.1600 
 23 C       -9.7110     3.3550    -0.2340 C.3   1 <1>  -0.1600 
 24 H        2.6490    -0.2640    -1.0480 H     1 <1>   0.1500 
 25 H        1.4390     3.3610     2.0570 H     1 <1>   0.1500 
 26 H        4.0250     0.1420     0.9740 H     1 <1>   0.1500 
 27 H       -0.2190     3.5470    -2.0200 H     1 <1>   0.0800 
 28 H        0.8330     4.6120    -1.1240 H     1 <1>   0.0800 
 29 H       -1.5750     1.9300     1.0140 H     1 <1>   0.0800 
 30 H       -1.6760     1.9270    -0.7280 H     1 <1>   0.0800 
 31 H        3.4080     1.9580     2.5170 H     1 <1>   0.1500 
 32 H       -1.2000     5.7710    -1.9380 H     1 <1>   0.0800 
 33 H       -1.0750     5.8000    -0.1990 H     1 <1>   0.0800 
 34 H       -2.5630     4.1500     1.1160 H     1 <1>   0.0800 
 35 H       -3.5900     3.0880     0.1810 H     1 <1>   0.0800 
 36 H       -3.5430     6.2240    -1.7780 H     1 <1>   0.0800 
 37 H       -3.4910     6.2250    -0.0460 H     1 <1>   0.0800 
 38 H       -5.0530     4.7800     1.1350 H     1 <1>   0.3700 
 39 H       -7.0770     4.0120     1.6290 H     1 <1>   0.0800 
 40 H       -6.4830     2.1690     0.1450 H     1 <1>   0.0800 
 41 H       -7.1210     3.0400    -1.2260 H     1 <1>   0.0800 
 42 H       -8.0160     5.4920    -0.8250 H     1 <1>   0.0800 
 43 H       -7.9300     6.1370     0.7940 H     1 <1>   0.0800 
 44 H       -8.7070     2.0620     1.1560 H     1 <1>   0.0800 
 45 H       -8.7800     1.4320    -0.4650 H     1 <1>   0.0800 
 46 H      -10.2270     5.4000     0.1830 H     1 <1>   0.0800 
 47 H       -9.6080     4.5330     1.5590 H     1 <1>   0.0800 
 48 H      -10.6800     2.9600     0.0210 H     1 <1>   0.0800 
 49 H       -9.7000     3.5330    -1.2970 H     1 <1>   0.0800 
@<TRIPOS>BOND
  1   1   2  1   
  2   2   3  ar  
  3   2   4  ar  
  4   3   5  1   
  5   3   6  ar  
  6   4   7  ar  
  7   4  24  1   
  8   5   8  1   
  9   5   9  1   
 10   6  10  ar  
 11   6  25  1   
 12   7  10  ar  
 13   7  26  1   
 14   8  11  1   
 15   8  27  1   
 16   8  28  1   
 17   9  12  1   
 18   9  29  1   
 19   9  30  1   
 20  10  31  1   
 21  11  13  1   
 22  11  32  1   
 23  11  33  1   
 24  12  13  1   
 25  12  34  1   
 26  12  35  1   
 27  13  14  1   
 28  14  15  1   
 29  14  36  1   
 30  14  37  1   
 31  15  16  2   
 32  15  17  am  
 33  17  18  1   
 34  17  38  1   
 35  18  19  1   
 36  18  20  1   
 37  18  39  1   
 38  19  21  1   
 39  19  40  1   
 40  19  41  1   
 41  20  22  1   
 42  20  42  1   
 43  20  43  1   
 44  21  23  1   
 45  21  44  1   
 46  21  45  1   
 47  22  23  1   
 48  22  46  1   
 49  22  47  1   
 50  23  48  1   
 51  23  49  1   
@<TRIPOS>SUBSTRUCTURE
  1 ****  12 GROUP 4 **** **** 0

# MOE 2024.06 (io_trps.svl 2023.06)
