@<TRIPOS>MOLECULE
NONAME
24 25 1 0 0 
SMALL
USER_CHARGES


@<TRIPOS>ATOM
  1 CL       0.2010    -0.8810     0.4950 Cl    1 <1>  -0.1770 
  2 C        1.8340    -1.2330    -0.0200 C.ar  1 <1>   0.1770 
  3 C        2.8710    -0.4260     0.3930 C.ar  1 <1>  -0.1500 
  4 C        2.0480    -2.3200    -0.8450 C.ar  1 <1>  -0.1500 
  5 C        4.1950    -0.6780    -0.0040 C.ar  1 <1>   0.0860 
  6 C        3.3400    -2.5950    -1.2610 C.ar  1 <1>  -0.1500 
  7 C        4.3890    -1.7930    -0.8500 C.ar  1 <1>   0.0820 
  8 C        5.3260     0.1150     0.3660 C.2   1 <1>   0.3030 
  9 O        5.6280    -2.1300    -1.3070 O.3   1 <1>  -0.3630 
 10 N        5.5220     0.9360     1.3570 N.2   1 <1>  -0.8000 
 11 C        6.5290    -0.0400    -0.5240 C.3   1 <1>  -0.0990 
 12 C        6.7860    -1.5280    -0.7360 C.3   1 <1>   0.5600 
 13 O        4.6060     1.0160     2.1550 O.3   1 <1>  -0.6500 
 14 O        7.7100    -1.6220    -1.7830 O.3   1 <1>  -0.6800 
 15 C        7.2660    -2.3200     0.5580 C.3   1 <1>   1.0200 
 16 F        8.3070    -1.7630     1.1730 F     1 <1>  -0.3400 
 17 F        6.3350    -2.5120     1.4870 F     1 <1>  -0.3400 
 18 F        7.6790    -3.5480     0.2320 F     1 <1>  -0.3400 
 19 H        2.6650     0.4160     1.0300 H     1 <1>   0.1500 
 20 H        1.2200    -2.9330    -1.1530 H     1 <1>   0.1500 
 21 H        3.5320    -3.4340    -1.9050 H     1 <1>   0.1500 
 22 H        7.3870     0.4200    -0.0670 H     1 <1>   0.0800 
 23 H        6.3350     0.4490    -1.4590 H     1 <1>   0.0800 
 24 H        7.7610    -2.5580    -2.0520 H     1 <1>   0.4000 
@<TRIPOS>BOND
  1   1   2  1   
  2   2   3  ar  
  3   2   4  ar  
  4   3   5  ar  
  5   3  19  1   
  6   4   6  ar  
  7   4  20  1   
  8   5   7  ar  
  9   5   8  1   
 10   6   7  ar  
 11   6  21  1   
 12   7   9  1   
 13   8  10  2   
 14   8  11  1   
 15   9  12  1   
 16  10  13  1   
 17  11  12  1   
 18  11  22  1   
 19  11  23  1   
 20  12  14  1   
 21  12  15  1   
 22  14  24  1   
 23  15  16  1   
 24  15  17  1   
 25  15  18  1   
@<TRIPOS>SUBSTRUCTURE
  1 ****   5 GROUP 4 **** **** 0

# MOE 2024.06 (io_trps.svl 2023.06)
