@<TRIPOS>MOLECULE
NONAME
37 37 1 0 0 
SMALL
USER_CHARGES


@<TRIPOS>ATOM
  1 CL       0.4920     0.2240    -1.9240 Cl    1 <1>  -0.1770 
  2 C       -0.5910     1.0300    -0.7960 C.ar  1 <1>   0.1770 
  3 C       -1.9490     0.7940    -0.9540 C.ar  1 <1>   0.1770 
  4 C       -0.1510     1.8810     0.2310 C.ar  1 <1>   0.0820 
  5 CL      -2.5290    -0.2610    -2.2240 Cl    1 <1>  -0.1770 
  6 C       -2.8850     1.3780    -0.1220 C.ar  1 <1>  -0.1500 
  7 O        1.1320     2.2290     0.5380 O.3   1 <1>  -0.3630 
  8 C       -1.1040     2.4610     1.0590 C.ar  1 <1>  -0.1500 
  9 C       -2.4570     2.2170     0.8910 C.ar  1 <1>  -0.1500 
 10 C        2.2690     1.7740    -0.1470 C.3   1 <1>   0.1200 
 11 C        3.4900     2.4020     0.5230 C.3   1 <1>  -0.1600 
 12 C        4.7690     1.9510    -0.1710 C.3   1 <1>   0.3430 
 13 N        5.9320     2.5820     0.5080 N.4   1 <1>  -0.9060 
 14 C        7.2610     2.2650    -0.0210 C.3   1 <1>   0.5030 
 15 C        7.3640     2.7330    -1.4730 C.3   1 <1>  -0.2400 
 16 C        7.5180     0.7630     0.0930 C.3   1 <1>  -0.2400 
 17 C        8.2580     3.0300     0.8420 C.3   1 <1>  -0.2400 
 18 H       -3.9320     1.1780    -0.2670 H     1 <1>   0.1500 
 19 H       -0.7780     3.1150     1.8500 H     1 <1>   0.1500 
 20 H       -3.1740     2.6800     1.5480 H     1 <1>   0.1500 
 21 H        2.1910     2.0860    -1.1750 H     1 <1>   0.0800 
 22 H        2.3000     0.7000    -0.0730 H     1 <1>   0.0800 
 23 H        3.5060     2.0980     1.5550 H     1 <1>   0.0800 
 24 H        3.3980     3.4730     0.4620 H     1 <1>   0.0800 
 25 H        4.7410     2.2450    -1.2080 H     1 <1>   0.0800 
 26 H        4.8480     0.8770    -0.1210 H     1 <1>   0.0800 
 27 H        5.9270     2.3190     1.4980 H     1 <1>   0.4500 
 28 H        5.8270     3.6010     0.4780 H     1 <1>   0.4500 
 29 H        6.7170     2.1690    -2.1190 H     1 <1>   0.0800 
 30 H        8.3700     2.5880    -1.8280 H     1 <1>   0.0800 
 31 H        7.1340     3.7800    -1.5610 H     1 <1>   0.0800 
 32 H        6.8710     0.1980    -0.5520 H     1 <1>   0.0800 
 33 H        7.3970     0.4240     1.1070 H     1 <1>   0.0800 
 34 H        8.5300     0.5470    -0.2050 H     1 <1>   0.0800 
 35 H        8.0930     4.0920     0.7810 H     1 <1>   0.0800 
 36 H        9.2600     2.8370     0.5010 H     1 <1>   0.0800 
 37 H        8.2010     2.7210     1.8710 H     1 <1>   0.0800 
@<TRIPOS>BOND
  1   1   2  1   
  2   2   3  ar  
  3   2   4  ar  
  4   3   5  1   
  5   3   6  ar  
  6   4   7  1   
  7   4   8  ar  
  8   6   9  ar  
  9   6  18  1   
 10   7  10  1   
 11   8   9  ar  
 12   8  19  1   
 13   9  20  1   
 14  10  11  1   
 15  10  21  1   
 16  10  22  1   
 17  11  12  1   
 18  11  23  1   
 19  11  24  1   
 20  12  13  1   
 21  12  25  1   
 22  12  26  1   
 23  13  14  1   
 24  13  27  1   
 25  13  28  1   
 26  14  15  1   
 27  14  16  1   
 28  14  17  1   
 29  15  29  1   
 30  15  30  1   
 31  15  31  1   
 32  16  32  1   
 33  16  33  1   
 34  16  34  1   
 35  17  35  1   
 36  17  36  1   
 37  17  37  1   
@<TRIPOS>SUBSTRUCTURE
  1 ****  10 GROUP 4 **** **** 0

# MOE 2024.06 (io_trps.svl 2023.06)
