@<TRIPOS>MOLECULE
NONAME
53 54 1 0 0 
SMALL
USER_CHARGES


@<TRIPOS>ATOM
  1 O       -6.0950     0.9550     1.2280 O.2   1 <1>  -0.5700 
  2 C       -5.7700     1.7970     0.4330 C.2   1 <1>   0.6590 
  3 O       -4.5060     2.1030     0.1860 O.3   1 <1>  -0.4300 
  4 C       -6.8150     2.5820    -0.3550 C.3   1 <1>  -0.0190 
  5 C       -3.4500     1.4480     0.8510 C.3   1 <1>   0.1200 
  6 C       -7.6890     3.4300     0.5870 C.3   1 <1>  -0.1600 
  7 C       -7.6960     1.6400    -1.1970 C.3   1 <1>  -0.1600 
  8 C       -2.1360     2.0320     0.3400 C.3   1 <1>  -0.2400 
  9 C       -8.8230     4.1330    -0.1570 C.3   1 <1>   0.3430 
 10 C       -8.8280     2.3870    -1.9000 C.3   1 <1>   0.3430 
 11 N       -9.6430     3.1220    -0.8900 N.4   1 <1>  -0.9590 
 12 C      -10.8500     3.7210    -1.5260 C.3   1 <1>   0.3430 
 13 C      -11.8720     4.1130    -0.4610 C.3   1 <1>  -0.1600 
 14 C      -13.1600     4.6210    -1.1060 C.3   1 <1>   0.1200 
 15 O      -14.0320     4.9680    -0.0630 O.3   1 <1>  -0.3630 
 16 C      -15.2740     5.4740    -0.2930 C.ar  1 <1>   0.0820 
 17 C      -16.0650     5.8090     0.8090 C.ar  1 <1>  -0.1430 
 18 C      -15.7650     5.6680    -1.5830 C.ar  1 <1>  -0.1500 
 19 C      -17.3320     6.3500     0.6050 C.ar  1 <1>  -0.1430 
 20 C      -15.5440     5.5930     2.2310 C.3   1 <1>  -0.0970 
 21 C      -17.0260     6.1960    -1.7740 C.ar  1 <1>  -0.1500 
 22 C      -17.8030     6.5360    -0.6850 C.ar  1 <1>  -0.1500 
 23 C      -18.2340     6.7550     1.7650 C.3   1 <1>  -0.0970 
 24 H       -6.2910     3.2450    -1.0230 H     1 <1>   0.0800 
 25 H       -3.5120     0.3940     0.6390 H     1 <1>   0.0800 
 26 H       -3.5590     1.6110     1.9100 H     1 <1>   0.0800 
 27 H       -7.0750     4.1700     1.0720 H     1 <1>   0.0800 
 28 H       -8.1080     2.8090     1.3610 H     1 <1>   0.0800 
 29 H       -8.1160     0.8700    -0.5720 H     1 <1>   0.0800 
 30 H       -7.0860     1.1500    -1.9370 H     1 <1>   0.0800 
 31 H       -2.0430     1.8700    -0.7190 H     1 <1>   0.0800 
 32 H       -1.3110     1.5490     0.8330 H     1 <1>   0.0800 
 33 H       -2.0900     3.0850     0.5510 H     1 <1>   0.0800 
 34 H       -8.4120     4.8470    -0.8530 H     1 <1>   0.0800 
 35 H       -9.4330     4.6660     0.5540 H     1 <1>   0.0800 
 36 H       -9.4450     1.6800    -2.4310 H     1 <1>   0.0800 
 37 H       -8.4150     3.0820    -2.6140 H     1 <1>   0.0800 
 38 H       -9.9630     2.4300    -0.1970 H     1 <1>   0.4500 
 39 H      -11.3030     3.0000    -2.1880 H     1 <1>   0.0800 
 40 H      -10.5730     4.5860    -2.1090 H     1 <1>   0.0800 
 41 H      -11.4820     4.8980     0.1620 H     1 <1>   0.0800 
 42 H      -12.1130     3.2570     0.1450 H     1 <1>   0.0800 
 43 H      -13.6320     3.8550    -1.6980 H     1 <1>   0.0800 
 44 H      -12.9810     5.5020    -1.7000 H     1 <1>   0.0800 
 45 H      -15.1890     5.4180    -2.4520 H     1 <1>   0.1500 
 46 H      -14.7260     4.8980     2.2590 H     1 <1>   0.0800 
 47 H      -16.3170     5.1940     2.8610 H     1 <1>   0.0800 
 48 H      -15.2100     6.5300     2.6380 H     1 <1>   0.0800 
 49 H      -17.4040     6.3450    -2.7700 H     1 <1>   0.1500 
 50 H      -18.7830     6.9490    -0.8510 H     1 <1>   0.1500 
 51 H      -17.6980     7.3870     2.4500 H     1 <1>   0.0800 
 52 H      -18.5750     5.8780     2.2860 H     1 <1>   0.0800 
 53 H      -19.0930     7.2970     1.4160 H     1 <1>   0.0800 
@<TRIPOS>BOND
  1   1   2  2   
  2   2   3  1   
  3   2   4  1   
  4   3   5  1   
  5   4   6  1   
  6   4   7  1   
  7   4  24  1   
  8   5   8  1   
  9   5  25  1   
 10   5  26  1   
 11   6   9  1   
 12   6  27  1   
 13   6  28  1   
 14   7  10  1   
 15   7  29  1   
 16   7  30  1   
 17   8  31  1   
 18   8  32  1   
 19   8  33  1   
 20   9  11  1   
 21   9  34  1   
 22   9  35  1   
 23  10  11  1   
 24  10  36  1   
 25  10  37  1   
 26  11  12  1   
 27  11  38  1   
 28  12  13  1   
 29  12  39  1   
 30  12  40  1   
 31  13  14  1   
 32  13  41  1   
 33  13  42  1   
 34  14  15  1   
 35  14  43  1   
 36  14  44  1   
 37  15  16  1   
 38  16  17  ar  
 39  16  18  ar  
 40  17  19  ar  
 41  17  20  1   
 42  18  21  ar  
 43  18  45  1   
 44  19  22  ar  
 45  19  23  1   
 46  20  46  1   
 47  20  47  1   
 48  20  48  1   
 49  21  22  ar  
 50  21  49  1   
 51  22  50  1   
 52  23  51  1   
 53  23  52  1   
 54  23  53  1   
@<TRIPOS>SUBSTRUCTURE
  1 ****  13 GROUP 4 **** **** 0

# MOE 2024.06 (io_trps.svl 2023.06)
