@<TRIPOS>MOLECULE
NONAME
43 44 1 0 0 
SMALL
USER_CHARGES


@<TRIPOS>ATOM
  1 O       -1.0890     1.9740    -1.6000 O.3   1 <1>  -0.3630 
  2 C       -0.2270     2.4260    -0.6520 C.ar  1 <1>   0.0820 
  3 C       -2.3170     1.3540    -1.2880 C.3   1 <1>   0.1200 
  4 C        0.9330     3.0300    -1.1070 C.ar  1 <1>  -0.1500 
  5 C       -0.4400     2.3170     0.7180 C.ar  1 <1>  -0.1500 
  6 C       -3.3690     2.4230    -0.9740 C.3   1 <1>  -0.1600 
  7 C        1.8810     3.5240    -0.2240 C.ar  1 <1>  -0.1440 
  8 C        0.5020     2.8080     1.6040 C.ar  1 <1>  -0.1500 
  9 C       -4.7110     1.7730    -0.6440 C.3   1 <1>   0.1200 
 10 C        1.6630     3.4120     1.1450 C.ar  1 <1>  -0.1430 
 11 C        3.1380     4.1780    -0.7800 C.3   1 <1>  -0.0970 
 12 O       -5.6350     2.7950    -0.3490 O.3   1 <1>  -0.3630 
 13 C        2.6720     3.9380     2.1560 C.3   1 <1>  -0.0970 
 14 C       -6.9130     2.5040     0.0010 C.ar  1 <1>   0.0820 
 15 C       -7.4180     1.2110     0.0870 C.ar  1 <1>  -0.1500 
 16 C       -7.7410     3.5780     0.2840 C.ar  1 <1>  -0.1500 
 17 C       -8.7360     0.9950     0.4540 C.ar  1 <1>   0.0820 
 18 C       -9.0600     3.3700     0.6510 C.ar  1 <1>  -0.1500 
 19 O       -9.1460    -0.2970     0.5140 O.3   1 <1>  -0.3620 
 20 C       -9.5600     2.0830     0.7370 C.ar  1 <1>  -0.1500 
 21 C      -10.4680    -0.6290     0.8760 C.3   1 <1>   0.0400 
 22 H       -2.1700     0.6660    -0.4740 H     1 <1>   0.0800 
 23 H       -2.6130     0.7930    -2.1570 H     1 <1>   0.0800 
 24 H        1.0830     3.1070    -2.1680 H     1 <1>   0.1500 
 25 H       -1.3240     1.8590     1.1140 H     1 <1>   0.1500 
 26 H       -3.4870     3.0600    -1.8320 H     1 <1>   0.0800 
 27 H       -3.0510     3.0150    -0.1350 H     1 <1>   0.0800 
 28 H        0.3230     2.7160     2.6600 H     1 <1>   0.1500 
 29 H       -4.6250     1.1380     0.2200 H     1 <1>   0.0800 
 30 H       -5.0830     1.2140    -1.4850 H     1 <1>   0.0800 
 31 H        3.1310     4.1730    -1.8550 H     1 <1>   0.0800 
 32 H        4.0090     3.6440    -0.4460 H     1 <1>   0.0800 
 33 H        3.2000     5.1980    -0.4470 H     1 <1>   0.0800 
 34 H        2.8080     4.9960     2.0230 H     1 <1>   0.0800 
 35 H        3.6160     3.4420     2.0250 H     1 <1>   0.0800 
 36 H        2.3360     3.7650     3.1620 H     1 <1>   0.0800 
 37 H       -6.8130     0.3510    -0.1250 H     1 <1>   0.1500 
 38 H       -7.3460     4.5750     0.2150 H     1 <1>   0.1500 
 39 H       -9.6940     4.2120     0.8690 H     1 <1>   0.1500 
 40 H      -10.5850     1.9470     1.0240 H     1 <1>   0.1500 
 41 H      -10.5610    -1.7000     0.8560 H     1 <1>   0.0800 
 42 H      -11.1460    -0.1900     0.1660 H     1 <1>   0.0800 
 43 H      -10.6600    -0.2650     1.8700 H     1 <1>   0.0800 
@<TRIPOS>BOND
  1   1   2  1   
  2   1   3  1   
  3   2   4  ar  
  4   2   5  ar  
  5   3   6  1   
  6   3  22  1   
  7   3  23  1   
  8   4   7  ar  
  9   4  24  1   
 10   5   8  ar  
 11   5  25  1   
 12   6   9  1   
 13   6  26  1   
 14   6  27  1   
 15   7  10  ar  
 16   7  11  1   
 17   8  10  ar  
 18   8  28  1   
 19   9  12  1   
 20   9  29  1   
 21   9  30  1   
 22  10  13  1   
 23  11  31  1   
 24  11  32  1   
 25  11  33  1   
 26  12  14  1   
 27  13  34  1   
 28  13  35  1   
 29  13  36  1   
 30  14  15  ar  
 31  14  16  ar  
 32  15  17  ar  
 33  15  37  1   
 34  16  18  ar  
 35  16  38  1   
 36  17  19  1   
 37  17  20  ar  
 38  18  20  ar  
 39  18  39  1   
 40  19  21  1   
 41  20  40  1   
 42  21  41  1   
 43  21  42  1   
 44  21  43  1   
@<TRIPOS>SUBSTRUCTURE
  1 ****   6 GROUP 4 **** **** 0

# MOE 2024.06 (io_trps.svl 2023.06)
