@<TRIPOS>MOLECULE
NONAME
48 49 1 0 0 
SMALL
USER_CHARGES


@<TRIPOS>ATOM
  1 O        0.2190     0.2380     1.3490 O.2   1 <1>  -0.5700 
  2 C        0.1590     0.9010     0.3400 C.2   1 <1>   0.5690 
  3 N        1.2430     1.6160    -0.1160 N.am  1 <1>  -0.6600 
  4 C       -1.1850     0.9010    -0.3780 C.3   1 <1>  -0.0990 
  5 C        1.3580     2.2150    -1.4740 C.3   1 <1>   0.1400 
  6 C        2.4480     1.7430     0.7580 C.3   1 <1>   0.1400 
  7 C       -2.2030     1.8040     0.3380 C.3   1 <1>  -0.1600 
  8 C        0.8210     3.6500    -1.4730 C.3   1 <1>  -0.1600 
  9 C        3.1320     3.1170     0.6870 C.3   1 <1>  -0.1600 
 10 C       -3.5520     1.8050    -0.3800 C.3   1 <1>   0.1200 
 11 C        1.7490     4.6750    -0.7990 C.3   1 <1>  -0.1600 
 12 C        2.1690     4.3160     0.6350 C.3   1 <1>  -0.1600 
 13 O       -4.3990     2.7100     0.2870 O.3   1 <1>  -0.3630 
 14 C       -5.6620     2.9740    -0.1450 C.ar  1 <1>   0.0820 
 15 C       -6.3950     3.9530     0.5290 C.ar  1 <1>  -0.1440 
 16 C       -6.2280     2.3060    -1.2290 C.ar  1 <1>  -0.1500 
 17 C       -7.6810     4.2690     0.0960 C.ar  1 <1>  -0.1440 
 18 C       -5.7710     4.6720     1.7270 C.3   1 <1>  -0.0970 
 19 C       -7.5070     2.6170    -1.6450 C.ar  1 <1>  -0.1500 
 20 C       -8.2270     3.5950    -0.9860 C.ar  1 <1>  -0.1500 
 21 C       -8.5220     5.3440     0.7710 C.3   1 <1>  -0.0970 
 22 H       -1.5520    -0.1090    -0.3810 H     1 <1>   0.0800 
 23 H       -1.0890     1.2090    -1.3980 H     1 <1>   0.0800 
 24 H        0.8120     1.6190    -2.1820 H     1 <1>   0.0800 
 25 H        2.3860     2.2050    -1.7930 H     1 <1>   0.0800 
 26 H        3.1520     0.9730     0.4960 H     1 <1>   0.0800 
 27 H        2.1560     1.5760     1.7810 H     1 <1>   0.0800 
 28 H       -1.8240     2.8090     0.3810 H     1 <1>   0.0800 
 29 H       -2.3400     1.4500     1.3460 H     1 <1>   0.0800 
 30 H       -0.1430     3.6720    -0.9990 H     1 <1>   0.0800 
 31 H        0.6790     3.9560    -2.4940 H     1 <1>   0.0800 
 32 H        3.8050     3.1440    -0.1510 H     1 <1>   0.0800 
 33 H        3.7430     3.2090     1.5680 H     1 <1>   0.0800 
 34 H       -4.0030     0.8280    -0.3470 H     1 <1>   0.0800 
 35 H       -3.4420     2.1360    -1.3980 H     1 <1>   0.0800 
 36 H        1.2390     5.6230    -0.7770 H     1 <1>   0.0800 
 37 H        2.6310     4.8060    -1.4030 H     1 <1>   0.0800 
 38 H        2.6750     5.1700     1.0510 H     1 <1>   0.0800 
 39 H        1.3010     4.1270     1.2450 H     1 <1>   0.0800 
 40 H       -5.6930     1.5440    -1.7600 H     1 <1>   0.1500 
 41 H       -5.0640     4.0400     2.2340 H     1 <1>   0.0800 
 42 H       -6.5140     4.9510     2.4490 H     1 <1>   0.0800 
 43 H       -5.2590     5.5540     1.3900 H     1 <1>   0.0800 
 44 H       -7.9450     2.1020    -2.4810 H     1 <1>   0.1500 
 45 H       -9.2210     3.8290    -1.3250 H     1 <1>   0.1500 
 46 H       -7.9550     6.2530     0.8670 H     1 <1>   0.0800 
 47 H       -8.8270     5.0120     1.7460 H     1 <1>   0.0800 
 48 H       -9.4040     5.5630     0.1960 H     1 <1>   0.0800 
@<TRIPOS>BOND
  1   1   2  2   
  2   2   3  am  
  3   2   4  1   
  4   3   5  1   
  5   3   6  1   
  6   4   7  1   
  7   4  22  1   
  8   4  23  1   
  9   5   8  1   
 10   5  24  1   
 11   5  25  1   
 12   6   9  1   
 13   6  26  1   
 14   6  27  1   
 15   7  10  1   
 16   7  28  1   
 17   7  29  1   
 18   8  11  1   
 19   8  30  1   
 20   8  31  1   
 21   9  12  1   
 22   9  32  1   
 23   9  33  1   
 24  10  13  1   
 25  10  34  1   
 26  10  35  1   
 27  11  12  1   
 28  11  36  1   
 29  11  37  1   
 30  12  38  1   
 31  12  39  1   
 32  13  14  1   
 33  14  15  ar  
 34  14  16  ar  
 35  15  17  ar  
 36  15  18  1   
 37  16  19  ar  
 38  16  40  1   
 39  17  20  ar  
 40  17  21  1   
 41  18  41  1   
 42  18  42  1   
 43  18  43  1   
 44  19  20  ar  
 45  19  44  1   
 46  20  45  1   
 47  21  46  1   
 48  21  47  1   
 49  21  48  1   
@<TRIPOS>SUBSTRUCTURE
  1 ****   7 GROUP 4 **** **** 0

# MOE 2024.06 (io_trps.svl 2023.06)
