@<TRIPOS>MOLECULE
NONAME
62 65 1 0 0 
SMALL
USER_CHARGES


@<TRIPOS>ATOM
  1 O       -0.8770    -0.5650     1.4570 O.2   1 <1>  -0.5700 
  2 C       -0.8200    -0.7020     0.2510 C.2   1 <1>   0.6900 
  3 N       -1.7380    -0.1470    -0.5880 N.am  1 <1>  -0.5470 
  4 N        0.1710    -1.4350    -0.3120 N.am  1 <1>  -0.7300 
  5 C       -2.8120     0.7250    -0.3370 C.ar  1 <1>   0.1170 
  6 C        1.2360    -2.1260     0.4320 C.3   1 <1>   0.2200 
  7 C       -3.8840     0.7300    -1.2080 C.ar  1 <1>  -0.1500 
  8 C       -2.8220     1.6050     0.7610 C.ar  1 <1>  -0.1500 
  9 C        2.5660    -1.4100     0.1750 C.3   1 <1>  -0.1600 
 10 C        1.2920    -3.5860    -0.0270 C.3   1 <1>  -0.1600 
 11 C       -4.9530     1.5920    -0.9900 C.ar  1 <1>   0.2270 
 12 C       -3.8760     2.4610     0.9870 C.ar  1 <1>  -0.1500 
 13 C        3.7330    -2.1530     0.8420 C.3   1 <1>  -0.1600 
 14 C        2.4560    -4.3330     0.6400 C.3   1 <1>  -0.1600 
 15 N       -6.0940     1.7440    -1.7160 N.2   1 <1>  -0.5650 
 16 C       -4.9490     2.4470     0.0930 C.ar  1 <1>  -0.1520 
 17 C        3.7910    -3.6180     0.3880 C.3   1 <1>  -0.1600 
 18 C       -6.7540     2.6560    -1.0870 C.2   1 <1>   0.0060 
 19 N       -6.1190     3.1380     0.0200 N.pl3 1 <1>   0.0480 
 20 C       -8.1290     3.1470    -1.5250 C.3   1 <1>   0.2900 
 21 C       -6.6040     4.1260     1.0020 C.3   1 <1>   0.0160 
 22 N       -9.1420     2.9690    -0.4620 N.3   1 <1>  -0.8100 
 23 C       -9.3160     1.5310    -0.1480 C.3   1 <1>   0.1100 
 24 C      -10.4340     3.5550    -0.8770 C.3   1 <1>   0.1100 
 25 C      -10.3670     1.3070     0.9520 C.3   1 <1>   0.1400 
 26 C      -11.5090     3.3900     0.2110 C.3   1 <1>   0.1400 
 27 N      -11.6640     1.9530     0.5860 N.am  1 <1>  -0.6600 
 28 C      -12.8820     1.3280     0.5280 C.2   1 <1>   0.5690 
 29 O      -13.8820     1.9020     0.1720 O.2   1 <1>  -0.5700 
 30 C      -13.0180    -0.1260     0.9140 C.3   1 <1>  -0.1790 
 31 H       -1.7100    -0.5210    -1.5290 H     1 <1>   0.3700 
 32 H        0.2950    -1.4170    -1.3190 H     1 <1>   0.3700 
 33 H        1.0210    -2.1000     1.4890 H     1 <1>   0.0800 
 34 H       -3.9270     0.0800    -2.0590 H     1 <1>   0.1500 
 35 H       -1.9850     1.6080     1.4360 H     1 <1>   0.1500 
 36 H        2.5110    -0.4100     0.5700 H     1 <1>   0.0800 
 37 H        2.7480    -1.3520    -0.8830 H     1 <1>   0.0800 
 38 H        1.4180    -3.6260    -1.0940 H     1 <1>   0.0800 
 39 H        0.3660    -4.0730     0.2280 H     1 <1>   0.0800 
 40 H       -3.8760     3.1270     1.8310 H     1 <1>   0.1500 
 41 H        3.6120    -2.1170     1.9120 H     1 <1>   0.0800 
 42 H        4.6600    -1.6620     0.5990 H     1 <1>   0.0800 
 43 H        2.5070    -5.3390     0.2580 H     1 <1>   0.0800 
 44 H        2.2790    -4.3930     1.7010 H     1 <1>   0.0800 
 45 H        4.5780    -4.1280     0.9170 H     1 <1>   0.0800 
 46 H        4.0240    -3.6570    -0.6630 H     1 <1>   0.0800 
 47 H       -8.4280     2.6090    -2.4090 H     1 <1>   0.0800 
 48 H       -8.0540     4.1890    -1.7790 H     1 <1>   0.0800 
 49 H       -5.7690     4.6480     1.4300 H     1 <1>   0.0800 
 50 H       -7.1480     3.6140     1.7730 H     1 <1>   0.0800 
 51 H       -7.2530     4.8310     0.5170 H     1 <1>   0.0800 
 52 H       -8.3810     1.1150     0.1880 H     1 <1>   0.0800 
 53 H       -9.6140     0.9950    -1.0340 H     1 <1>   0.0800 
 54 H      -10.7810     3.0830    -1.7810 H     1 <1>   0.0800 
 55 H      -10.3040     4.6040    -1.0750 H     1 <1>   0.0800 
 56 H      -10.0080     1.7380     1.8700 H     1 <1>   0.0800 
 57 H      -10.4880     0.2520     1.1080 H     1 <1>   0.0800 
 58 H      -12.4400     3.7900    -0.1500 H     1 <1>   0.0800 
 59 H      -11.2230     3.9520     1.0810 H     1 <1>   0.0800 
 60 H      -12.4520    -0.7370     0.2380 H     1 <1>   0.0800 
 61 H      -14.0510    -0.4190     0.8600 H     1 <1>   0.0800 
 62 H      -12.6720    -0.2710     1.9200 H     1 <1>   0.0800 
@<TRIPOS>BOND
  1   1   2  2   
  2   2   3  am  
  3   2   4  am  
  4   3   5  1   
  5   3  31  1   
  6   4   6  1   
  7   4  32  1   
  8   5   7  ar  
  9   5   8  ar  
 10   6   9  1   
 11   6  10  1   
 12   6  33  1   
 13   7  11  ar  
 14   7  34  1   
 15   8  12  ar  
 16   8  35  1   
 17   9  13  1   
 18   9  36  1   
 19   9  37  1   
 20  10  14  1   
 21  10  38  1   
 22  10  39  1   
 23  11  15  1   
 24  11  16  ar  
 25  12  16  ar  
 26  12  40  1   
 27  13  17  1   
 28  13  41  1   
 29  13  42  1   
 30  14  17  1   
 31  14  43  1   
 32  14  44  1   
 33  15  18  2   
 34  16  19  1   
 35  17  45  1   
 36  17  46  1   
 37  18  19  1   
 38  18  20  1   
 39  19  21  1   
 40  20  22  1   
 41  20  47  1   
 42  20  48  1   
 43  21  49  1   
 44  21  50  1   
 45  21  51  1   
 46  22  23  1   
 47  22  24  1   
 48  23  25  1   
 49  23  52  1   
 50  23  53  1   
 51  24  26  1   
 52  24  54  1   
 53  24  55  1   
 54  25  27  1   
 55  25  56  1   
 56  25  57  1   
 57  26  27  1   
 58  26  58  1   
 59  26  59  1   
 60  27  28  am  
 61  28  29  2   
 62  28  30  1   
 63  30  60  1   
 64  30  61  1   
 65  30  62  1   
@<TRIPOS>SUBSTRUCTURE
  1 ****  11 GROUP 4 **** **** 0

# MOE 2024.06 (io_trps.svl 2023.06)
