@<TRIPOS>MOLECULE
NONAME
45 45 1 0 0 
SMALL
USER_CHARGES


@<TRIPOS>ATOM
  1 N        0.2690     0.2580     0.5560 N.4   1 <1>  -0.9590 
  2 C        1.4590     1.1330     0.2840 C.3   1 <1>   0.4230 
  3 C       -1.0150     0.9590     0.1720 C.3   1 <1>   0.3430 
  4 C        0.2550    -0.2700     1.9700 C.3   1 <1>   0.2630 
  5 C        2.7280     0.2710     0.2880 C.3   1 <1>  -0.1600 
  6 C        1.5420     2.2980     1.2770 C.3   1 <1>  -0.2400 
  7 C       -2.2760     0.0450     0.1510 C.3   1 <1>   0.3430 
  8 C        3.9540     0.9920    -0.2910 C.3   1 <1>  -0.0170 
  9 N       -3.5620     0.7530    -0.2120 N.4   1 <1>  -0.9590 
 10 C        5.1150     0.0170    -0.3650 C.ar  1 <1>  -0.1430 
 11 C       -4.7330    -0.1710    -0.0250 C.3   1 <1>   0.2630 
 12 C       -3.5860     1.2790    -1.6210 C.3   1 <1>   0.2630 
 13 C        5.3420    -0.7160    -1.5200 C.ar  1 <1>  -0.1500 
 14 C        5.9530    -0.1550     0.7260 C.ar  1 <1>  -0.1500 
 15 C        6.3920    -1.6160    -1.5800 C.ar  1 <1>  -0.1500 
 16 C        7.0030    -1.0550     0.6660 C.ar  1 <1>  -0.1500 
 17 C        7.2220    -1.7870    -0.4870 C.ar  1 <1>  -0.1500 
 18 H        0.4130    -0.5540    -0.0650 H     1 <1>   0.4500 
 19 H        1.3560     1.5470    -0.7080 H     1 <1>   0.0800 
 20 H       -0.8910     1.3860    -0.8100 H     1 <1>   0.0800 
 21 H       -1.1880     1.7660     0.8650 H     1 <1>   0.0800 
 22 H        0.1210     0.5360     2.6740 H     1 <1>   0.0800 
 23 H        1.1850    -0.7650     2.1960 H     1 <1>   0.0800 
 24 H       -0.5420    -0.9820     2.1060 H     1 <1>   0.0800 
 25 H        2.5630    -0.6090    -0.3080 H     1 <1>   0.0800 
 26 H        2.9690    -0.0430     1.2890 H     1 <1>   0.0800 
 27 H        1.7990     1.9610     2.2660 H     1 <1>   0.0800 
 28 H        0.6270     2.8580     1.3150 H     1 <1>   0.0800 
 29 H        2.3120     2.9820     0.9650 H     1 <1>   0.0800 
 30 H       -2.3920    -0.3910     1.1290 H     1 <1>   0.0800 
 31 H       -2.1120    -0.7560    -0.5510 H     1 <1>   0.0800 
 32 H        4.2390     1.8270     0.3250 H     1 <1>   0.0800 
 33 H        3.7420     1.3670    -1.2780 H     1 <1>   0.0800 
 34 H       -3.7230     1.5510     0.4280 H     1 <1>   0.4500 
 35 H       -4.6530    -1.0240    -0.6790 H     1 <1>   0.0800 
 36 H       -5.6550     0.3430    -0.2480 H     1 <1>   0.0800 
 37 H       -4.7820    -0.5210     0.9940 H     1 <1>   0.0800 
 38 H       -3.4550     0.4740    -2.3270 H     1 <1>   0.0800 
 39 H       -2.8070     2.0070    -1.7730 H     1 <1>   0.0800 
 40 H       -4.5340     1.7540    -1.8240 H     1 <1>   0.0800 
 41 H        4.7090    -0.5940    -2.3810 H     1 <1>   0.1500 
 42 H        5.7980     0.4090     1.6290 H     1 <1>   0.1500 
 43 H        6.5660    -2.1830    -2.4780 H     1 <1>   0.1500 
 44 H        7.6510    -1.1850     1.5160 H     1 <1>   0.1500 
 45 H        8.0390    -2.4860    -0.5340 H     1 <1>   0.1500 
@<TRIPOS>BOND
  1   1   2  1   
  2   1   3  1   
  3   1   4  1   
  4   1  18  1   
  5   2   5  1   
  6   2   6  1   
  7   2  19  1   
  8   3   7  1   
  9   3  20  1   
 10   3  21  1   
 11   4  22  1   
 12   4  23  1   
 13   4  24  1   
 14   5   8  1   
 15   5  25  1   
 16   5  26  1   
 17   6  27  1   
 18   6  28  1   
 19   6  29  1   
 20   7   9  1   
 21   7  30  1   
 22   7  31  1   
 23   8  10  1   
 24   8  32  1   
 25   8  33  1   
 26   9  11  1   
 27   9  12  1   
 28   9  34  1   
 29  10  13  ar  
 30  10  14  ar  
 31  11  35  1   
 32  11  36  1   
 33  11  37  1   
 34  12  38  1   
 35  12  39  1   
 36  12  40  1   
 37  13  15  ar  
 38  13  41  1   
 39  14  16  ar  
 40  14  42  1   
 41  15  17  ar  
 42  15  43  1   
 43  16  17  ar  
 44  16  44  1   
 45  17  45  1   
@<TRIPOS>SUBSTRUCTURE
  1 ****   5 GROUP 4 **** **** 0

# MOE 2024.06 (io_trps.svl 2023.06)
