@<TRIPOS>MOLECULE
NONAME
48 49 1 0 0 
SMALL
USER_CHARGES


@<TRIPOS>ATOM
  1 O       -0.4660    -0.5260    -0.1290 O.2   1 <1>  -0.5700 
  2 C       -1.3100     0.3500    -0.1450 C.2   1 <1>   0.7060 
  3 O       -2.5810    -0.0410    -0.1550 O.3   1 <1>  -0.2330 
  4 C       -1.0200     1.7600    -0.1500 C.2   1 <1>  -0.1240 
  5 C       -3.6300     0.8070    -0.1770 C.ar  1 <1>   0.0820 
  6 C       -2.0350     2.6670    -0.1450 C.2   1 <1>  -0.1670 
  7 C        0.4660     2.1360    -0.1570 C.3   1 <1>  -0.0220 
  8 C       -3.3970     2.1930    -0.1780 C.ar  1 <1>   0.0280 
  9 C       -4.9190     0.2750    -0.1980 C.ar  1 <1>  -0.1440 
 10 C       -1.8200     4.1830    -0.0940 C.3   1 <1>  -0.1020 
 11 C        1.0020     2.2680     1.2720 C.3   1 <1>  -0.2400 
 12 C       -4.5200     3.0270    -0.2180 C.ar  1 <1>  -0.1500 
 13 C       -6.0060     1.1370    -0.2190 C.ar  1 <1>   0.0830 
 14 C       -5.1630    -1.2340    -0.1910 C.3   1 <1>  -0.0970 
 15 C       -5.7980     2.5130    -0.2390 C.ar  1 <1>  -0.1500 
 16 O       -7.2540     0.6140    -0.2310 O.3   1 <1>  -0.3630 
 17 C       -8.2910     1.1820     0.5610 C.3   1 <1>   0.2610 
 18 C       -8.9230     0.1320     1.4940 C.2   1 <1>   0.6590 
 19 C       -9.3000     1.8730    -0.3800 C.3   1 <1>  -0.1600 
 20 O       -8.9980     0.3590     2.6740 O.2   1 <1>  -0.5700 
 21 O       -9.4420    -1.0020     1.0200 O.3   1 <1>  -0.4300 
 22 C      -10.3510     2.6890     0.3870 C.3   1 <1>  -0.2400 
 23 C       -9.0710    -1.6500    -0.1730 C.3   1 <1>   0.1200 
 24 C       -9.9090    -2.9170    -0.2970 C.3   1 <1>  -0.2400 
 25 H        0.6290     3.0520    -0.6940 H     1 <1>   0.0800 
 26 H        1.0360     1.3860    -0.6790 H     1 <1>   0.0800 
 27 H       -2.3800     4.6030     0.7220 H     1 <1>   0.0800 
 28 H       -2.1530     4.6310    -1.0140 H     1 <1>   0.0800 
 29 H       -0.7970     4.4610     0.0620 H     1 <1>   0.0800 
 30 H        0.4580     3.0220     1.8110 H     1 <1>   0.0800 
 31 H        2.0430     2.5380     1.2520 H     1 <1>   0.0800 
 32 H        0.9020     1.3310     1.7910 H     1 <1>   0.0800 
 33 H       -4.4050     4.0940    -0.2380 H     1 <1>   0.1500 
 34 H       -4.2510    -1.8020    -0.2260 H     1 <1>   0.0800 
 35 H       -5.7550    -1.5090    -1.0440 H     1 <1>   0.0800 
 36 H       -5.6930    -1.5090     0.7030 H     1 <1>   0.0800 
 37 H       -6.6310     3.1890    -0.2790 H     1 <1>   0.1500 
 38 H       -7.8480     1.9240     1.2010 H     1 <1>   0.0800 
 39 H       -9.8060     1.1380    -0.9780 H     1 <1>   0.0800 
 40 H       -8.7710     2.5340    -1.0430 H     1 <1>   0.0800 
 41 H       -9.8780     3.4420     0.9940 H     1 <1>   0.0800 
 42 H      -10.9400     2.0530     1.0260 H     1 <1>   0.0800 
 43 H      -11.0140     3.1780    -0.3050 H     1 <1>   0.0800 
 44 H       -8.0240    -1.8920    -0.1160 H     1 <1>   0.0800 
 45 H       -9.2510    -0.9960    -1.0070 H     1 <1>   0.0800 
 46 H       -9.7280    -3.5630     0.5440 H     1 <1>   0.0800 
 47 H       -9.6440    -3.4430    -1.1960 H     1 <1>   0.0800 
 48 H      -10.9540    -2.6680    -0.3390 H     1 <1>   0.0800 
@<TRIPOS>BOND
  1   1   2  2   
  2   2   3  1   
  3   2   4  1   
  4   3   5  1   
  5   4   6  2   
  6   4   7  1   
  7   5   8  ar  
  8   5   9  ar  
  9   6   8  1   
 10   6  10  1   
 11   7  11  1   
 12   7  25  1   
 13   7  26  1   
 14   8  12  ar  
 15   9  13  ar  
 16   9  14  1   
 17  10  27  1   
 18  10  28  1   
 19  10  29  1   
 20  11  30  1   
 21  11  31  1   
 22  11  32  1   
 23  12  15  ar  
 24  12  33  1   
 25  13  15  ar  
 26  13  16  1   
 27  14  34  1   
 28  14  35  1   
 29  14  36  1   
 30  15  37  1   
 31  16  17  1   
 32  17  18  1   
 33  17  19  1   
 34  17  38  1   
 35  18  20  2   
 36  18  21  1   
 37  19  22  1   
 38  19  39  1   
 39  19  40  1   
 40  21  23  1   
 41  22  41  1   
 42  22  42  1   
 43  22  43  1   
 44  23  24  1   
 45  23  44  1   
 46  23  45  1   
 47  24  46  1   
 48  24  47  1   
 49  24  48  1   
@<TRIPOS>SUBSTRUCTURE
  1 ****   9 GROUP 4 **** **** 0

# MOE 2024.06 (io_trps.svl 2023.06)
