@<TRIPOS>MOLECULE
NONAME
47 48 1 0 0 
SMALL
USER_CHARGES


@<TRIPOS>ATOM
  1 O       -0.0250    -1.2310    -2.2980 O.2   1 <1>  -0.5700 
  2 C       -0.3050    -1.7000    -1.2230 C.2   1 <1>   0.5690 
  3 N       -1.5700    -1.6570    -0.7430 N.am  1 <1>  -0.7300 
  4 C        0.7720    -2.3810    -0.3980 C.3   1 <1>  -0.0990 
  5 C       -2.7210    -1.0700    -1.4780 C.3   1 <1>   0.3200 
  6 C        1.4880    -1.4790     0.6350 C.3   1 <1>   0.0000 
  7 C       -3.9520    -1.9570    -1.3770 C.2   1 <1>   0.2980 
  8 C        2.5620    -2.3110     1.3510 C.3   1 <1>  -0.2400 
  9 C        2.1730    -0.2930    -0.0600 C.3   1 <1>  -0.2400 
 10 C        0.5060    -0.9440     1.6890 C.3   1 <1>  -0.2400 
 11 O       -3.9480    -3.1020    -2.0070 O.3   1 <1>  -0.0190 
 12 N       -5.0100    -1.6990    -0.7210 N.2   1 <1>  -0.5650 
 13 N       -5.1040    -3.6190    -1.7290 N.2   1 <1>  -0.4100 
 14 C       -5.7370    -2.7940    -0.9720 C.2   1 <1>   0.4620 
 15 C       -7.0740    -2.9940    -0.4360 C.ar  1 <1>   0.0540 
 16 C       -7.7180    -2.0160     0.3240 C.ar  1 <1>  -0.1500 
 17 C       -7.7700    -4.1820    -0.6650 C.ar  1 <1>  -0.1500 
 18 C       -8.9970    -2.2050     0.8360 C.ar  1 <1>   0.0820 
 19 C       -9.0410    -4.3900    -0.1640 C.ar  1 <1>  -0.1500 
 20 O       -9.6380    -1.2560     1.5790 O.3   1 <1>  -0.3630 
 21 C       -9.6680    -3.4060     0.5920 C.ar  1 <1>   0.0820 
 22 C       -9.0490    -0.0070     1.8640 C.3   1 <1>   0.0400 
 23 O      -10.9200    -3.5630     1.1080 O.3   1 <1>  -0.3630 
 24 C      -11.6660    -4.7430     0.9110 C.3   1 <1>   0.0400 
 25 H       -1.7820    -2.0450     0.1770 H     1 <1>   0.3700 
 26 H        1.5010    -2.7720    -1.0850 H     1 <1>   0.0800 
 27 H        0.3330    -3.2240     0.1030 H     1 <1>   0.0800 
 28 H       -2.4700    -0.9350    -2.5160 H     1 <1>   0.0800 
 29 H       -2.9460    -0.1060    -1.0590 H     1 <1>   0.0800 
 30 H        2.1180    -3.1460     1.8640 H     1 <1>   0.0800 
 31 H        3.0860    -1.7120     2.0750 H     1 <1>   0.0800 
 32 H        3.2800    -2.6900     0.6450 H     1 <1>   0.0800 
 33 H        2.8580    -0.6400    -0.8120 H     1 <1>   0.0800 
 34 H        2.7210     0.2990     0.6520 H     1 <1>   0.0800 
 35 H        1.4490     0.3440    -0.5360 H     1 <1>   0.0800 
 36 H       -0.0100    -1.7540     2.1740 H     1 <1>   0.0800 
 37 H       -0.2190    -0.2880     1.2420 H     1 <1>   0.0800 
 38 H        1.0340    -0.3840     2.4410 H     1 <1>   0.0800 
 39 H       -7.1930    -1.0980     0.5050 H     1 <1>   0.1500 
 40 H       -7.3060    -4.9600    -1.2470 H     1 <1>   0.1500 
 41 H       -9.5250    -5.3250    -0.3730 H     1 <1>   0.1500 
 42 H       -9.7470     0.5620     2.4510 H     1 <1>   0.0800 
 43 H       -8.8490     0.5040     0.9390 H     1 <1>   0.0800 
 44 H       -8.1460    -0.1670     2.4240 H     1 <1>   0.0800 
 45 H      -12.6100    -4.6250     1.4110 H     1 <1>   0.0800 
 46 H      -11.1270    -5.5710     1.3360 H     1 <1>   0.0800 
 47 H      -11.8260    -4.8820    -0.1440 H     1 <1>   0.0800 
@<TRIPOS>BOND
  1   1   2  2   
  2   2   3  am  
  3   2   4  1   
  4   3   5  1   
  5   3  25  1   
  6   4   6  1   
  7   4  26  1   
  8   4  27  1   
  9   5   7  1   
 10   5  28  1   
 11   5  29  1   
 12   6   8  1   
 13   6   9  1   
 14   6  10  1   
 15   7  11  1   
 16   7  12  2   
 17   8  30  1   
 18   8  31  1   
 19   8  32  1   
 20   9  33  1   
 21   9  34  1   
 22   9  35  1   
 23  10  36  1   
 24  10  37  1   
 25  10  38  1   
 26  11  13  1   
 27  12  14  1   
 28  13  14  2   
 29  14  15  1   
 30  15  16  ar  
 31  15  17  ar  
 32  16  18  ar  
 33  16  39  1   
 34  17  19  ar  
 35  17  40  1   
 36  18  20  1   
 37  18  21  ar  
 38  19  21  ar  
 39  19  41  1   
 40  20  22  1   
 41  21  23  1   
 42  22  42  1   
 43  22  43  1   
 44  22  44  1   
 45  23  24  1   
 46  24  45  1   
 47  24  46  1   
 48  24  47  1   
@<TRIPOS>SUBSTRUCTURE
  1 ****  12 GROUP 4 **** **** 0

# MOE 2024.06 (io_trps.svl 2023.06)
