@<TRIPOS>MOLECULE
NONAME
34 35 1 0 0 
SMALL
USER_CHARGES


@<TRIPOS>ATOM
  1 S        0.4640    -0.3140     0.0660 S.3   1 <1>  -0.0800 
  2 C        0.0750     1.2850     0.5910 C.2   1 <1>   0.4340 
  3 C       -1.1320    -0.7500     0.5760 C.2   1 <1>   0.1980 
  4 S        1.3160     2.5650     0.4160 S.3   1 <1>  -0.2860 
  5 N       -1.0960     1.4090     1.0700 N.2   1 <1>  -0.3380 
  6 N       -1.7920     0.2260     1.0590 N.2   1 <1>  -0.3380 
  7 C       -1.5640    -2.1880     0.4030 C.3   1 <1>  -0.0600 
  8 C        2.7740     1.7500    -0.3770 C.3   1 <1>   0.0700 
  9 C        3.8530     2.8140    -0.5930 C.3   1 <1>  -0.0990 
 10 C        5.0960     2.2380    -1.2500 C.2   1 <1>   0.5690 
 11 O        5.0270     1.2000    -1.8570 O.2   1 <1>  -0.5700 
 12 N        6.2910     2.8780    -1.1530 N.am  1 <1>  -0.5470 
 13 C        6.6060     4.1080    -0.5600 C.ar  1 <1>   0.1170 
 14 C        7.5250     4.2120     0.4880 C.ar  1 <1>  -0.1440 
 15 C        5.9880     5.2570    -1.0410 C.ar  1 <1>  -0.1500 
 16 C        7.7850     5.4660     1.0360 C.ar  1 <1>  -0.1500 
 17 C        8.2240     2.9600     1.0310 C.3   1 <1>   1.1640 
 18 C        6.2550     6.4940    -0.4900 C.ar  1 <1>  -0.1500 
 19 C        7.1550     6.5990     0.5530 C.ar  1 <1>  -0.1500 
 20 F        7.3740     2.1190     1.6070 F     1 <1>  -0.3400 
 21 F        9.1490     3.2290     1.9470 F     1 <1>  -0.3400 
 22 F        8.8460     2.2730     0.0780 F     1 <1>  -0.3400 
 23 H       -0.9140    -2.8350     0.9620 H     1 <1>   0.0800 
 24 H       -1.5270    -2.4580    -0.6370 H     1 <1>   0.0800 
 25 H       -2.5710    -2.3100     0.7590 H     1 <1>   0.0800 
 26 H        2.4440     1.3310    -1.3120 H     1 <1>   0.0800 
 27 H        3.1150     0.9720     0.2820 H     1 <1>   0.0800 
 28 H        4.1200     3.2390     0.3570 H     1 <1>   0.0800 
 29 H        3.4630     3.5910    -1.2230 H     1 <1>   0.0800 
 30 H        7.0580     2.3470    -1.5760 H     1 <1>   0.3700 
 31 H        5.2950     5.1840    -1.8600 H     1 <1>   0.1500 
 32 H        8.4830     5.5820     1.8500 H     1 <1>   0.1500 
 33 H        5.7680     7.3750    -0.8720 H     1 <1>   0.1500 
 34 H        7.3660     7.5620     0.9870 H     1 <1>   0.1500 
@<TRIPOS>BOND
  1   1   2  1   
  2   1   3  1   
  3   2   4  1   
  4   2   5  2   
  5   3   6  2   
  6   3   7  1   
  7   4   8  1   
  8   5   6  1   
  9   7  23  1   
 10   7  24  1   
 11   7  25  1   
 12   8   9  1   
 13   8  26  1   
 14   8  27  1   
 15   9  10  1   
 16   9  28  1   
 17   9  29  1   
 18  10  11  2   
 19  10  12  am  
 20  12  13  1   
 21  12  30  1   
 22  13  14  ar  
 23  13  15  ar  
 24  14  16  ar  
 25  14  17  1   
 26  15  18  ar  
 27  15  31  1   
 28  16  19  ar  
 29  16  32  1   
 30  17  20  1   
 31  17  21  1   
 32  17  22  1   
 33  18  19  ar  
 34  18  33  1   
 35  19  34  1   
@<TRIPOS>SUBSTRUCTURE
  1 ****   9 GROUP 4 **** **** 0

# MOE 2024.06 (io_trps.svl 2023.06)
