@<TRIPOS>MOLECULE
NONAME
48 51 1 0 0 
SMALL
USER_CHARGES


@<TRIPOS>ATOM
  1 S       -0.4490    -0.1530    -0.3220 S.3   1 <1>  -0.3320 
  2 C        1.2140    -0.8180    -0.3700 C.ar  1 <1>   0.4120 
  3 C       -1.5410    -1.6080    -0.6910 C.3   1 <1>   0.2110 
  4 N        1.3040    -2.1090    -0.5900 N.ar  1 <1>  -0.6200 
  5 C        2.2970     0.0130    -0.1710 C.ar  1 <1>  -0.1440 
  6 C       -2.9580    -1.1330    -0.9530 C.2   1 <1>   0.5690 
  7 C       -1.6640    -2.4680     0.5690 C.3   1 <1>  -0.0990 
  8 C        2.5390    -2.5690    -0.6030 C.ar  1 <1>   0.4770 
  9 C        3.5320    -0.6020    -0.1990 C.ar  1 <1>   0.1660 
 10 C        2.1400     1.5130     0.0810 C.3   1 <1>  -0.0160 
 11 O       -3.2800    -0.5570    -1.9630 O.2   1 <1>  -0.5700 
 12 N       -3.7870    -1.4840     0.0800 N.am  1 <1>  -0.2370 
 13 C       -3.0940    -2.2400     0.9900 C.2   1 <1>   0.5690 
 14 N        3.6570    -1.8930    -0.4180 N.ar  1 <1>  -0.6200 
 15 C        2.7030    -4.0480    -0.8540 C.3   1 <1>  -0.0970 
 16 C        4.8250     0.1720     0.0100 C.3   1 <1>  -0.0170 
 17 C        3.4570     2.2830    -0.0820 C.3   1 <1>  -0.1600 
 18 C       -5.1540    -1.1280     0.1800 C.ar  1 <1>   0.1170 
 19 O       -3.5260    -2.7090     2.0110 O.2   1 <1>  -0.5700 
 20 C        4.6010     1.5570     0.6310 C.3   1 <1>  -0.1600 
 21 C       -5.5720     0.1740    -0.0820 C.ar  1 <1>  -0.1500 
 22 C       -6.1150    -2.0680     0.5410 C.ar  1 <1>  -0.1500 
 23 C       -6.9060     0.5300     0.0100 C.ar  1 <1>  -0.1500 
 24 C       -7.4500    -1.7170     0.6350 C.ar  1 <1>  -0.1500 
 25 C       -7.8560    -0.4200     0.3710 C.ar  1 <1>   0.0820 
 26 O       -9.1850    -0.1590     0.4840 O.3   1 <1>  -0.3630 
 27 C       -9.6980     1.1280     0.2210 C.3   1 <1>   0.0400 
 28 H       -1.1360    -2.1350    -1.5360 H     1 <1>   0.0800 
 29 H       -0.9860    -2.1670     1.3460 H     1 <1>   0.0800 
 30 H       -1.5190    -3.5070     0.3380 H     1 <1>   0.0800 
 31 H        1.7720     1.6520     1.0840 H     1 <1>   0.0800 
 32 H        1.4160     1.9300    -0.5960 H     1 <1>   0.0800 
 33 H        1.8020    -4.4640    -1.2650 H     1 <1>   0.0800 
 34 H        2.9290    -4.5410     0.0730 H     1 <1>   0.0800 
 35 H        3.5090    -4.2110    -1.5440 H     1 <1>   0.0800 
 36 H        5.3040     0.2810    -0.9470 H     1 <1>   0.0800 
 37 H        5.4830    -0.3980     0.6420 H     1 <1>   0.0800 
 38 H        3.3450     3.2760     0.3180 H     1 <1>   0.0800 
 39 H        3.6900     2.3720    -1.1300 H     1 <1>   0.0800 
 40 H        5.5070     2.1340     0.5600 H     1 <1>   0.0800 
 41 H        4.3590     1.4450     1.6750 H     1 <1>   0.0800 
 42 H       -4.8470     0.9170    -0.3660 H     1 <1>   0.1500 
 43 H       -5.8220    -3.0800     0.7550 H     1 <1>   0.1500 
 44 H       -7.1830     1.5450    -0.2030 H     1 <1>   0.1500 
 45 H       -8.1860    -2.4470     0.9170 H     1 <1>   0.1500 
 46 H      -10.7630     1.0980     0.3680 H     1 <1>   0.0800 
 47 H       -9.4760     1.3910    -0.7980 H     1 <1>   0.0800 
 48 H       -9.2540     1.8270     0.9070 H     1 <1>   0.0800 
@<TRIPOS>BOND
  1   1   2  1   
  2   1   3  1   
  3   2   4  ar  
  4   2   5  ar  
  5   3   6  1   
  6   3   7  1   
  7   3  28  1   
  8   4   8  ar  
  9   5   9  ar  
 10   5  10  1   
 11   6  11  2   
 12   6  12  am  
 13   7  13  1   
 14   7  29  1   
 15   7  30  1   
 16   8  14  ar  
 17   8  15  1   
 18   9  14  ar  
 19   9  16  1   
 20  10  17  1   
 21  10  31  1   
 22  10  32  1   
 23  12  13  am  
 24  12  18  1   
 25  13  19  2   
 26  15  33  1   
 27  15  34  1   
 28  15  35  1   
 29  16  20  1   
 30  16  36  1   
 31  16  37  1   
 32  17  20  1   
 33  17  38  1   
 34  17  39  1   
 35  18  21  ar  
 36  18  22  ar  
 37  20  40  1   
 38  20  41  1   
 39  21  23  ar  
 40  21  42  1   
 41  22  24  ar  
 42  22  43  1   
 43  23  25  ar  
 44  23  44  1   
 45  24  25  ar  
 46  24  45  1   
 47  25  26  1   
 48  26  27  1   
 49  27  46  1   
 50  27  47  1   
 51  27  48  1   
@<TRIPOS>SUBSTRUCTURE
  1 ****   3 GROUP 4 **** **** 0

# MOE 2024.06 (io_trps.svl 2023.06)
