@<TRIPOS>MOLECULE
NONAME
41 41 1 0 0 
SMALL
USER_CHARGES


@<TRIPOS>ATOM
  1 S       -0.2410    -0.5020     0.0480 S.o2  1 <1>   1.4470 
  2 O       -0.9370    -1.2040     1.1010 O.2   1 <1>  -0.6500 
  3 O       -0.1750    -1.0630    -1.2840 O.2   1 <1>  -0.6500 
  4 N        1.3320    -0.4810     0.6340 N.am  1 <1>  -0.9140 
  5 C       -0.7200     1.2470    -0.0200 C.ar  1 <1>  -0.0090 
  6 C        2.0960    -1.6500     0.2550 C.3   1 <1>   0.1960 
  7 C       -2.0440     1.5890    -0.2700 C.ar  1 <1>   0.0830 
  8 C        0.1940     2.2760     0.1520 C.ar  1 <1>  -0.1500 
  9 C        3.4330    -1.5930     0.9800 C.3   1 <1>  -0.2400 
 10 O       -2.9190     0.5750    -0.4560 O.3   1 <1>  -0.3630 
 11 C       -2.4240     2.9240    -0.3250 C.ar  1 <1>  -0.1500 
 12 C       -0.1460     3.6310     0.1070 C.ar  1 <1>   0.0860 
 13 C       -4.2910     0.7700    -0.7180 C.3   1 <1>   0.0400 
 14 C       -1.4960     3.9420    -0.1360 C.ar  1 <1>   0.0830 
 15 C        0.9030     4.6200     0.3110 C.2   1 <1>   0.5440 
 16 O       -1.8720     5.2470    -0.1760 O.3   1 <1>  -0.3630 
 17 O        1.9250     4.3200     0.9000 O.2   1 <1>  -0.5700 
 18 N        0.7930     5.8980    -0.1560 N.am  1 <1>  -0.7300 
 19 C       -3.2150     5.6700    -0.2800 C.3   1 <1>   0.0400 
 20 C        1.7990     6.9650    -0.0200 C.3   1 <1>   0.1400 
 21 C        1.7820     7.8110    -1.2870 C.3   1 <1>  -0.2400 
 22 H        1.1970    -0.5340     1.6410 H     1 <1>   0.4200 
 23 H        2.2570    -1.6510    -0.8120 H     1 <1>   0.0800 
 24 H        1.5620    -2.5480     0.5250 H     1 <1>   0.0800 
 25 H        1.2280     2.0280     0.3280 H     1 <1>   0.1500 
 26 H        3.9620    -0.6960     0.7100 H     1 <1>   0.0800 
 27 H        4.0320    -2.4390     0.6960 H     1 <1>   0.0800 
 28 H        3.2880    -1.6200     2.0450 H     1 <1>   0.0800 
 29 H       -3.4480     3.1650    -0.5180 H     1 <1>   0.1500 
 30 H       -4.7490    -0.1970    -0.8220 H     1 <1>   0.0800 
 31 H       -4.3970     1.3230    -1.6340 H     1 <1>   0.0800 
 32 H       -4.7340     1.2960     0.1090 H     1 <1>   0.0800 
 33 H       -0.1280     6.1810    -0.5040 H     1 <1>   0.3700 
 34 H       -3.2330     6.7440    -0.2260 H     1 <1>   0.0800 
 35 H       -3.7770     5.2560     0.5390 H     1 <1>   0.0800 
 36 H       -3.6130     5.3470    -1.2260 H     1 <1>   0.0800 
 37 H        2.7750     6.5320     0.1230 H     1 <1>   0.0800 
 38 H        1.5620     7.5710     0.8390 H     1 <1>   0.0800 
 39 H        2.0180     7.2010    -2.1410 H     1 <1>   0.0800 
 40 H        2.5200     8.5890    -1.2100 H     1 <1>   0.0800 
 41 H        0.8180     8.2670    -1.4230 H     1 <1>   0.0800 
@<TRIPOS>BOND
  1   1   2  2   
  2   1   3  2   
  3   1   4  am  
  4   1   5  1   
  5   4   6  1   
  6   4  22  1   
  7   5   7  ar  
  8   5   8  ar  
  9   6   9  1   
 10   6  23  1   
 11   6  24  1   
 12   7  10  1   
 13   7  11  ar  
 14   8  12  ar  
 15   8  25  1   
 16   9  26  1   
 17   9  27  1   
 18   9  28  1   
 19  10  13  1   
 20  11  14  ar  
 21  11  29  1   
 22  12  14  ar  
 23  12  15  1   
 24  13  30  1   
 25  13  31  1   
 26  13  32  1   
 27  14  16  1   
 28  15  17  2   
 29  15  18  am  
 30  16  19  1   
 31  18  20  1   
 32  18  33  1   
 33  19  34  1   
 34  19  35  1   
 35  19  36  1   
 36  20  21  1   
 37  20  37  1   
 38  20  38  1   
 39  21  39  1   
 40  21  40  1   
 41  21  41  1   
@<TRIPOS>SUBSTRUCTURE
  1 ****   8 GROUP 4 **** **** 0

# MOE 2024.06 (io_trps.svl 2023.06)
