@<TRIPOS>MOLECULE
NONAME
43 44 1 0 0 
SMALL
USER_CHARGES


@<TRIPOS>ATOM
  1 O        6.6390    -4.9370     0.9500 O.3   1 <1>  -0.5600 
  2 C        6.6040    -4.0080    -0.0980 C.3   1 <1>   0.2000 
  3 C        6.1470    -6.2310     0.7060 C.3   1 <1>   0.2000 
  4 C        5.1480    -3.7840    -0.5870 C.3   1 <1>   0.3430 
  5 C        7.5670    -4.4500    -1.2080 C.3   1 <1>  -0.2400 
  6 C        4.9150    -6.2250    -0.2380 C.3   1 <1>   0.3430 
  7 C        5.8010    -6.8120     2.0760 C.3   1 <1>  -0.2400 
  8 N        4.2190    -4.9030    -0.2020 N.4   1 <1>  -0.9590 
  9 C        2.8860    -4.8670    -0.8780 C.3   1 <1>   0.3430 
 10 C        1.9890    -3.7800    -0.2470 C.3   1 <1>   0.2000 
 11 O        2.2340    -3.7330     1.1260 O.3   1 <1>  -0.6800 
 12 C        0.4950    -4.0360    -0.4790 C.3   1 <1>   0.1200 
 13 O       -0.2390    -3.0850     0.2620 O.3   1 <1>  -0.3630 
 14 C       -1.5960    -3.0690     0.2410 C.ar  1 <1>   0.0820 
 15 C       -2.3720    -3.9910    -0.4580 C.ar  1 <1>  -0.1500 
 16 C       -2.2180    -2.0640     0.9660 C.ar  1 <1>  -0.1500 
 17 C       -3.7530    -3.8980    -0.4250 C.ar  1 <1>  -0.1500 
 18 C       -3.5990    -1.9740     0.9970 C.ar  1 <1>  -0.1500 
 19 C       -4.3670    -2.8920     0.3010 C.ar  1 <1>  -0.1500 
 20 H        6.9720    -3.0790     0.3050 H     1 <1>   0.0800 
 21 H        6.9400    -6.8140     0.2670 H     1 <1>   0.0800 
 22 H        5.1620    -3.6660    -1.6580 H     1 <1>   0.0800 
 23 H        4.7830    -2.8620    -0.1660 H     1 <1>   0.0800 
 24 H        7.2300    -5.3380    -1.7090 H     1 <1>   0.0800 
 25 H        8.5440    -4.6260    -0.7910 H     1 <1>   0.0800 
 26 H        7.6600    -3.6690    -1.9410 H     1 <1>   0.0800 
 27 H        4.2430    -7.0140     0.0560 H     1 <1>   0.0800 
 28 H        5.2450    -6.4320    -1.2420 H     1 <1>   0.0800 
 29 H        5.0320    -6.2310     2.5530 H     1 <1>   0.0800 
 30 H        6.6770    -6.8120     2.7010 H     1 <1>   0.0800 
 31 H        5.4600    -7.8270     1.9790 H     1 <1>   0.0800 
 32 H        3.9960    -4.7190     0.7980 H     1 <1>   0.4500 
 33 H        2.3980    -5.8180    -0.7430 H     1 <1>   0.0800 
 34 H        2.9960    -4.6980    -1.9360 H     1 <1>   0.0800 
 35 H        2.2450    -2.8180    -0.6580 H     1 <1>   0.0800 
 36 H        1.5070    -3.2200     1.5540 H     1 <1>   0.4000 
 37 H        0.2190    -5.0190    -0.1380 H     1 <1>   0.0800 
 38 H        0.2440    -3.9220    -1.5190 H     1 <1>   0.0800 
 39 H       -1.9310    -4.7830    -1.0290 H     1 <1>   0.1500 
 40 H       -1.6210    -1.3530     1.5050 H     1 <1>   0.1500 
 41 H       -4.3540    -4.6100    -0.9640 H     1 <1>   0.1500 
 42 H       -4.0760    -1.1920     1.5620 H     1 <1>   0.1500 
 43 H       -5.4410    -2.8220     0.3250 H     1 <1>   0.1500 
@<TRIPOS>BOND
  1   1   2  1   
  2   1   3  1   
  3   2   4  1   
  4   2   5  1   
  5   2  20  1   
  6   3   6  1   
  7   3   7  1   
  8   3  21  1   
  9   4   8  1   
 10   4  22  1   
 11   4  23  1   
 12   5  24  1   
 13   5  25  1   
 14   5  26  1   
 15   6   8  1   
 16   6  27  1   
 17   6  28  1   
 18   7  29  1   
 19   7  30  1   
 20   7  31  1   
 21   8   9  1   
 22   8  32  1   
 23   9  10  1   
 24   9  33  1   
 25   9  34  1   
 26  10  11  1   
 27  10  12  1   
 28  10  35  1   
 29  11  36  1   
 30  12  13  1   
 31  12  37  1   
 32  12  38  1   
 33  13  14  1   
 34  14  15  ar  
 35  14  16  ar  
 36  15  17  ar  
 37  15  39  1   
 38  16  18  ar  
 39  16  40  1   
 40  17  19  ar  
 41  17  41  1   
 42  18  19  ar  
 43  18  42  1   
 44  19  43  1   
@<TRIPOS>SUBSTRUCTURE
  1 ****  10 GROUP 4 **** **** 0

# MOE 2024.06 (io_trps.svl 2023.06)
