@<TRIPOS>MOLECULE
NONAME
32 33 1 0 0 
SMALL
USER_CHARGES


@<TRIPOS>ATOM
  1 CL      -1.8600     0.2150     3.0360 Cl    1 <1>  -0.1770 
  2 C       -2.4110     0.8830     1.5200 C.ar  1 <1>   0.1770 
  3 C       -1.6830     1.8610     0.8650 C.ar  1 <1>   0.1770 
  4 C       -3.5990     0.4150     0.9850 C.ar  1 <1>  -0.1500 
  5 CL      -0.1850     2.4630     1.5310 Cl    1 <1>  -0.1770 
  6 C       -2.1380     2.3780    -0.3340 C.ar  1 <1>  -0.1500 
  7 C       -4.0690     0.9360    -0.2150 C.ar  1 <1>  -0.1440 
  8 C       -3.3290     1.9140    -0.8720 C.ar  1 <1>  -0.1500 
  9 C       -5.3790     0.4400    -0.8060 C.3   1 <1>   0.4870 
 10 N       -6.5100     0.9980    -0.0130 N.4   1 <1>  -0.9590 
 11 C       -7.8250     0.3840    -0.4220 C.3   1 <1>   0.3430 
 12 C       -6.5520     2.5060    -0.0910 C.3   1 <1>   0.3430 
 13 C       -9.0190     0.9580     0.3730 C.3   1 <1>   0.1400 
 14 C       -7.7170     3.0930     0.7240 C.3   1 <1>   0.1400 
 15 N       -9.0060     2.4450     0.3360 N.am  1 <1>  -0.6600 
 16 C      -10.0710     3.1830    -0.1060 C.2   1 <1>   0.5700 
 17 O      -10.0070     4.3740    -0.2770 O.2   1 <1>  -0.5700 
 18 H       -4.1300    -0.3540     1.5200 H     1 <1>   0.1500 
 19 H       -1.5590     3.1350    -0.8370 H     1 <1>   0.1500 
 20 H       -3.6640     2.3260    -1.8120 H     1 <1>   0.1500 
 21 H       -5.3960    -0.6370    -0.7720 H     1 <1>   0.0800 
 22 H       -5.4580     0.7490    -1.8360 H     1 <1>   0.0800 
 23 H       -6.3340     0.7580     0.9710 H     1 <1>   0.4500 
 24 H       -7.7930    -0.6840    -0.2820 H     1 <1>   0.0800 
 25 H       -7.9990     0.5730    -1.4690 H     1 <1>   0.0800 
 26 H       -6.6690     2.8160    -1.1170 H     1 <1>   0.0800 
 27 H       -5.6280     2.9220     0.2750 H     1 <1>   0.0800 
 28 H       -8.9700     0.6280     1.3960 H     1 <1>   0.0800 
 29 H       -9.9400     0.5890    -0.0480 H     1 <1>   0.0800 
 30 H       -7.7630     4.1560     0.5550 H     1 <1>   0.0800 
 31 H       -7.5440     2.9410     1.7750 H     1 <1>   0.0800 
 32 H      -10.9960     2.6790    -0.3260 H     1 <1>   0.0600 
@<TRIPOS>BOND
  1   1   2  1   
  2   2   3  ar  
  3   2   4  ar  
  4   3   5  1   
  5   3   6  ar  
  6   4   7  ar  
  7   4  18  1   
  8   6   8  ar  
  9   6  19  1   
 10   7   8  ar  
 11   7   9  1   
 12   8  20  1   
 13   9  10  1   
 14   9  21  1   
 15   9  22  1   
 16  10  11  1   
 17  10  12  1   
 18  10  23  1   
 19  11  13  1   
 20  11  24  1   
 21  11  25  1   
 22  12  14  1   
 23  12  26  1   
 24  12  27  1   
 25  13  15  1   
 26  13  28  1   
 27  13  29  1   
 28  14  15  1   
 29  14  30  1   
 30  14  31  1   
 31  15  16  am  
 32  16  17  2   
 33  16  32  1   
@<TRIPOS>SUBSTRUCTURE
  1 ****  10 GROUP 4 **** **** 0

# MOE 2024.06 (io_trps.svl 2023.06)
