@<TRIPOS>MOLECULE
NONAME
40 40 1 0 0 
SMALL
USER_CHARGES


@<TRIPOS>ATOM
  1 O       -0.0830    -2.1100     2.2100 O.2   1 <1>  -0.5700 
  2 C       -0.3600    -2.3710     1.0580 C.2   1 <1>   0.6340 
  3 O        0.5930    -2.2680     0.1250 O.3   1 <1>  -0.4300 
  4 C       -1.6860    -2.7870     0.6370 C.ar  1 <1>   0.0860 
  5 C        1.9110    -1.8710     0.4480 C.3   1 <1>   0.0400 
  6 C       -2.7200    -2.9350     1.5630 C.ar  1 <1>  -0.1500 
  7 C       -1.9940    -3.0590    -0.6980 C.ar  1 <1>  -0.1500 
  8 C       -3.9910    -3.3250     1.1840 C.ar  1 <1>  -0.1500 
  9 C       -3.2630    -3.4480    -1.0880 C.ar  1 <1>  -0.1500 
 10 C       -4.2760    -3.5770    -0.1490 C.ar  1 <1>  -0.1440 
 11 C       -5.6740    -3.9890    -0.5780 C.3   1 <1>   0.4860 
 12 N       -6.5770    -2.8030    -0.5330 N.4   1 <1>  -0.9590 
 13 C       -7.9800    -3.2200    -0.7620 C.3   1 <1>   0.4810 
 14 C       -6.1330    -1.7200    -1.4500 C.3   1 <1>   0.3430 
 15 C       -8.4840    -4.0250     0.4300 C.2   1 <1>  -0.2760 
 16 C       -6.8080    -0.4090    -1.0640 C.3   1 <1>  -0.2400 
 17 C       -7.9950    -4.0140     1.6790 C.2   1 <1>  -0.3000 
 18 C       -9.6870    -4.8880     0.0740 C.3   1 <1>  -0.1020 
 19 H        2.4960    -1.8620    -0.4540 H     1 <1>   0.0800 
 20 H        2.3240    -2.5730     1.1510 H     1 <1>   0.0800 
 21 H        1.8820    -0.8860     0.8820 H     1 <1>   0.0800 
 22 H       -2.5130    -2.7420     2.6040 H     1 <1>   0.1500 
 23 H       -1.2230    -2.9650    -1.4450 H     1 <1>   0.1500 
 24 H       -4.7450    -3.4320     1.9440 H     1 <1>   0.1500 
 25 H       -3.4450    -3.6510    -2.1300 H     1 <1>   0.1500 
 26 H       -6.0350    -4.7560     0.0890 H     1 <1>   0.0800 
 27 H       -5.6450    -4.3970    -1.5750 H     1 <1>   0.0800 
 28 H       -6.5360    -2.4400     0.4240 H     1 <1>   0.4500 
 29 H       -8.0350    -3.8190    -1.6570 H     1 <1>   0.0800 
 30 H       -8.6170    -2.3610    -0.8940 H     1 <1>   0.0800 
 31 H       -6.3620    -1.9730    -2.4730 H     1 <1>   0.0800 
 32 H       -5.0650    -1.5860    -1.3680 H     1 <1>   0.0800 
 33 H       -7.8710    -0.4450    -1.2200 H     1 <1>   0.0800 
 34 H       -6.4170     0.3800    -1.6820 H     1 <1>   0.0800 
 35 H       -6.5980    -0.1570    -0.0400 H     1 <1>   0.0800 
 36 H       -7.1700    -3.4290     2.0410 H     1 <1>   0.1500 
 37 H       -8.4070    -4.6090     2.4800 H     1 <1>   0.1500 
 38 H       -9.4340    -5.5980    -0.6940 H     1 <1>   0.0800 
 39 H      -10.5020    -4.2760    -0.2740 H     1 <1>   0.0800 
 40 H      -10.0320    -5.4390     0.9330 H     1 <1>   0.0800 
@<TRIPOS>BOND
  1   1   2  2   
  2   2   3  1   
  3   2   4  1   
  4   3   5  1   
  5   4   6  ar  
  6   4   7  ar  
  7   5  19  1   
  8   5  20  1   
  9   5  21  1   
 10   6   8  ar  
 11   6  22  1   
 12   7   9  ar  
 13   7  23  1   
 14   8  10  ar  
 15   8  24  1   
 16   9  10  ar  
 17   9  25  1   
 18  10  11  1   
 19  11  12  1   
 20  11  26  1   
 21  11  27  1   
 22  12  13  1   
 23  12  14  1   
 24  12  28  1   
 25  13  15  1   
 26  13  29  1   
 27  13  30  1   
 28  14  16  1   
 29  14  31  1   
 30  14  32  1   
 31  15  17  2   
 32  15  18  1   
 33  16  33  1   
 34  16  34  1   
 35  16  35  1   
 36  17  36  1   
 37  17  37  1   
 38  18  38  1   
 39  18  39  1   
 40  18  40  1   
@<TRIPOS>SUBSTRUCTURE
  1 ****  10 GROUP 4 **** **** 0

# MOE 2024.06 (io_trps.svl 2023.06)
