@<TRIPOS>MOLECULE
NONAME
40 41 1 0 0 
SMALL
USER_CHARGES


@<TRIPOS>ATOM
  1 S        0.2730    -0.5380    -0.2300 S.o2  1 <1>   1.3330 
  2 O        1.3690    -1.1790     0.4490 O.2   1 <1>  -0.6500 
  3 O        0.1130    -0.6220    -1.6590 O.2   1 <1>  -0.6500 
  4 N       -1.1200    -1.2110     0.5120 N.am  1 <1>  -0.7570 
  5 C        0.1910     1.1600     0.2950 C.3   1 <1>  -0.1350 
  6 C       -2.4580    -1.1220     0.1670 C.ar  1 <1>   0.1990 
  7 C       -3.3960    -1.7880     0.9480 C.ar  1 <1>  -0.1500 
  8 C       -2.9240    -0.3960    -0.9260 C.ar  1 <1>  -0.1500 
  9 C       -4.7450    -1.7230     0.6570 C.ar  1 <1>  -0.1500 
 10 C       -4.2730    -0.3330    -1.2160 C.ar  1 <1>  -0.1500 
 11 C       -5.2220    -0.9860    -0.4260 C.ar  1 <1>   0.0860 
 12 C       -6.6390    -0.9220    -0.7190 C.2   1 <1>   0.5440 
 13 O       -7.2780    -1.9580    -0.7590 O.2   1 <1>  -0.5700 
 14 N       -7.2910     0.2760    -0.9480 N.am  1 <1>  -0.6600 
 15 C       -8.6710     0.3170    -1.5080 C.3   1 <1>   0.1400 
 16 C       -6.7780     1.5970    -0.4910 C.3   1 <1>   0.1400 
 17 C       -9.6360     0.8990    -0.4710 C.3   1 <1>  -0.1600 
 18 C       -7.7340     2.1940     0.5470 C.3   1 <1>  -0.1600 
 19 C       -9.1730     2.2810     0.0150 C.3   1 <1>  -0.0800 
 20 C      -10.1180     2.8170     1.0960 C.3   1 <1>  -0.2400 
 21 H       -0.8350    -1.9100     1.1930 H     1 <1>   0.4200 
 22 H        1.0420     1.6980    -0.0740 H     1 <1>   0.0800 
 23 H        0.1870     1.2170     1.3660 H     1 <1>   0.0800 
 24 H       -0.6990     1.6230    -0.0810 H     1 <1>   0.0800 
 25 H       -3.0660    -2.3650     1.7930 H     1 <1>   0.1500 
 26 H       -2.2350     0.1180    -1.5690 H     1 <1>   0.1500 
 27 H       -5.4560    -2.2510     1.2690 H     1 <1>   0.1500 
 28 H       -4.6100     0.2230    -2.0740 H     1 <1>   0.1500 
 29 H       -8.9970    -0.6690    -1.7920 H     1 <1>   0.0800 
 30 H       -8.6700     0.9310    -2.3920 H     1 <1>   0.0800 
 31 H       -6.7020     2.2560    -1.3390 H     1 <1>   0.0800 
 32 H       -5.8030     1.5020    -0.0490 H     1 <1>   0.0800 
 33 H       -9.6970     0.2150     0.3580 H     1 <1>   0.0800 
 34 H      -10.6150     0.9740    -0.9080 H     1 <1>   0.0800 
 35 H       -7.3890     3.1760     0.8200 H     1 <1>   0.0800 
 36 H       -7.7090     1.5800     1.4310 H     1 <1>   0.0800 
 37 H       -9.1900     2.9620    -0.8200 H     1 <1>   0.0800 
 38 H      -10.1300     2.1610     1.9490 H     1 <1>   0.0800 
 39 H      -11.1190     2.8970     0.7110 H     1 <1>   0.0800 
 40 H       -9.8010     3.7930     1.4190 H     1 <1>   0.0800 
@<TRIPOS>BOND
  1   1   2  2   
  2   1   3  2   
  3   1   4  am  
  4   1   5  1   
  5   4   6  1   
  6   4  21  1   
  7   5  22  1   
  8   5  23  1   
  9   5  24  1   
 10   6   7  ar  
 11   6   8  ar  
 12   7   9  ar  
 13   7  25  1   
 14   8  10  ar  
 15   8  26  1   
 16   9  11  ar  
 17   9  27  1   
 18  10  11  ar  
 19  10  28  1   
 20  11  12  1   
 21  12  13  2   
 22  12  14  am  
 23  14  15  1   
 24  14  16  1   
 25  15  17  1   
 26  15  29  1   
 27  15  30  1   
 28  16  18  1   
 29  16  31  1   
 30  16  32  1   
 31  17  19  1   
 32  17  33  1   
 33  17  34  1   
 34  18  19  1   
 35  18  35  1   
 36  18  36  1   
 37  19  20  1   
 38  19  37  1   
 39  20  38  1   
 40  20  39  1   
 41  20  40  1   
@<TRIPOS>SUBSTRUCTURE
  1 ****  11 GROUP 4 **** **** 0

# MOE 2024.06 (io_trps.svl 2023.06)
