@<TRIPOS>MOLECULE
NONAME
39 41 1 0 0 
SMALL
USER_CHARGES


@<TRIPOS>ATOM
  1 O       -0.3700     1.1280    -2.2320 O.2   1 <1>  -0.5700 
  2 C       -0.5490     1.6000    -1.1360 C.2   1 <1>   0.5690 
  3 N       -1.6850     1.3920    -0.4290 N.am  1 <1>  -0.7300 
  4 C        0.5340     2.4590    -0.5150 C.3   1 <1>  -0.0990 
  5 C       -2.8270     0.5620    -0.8640 C.3   1 <1>   0.2200 
  6 C        1.2870     1.7210     0.6040 C.3   1 <1>  -0.1600 
  7 C       -4.1300     1.3900    -0.8360 C.3   1 <1>  -0.0800 
  8 C       -2.9780    -0.6640     0.0610 C.3   1 <1>  -0.0800 
  9 C        2.3770     2.6040     1.2190 C.3   1 <1>  -0.2400 
 10 C       -4.4770     1.8250     0.6060 C.3   1 <1>  -0.1600 
 11 C       -5.2780     0.5090    -1.3720 C.3   1 <1>  -0.1600 
 12 C       -3.3240    -0.2270     1.5030 C.3   1 <1>  -0.1600 
 13 C       -4.1270    -1.5420    -0.4760 C.3   1 <1>  -0.1600 
 14 C       -4.6340     0.5850     1.5080 C.3   1 <1>  -0.0800 
 15 C       -5.4440    -0.7400    -0.4840 C.3   1 <1>  -0.0800 
 16 C       -5.7710    -0.2950     0.9540 C.3   1 <1>  -0.1600 
 17 H       -1.7870     1.7900     0.5020 H     1 <1>   0.3700 
 18 H        0.0830     3.3550    -0.1290 H     1 <1>   0.0800 
 19 H        1.2250     2.7440    -1.2870 H     1 <1>   0.0800 
 20 H       -2.6470     0.2230    -1.8710 H     1 <1>   0.0800 
 21 H        1.7370     0.8300     0.1970 H     1 <1>   0.0800 
 22 H        0.5960     1.4210     1.3720 H     1 <1>   0.0800 
 23 H       -4.0190     2.2520    -1.4710 H     1 <1>   0.0800 
 24 H       -2.0630    -1.2320     0.0520 H     1 <1>   0.0800 
 25 H        3.0940     2.8930     0.4710 H     1 <1>   0.0800 
 26 H        2.8930     2.0640     1.9940 H     1 <1>   0.0800 
 27 H        1.9470     3.4920     1.6490 H     1 <1>   0.0800 
 28 H       -5.3950     2.3870     0.6020 H     1 <1>   0.0800 
 29 H       -3.7110     2.4700     0.9980 H     1 <1>   0.0800 
 30 H       -5.0660     0.2100    -2.3840 H     1 <1>   0.0800 
 31 H       -6.1950     1.0720    -1.3850 H     1 <1>   0.0800 
 32 H       -3.4370    -1.0980     2.1260 H     1 <1>   0.0800 
 33 H       -2.5260     0.3600     1.9190 H     1 <1>   0.0800 
 34 H       -4.2370    -2.4170     0.1410 H     1 <1>   0.0800 
 35 H       -3.8960    -1.8730    -1.4730 H     1 <1>   0.0800 
 36 H       -4.8710     0.8920     2.5130 H     1 <1>   0.0800 
 37 H       -6.2430    -1.3550    -0.8650 H     1 <1>   0.0800 
 38 H       -6.6960     0.2550     0.9640 H     1 <1>   0.0800 
 39 H       -5.9020    -1.1600     1.5820 H     1 <1>   0.0800 
@<TRIPOS>BOND
  1   1   2  2   
  2   2   3  am  
  3   2   4  1   
  4   3   5  1   
  5   3  17  1   
  6   4   6  1   
  7   4  18  1   
  8   4  19  1   
  9   5   7  1   
 10   5   8  1   
 11   5  20  1   
 12   6   9  1   
 13   6  21  1   
 14   6  22  1   
 15   7  10  1   
 16   7  11  1   
 17   7  23  1   
 18   8  12  1   
 19   8  13  1   
 20   8  24  1   
 21   9  25  1   
 22   9  26  1   
 23   9  27  1   
 24  10  14  1   
 25  10  28  1   
 26  10  29  1   
 27  11  15  1   
 28  11  30  1   
 29  11  31  1   
 30  12  14  1   
 31  12  32  1   
 32  12  33  1   
 33  13  15  1   
 34  13  34  1   
 35  13  35  1   
 36  14  16  1   
 37  14  36  1   
 38  15  16  1   
 39  15  37  1   
 40  16  38  1   
 41  16  39  1   
@<TRIPOS>SUBSTRUCTURE
  1 ****   5 GROUP 4 **** **** 0

# MOE 2024.06 (io_trps.svl 2023.06)
