@<TRIPOS>MOLECULE
NONAME
47 50 1 0 0 
SMALL
USER_CHARGES


@<TRIPOS>ATOM
  1 O       -0.0090     3.5360     0.9920 O.2   1 <1>  -0.5700 
  2 C       -0.0400     3.2270    -0.1830 C.2   1 <1>   0.6900 
  3 N        0.9640     3.6540    -1.0000 N.am  1 <1>  -0.6600 
  4 N       -1.0020     2.4310    -0.7230 N.am  1 <1>  -0.5470 
  5 C        1.5320     5.0100    -0.7400 C.3   1 <1>   0.1400 
  6 C        2.0040     2.6520    -1.3620 C.3   1 <1>   0.1400 
  7 C       -2.0670     1.7210    -0.1470 C.ar  1 <1>   0.1170 
  8 C        2.5890     4.9430     0.3820 C.3   1 <1>   0.3430 
  9 C        3.0600     2.5650    -0.2400 C.3   1 <1>   0.3430 
 10 C       -3.0960     1.2950    -0.9850 C.ar  1 <1>  -0.1500 
 11 C       -2.1290     1.4110     1.2180 C.ar  1 <1>  -0.1500 
 12 N        3.6520     3.9130     0.0990 N.4   1 <1>  -0.9590 
 13 C       -4.1420     0.5810    -0.4390 C.ar  1 <1>   0.0820 
 14 C       -3.1920     0.6930     1.7510 C.ar  1 <1>  -0.1500 
 15 C        4.6020     3.8050     1.2400 C.3   1 <1>   0.4860 
 16 O       -5.2170     0.0840    -1.0610 O.3   1 <1>  -0.3620 
 17 C       -4.1910     0.2880     0.8910 C.ar  1 <1>   0.0820 
 18 C        5.7520     2.9100     0.8210 C.ar  1 <1>  -0.1440 
 19 C       -6.0020    -0.5640    -0.0610 C.3   1 <1>   0.4000 
 20 O       -5.3000    -0.4090     1.1710 O.3   1 <1>  -0.3630 
 21 C        5.8320     1.6090     1.2980 C.ar  1 <1>  -0.1500 
 22 C        6.7280     3.3810    -0.0460 C.ar  1 <1>  -0.1500 
 23 C        6.8690     0.7840     0.9000 C.ar  1 <1>  -0.1500 
 24 C        7.7640     2.5540    -0.4430 C.ar  1 <1>  -0.1500 
 25 C        7.8330     1.2560     0.0280 C.ar  1 <1>  -0.1500 
 26 H       -1.0000     2.4530    -1.7390 H     1 <1>   0.3700 
 27 H        0.7400     5.6770    -0.4400 H     1 <1>   0.0800 
 28 H        1.9670     5.4010    -1.6430 H     1 <1>   0.0800 
 29 H        2.4700     2.9290    -2.2910 H     1 <1>   0.0800 
 30 H        1.5500     1.6840    -1.4950 H     1 <1>   0.0800 
 31 H        2.0810     4.6950     1.3000 H     1 <1>   0.0800 
 32 H        3.0370     5.9150     0.5050 H     1 <1>   0.0800 
 33 H        3.8410     1.8870    -0.5420 H     1 <1>   0.0800 
 34 H        2.5850     2.1520     0.6360 H     1 <1>   0.0800 
 35 H       -3.0940     1.5090    -2.0370 H     1 <1>   0.1500 
 36 H       -1.3450     1.7270     1.8790 H     1 <1>   0.1500 
 37 H        4.2030     4.2140    -0.7130 H     1 <1>   0.4500 
 38 H       -3.2460     0.4540     2.7980 H     1 <1>   0.1500 
 39 H        4.1050     3.3900     2.1020 H     1 <1>   0.0800 
 40 H        4.9860     4.7780     1.5010 H     1 <1>   0.0800 
 41 H       -6.0930    -1.6090    -0.2950 H     1 <1>   0.0800 
 42 H       -6.9620    -0.0850     0.0090 H     1 <1>   0.0800 
 43 H        5.0980     1.2210     1.9840 H     1 <1>   0.1500 
 44 H        6.7030     4.3910    -0.4200 H     1 <1>   0.1500 
 45 H        6.9320    -0.2260     1.2700 H     1 <1>   0.1500 
 46 H        8.5230     2.9180    -1.1160 H     1 <1>   0.1500 
 47 H        8.6410     0.6130    -0.2810 H     1 <1>   0.1500 
@<TRIPOS>BOND
  1   1   2  2   
  2   2   3  am  
  3   2   4  am  
  4   3   5  1   
  5   3   6  1   
  6   4   7  1   
  7   4  26  1   
  8   5   8  1   
  9   5  27  1   
 10   5  28  1   
 11   6   9  1   
 12   6  29  1   
 13   6  30  1   
 14   7  10  ar  
 15   7  11  ar  
 16   8  12  1   
 17   8  31  1   
 18   8  32  1   
 19   9  12  1   
 20   9  33  1   
 21   9  34  1   
 22  10  13  ar  
 23  10  35  1   
 24  11  14  ar  
 25  11  36  1   
 26  12  15  1   
 27  12  37  1   
 28  13  16  1   
 29  13  17  ar  
 30  14  17  ar  
 31  14  38  1   
 32  15  18  1   
 33  15  39  1   
 34  15  40  1   
 35  16  19  1   
 36  17  20  1   
 37  18  21  ar  
 38  18  22  ar  
 39  19  20  1   
 40  19  41  1   
 41  19  42  1   
 42  21  23  ar  
 43  21  43  1   
 44  22  24  ar  
 45  22  44  1   
 46  23  25  ar  
 47  23  45  1   
 48  24  25  ar  
 49  24  46  1   
 50  25  47  1   
@<TRIPOS>SUBSTRUCTURE
  1 ****   2 GROUP 4 **** **** 0

# MOE 2024.06 (io_trps.svl 2023.06)
