@<TRIPOS>MOLECULE
NONAME
34 35 1 0 0 
SMALL
USER_CHARGES


@<TRIPOS>ATOM
  1 S        0.0620     0.7930    -1.3550 S.o2  1 <1>   1.4470 
  2 O       -0.0570     1.8720    -2.3100 O.2   1 <1>  -0.6500 
  3 O       -0.5290    -0.4960    -1.6380 O.2   1 <1>  -0.6500 
  4 N       -0.6550     1.4050     0.0350 N.am  1 <1>  -0.7890 
  5 C        1.7930     0.5830    -0.8590 C.ar  1 <1>  -0.0090 
  6 C       -2.0840     1.2250     0.0710 C.3   1 <1>   0.1310 
  7 C        2.1320    -0.2280     0.2170 C.ar  1 <1>  -0.1500 
  8 C        2.8230     1.2240    -1.5370 C.ar  1 <1>  -0.1500 
  9 C       -2.7720     1.4440     1.3750 C.3   1 <1>  -0.2000 
 10 C       -2.6270     0.0570     0.8190 C.3   1 <1>  -0.2000 
 11 C        3.4480    -0.3990     0.6160 C.ar  1 <1>  -0.1430 
 12 C        4.1430     1.0660    -1.1540 C.ar  1 <1>  -0.1500 
 13 C        4.4660     0.2530    -0.0720 C.ar  1 <1>   0.0830 
 14 C        3.7680    -1.2980     1.8020 C.3   1 <1>  -0.0970 
 15 O        5.7410     0.0580     0.3530 O.3   1 <1>  -0.3630 
 16 C        6.8420     0.6560    -0.2910 C.3   1 <1>   0.1200 
 17 C        8.1090     0.2160     0.4360 C.3   1 <1>  -0.2400 
 18 H       -0.4900     2.4060    -0.0390 H     1 <1>   0.4200 
 19 H       -2.5850     1.5350    -0.8350 H     1 <1>   0.1000 
 20 H        1.3420    -0.7340     0.7470 H     1 <1>   0.1500 
 21 H        2.5900     1.8570    -2.3780 H     1 <1>   0.1500 
 22 H       -3.7530     1.8840     1.3820 H     1 <1>   0.1000 
 23 H       -2.1860     1.7140     2.2360 H     1 <1>   0.1000 
 24 H       -1.9270    -0.6260     1.2670 H     1 <1>   0.1000 
 25 H       -3.4990    -0.4390     0.4290 H     1 <1>   0.1000 
 26 H        4.9030     1.5830    -1.7090 H     1 <1>   0.1500 
 27 H        2.8760    -1.7240     2.2220 H     1 <1>   0.0800 
 28 H        4.2700    -0.7300     2.5640 H     1 <1>   0.0800 
 29 H        4.4150    -2.0970     1.4870 H     1 <1>   0.0800 
 30 H        6.7270     1.7250    -0.2410 H     1 <1>   0.0800 
 31 H        6.8580     0.3270    -1.3150 H     1 <1>   0.0800 
 32 H        8.0760     0.5350     1.4630 H     1 <1>   0.0800 
 33 H        8.9700     0.6570    -0.0320 H     1 <1>   0.0800 
 34 H        8.2060    -0.8540     0.3950 H     1 <1>   0.0800 
@<TRIPOS>BOND
  1   1   2  2   
  2   1   3  2   
  3   1   4  am  
  4   1   5  1   
  5   4   6  1   
  6   4  18  1   
  7   5   7  ar  
  8   5   8  ar  
  9   6   9  1   
 10   6  10  1   
 11   6  19  1   
 12   7  11  ar  
 13   7  20  1   
 14   8  12  ar  
 15   8  21  1   
 16   9  10  1   
 17   9  22  1   
 18   9  23  1   
 19  10  24  1   
 20  10  25  1   
 21  11  13  ar  
 22  11  14  1   
 23  12  13  ar  
 24  12  26  1   
 25  13  15  1   
 26  14  27  1   
 27  14  28  1   
 28  14  29  1   
 29  15  16  1   
 30  16  17  1   
 31  16  30  1   
 32  16  31  1   
 33  17  32  1   
 34  17  33  1   
 35  17  34  1   
@<TRIPOS>SUBSTRUCTURE
  1 ****   5 GROUP 4 **** **** 0

# MOE 2024.06 (io_trps.svl 2023.06)
