@<TRIPOS>MOLECULE
NONAME
39 41 1 0 0 
SMALL
USER_CHARGES


@<TRIPOS>ATOM
  1 O       -0.0720     1.1110    -2.0680 O.2   1 <1>  -0.5700 
  2 C       -0.1250     1.5550    -0.9480 C.2   1 <1>   0.5690 
  3 N        0.9400     2.1280    -0.3380 N.am  1 <1>  -0.7300 
  4 C       -1.4330     1.4840    -0.1930 C.3   1 <1>  -0.0990 
  5 C        2.2810     2.2770    -0.9330 C.3   1 <1>   0.2200 
  6 C       -2.3480     2.6520    -0.5740 C.3   1 <1>  -0.0160 
  7 C        3.3810     1.5850    -0.1000 C.3   1 <1>  -0.0800 
  8 C        2.7230     3.7490    -0.9310 C.3   1 <1>  -0.1600 
  9 C       -3.6340     2.6010     0.2340 C.ar  1 <1>  -0.1440 
 10 C        4.6070     2.3700    -0.5420 C.3   1 <1>  -0.1600 
 11 C        3.3060     2.0010     1.3840 C.3   1 <1>  -0.1600 
 12 C        4.0400     3.7220    -0.1370 C.3   1 <1>  -0.0800 
 13 C       -4.6910     1.8110    -0.1900 C.ar  1 <1>  -0.1500 
 14 C       -3.7610     3.3380     1.4020 C.ar  1 <1>  -0.1500 
 15 C        3.7120     3.4850     1.3470 C.3   1 <1>  -0.1600 
 16 C       -5.8630     1.7570     0.5450 C.ar  1 <1>  -0.1500 
 17 C       -4.9320     3.2850     2.1380 C.ar  1 <1>  -0.1500 
 18 C       -5.9830     2.4940     1.7100 C.ar  1 <1>  -0.1500 
 19 H        0.8610     2.4810     0.6140 H     1 <1>   0.3700 
 20 H       -1.2430     1.4970     0.8640 H     1 <1>   0.0800 
 21 H       -1.9170     0.5540    -0.4320 H     1 <1>   0.0800 
 22 H        2.2880     1.8940    -1.9410 H     1 <1>   0.0800 
 23 H       -2.5760     2.6020    -1.6250 H     1 <1>   0.0800 
 24 H       -1.8420     3.5840    -0.3960 H     1 <1>   0.0800 
 25 H        3.4440     0.5240    -0.2680 H     1 <1>   0.0800 
 26 H        1.9950     4.4050    -0.4870 H     1 <1>   0.0800 
 27 H        2.9120     4.0640    -1.9420 H     1 <1>   0.0800 
 28 H        4.7940     2.2960    -1.6010 H     1 <1>   0.0800 
 29 H        5.4950     2.1080     0.0080 H     1 <1>   0.0800 
 30 H        4.0270     1.4400     1.9530 H     1 <1>   0.0800 
 31 H        2.3360     1.8480     1.8210 H     1 <1>   0.0800 
 32 H        4.6830     4.5670    -0.3180 H     1 <1>   0.0800 
 33 H       -4.6050     1.2340    -1.0950 H     1 <1>   0.1500 
 34 H       -2.9500     3.9560     1.7440 H     1 <1>   0.1500 
 35 H        4.5860     3.6460     1.9540 H     1 <1>   0.0800 
 36 H        2.9220     4.1300     1.6900 H     1 <1>   0.0800 
 37 H       -6.6790     1.1420     0.2100 H     1 <1>   0.1500 
 38 H       -5.0250     3.8590     3.0430 H     1 <1>   0.1500 
 39 H       -6.8940     2.4520     2.2820 H     1 <1>   0.1500 
@<TRIPOS>BOND
  1   1   2  2   
  2   2   3  am  
  3   2   4  1   
  4   3   5  1   
  5   3  19  1   
  6   4   6  1   
  7   4  20  1   
  8   4  21  1   
  9   5   7  1   
 10   5   8  1   
 11   5  22  1   
 12   6   9  1   
 13   6  23  1   
 14   6  24  1   
 15   7  10  1   
 16   7  11  1   
 17   7  25  1   
 18   8  12  1   
 19   8  26  1   
 20   8  27  1   
 21   9  13  ar  
 22   9  14  ar  
 23  10  12  1   
 24  10  28  1   
 25  10  29  1   
 26  11  15  1   
 27  11  30  1   
 28  11  31  1   
 29  12  15  1   
 30  12  32  1   
 31  13  16  ar  
 32  13  33  1   
 33  14  17  ar  
 34  14  34  1   
 35  15  35  1   
 36  15  36  1   
 37  16  18  ar  
 38  16  37  1   
 39  17  18  ar  
 40  17  38  1   
 41  18  39  1   
@<TRIPOS>SUBSTRUCTURE
  1 ****   2 GROUP 4 **** **** 0

# MOE 2024.06 (io_trps.svl 2023.06)
