@<TRIPOS>MOLECULE
NONAME
43 44 1 0 0 
SMALL
USER_CHARGES


@<TRIPOS>ATOM
  1 O        0.1540    -1.8590    -3.2920 O.2   1 <1>  -0.5700 
  2 C       -0.1350    -2.2450    -2.1850 C.2   1 <1>   0.5690 
  3 N        0.8290    -2.3200    -1.2000 N.am  1 <1>  -0.6600 
  4 C       -1.5850    -2.6720    -1.9540 C.3   1 <1>   0.1810 
  5 C        0.6250    -2.9380     0.1480 C.3   1 <1>   0.1400 
  6 C        2.1690    -1.6810    -1.4000 C.3   1 <1>   0.1400 
  7 O       -2.1000    -2.1270    -0.7490 O.3   1 <1>  -0.3630 
  8 C        1.7990    -3.8660     0.5250 C.3   1 <1>   0.3430 
  9 C        3.3070    -2.6450    -1.0280 C.3   1 <1>   0.3430 
 10 C       -3.3340    -2.4600    -0.2860 C.ar  1 <1>   0.0820 
 11 N        3.1380    -3.2020     0.3610 N.4   1 <1>  -0.9590 
 12 C       -3.7380    -1.9040     0.9250 C.ar  1 <1>  -0.1440 
 13 C       -4.1880    -3.3250    -0.9670 C.ar  1 <1>  -0.1500 
 14 C        4.2430    -4.1100     0.7370 C.3   1 <1>   0.4810 
 15 C       -4.9800    -2.2290     1.4460 C.ar  1 <1>  -0.1500 
 16 C       -2.8380    -0.9370     1.6810 C.3   1 <1>  -0.0970 
 17 C       -5.4260    -3.6400    -0.4370 C.ar  1 <1>  -0.1500 
 18 C        5.4560    -3.2480     0.9930 C.2   1 <1>  -0.2880 
 19 C       -5.8220    -3.0940     0.7700 C.ar  1 <1>  -0.1500 
 20 C        5.9390    -2.9380     2.2020 C.2   1 <1>  -0.3000 
 21 H       -1.6350    -3.7430    -1.8980 H     1 <1>   0.0800 
 22 H       -2.1960    -2.3190    -2.7650 H     1 <1>   0.0800 
 23 H       -0.2800    -3.5180     0.1680 H     1 <1>   0.0800 
 24 H        0.5260    -2.1570     0.8820 H     1 <1>   0.0800 
 25 H        2.2300    -0.7940    -0.7940 H     1 <1>   0.0800 
 26 H        2.2970    -1.3770    -2.4250 H     1 <1>   0.0800 
 27 H        1.7520    -4.7390    -0.1060 H     1 <1>   0.0800 
 28 H        1.6720    -4.1910     1.5450 H     1 <1>   0.0800 
 29 H        4.2450    -2.1200    -1.1040 H     1 <1>   0.0800 
 30 H        3.3190    -3.4500    -1.7450 H     1 <1>   0.0800 
 31 H        3.1930    -2.4120     1.0190 H     1 <1>   0.4500 
 32 H       -3.9190    -3.7610    -1.9090 H     1 <1>   0.1500 
 33 H        4.4380    -4.8340    -0.0390 H     1 <1>   0.0800 
 34 H        3.9900    -4.6360     1.6440 H     1 <1>   0.0800 
 35 H       -5.3030    -1.8080     2.3820 H     1 <1>   0.1500 
 36 H       -2.5410    -0.1320     1.0320 H     1 <1>   0.0800 
 37 H       -1.9590    -1.4490     2.0250 H     1 <1>   0.0800 
 38 H       -3.3470    -0.5170     2.5300 H     1 <1>   0.0800 
 39 H       -6.0850    -4.3090    -0.9630 H     1 <1>   0.1500 
 40 H        5.9260    -2.8980     0.0900 H     1 <1>   0.1500 
 41 H       -6.7850    -3.3400     1.1830 H     1 <1>   0.1500 
 42 H        6.8130    -2.3250     2.3580 H     1 <1>   0.1500 
 43 H        5.5210    -3.2630     3.1410 H     1 <1>   0.1500 
@<TRIPOS>BOND
  1   1   2  2   
  2   2   3  am  
  3   2   4  1   
  4   3   5  1   
  5   3   6  1   
  6   4   7  1   
  7   4  21  1   
  8   4  22  1   
  9   5   8  1   
 10   5  23  1   
 11   5  24  1   
 12   6   9  1   
 13   6  25  1   
 14   6  26  1   
 15   7  10  1   
 16   8  11  1   
 17   8  27  1   
 18   8  28  1   
 19   9  11  1   
 20   9  29  1   
 21   9  30  1   
 22  10  12  ar  
 23  10  13  ar  
 24  11  14  1   
 25  11  31  1   
 26  12  15  ar  
 27  12  16  1   
 28  13  17  ar  
 29  13  32  1   
 30  14  18  1   
 31  14  33  1   
 32  14  34  1   
 33  15  19  ar  
 34  15  35  1   
 35  16  36  1   
 36  16  37  1   
 37  16  38  1   
 38  17  19  ar  
 39  17  39  1   
 40  18  20  2   
 41  18  40  1   
 42  19  41  1   
 43  20  42  1   
 44  20  43  1   
@<TRIPOS>SUBSTRUCTURE
  1 ****   5 GROUP 4 **** **** 0

# MOE 2024.06 (io_trps.svl 2023.06)
