@<TRIPOS>MOLECULE
NONAME
52 56 1 0 0 
SMALL
USER_CHARGES


@<TRIPOS>ATOM
  1 O       -0.2520    -1.4780    -0.0270 O.3   1 <1>  -0.3630 
  2 C       -1.5830    -1.4670    -0.2890 C.ar  1 <1>   0.0830 
  3 C        0.6160    -2.4720    -0.5280 C.3   1 <1>   0.0400 
  4 C       -2.3300    -0.3730     0.2170 C.ar  1 <1>   0.0000 
  5 C       -2.2030    -2.4600    -1.0090 C.ar  1 <1>  -0.1500 
  6 C       -3.7200    -0.3050    -0.0440 C.ar  1 <1>   0.0000 
  7 C       -1.7370     0.6610     0.9750 C.ar  1 <1>  -0.1500 
  8 C       -3.5780    -2.4120    -1.2380 C.ar  1 <1>  -0.1500 
  9 C       -4.3260    -1.3690    -0.7590 C.ar  1 <1>  -0.1440 
 10 C       -4.4320     0.8270     0.4280 C.ar  1 <1>  -0.1500 
 11 C       -2.4580     1.7250     1.4350 C.ar  1 <1>  -0.1500 
 12 C       -5.8200    -1.3810    -0.9740 C.3   1 <1>   0.4860 
 13 C       -3.8220     1.8120     1.1520 C.ar  1 <1>  -0.1500 
 14 N       -6.4100    -1.7780     0.3180 N.4   1 <1>  -0.9060 
 15 C       -7.8890    -1.7780     0.5030 C.3   1 <1>   0.4230 
 16 C       -8.7070    -2.4660    -0.6160 C.3   1 <1>  -0.0800 
 17 C       -8.4750    -0.3800     0.7980 C.3   1 <1>  -0.0800 
 18 C       -8.8780    -1.5900    -1.8830 C.3   1 <1>  -0.1600 
 19 C      -10.1180    -2.7040    -0.0310 C.3   1 <1>  -0.1600 
 20 C       -8.6250     0.4890    -0.4730 C.3   1 <1>  -0.1600 
 21 C       -9.8860    -0.6130     1.3820 C.3   1 <1>  -0.1600 
 22 C       -9.5040    -0.2340    -1.5120 C.3   1 <1>  -0.0800 
 23 C      -10.7680    -1.3570     0.3560 C.3   1 <1>  -0.0800 
 24 C      -10.8950    -0.4840    -0.9040 C.3   1 <1>  -0.1600 
 25 H        1.6130    -2.2380    -0.2020 H     1 <1>   0.0800 
 26 H        0.5730    -2.4650    -1.6030 H     1 <1>   0.0800 
 27 H        0.3190    -3.4280    -0.1350 H     1 <1>   0.0800 
 28 H       -1.6570    -3.2950    -1.4080 H     1 <1>   0.1500 
 29 H       -0.6830     0.6040     1.1880 H     1 <1>   0.1500 
 30 H       -4.0190    -3.2200    -1.7980 H     1 <1>   0.1500 
 31 H       -5.4760     0.9440     0.2140 H     1 <1>   0.1500 
 32 H       -1.9870     2.5040     2.0100 H     1 <1>   0.1500 
 33 H       -6.0780    -2.0950    -1.7390 H     1 <1>   0.0800 
 34 H       -6.1540    -0.4060    -1.2800 H     1 <1>   0.0800 
 35 H       -4.3690     2.6680     1.5090 H     1 <1>   0.1500 
 36 H       -5.9820    -1.1770     1.0330 H     1 <1>   0.4500 
 37 H       -6.0530    -2.7170     0.5220 H     1 <1>   0.4500 
 38 H       -8.0710    -2.3560     1.3950 H     1 <1>   0.0800 
 39 H       -8.2730    -3.4180    -0.8690 H     1 <1>   0.0800 
 40 H       -7.8790     0.1300     1.5340 H     1 <1>   0.0800 
 41 H       -9.5290    -2.0960    -2.5780 H     1 <1>   0.0800 
 42 H       -7.9550    -1.4340    -2.4040 H     1 <1>   0.0800 
 43 H      -10.0620    -3.3420     0.8350 H     1 <1>   0.0800 
 44 H      -10.7370    -3.2080    -0.7550 H     1 <1>   0.0800 
 45 H       -7.6740     0.7360    -0.8990 H     1 <1>   0.0800 
 46 H       -9.0930     1.4230    -0.2100 H     1 <1>   0.0800 
 47 H       -9.8260    -1.1870     2.2910 H     1 <1>   0.0800 
 48 H      -10.3420     0.3300     1.6320 H     1 <1>   0.0800 
 49 H       -9.6050     0.3770    -2.3950 H     1 <1>   0.0800 
 50 H      -11.7470    -1.5310     0.7740 H     1 <1>   0.0800 
 51 H      -11.5290    -0.9740    -1.6250 H     1 <1>   0.0800 
 52 H      -11.3620     0.4540    -0.6550 H     1 <1>   0.0800 
@<TRIPOS>BOND
  1   1   2  1   
  2   1   3  1   
  3   2   4  ar  
  4   2   5  ar  
  5   3  25  1   
  6   3  26  1   
  7   3  27  1   
  8   4   6  ar  
  9   4   7  ar  
 10   5   8  ar  
 11   5  28  1   
 12   6   9  ar  
 13   6  10  ar  
 14   7  11  ar  
 15   7  29  1   
 16   8   9  ar  
 17   8  30  1   
 18   9  12  1   
 19  10  13  ar  
 20  10  31  1   
 21  11  13  ar  
 22  11  32  1   
 23  12  14  1   
 24  12  33  1   
 25  12  34  1   
 26  13  35  1   
 27  14  15  1   
 28  14  36  1   
 29  14  37  1   
 30  15  16  1   
 31  15  17  1   
 32  15  38  1   
 33  16  18  1   
 34  16  19  1   
 35  16  39  1   
 36  17  20  1   
 37  17  21  1   
 38  17  40  1   
 39  18  22  1   
 40  18  41  1   
 41  18  42  1   
 42  19  23  1   
 43  19  43  1   
 44  19  44  1   
 45  20  22  1   
 46  20  45  1   
 47  20  46  1   
 48  21  23  1   
 49  21  47  1   
 50  21  48  1   
 51  22  24  1   
 52  22  49  1   
 53  23  24  1   
 54  23  50  1   
 55  24  51  1   
 56  24  52  1   
@<TRIPOS>SUBSTRUCTURE
  1 ****  12 GROUP 4 **** **** 0

# MOE 2024.06 (io_trps.svl 2023.06)
