@<TRIPOS>MOLECULE
NONAME
48 50 1 0 0 
SMALL
USER_CHARGES


@<TRIPOS>ATOM
  1 CL      -7.5130    -0.1880    -4.3810 Cl    1 <1>  -0.1770 
  2 C       -7.0090     0.3610    -2.8030 C.ar  1 <1>   0.1770 
  3 C       -6.9800    -0.5340    -1.7520 C.ar  1 <1>  -0.1500 
  4 C       -6.6540     1.6840    -2.6300 C.ar  1 <1>  -0.1500 
  5 C       -6.5960    -0.1010    -0.4920 C.ar  1 <1>  -0.1440 
  6 C       -6.2660     2.1220    -1.3760 C.ar  1 <1>  -0.1500 
  7 C       -6.2410     1.2340    -0.2990 C.ar  1 <1>   0.0830 
  8 C       -6.5700    -1.0870     0.6690 C.3   1 <1>  -0.0960 
  9 O       -5.8910     1.6120     0.9610 O.3   1 <1>  -0.3630 
 10 C       -5.7480     2.9770     1.3340 C.3   1 <1>   0.1810 
 11 C       -7.0570     3.7470     1.1970 C.2   1 <1>   0.5690 
 12 O       -7.0040     4.9040     0.8560 O.2   1 <1>  -0.5700 
 13 N       -8.2270     3.0780     1.4360 N.am  1 <1>  -0.5470 
 14 C       -9.5700     3.4390     1.2570 C.ar  1 <1>   0.1170 
 15 C      -10.5230     2.4320     1.0340 C.ar  1 <1>   0.0860 
 16 C       -9.9850     4.7670     1.2990 C.ar  1 <1>  -0.1500 
 17 C      -10.1360     1.0390     0.9800 C.2   1 <1>   0.5440 
 18 C      -11.8590     2.7990     0.8630 C.ar  1 <1>  -0.1500 
 19 C      -11.3100     5.1090     1.1200 C.ar  1 <1>  -0.1500 
 20 O       -9.5290     0.5480     1.9160 O.2   1 <1>  -0.5700 
 21 N      -10.4160     0.2470    -0.1090 N.am  1 <1>  -0.6600 
 22 C      -12.2530     4.1210     0.9020 C.ar  1 <1>  -0.1500 
 23 C      -10.2760    -1.2370    -0.0600 C.3   1 <1>   0.1400 
 24 C      -10.6180     0.7740    -1.4920 C.3   1 <1>   0.1400 
 25 C      -11.3960    -1.9130    -0.8670 C.3   1 <1>   0.1200 
 26 C      -11.7150    -0.0190    -2.2210 C.3   1 <1>   0.1200 
 27 O      -11.4560    -1.3940    -2.1660 O.3   1 <1>  -0.5600 
 28 H       -7.2600    -1.5560    -1.9290 H     1 <1>   0.1500 
 29 H       -6.6810     2.3590    -3.4660 H     1 <1>   0.1500 
 30 H       -5.9900     3.1540    -1.2640 H     1 <1>   0.1500 
 31 H       -6.8340    -2.0770     0.3460 H     1 <1>   0.0800 
 32 H       -7.2650    -0.7770     1.4280 H     1 <1>   0.0800 
 33 H       -5.5840    -1.1190     1.0980 H     1 <1>   0.0800 
 34 H       -4.9820     3.4210     0.7270 H     1 <1>   0.0800 
 35 H       -5.4320     3.0010     2.3600 H     1 <1>   0.0800 
 36 H       -8.0960     2.0770     1.6470 H     1 <1>   0.3700 
 37 H       -9.2660     5.5470     1.4760 H     1 <1>   0.1500 
 38 H      -12.5920     2.0280     0.7010 H     1 <1>   0.1500 
 39 H      -11.6100     6.1430     1.1540 H     1 <1>   0.1500 
 40 H      -13.2880     4.3860     0.7670 H     1 <1>   0.1500 
 41 H      -10.3150    -1.5810     0.9590 H     1 <1>   0.0800 
 42 H       -9.3240    -1.5170    -0.4710 H     1 <1>   0.0800 
 43 H       -9.6980     0.6760    -2.0400 H     1 <1>   0.0800 
 44 H      -10.8790     1.8160    -1.4740 H     1 <1>   0.0800 
 45 H      -12.3490    -1.7610    -0.3900 H     1 <1>   0.0800 
 46 H      -11.2120    -2.9700    -0.9430 H     1 <1>   0.0800 
 47 H      -11.7510     0.2660    -3.2570 H     1 <1>   0.0800 
 48 H      -12.6770     0.1680    -1.7770 H     1 <1>   0.0800 
@<TRIPOS>BOND
  1   1   2  1   
  2   2   3  ar  
  3   2   4  ar  
  4   3   5  ar  
  5   3  28  1   
  6   4   6  ar  
  7   4  29  1   
  8   5   7  ar  
  9   5   8  1   
 10   6   7  ar  
 11   6  30  1   
 12   7   9  1   
 13   8  31  1   
 14   8  32  1   
 15   8  33  1   
 16   9  10  1   
 17  10  11  1   
 18  10  34  1   
 19  10  35  1   
 20  11  12  2   
 21  11  13  am  
 22  13  14  1   
 23  13  36  1   
 24  14  15  ar  
 25  14  16  ar  
 26  15  17  1   
 27  15  18  ar  
 28  16  19  ar  
 29  16  37  1   
 30  17  20  2   
 31  17  21  am  
 32  18  22  ar  
 33  18  38  1   
 34  19  22  ar  
 35  19  39  1   
 36  21  23  1   
 37  21  24  1   
 38  22  40  1   
 39  23  25  1   
 40  23  41  1   
 41  23  42  1   
 42  24  26  1   
 43  24  43  1   
 44  24  44  1   
 45  25  27  1   
 46  25  45  1   
 47  25  46  1   
 48  26  27  1   
 49  26  47  1   
 50  26  48  1   
@<TRIPOS>SUBSTRUCTURE
  1 ****  17 GROUP 4 **** **** 0

# MOE 2024.06 (io_trps.svl 2023.06)
