@<TRIPOS>MOLECULE
NONAME
43 45 1 0 0 
SMALL
USER_CHARGES


@<TRIPOS>ATOM
  1 O        0.0650     1.4600     0.5680 O.2   1 <1>  -0.5700 
  2 C        1.2290     1.7220     0.5120 C.2   1 <1>   0.4480 
  3 C        2.0920     1.4780    -0.7070 C.3   1 <1>  -0.0190 
  4 C        2.0160     2.3270     1.6540 C.3   1 <1>  -0.0190 
  5 C        2.6390     2.8320    -1.2110 C.3   1 <1>  -0.1600 
  6 C        3.1750     0.4380    -0.3440 C.3   1 <1>  -0.1600 
  7 C        2.5570     3.7060     1.2110 C.3   1 <1>  -0.1600 
  8 C        3.1000     1.3180     2.0950 C.3   1 <1>  -0.1600 
  9 C        3.3350     3.6970    -0.1290 C.3   1 <1>  -0.0190 
 10 C        3.9600     0.7310     0.9540 C.3   1 <1>  -0.1600 
 11 C        3.5830     5.1220    -0.6400 C.2   1 <1>   0.5690 
 12 O        2.6450     5.8540    -0.8310 O.2   1 <1>  -0.5700 
 13 N        4.8390     5.5980    -0.8670 N.am  1 <1>  -0.5470 
 14 C        6.0860     4.9820    -0.8100 C.ar  1 <1>   0.1170 
 15 C        6.3650     3.8280    -1.5310 C.ar  1 <1>  -0.1500 
 16 C        7.0970     5.5290    -0.0320 C.ar  1 <1>  -0.1500 
 17 C        7.6080     3.2330    -1.4570 C.ar  1 <1>  -0.1500 
 18 C        8.3420     4.9330     0.0370 C.ar  1 <1>  -0.1500 
 19 C        8.6380     3.7610    -0.6720 C.ar  1 <1>   0.0860 
 20 C        9.9270     3.1040    -0.6210 C.2   1 <1>   0.4230 
 21 O       10.1540     2.0600    -1.1780 O.2   1 <1>  -0.5700 
 22 C       11.0770     3.7170     0.1560 C.3   1 <1>  -0.1790 
 23 H        1.4700     1.0600    -1.4800 H     1 <1>   0.0800 
 24 H        1.3440     2.4820     2.4810 H     1 <1>   0.0800 
 25 H        3.3100     2.6680    -2.0360 H     1 <1>   0.0800 
 26 H        1.8020     3.3930    -1.5930 H     1 <1>   0.0800 
 27 H        3.8620     0.3190    -1.1650 H     1 <1>   0.0800 
 28 H        2.6760    -0.5070    -0.2130 H     1 <1>   0.0800 
 29 H        3.1770     4.1210     1.9860 H     1 <1>   0.0800 
 30 H        1.7070     4.3600     1.1020 H     1 <1>   0.0800 
 31 H        3.7380     1.7650     2.8380 H     1 <1>   0.0800 
 32 H        2.5920     0.4960     2.5720 H     1 <1>   0.0800 
 33 H        4.2930     3.2740     0.0710 H     1 <1>   0.0800 
 34 H        4.7850     1.3830     0.7430 H     1 <1>   0.0800 
 35 H        4.4060    -0.1870     1.2980 H     1 <1>   0.0800 
 36 H        4.8310     6.5940    -1.0930 H     1 <1>   0.3700 
 37 H        5.6060     3.3980    -2.1580 H     1 <1>   0.1500 
 38 H        6.9010     6.4270     0.5270 H     1 <1>   0.1500 
 39 H        7.7980     2.3360    -2.0230 H     1 <1>   0.1500 
 40 H        9.0910     5.3920     0.6560 H     1 <1>   0.1500 
 41 H       11.2800     4.7070    -0.2050 H     1 <1>   0.0800 
 42 H       11.9620     3.1190     0.0290 H     1 <1>   0.0800 
 43 H       10.8360     3.7510     1.2020 H     1 <1>   0.0800 
@<TRIPOS>BOND
  1   1   2  2   
  2   2   3  1   
  3   2   4  1   
  4   3   5  1   
  5   3   6  1   
  6   3  23  1   
  7   4   7  1   
  8   4   8  1   
  9   4  24  1   
 10   5   9  1   
 11   5  25  1   
 12   5  26  1   
 13   6  10  1   
 14   6  27  1   
 15   6  28  1   
 16   7   9  1   
 17   7  29  1   
 18   7  30  1   
 19   8  10  1   
 20   8  31  1   
 21   8  32  1   
 22   9  11  1   
 23   9  33  1   
 24  10  34  1   
 25  10  35  1   
 26  11  12  2   
 27  11  13  am  
 28  13  14  1   
 29  13  36  1   
 30  14  15  ar  
 31  14  16  ar  
 32  15  17  ar  
 33  15  37  1   
 34  16  18  ar  
 35  16  38  1   
 36  17  19  ar  
 37  17  39  1   
 38  18  19  ar  
 39  18  40  1   
 40  19  20  1   
 41  20  21  2   
 42  20  22  1   
 43  22  41  1   
 44  22  42  1   
 45  22  43  1   
@<TRIPOS>SUBSTRUCTURE
  1 ****   9 GROUP 4 **** **** 0

# MOE 2024.06 (io_trps.svl 2023.06)
