@<TRIPOS>MOLECULE
NONAME
37 38 1 0 0 
SMALL
USER_CHARGES


@<TRIPOS>ATOM
  1 S        0.3360     0.3790    -1.2050 S.o2  1 <1>   1.3330 
  2 O        0.2490    -0.8610    -1.9350 O.2   1 <1>  -0.6500 
  3 O        1.1420     1.4770    -1.6940 O.2   1 <1>  -0.6500 
  4 N        1.0110    -0.0520     0.3270 N.am  1 <1>  -0.6400 
  5 C       -1.3240     0.9760    -0.7890 C.3   1 <1>   0.0250 
  6 N        2.4230     0.3790     0.5150 N.am  1 <1>  -0.3480 
  7 C       -1.3030     2.2320     0.1110 C.3   1 <1>  -0.1600 
  8 C       -2.2130    -0.1130    -0.1480 C.3   1 <1>  -0.1600 
  9 C        3.4910    -0.4510     0.3500 C.2   1 <1>   0.5440 
 10 C       -2.7190     2.7500     0.4010 C.3   1 <1>  -0.1600 
 11 C       -3.6300     0.4040     0.1410 C.3   1 <1>  -0.1600 
 12 O        3.2980    -1.6580     0.3680 O.2   1 <1>  -0.5700 
 13 C        4.8210     0.0920     0.1600 C.ar  1 <1>   0.0860 
 14 C       -3.5920     1.6560     1.0260 C.3   1 <1>  -0.1600 
 15 C        5.0390     1.2370    -0.6090 C.ar  1 <1>  -0.1500 
 16 C        5.9330    -0.5140     0.7440 C.ar  1 <1>  -0.1500 
 17 C        6.3080     1.7640    -0.7690 C.ar  1 <1>  -0.1500 
 18 C        7.2040     0.0070     0.5860 C.ar  1 <1>  -0.1500 
 19 C        7.3930     1.1510    -0.1690 C.ar  1 <1>  -0.1500 
 20 H        1.0100    -1.0810     0.3060 H     1 <1>   0.4200 
 21 H       -1.7940     1.2600    -1.7120 H     1 <1>   0.0800 
 22 H        2.5820     1.3930     0.4760 H     1 <1>   0.3700 
 23 H       -0.7350     3.0090    -0.3710 H     1 <1>   0.0800 
 24 H       -0.8140     1.9980     1.0420 H     1 <1>   0.0800 
 25 H       -1.7660    -0.4470     0.7730 H     1 <1>   0.0800 
 26 H       -2.2750    -0.9610    -0.8090 H     1 <1>   0.0800 
 27 H       -3.1720     3.0890    -0.5150 H     1 <1>   0.0800 
 28 H       -2.6650     3.5920     1.0710 H     1 <1>   0.0800 
 29 H       -4.2020    -0.3650     0.6310 H     1 <1>   0.0800 
 30 H       -4.1230     0.6380    -0.7880 H     1 <1>   0.0800 
 31 H       -4.5920     2.0290     1.1650 H     1 <1>   0.0800 
 32 H       -3.2010     1.3960     1.9950 H     1 <1>   0.0800 
 33 H        4.2090     1.7180    -1.1000 H     1 <1>   0.1500 
 34 H        5.7920    -1.4080     1.3270 H     1 <1>   0.1500 
 35 H        6.4540     2.6490    -1.3660 H     1 <1>   0.1500 
 36 H        8.0470    -0.4770     1.0480 H     1 <1>   0.1500 
 37 H        8.3820     1.5590    -0.2940 H     1 <1>   0.1500 
@<TRIPOS>BOND
  1   1   2  2   
  2   1   3  2   
  3   1   4  am  
  4   1   5  1   
  5   4   6  1   
  6   4  20  1   
  7   5   7  1   
  8   5   8  1   
  9   5  21  1   
 10   6   9  am  
 11   6  22  1   
 12   7  10  1   
 13   7  23  1   
 14   7  24  1   
 15   8  11  1   
 16   8  25  1   
 17   8  26  1   
 18   9  12  2   
 19   9  13  1   
 20  10  14  1   
 21  10  27  1   
 22  10  28  1   
 23  11  14  1   
 24  11  29  1   
 25  11  30  1   
 26  13  15  ar  
 27  13  16  ar  
 28  14  31  1   
 29  14  32  1   
 30  15  17  ar  
 31  15  33  1   
 32  16  18  ar  
 33  16  34  1   
 34  17  19  ar  
 35  17  35  1   
 36  18  19  ar  
 37  18  36  1   
 38  19  37  1   
@<TRIPOS>SUBSTRUCTURE
  1 ****   6 GROUP 4 **** **** 0

# MOE 2024.06 (io_trps.svl 2023.06)
