@<TRIPOS>MOLECULE
NONAME
40 42 1 0 0 
SMALL
USER_CHARGES


@<TRIPOS>ATOM
  1 O        0.1510    -0.4130    -0.2290 O.2   1 <1>  -0.5700 
  2 C        0.0850    -1.6170    -0.1430 C.2   1 <1>   0.5690 
  3 N       -1.1180    -2.2610    -0.0710 N.am  1 <1>  -0.6600 
  4 C        1.3660    -2.4360    -0.1140 C.3   1 <1>  -0.0990 
  5 C       -1.3280    -3.7220     0.0240 C.3   1 <1>   0.1400 
  6 C       -2.4050    -1.5350    -0.0750 C.3   1 <1>   0.1400 
  7 C        2.6500    -1.5830    -0.0830 C.3   1 <1>  -0.0160 
  8 C       -2.8290    -3.9110    -0.1650 C.3   1 <1>  -0.1600 
  9 C       -3.4450    -2.5890     0.2870 C.3   1 <1>  -0.1600 
 10 C        3.9500    -2.3900    -0.0380 C.ar  1 <1>   0.1660 
 11 N        3.8810    -3.6890    -0.0410 N.ar  1 <1>  -0.6200 
 12 C        5.1830    -1.6730     0.0040 C.ar  1 <1>   0.3930 
 13 C        5.0840    -4.3180     0.0000 C.ar  1 <1>   0.3100 
 14 O        5.1230    -0.3230     0.0020 O.3   1 <1>  -0.3630 
 15 N        6.3540    -2.2460     0.0450 N.ar  1 <1>  -0.6200 
 16 C        6.3060    -3.6010     0.0430 C.ar  1 <1>   0.3100 
 17 C        5.1240    -5.7210     0.0010 C.ar  1 <1>  -0.1500 
 18 C        6.2920     0.4720     0.0410 C.3   1 <1>   0.0400 
 19 C        7.5080    -4.3250     0.0840 C.ar  1 <1>  -0.1500 
 20 C        6.3130    -6.4020     0.0420 C.ar  1 <1>  -0.1500 
 21 C        7.5180    -5.6960     0.0840 C.ar  1 <1>  -0.1500 
 22 H        1.3840    -3.0630    -0.9860 H     1 <1>   0.0800 
 23 H        1.3470    -3.0640     0.7570 H     1 <1>   0.0800 
 24 H       -1.0280    -4.0580     1.0020 H     1 <1>   0.0800 
 25 H       -0.7680    -4.2470    -0.7320 H     1 <1>   0.0800 
 26 H       -2.5830    -1.1460    -1.0630 H     1 <1>   0.0800 
 27 H       -2.3910    -0.7250     0.6340 H     1 <1>   0.0800 
 28 H        2.6170    -0.9410     0.7790 H     1 <1>   0.0800 
 29 H        2.6700    -0.9550    -0.9560 H     1 <1>   0.0800 
 30 H       -3.2010    -4.7500     0.3960 H     1 <1>   0.0800 
 31 H       -3.0320    -4.0690    -1.2100 H     1 <1>   0.0800 
 32 H       -4.3920    -2.3930    -0.1860 H     1 <1>   0.0800 
 33 H       -3.5800    -2.5930     1.3540 H     1 <1>   0.0800 
 34 H        4.1870    -6.2460    -0.0320 H     1 <1>   0.1500 
 35 H        5.9990     1.5060     0.0310 H     1 <1>   0.0800 
 36 H        6.8930     0.2480    -0.8230 H     1 <1>   0.0800 
 37 H        6.8340     0.2490     0.9430 H     1 <1>   0.0800 
 38 H        8.4250    -3.7660     0.1160 H     1 <1>   0.1500 
 39 H        6.3330    -7.4790     0.0420 H     1 <1>   0.1500 
 40 H        8.4470    -6.2400     0.1160 H     1 <1>   0.1500 
@<TRIPOS>BOND
  1   1   2  2   
  2   2   3  am  
  3   2   4  1   
  4   3   5  1   
  5   3   6  1   
  6   4   7  1   
  7   4  22  1   
  8   4  23  1   
  9   5   8  1   
 10   5  24  1   
 11   5  25  1   
 12   6   9  1   
 13   6  26  1   
 14   6  27  1   
 15   7  10  1   
 16   7  28  1   
 17   7  29  1   
 18   8   9  1   
 19   8  30  1   
 20   8  31  1   
 21   9  32  1   
 22   9  33  1   
 23  10  11  ar  
 24  10  12  ar  
 25  11  13  ar  
 26  12  14  1   
 27  12  15  ar  
 28  13  16  ar  
 29  13  17  ar  
 30  14  18  1   
 31  15  16  ar  
 32  16  19  ar  
 33  17  20  ar  
 34  17  34  1   
 35  18  35  1   
 36  18  36  1   
 37  18  37  1   
 38  19  21  ar  
 39  19  38  1   
 40  20  21  ar  
 41  20  39  1   
 42  21  40  1   
@<TRIPOS>SUBSTRUCTURE
  1 ****  10 GROUP 4 **** **** 0

# MOE 2024.06 (io_trps.svl 2023.06)
