@<TRIPOS>MOLECULE
NONAME
25 25 1 0 0 
SMALL
USER_CHARGES


@<TRIPOS>ATOM
  1 O       -2.0730     0.0430    -2.2610 O.2   1 <1>  -0.5700 
  2 C       -2.4110     0.7790    -1.3420 C.2   1 <1>   0.6250 
  3 O       -3.7190     0.6840    -1.0190 O.3   1 <1>  -0.2270 
  4 C       -1.5410     1.6190    -0.6040 C.3   1 <1>  -0.7150 
  5 C       -4.2320     1.2760     0.0640 C.2   1 <1>  -0.0620 
  6 C       -2.0860     2.2650     0.5230 C.2   1 <1>   0.4610 
  7 C       -0.2040     1.8010    -1.0090 C.2   1 <1>   0.4140 
  8 C       -3.4560     2.0490     0.8390 C.2   1 <1>  -0.1360 
  9 C       -5.7000     0.9800     0.2880 C.3   1 <1>  -0.1020 
 10 O       -1.4600     3.0410     1.2420 O.2   1 <1>  -0.5700 
 11 O        0.1420     1.8050    -2.1790 O.2   1 <1>  -0.5700 
 12 C        0.9180     2.0260     0.0020 C.3   1 <1>  -0.0990 
 13 C        2.2290     1.3040    -0.3590 C.3   1 <1>  -0.1600 
 14 C        3.3000     1.5070     0.7180 C.3   1 <1>  -0.2400 
 15 H       -3.8140     2.5470     1.7180 H     1 <1>   0.1500 
 16 H       -5.8420    -0.0790     0.4050 H     1 <1>   0.0800 
 17 H       -6.2690     1.3170    -0.5590 H     1 <1>   0.0800 
 18 H       -6.0560     1.4810     1.1700 H     1 <1>   0.0800 
 19 H        0.5930     1.6700     0.9620 H     1 <1>   0.0800 
 20 H        1.0900     3.0840     0.0750 H     1 <1>   0.0800 
 21 H        2.5910     1.6780    -1.3010 H     1 <1>   0.0800 
 22 H        2.0250     0.2540    -0.4780 H     1 <1>   0.0800 
 23 H        3.5170     2.5540     0.8340 H     1 <1>   0.0800 
 24 H        4.2030     0.9950     0.4390 H     1 <1>   0.0800 
 25 H        2.9580     1.1170     1.6610 H     1 <1>   0.0800 
@<TRIPOS>BOND
  1   1   2  2   
  2   2   3  1   
  3   2   4  1   
  4   3   5  1   
  5   4   6  1   
  6   4   7  1   
  7   5   8  2   
  8   5   9  1   
  9   6   8  1   
 10   6  10  2   
 11   7  11  2   
 12   7  12  1   
 13   8  15  1   
 14   9  16  1   
 15   9  17  1   
 16   9  18  1   
 17  12  13  1   
 18  12  19  1   
 19  12  20  1   
 20  13  14  1   
 21  13  21  1   
 22  13  22  1   
 23  14  23  1   
 24  14  24  1   
 25  14  25  1   
@<TRIPOS>SUBSTRUCTURE
  1 ****   4 GROUP 4 **** **** 0

# MOE 2024.06 (io_trps.svl 2023.06)
