@<TRIPOS>MOLECULE
NONAME
41 42 1 0 0 
SMALL
USER_CHARGES


@<TRIPOS>ATOM
  1 S        0.3830    -0.7300    -1.9990 S.o2  1 <1>   1.4470 
  2 O        1.6580    -1.2850    -2.3990 O.2   1 <1>  -0.6500 
  3 O       -0.2390     0.2960    -2.8060 O.2   1 <1>  -0.6500 
  4 N        0.5860    -0.1090    -0.4300 N.am  1 <1>  -0.8490 
  5 C       -0.8260    -2.0540    -1.7220 C.ar  1 <1>  -0.0090 
  6 C        1.4340    -0.9700     0.3960 C.3   1 <1>   0.1960 
  7 C        1.0590     1.2790    -0.4430 C.3   1 <1>   0.1960 
  8 C       -2.0950    -1.7570    -1.2480 C.ar  1 <1>  -0.1500 
  9 C       -0.5190    -3.3860    -1.9580 C.ar  1 <1>  -0.1500 
 10 C        1.1230    -0.7430     1.8740 C.3   1 <1>  -0.2400 
 11 C       -0.1280     2.2000    -0.1810 C.3   1 <1>  -0.2400 
 12 C       -3.0560    -2.7350    -0.9890 C.ar  1 <1>   0.0860 
 13 C       -1.4500    -4.3810    -1.7210 C.ar  1 <1>  -0.1500 
 14 C       -2.7090    -4.0680    -1.2380 C.ar  1 <1>  -0.1430 
 15 C       -4.3480    -2.3360    -0.4640 C.2   1 <1>   0.5440 
 16 C       -3.6990    -5.2000    -0.9880 C.3   1 <1>  -0.0970 
 17 O       -5.3760    -2.6790    -1.0060 O.2   1 <1>  -0.5700 
 18 N       -4.3810    -1.5580     0.6660 N.am  1 <1>  -0.4940 
 19 C       -5.4560    -1.0410     1.3590 C.2   1 <1>   0.4420 
 20 S       -5.0810    -0.0890     2.7590 S.3   1 <1>  -0.0800 
 21 N       -6.7220    -1.1330     1.1620 N.2   1 <1>  -0.3380 
 22 C       -6.7820     0.1220     2.9780 C.2   1 <1>   0.2280 
 23 N       -7.4740    -0.4660     2.0910 N.2   1 <1>  -0.3380 
 24 H        2.4760    -0.7860     0.1860 H     1 <1>   0.0800 
 25 H        1.2330    -2.0050     0.1710 H     1 <1>   0.0800 
 26 H        1.5190     1.5210    -1.3880 H     1 <1>   0.0800 
 27 H        1.7960     1.4450     0.3240 H     1 <1>   0.0800 
 28 H       -2.3420    -0.7210    -1.0820 H     1 <1>   0.1500 
 29 H        0.4570    -3.6490    -2.3330 H     1 <1>   0.1500 
 30 H        1.3750     0.2560     2.1780 H     1 <1>   0.0800 
 31 H        1.6980    -1.4280     2.4700 H     1 <1>   0.0800 
 32 H        0.0800    -0.9200     2.0630 H     1 <1>   0.0800 
 33 H       -0.8640     2.0970    -0.9590 H     1 <1>   0.0800 
 34 H        0.2050     3.2210    -0.1650 H     1 <1>   0.0800 
 35 H       -0.5750     1.9690     0.7690 H     1 <1>   0.0800 
 36 H       -1.1820    -5.4050    -1.9180 H     1 <1>   0.1500 
 37 H       -4.1160    -5.1250     0.0010 H     1 <1>   0.0800 
 38 H       -3.2280    -6.1610    -1.0820 H     1 <1>   0.0800 
 39 H       -4.5030    -5.1450    -1.7020 H     1 <1>   0.0800 
 40 H       -3.4730    -1.3400     1.0650 H     1 <1>   0.3700 
 41 H       -7.1160     0.7100     3.8140 H     1 <1>   0.1500 
@<TRIPOS>BOND
  1   1   2  2   
  2   1   3  2   
  3   1   4  am  
  4   1   5  1   
  5   4   6  1   
  6   4   7  1   
  7   5   8  ar  
  8   5   9  ar  
  9   6  10  1   
 10   6  24  1   
 11   6  25  1   
 12   7  11  1   
 13   7  26  1   
 14   7  27  1   
 15   8  12  ar  
 16   8  28  1   
 17   9  13  ar  
 18   9  29  1   
 19  10  30  1   
 20  10  31  1   
 21  10  32  1   
 22  11  33  1   
 23  11  34  1   
 24  11  35  1   
 25  12  14  ar  
 26  12  15  1   
 27  13  14  ar  
 28  13  36  1   
 29  14  16  1   
 30  15  17  2   
 31  15  18  am  
 32  16  37  1   
 33  16  38  1   
 34  16  39  1   
 35  18  19  1   
 36  18  40  1   
 37  19  20  1   
 38  19  21  2   
 39  20  22  1   
 40  21  23  1   
 41  22  23  2   
 42  22  41  1   
@<TRIPOS>SUBSTRUCTURE
  1 ****   8 GROUP 4 **** **** 0

# MOE 2024.06 (io_trps.svl 2023.06)
