@<TRIPOS>MOLECULE
NONAME
40 42 1 0 0 
SMALL
USER_CHARGES


@<TRIPOS>ATOM
  1 O       -0.6660    -0.3290     0.4440 O.3   1 <1>  -0.6800 
  2 C       -1.8940     0.2110     0.1620 C.3   1 <1>   0.2800 
  3 C       -1.7340     1.7260     0.0090 C.3   1 <1>  -0.1600 
  4 C       -2.4340    -0.4040    -1.1340 C.3   1 <1>  -0.1600 
  5 C       -2.8390    -0.1000     1.3300 C.3   1 <1>  -0.1600 
  6 C       -3.1090     2.3640    -0.2810 C.3   1 <1>   0.5030 
  7 C       -3.8120     0.2120    -1.4380 C.3   1 <1>  -0.0800 
  8 C       -4.2230     0.5110     1.0410 C.3   1 <1>  -0.0800 
  9 N       -2.9610     3.8450    -0.4620 N.4   1 <1>  -0.9590 
 10 C       -3.6640     1.7390    -1.5830 C.3   1 <1>  -0.1600 
 11 C       -4.0760     2.0380     0.8800 C.3   1 <1>  -0.1600 
 12 C       -4.7710    -0.0880    -0.2690 C.3   1 <1>  -0.1600 
 13 C       -2.2470     4.5780     0.6350 C.3   1 <1>   0.3430 
 14 C       -4.2130     4.5790    -0.8300 C.3   1 <1>   0.2630 
 15 C       -0.7910     4.8840     0.2180 C.3   1 <1>   0.1200 
 16 O       -0.6910     4.9560    -1.1760 O.3   1 <1>  -0.6800 
 17 H       -0.1420    -0.4310    -0.3720 H     1 <1>   0.4000 
 18 H       -1.0540     1.9360    -0.7970 H     1 <1>   0.0800 
 19 H       -1.3260     2.1000     0.9290 H     1 <1>   0.0800 
 20 H       -2.5330    -1.4700    -1.0190 H     1 <1>   0.0800 
 21 H       -1.7630    -0.2120    -1.9530 H     1 <1>   0.0800 
 22 H       -2.9320    -1.1670     1.4460 H     1 <1>   0.0800 
 23 H       -2.4420     0.3000     2.2460 H     1 <1>   0.0800 
 24 H       -4.2050    -0.2100    -2.3480 H     1 <1>   0.0800 
 25 H       -4.8950     0.2880     1.8540 H     1 <1>   0.0800 
 26 H       -2.2980     3.9710    -1.2530 H     1 <1>   0.4500 
 27 H       -4.6350     2.1360    -1.8170 H     1 <1>   0.0800 
 28 H       -3.0050     1.9540    -2.4060 H     1 <1>   0.0800 
 29 H       -5.0490     2.4520     0.6900 H     1 <1>   0.0800 
 30 H       -3.7100     2.4470     1.8040 H     1 <1>   0.0800 
 31 H       -4.8850    -1.1540    -0.1580 H     1 <1>   0.0800 
 32 H       -5.7470     0.3150    -0.4790 H     1 <1>   0.0800 
 33 H       -2.2610     4.0160     1.5530 H     1 <1>   0.0800 
 34 H       -2.7420     5.5170     0.8230 H     1 <1>   0.0800 
 35 H       -4.9410     4.5020    -0.0400 H     1 <1>   0.0800 
 36 H       -4.6370     4.1780    -1.7360 H     1 <1>   0.0800 
 37 H       -3.9950     5.6210    -0.9980 H     1 <1>   0.0800 
 38 H       -0.1280     4.1090     0.5620 H     1 <1>   0.0800 
 39 H       -0.4720     5.8220     0.6390 H     1 <1>   0.0800 
 40 H        0.2100     5.2440    -1.4470 H     1 <1>   0.4000 
@<TRIPOS>BOND
  1   1   2  1   
  2   1  17  1   
  3   2   3  1   
  4   2   4  1   
  5   2   5  1   
  6   3   6  1   
  7   3  18  1   
  8   3  19  1   
  9   4   7  1   
 10   4  20  1   
 11   4  21  1   
 12   5   8  1   
 13   5  22  1   
 14   5  23  1   
 15   6   9  1   
 16   6  10  1   
 17   6  11  1   
 18   7  10  1   
 19   7  12  1   
 20   7  24  1   
 21   8  11  1   
 22   8  12  1   
 23   8  25  1   
 24   9  13  1   
 25   9  14  1   
 26   9  26  1   
 27  10  27  1   
 28  10  28  1   
 29  11  29  1   
 30  11  30  1   
 31  12  31  1   
 32  12  32  1   
 33  13  15  1   
 34  13  33  1   
 35  13  34  1   
 36  14  35  1   
 37  14  36  1   
 38  14  37  1   
 39  15  16  1   
 40  15  38  1   
 41  15  39  1   
 42  16  40  1   
@<TRIPOS>SUBSTRUCTURE
  1 ****   6 GROUP 4 **** **** 0

# MOE 2024.06 (io_trps.svl 2023.06)
