@<TRIPOS>MOLECULE
NONAME
39 41 1 0 0 
SMALL
USER_CHARGES


@<TRIPOS>ATOM
  1 O        0.8280     5.4030    -1.3510 O.3   1 <1>  -0.6800 
  2 C        0.8900     5.5140     0.0280 C.3   1 <1>   0.2800 
  3 C        1.5440     4.2290     0.5810 C.3   1 <1>  -0.0800 
  4 C        1.7630     6.7410     0.3250 C.3   1 <1>  -0.1600 
  5 C       -0.5560     5.6610     0.5400 C.3   1 <1>  -0.1600 
  6 C        3.0880     4.2480     0.4250 C.3   1 <1>   0.5660 
  7 C        0.7950     2.9610     0.0840 C.3   1 <1>  -0.1600 
  8 C        3.1820     6.6230    -0.2560 C.3   1 <1>   0.3430 
  9 C       -1.2540     4.3160     0.8470 C.3   1 <1>  -0.1600 
 10 N        3.4970     5.2130    -0.6070 N.4   1 <1>  -0.9060 
 11 C        3.7370     2.9050     0.1210 C.ar  1 <1>  -0.1440 
 12 C       -0.7350     3.1500    -0.0080 C.3   1 <1>  -0.1600 
 13 C        4.2960     2.1860     1.1690 C.ar  1 <1>  -0.1500 
 14 C        3.8020     2.3780    -1.1660 C.ar  1 <1>  -0.1500 
 15 C        4.9080     0.9670     0.9390 C.ar  1 <1>  -0.1500 
 16 C        4.4150     1.1590    -1.3950 C.ar  1 <1>  -0.1500 
 17 C        4.9690     0.4530    -0.3430 C.ar  1 <1>  -0.1500 
 18 H        0.0280     4.8820    -1.5800 H     1 <1>   0.4000 
 19 H        1.3910     4.2450     1.6460 H     1 <1>   0.0800 
 20 H        1.8390     6.8700     1.3900 H     1 <1>   0.0800 
 21 H        1.2920     7.6290    -0.0600 H     1 <1>   0.0800 
 22 H       -1.1370     6.2240    -0.1710 H     1 <1>   0.0800 
 23 H       -0.5540     6.2310     1.4520 H     1 <1>   0.0800 
 24 H        3.4970     4.5880     1.3630 H     1 <1>   0.0800 
 25 H        1.0080     2.1460     0.7560 H     1 <1>   0.0800 
 26 H        1.1440     2.6680    -0.8900 H     1 <1>   0.0800 
 27 H        3.8980     7.0020     0.4570 H     1 <1>   0.0800 
 28 H        3.2460     7.2280    -1.1470 H     1 <1>   0.0800 
 29 H       -2.3170     4.4230     0.7110 H     1 <1>   0.0800 
 30 H       -1.0950     4.0680     1.8830 H     1 <1>   0.0800 
 31 H        2.8970     4.9920    -1.4170 H     1 <1>   0.4500 
 32 H        4.4760     5.0550    -0.8680 H     1 <1>   0.4500 
 33 H       -1.2250     2.2380     0.2930 H     1 <1>   0.0800 
 34 H       -1.0140     3.3250    -1.0340 H     1 <1>   0.0800 
 35 H        4.2630     2.5590     2.1790 H     1 <1>   0.1500 
 36 H        3.3730     2.8920    -2.0090 H     1 <1>   0.1500 
 37 H        5.3390     0.4130     1.7560 H     1 <1>   0.1500 
 38 H        4.4610     0.7520    -2.3920 H     1 <1>   0.1500 
 39 H        5.4460    -0.4960    -0.5220 H     1 <1>   0.1500 
@<TRIPOS>BOND
  1   1   2  1   
  2   1  18  1   
  3   2   3  1   
  4   2   4  1   
  5   2   5  1   
  6   3   6  1   
  7   3   7  1   
  8   3  19  1   
  9   4   8  1   
 10   4  20  1   
 11   4  21  1   
 12   5   9  1   
 13   5  22  1   
 14   5  23  1   
 15   6  10  1   
 16   6  11  1   
 17   6  24  1   
 18   7  12  1   
 19   7  25  1   
 20   7  26  1   
 21   8  10  1   
 22   8  27  1   
 23   8  28  1   
 24   9  12  1   
 25   9  29  1   
 26   9  30  1   
 27  10  31  1   
 28  10  32  1   
 29  11  13  ar  
 30  11  14  ar  
 31  12  33  1   
 32  12  34  1   
 33  13  15  ar  
 34  13  35  1   
 35  14  16  ar  
 36  14  36  1   
 37  15  17  ar  
 38  15  37  1   
 39  16  17  ar  
 40  16  38  1   
 41  17  39  1   
@<TRIPOS>SUBSTRUCTURE
  1 ****   6 GROUP 4 **** **** 0

# MOE 2024.06 (io_trps.svl 2023.06)
