@<TRIPOS>MOLECULE
NONAME
42 44 1 0 0 
SMALL
USER_CHARGES


@<TRIPOS>ATOM
  1 O        2.9670     1.5430    -0.1570 O.2   1 <1>  -0.5700 
  2 C        3.4900     0.4530    -0.2680 C.2   1 <1>   0.7060 
  3 O        4.5910     0.1980     0.4410 O.3   1 <1>  -0.2320 
  4 C        2.9860    -0.5720    -1.1210 C.2   1 <1>  -0.1360 
  5 C        5.2450    -0.9860     0.3780 C.ar  1 <1>   0.0830 
  6 C        3.5900    -1.7760    -1.2280 C.2   1 <1>  -0.1670 
  7 C        4.7760    -2.0170    -0.4520 C.ar  1 <1>   0.0280 
  8 C        6.3830    -1.1420     1.1520 C.ar  1 <1>  -0.1500 
  9 C        3.0380    -2.8590    -2.1450 C.3   1 <1>  -0.1020 
 10 C        5.5000    -3.2130    -0.4650 C.ar  1 <1>  -0.1500 
 11 C        7.0940    -2.3340     1.1100 C.ar  1 <1>   0.0830 
 12 C        6.6350    -3.3660     0.3030 C.ar  1 <1>  -0.1500 
 13 O        8.2330    -2.5710     1.8010 O.3   1 <1>  -0.3630 
 14 C        8.9260    -1.5620     2.5260 C.3   1 <1>   0.2610 
 15 C        9.3720    -0.3710     1.6490 C.2   1 <1>   0.5690 
 16 C       10.0980    -2.2380     3.2480 C.3   1 <1>  -0.2400 
 17 O        9.1540     0.7280     2.1080 O.2   1 <1>  -0.5700 
 18 N        9.9720    -0.5040     0.4140 N.am  1 <1>  -0.6600 
 19 C       10.1670     0.6750    -0.4820 C.3   1 <1>   0.1400 
 20 C       10.3070    -1.7840    -0.2810 C.3   1 <1>   0.1400 
 21 C        9.4110     0.4610    -1.8050 C.3   1 <1>   0.1200 
 22 C        9.5340    -1.8770    -1.6080 C.3   1 <1>   0.1200 
 23 O        9.7860    -0.7510    -2.4010 O.3   1 <1>  -0.5600 
 24 H        2.0980    -0.3150    -1.6670 H     1 <1>   0.1500 
 25 H        6.6870    -0.3190     1.7720 H     1 <1>   0.1500 
 26 H        2.7840    -3.7340    -1.5730 H     1 <1>   0.0800 
 27 H        3.7690    -3.1240    -2.8880 H     1 <1>   0.0800 
 28 H        2.1520    -2.5180    -2.6510 H     1 <1>   0.0800 
 29 H        5.1750    -4.0330    -1.0790 H     1 <1>   0.1500 
 30 H        7.1830    -4.2920     0.2850 H     1 <1>   0.1500 
 31 H        8.2440    -1.1910     3.2690 H     1 <1>   0.0800 
 32 H       10.8020    -2.6370     2.5420 H     1 <1>   0.0800 
 33 H        9.7350    -3.0270     3.8810 H     1 <1>   0.0800 
 34 H       10.6060    -1.5150     3.8610 H     1 <1>   0.0800 
 35 H       11.2160     0.7990    -0.6850 H     1 <1>   0.0800 
 36 H        9.8120     1.5770    -0.0160 H     1 <1>   0.0800 
 37 H       10.0850    -2.6390     0.3250 H     1 <1>   0.0800 
 38 H       11.3620    -1.8030    -0.4910 H     1 <1>   0.0800 
 39 H        9.6410     1.2520    -2.4960 H     1 <1>   0.0800 
 40 H        8.3490     0.4480    -1.6330 H     1 <1>   0.0800 
 41 H        8.4760    -1.9420    -1.4270 H     1 <1>   0.0800 
 42 H        9.8470    -2.7450    -2.1600 H     1 <1>   0.0800 
@<TRIPOS>BOND
  1   1   2  2   
  2   2   3  1   
  3   2   4  1   
  4   3   5  1   
  5   4   6  2   
  6   4  24  1   
  7   5   7  ar  
  8   5   8  ar  
  9   6   7  1   
 10   6   9  1   
 11   7  10  ar  
 12   8  11  ar  
 13   8  25  1   
 14   9  26  1   
 15   9  27  1   
 16   9  28  1   
 17  10  12  ar  
 18  10  29  1   
 19  11  12  ar  
 20  11  13  1   
 21  12  30  1   
 22  13  14  1   
 23  14  15  1   
 24  14  16  1   
 25  14  31  1   
 26  15  17  2   
 27  15  18  am  
 28  16  32  1   
 29  16  33  1   
 30  16  34  1   
 31  18  19  1   
 32  18  20  1   
 33  19  21  1   
 34  19  35  1   
 35  19  36  1   
 36  20  22  1   
 37  20  37  1   
 38  20  38  1   
 39  21  23  1   
 40  21  39  1   
 41  21  40  1   
 42  22  23  1   
 43  22  41  1   
 44  22  42  1   
@<TRIPOS>SUBSTRUCTURE
  1 ****   8 GROUP 4 **** **** 0

# MOE 2024.06 (io_trps.svl 2023.06)
