@<TRIPOS>MOLECULE
NONAME
46 47 1 0 0 
SMALL
USER_CHARGES


@<TRIPOS>ATOM
  1 O       -2.2050     2.1240     0.6660 O.3   1 <1>  -0.5600 
  2 C       -2.7770     2.7880    -0.4280 C.3   1 <1>   0.1200 
  3 C       -2.0610     0.7400     0.4870 C.3   1 <1>   0.1200 
  4 C       -4.1910     2.2390    -0.7310 C.3   1 <1>   0.3430 
  5 C       -3.4160     0.0730     0.1490 C.3   1 <1>   0.3430 
  6 N       -4.5360     1.0750     0.1610 N.4   1 <1>  -0.9590 
  7 C       -5.8620     0.4430    -0.1370 C.3   1 <1>   0.3430 
  8 C       -7.0430     1.3740     0.1550 C.3   1 <1>   0.1200 
  9 O       -8.2160     0.6740    -0.1800 O.3   1 <1>  -0.3630 
 10 C       -9.4400     1.2470    -0.0400 C.ar  1 <1>   0.0820 
 11 C       -9.6460     2.5230     0.4800 C.ar  1 <1>  -0.1500 
 12 C      -10.5290     0.4930    -0.4490 C.ar  1 <1>  -0.1500 
 13 C      -10.9320     3.0250     0.5820 C.ar  1 <1>  -0.1500 
 14 C      -11.8140     0.9970    -0.3460 C.ar  1 <1>  -0.1500 
 15 C      -12.0200     2.2720     0.1720 C.ar  1 <1>   0.0820 
 16 O      -13.2430     2.8460     0.3090 O.3   1 <1>  -0.3620 
 17 C      -14.4150     2.1640    -0.0760 C.3   1 <1>   0.1200 
 18 C      -15.6120     3.0730     0.2050 C.3   1 <1>  -0.1600 
 19 C      -16.9300     2.3950    -0.1910 C.3   1 <1>  -0.1600 
 20 C      -18.1250     3.3090     0.0920 C.3   1 <1>  -0.2400 
 21 H       -2.1300     2.6700    -1.2800 H     1 <1>   0.0800 
 22 H       -2.8280     3.8360    -0.1880 H     1 <1>   0.0800 
 23 H       -1.6650     0.3320     1.4010 H     1 <1>   0.0800 
 24 H       -1.3430     0.5650    -0.2960 H     1 <1>   0.0800 
 25 H       -4.2330     1.9380    -1.7650 H     1 <1>   0.0800 
 26 H       -4.9070     3.0330    -0.5970 H     1 <1>   0.0800 
 27 H       -3.6100    -0.7090     0.8660 H     1 <1>   0.0800 
 28 H       -3.3450    -0.3880    -0.8220 H     1 <1>   0.0800 
 29 H       -4.5300     1.4560     1.1200 H     1 <1>   0.4500 
 30 H       -5.9790    -0.4410     0.4690 H     1 <1>   0.0800 
 31 H       -5.8980     0.1500    -1.1730 H     1 <1>   0.0800 
 32 H       -7.0050     2.2600    -0.4530 H     1 <1>   0.0800 
 33 H       -7.0890     1.6210     1.2010 H     1 <1>   0.0800 
 34 H       -8.8350     3.1400     0.8120 H     1 <1>   0.1500 
 35 H      -10.3680    -0.4920    -0.8490 H     1 <1>   0.1500 
 36 H      -11.1050     4.0080     0.9820 H     1 <1>   0.1500 
 37 H      -12.6340     0.3860    -0.6730 H     1 <1>   0.1500 
 38 H      -14.4840     1.2570     0.4990 H     1 <1>   0.0800 
 39 H      -14.3470     1.9390    -1.1260 H     1 <1>   0.0800 
 40 H      -15.4960     3.9860    -0.3540 H     1 <1>   0.0800 
 41 H      -15.6320     3.3110     1.2540 H     1 <1>   0.0800 
 42 H      -17.0470     1.4790     0.3630 H     1 <1>   0.0800 
 43 H      -16.9110     2.1520    -1.2400 H     1 <1>   0.0800 
 44 H      -18.1760     3.5490     1.1390 H     1 <1>   0.0800 
 45 H      -19.0390     2.8190    -0.1920 H     1 <1>   0.0800 
 46 H      -18.0400     4.2240    -0.4690 H     1 <1>   0.0800 
@<TRIPOS>BOND
  1   1   2  1   
  2   1   3  1   
  3   2   4  1   
  4   2  21  1   
  5   2  22  1   
  6   3   5  1   
  7   3  23  1   
  8   3  24  1   
  9   4   6  1   
 10   4  25  1   
 11   4  26  1   
 12   5   6  1   
 13   5  27  1   
 14   5  28  1   
 15   6   7  1   
 16   6  29  1   
 17   7   8  1   
 18   7  30  1   
 19   7  31  1   
 20   8   9  1   
 21   8  32  1   
 22   8  33  1   
 23   9  10  1   
 24  10  11  ar  
 25  10  12  ar  
 26  11  13  ar  
 27  11  34  1   
 28  12  14  ar  
 29  12  35  1   
 30  13  15  ar  
 31  13  36  1   
 32  14  15  ar  
 33  14  37  1   
 34  15  16  1   
 35  16  17  1   
 36  17  18  1   
 37  17  38  1   
 38  17  39  1   
 39  18  19  1   
 40  18  40  1   
 41  18  41  1   
 42  19  20  1   
 43  19  42  1   
 44  19  43  1   
 45  20  44  1   
 46  20  45  1   
 47  20  46  1   
@<TRIPOS>SUBSTRUCTURE
  1 ****  10 GROUP 4 **** **** 0

# MOE 2024.06 (io_trps.svl 2023.06)
