@<TRIPOS>MOLECULE
NONAME
47 49 1 0 0 
SMALL
USER_CHARGES


@<TRIPOS>ATOM
  1 S        0.3290    -0.3390    -0.4140 S.o2  1 <1>   1.3330 
  2 O        0.1640    -1.1870     0.7440 O.2   1 <1>  -0.6500 
  3 O        0.7380    -0.9140    -1.6730 O.2   1 <1>  -0.6500 
  4 N        1.5080     0.8190    -0.0030 N.am  1 <1>  -0.8490 
  5 C       -1.1640     0.6220    -0.6970 C.3   1 <1>  -0.0550 
  6 C        1.7640     0.8810     1.4560 C.3   1 <1>   0.1960 
  7 C        2.7810     0.5890    -0.7300 C.3   1 <1>   0.1960 
  8 C       -1.6520     1.4440     0.5100 C.3   1 <1>  -0.1600 
  9 C        2.7650     2.0010     1.8390 C.3   1 <1>   0.3430 
 10 C        3.9190     1.5480    -0.3000 C.3   1 <1>   0.3430 
 11 C       -2.9610     2.1720     0.1900 C.3   1 <1>  -0.2400 
 12 N        3.4220     2.6180     0.6340 N.4   1 <1>  -0.9590 
 13 C        4.4410     3.6430     1.0020 C.3   1 <1>   0.3430 
 14 C        4.8120     4.5210    -0.2070 C.3   1 <1>  -0.0800 
 15 C        5.8050     5.7580     0.2680 C.3   1 <1>   0.0580 
 16 C        3.4670     5.2510    -0.9740 C.3   1 <1>  -0.1600 
 17 C        5.8390     7.3700     0.3250 C.2   1 <1>  -0.2880 
 18 C        4.7360     6.2000    -0.3960 C.3   1 <1>  -0.1600 
 19 C        3.7310     6.8830    -0.9440 C.3   1 <1>   0.0580 
 20 C        4.7530     7.9590    -0.3080 C.2   1 <1>  -0.2880 
 21 H       -1.9470    -0.0530    -0.9870 H     1 <1>   0.0800 
 22 H       -0.9970     1.2860    -1.5230 H     1 <1>   0.0800 
 23 H        2.1570    -0.0640     1.7950 H     1 <1>   0.0800 
 24 H        0.8410     1.0440     1.9870 H     1 <1>   0.0800 
 25 H        2.6120     0.7170    -1.7860 H     1 <1>   0.0800 
 26 H        3.1080    -0.4280    -0.5840 H     1 <1>   0.0800 
 27 H       -0.9050     2.1700     0.7800 H     1 <1>   0.0800 
 28 H       -1.8080     0.7880     1.3500 H     1 <1>   0.0800 
 29 H        3.5110     1.5860     2.4970 H     1 <1>   0.0800 
 30 H        2.2360     2.7620     2.3900 H     1 <1>   0.0800 
 31 H        4.3470     1.9920    -1.1830 H     1 <1>   0.0800 
 32 H        4.6930     0.9750     0.1830 H     1 <1>   0.0800 
 33 H       -2.8290     2.8480    -0.6370 H     1 <1>   0.0800 
 34 H       -3.2860     2.7400     1.0440 H     1 <1>   0.0800 
 35 H       -3.7340     1.4660    -0.0600 H     1 <1>   0.0800 
 36 H        2.6560     3.0800     0.1210 H     1 <1>   0.4500 
 37 H        5.3260     3.1660     1.3920 H     1 <1>   0.0800 
 38 H        4.0410     4.2830     1.7730 H     1 <1>   0.0800 
 39 H        5.3460     3.9050    -0.9170 H     1 <1>   0.0800 
 40 H        6.7250     5.5370    -0.2570 H     1 <1>   0.0800 
 41 H        2.5410     5.0320    -0.4640 H     1 <1>   0.0800 
 42 H        3.3680     4.9000    -1.9920 H     1 <1>   0.0800 
 43 H        6.6630     7.8520     0.8260 H     1 <1>   0.1500 
 44 H        5.3300     6.2190    -1.4030 H     1 <1>   0.0800 
 45 H        4.1480     6.2680     0.6710 H     1 <1>   0.0800 
 46 H        3.7490     7.1430    -1.9940 H     1 <1>   0.0800 
 47 H        4.5290     9.0080    -0.4200 H     1 <1>   0.1500 
@<TRIPOS>BOND
  1   1   2  2   
  2   1   3  2   
  3   1   4  am  
  4   1   5  1   
  5   4   6  1   
  6   4   7  1   
  7   5   8  1   
  8   5  21  1   
  9   5  22  1   
 10   6   9  1   
 11   6  23  1   
 12   6  24  1   
 13   7  10  1   
 14   7  25  1   
 15   7  26  1   
 16   8  11  1   
 17   8  27  1   
 18   8  28  1   
 19   9  12  1   
 20   9  29  1   
 21   9  30  1   
 22  10  12  1   
 23  10  31  1   
 24  10  32  1   
 25  11  33  1   
 26  11  34  1   
 27  11  35  1   
 28  12  13  1   
 29  12  36  1   
 30  13  14  1   
 31  13  37  1   
 32  13  38  1   
 33  14  15  1   
 34  14  16  1   
 35  14  39  1   
 36  15  17  1   
 37  15  18  1   
 38  15  40  1   
 39  16  19  1   
 40  16  41  1   
 41  16  42  1   
 42  17  20  2   
 43  17  43  1   
 44  18  19  1   
 45  18  44  1   
 46  18  45  1   
 47  19  20  1   
 48  19  46  1   
 49  20  47  1   
@<TRIPOS>SUBSTRUCTURE
  1 ****  12 GROUP 4 **** **** 0

# MOE 2024.06 (io_trps.svl 2023.06)
