@<TRIPOS>MOLECULE
NONAME
50 52 1 0 0 
SMALL
USER_CHARGES


@<TRIPOS>ATOM
  1 S       -0.6640    -0.1080    -1.9310 S.3   1 <1>  -0.0800 
  2 C        0.0900     1.1230    -0.9390 C.2   1 <1>   0.1040 
  3 C       -2.0000    -0.2860    -0.8130 C.2   1 <1>  -0.1400 
  4 N        1.2810     1.6980    -1.3540 N.am  1 <1>  -0.4940 
  5 C       -0.6570     1.3750     0.1820 C.2   1 <1>  -0.0860 
  6 C       -1.8520     0.5480     0.2360 C.2   1 <1>  -0.1810 
  7 C       -3.0360    -1.3150    -1.2240 C.3   1 <1>  -0.0600 
  8 C        2.1750     1.4330    -2.3570 C.2   1 <1>   0.5690 
  9 C       -0.2490     2.3520     1.1620 C.2   1 <1>   0.8060 
 10 C       -2.8420     0.6160     1.3940 C.3   1 <1>  -0.0590 
 11 O        2.0660     0.5390    -3.1600 O.2   1 <1>  -0.5700 
 12 C        3.3950     2.3550    -2.4380 C.3   1 <1>   0.1710 
 13 O        0.8890     2.7870     1.2300 O.2   1 <1>  -0.5700 
 14 O       -1.1450     2.8310     2.0360 O.3   1 <1>  -0.4300 
 15 N        3.5770     3.2330    -1.2430 N.3   1 <1>  -0.8100 
 16 C       -0.8060     3.8080     3.0030 C.3   1 <1>   0.0400 
 17 C        4.4630     4.3800    -1.5580 C.3   1 <1>   0.1100 
 18 C        4.1310     2.4790    -0.0850 C.3   1 <1>   0.1100 
 19 C        4.6710     5.3120    -0.3480 C.3   1 <1>   0.2090 
 20 C        4.3160     3.3760     1.1530 C.3   1 <1>   0.2090 
 21 N        5.1920     4.5410     0.8200 N.pl3 1 <1>  -0.8380 
 22 C        6.4920     4.6580     1.2640 C.ar  1 <1>   0.7200 
 23 N        7.1230     5.8010     0.9950 N.ar  1 <1>  -0.6200 
 24 N        7.0110     3.6190     1.9200 N.ar  1 <1>  -0.6200 
 25 C        8.3540     5.9060     1.4280 C.ar  1 <1>   0.1600 
 26 C        8.2450     3.7520     2.3400 C.ar  1 <1>   0.1600 
 27 C        8.9740     4.8930     2.1180 C.ar  1 <1>  -0.1500 
 28 H        1.6330     2.4620    -0.7580 H     1 <1>   0.3700 
 29 H       -2.5750    -2.2840    -1.2910 H     1 <1>   0.0800 
 30 H       -3.4370    -1.0580    -2.1880 H     1 <1>   0.0800 
 31 H       -3.8450    -1.3660    -0.5210 H     1 <1>   0.0800 
 32 H       -3.5970    -0.1410     1.3120 H     1 <1>   0.0800 
 33 H       -3.3300     1.5730     1.4060 H     1 <1>   0.0800 
 34 H       -2.3290     0.4690     2.3270 H     1 <1>   0.0800 
 35 H        3.2590     2.9680    -3.3100 H     1 <1>   0.0800 
 36 H        4.2750     1.7550    -2.5910 H     1 <1>   0.0800 
 37 H       -1.6840     4.0340     3.5810 H     1 <1>   0.0800 
 38 H       -0.4570     4.6920     2.4980 H     1 <1>   0.0800 
 39 H       -0.0330     3.4140     3.6410 H     1 <1>   0.0800 
 40 H        4.0320     4.9530    -2.3600 H     1 <1>   0.0800 
 41 H        5.4250     4.0200    -1.8820 H     1 <1>   0.0800 
 42 H        5.0880     2.0580    -0.3440 H     1 <1>   0.0800 
 43 H        3.4730     1.6700     0.1780 H     1 <1>   0.0800 
 44 H        3.7310     5.7610    -0.0800 H     1 <1>   0.0800 
 45 H        5.3420     6.1040    -0.6270 H     1 <1>   0.0800 
 46 H        4.7220     2.7960     1.9620 H     1 <1>   0.0800 
 47 H        3.3540     3.7390     1.4710 H     1 <1>   0.0800 
 48 H        8.8830     6.8220     1.2280 H     1 <1>   0.1500 
 49 H        8.6860     2.9280     2.8760 H     1 <1>   0.1500 
 50 H        9.9840     4.9910     2.4680 H     1 <1>   0.1500 
@<TRIPOS>BOND
  1   1   2  1   
  2   1   3  1   
  3   2   4  1   
  4   2   5  2   
  5   3   6  2   
  6   3   7  1   
  7   4   8  am  
  8   4  28  1   
  9   5   6  1   
 10   5   9  1   
 11   6  10  1   
 12   7  29  1   
 13   7  30  1   
 14   7  31  1   
 15   8  11  2   
 16   8  12  1   
 17   9  13  2   
 18   9  14  1   
 19  10  32  1   
 20  10  33  1   
 21  10  34  1   
 22  12  15  1   
 23  12  35  1   
 24  12  36  1   
 25  14  16  1   
 26  15  17  1   
 27  15  18  1   
 28  16  37  1   
 29  16  38  1   
 30  16  39  1   
 31  17  19  1   
 32  17  40  1   
 33  17  41  1   
 34  18  20  1   
 35  18  42  1   
 36  18  43  1   
 37  19  21  1   
 38  19  44  1   
 39  19  45  1   
 40  20  21  1   
 41  20  46  1   
 42  20  47  1   
 43  21  22  1   
 44  22  23  ar  
 45  22  24  ar  
 46  23  25  ar  
 47  24  26  ar  
 48  25  27  ar  
 49  25  48  1   
 50  26  27  ar  
 51  26  49  1   
 52  27  50  1   
@<TRIPOS>SUBSTRUCTURE
  1 ****  18 GROUP 4 **** **** 0

# MOE 2024.06 (io_trps.svl 2023.06)
