@<TRIPOS>MOLECULE
NONAME
56 58 1 0 0 
SMALL
USER_CHARGES


@<TRIPOS>ATOM
  1 O        0.0950    -0.0370     1.3870 O.2   1 <1>  -0.5700 
  2 C       -0.0130     1.1600     1.5320 C.2   1 <1>   0.5690 
  3 N        1.1060     1.9680     1.5310 N.am  1 <1>  -0.6600 
  4 C       -1.4470     1.6860     1.7400 C.3   1 <1>   0.2610 
  5 C        1.1300     3.4590     1.6910 C.3   1 <1>   0.1400 
  6 C        2.4630     1.4150     1.2080 C.3   1 <1>   0.1400 
  7 O       -1.7190     2.7890     0.8830 O.3   1 <1>  -0.3630 
  8 C       -1.7250     2.0920     3.1970 C.3   1 <1>  -0.2400 
  9 C        1.7310     4.1410     0.4490 C.3   1 <1>   0.2090 
 10 C        3.0740     2.1130    -0.0200 C.3   1 <1>   0.2090 
 11 C       -2.9710     3.1380     0.4910 C.ar  1 <1>   0.0820 
 12 N        3.0880     3.6000     0.1510 N.pl3 1 <1>  -0.8380 
 13 C       -4.1300     2.4640     0.8590 C.ar  1 <1>  -0.1500 
 14 C       -3.0750     4.2430    -0.3330 C.ar  1 <1>  -0.1500 
 15 C        3.8680     4.3420    -0.7140 C.ar  1 <1>   0.4100 
 16 C       -5.3610     2.9030     0.4040 C.ar  1 <1>  -0.1500 
 17 C       -4.3090     4.6780    -0.7840 C.ar  1 <1>  -0.1500 
 18 N        3.9930     3.8970    -1.9590 N.ar  1 <1>  -0.6200 
 19 C        4.4710     5.5110    -0.2580 C.ar  1 <1>  -0.1500 
 20 C       -5.4800     4.0150    -0.4240 C.ar  1 <1>  -0.1440 
 21 C        4.7340     4.6370    -2.7660 C.ar  1 <1>   0.1600 
 22 C        5.2390     6.2730    -1.1070 C.ar  1 <1>  -0.1500 
 23 C       -6.8800     4.4590    -0.9020 C.3   1 <1>   0.1430 
 24 C        5.3680     5.8120    -2.4020 C.ar  1 <1>  -0.1500 
 25 C       -7.7560     4.7960     0.3140 C.3   1 <1>  -0.2400 
 26 C       -6.8450     5.7020    -1.8070 C.3   1 <1>  -0.2400 
 27 C       -7.5320     3.3220    -1.7020 C.3   1 <1>  -0.2400 
 28 H       -2.1030     0.8850     1.4550 H     1 <1>   0.0800 
 29 H        1.7360     3.7060     2.5440 H     1 <1>   0.0800 
 30 H        0.1500     3.8570     1.8660 H     1 <1>   0.0800 
 31 H        2.4110     0.3580     1.0160 H     1 <1>   0.0800 
 32 H        3.1130     1.5630     2.0530 H     1 <1>   0.0800 
 33 H       -1.0640     2.8790     3.5080 H     1 <1>   0.0800 
 34 H       -1.5610     1.2450     3.8380 H     1 <1>   0.0800 
 35 H       -2.7410     2.4170     3.3180 H     1 <1>   0.0800 
 36 H        1.7920     5.2010     0.6170 H     1 <1>   0.0800 
 37 H        1.0860     3.9720    -0.3970 H     1 <1>   0.0800 
 38 H        2.5000     1.8590    -0.8940 H     1 <1>   0.0800 
 39 H        4.0800     1.7620    -0.1690 H     1 <1>   0.0800 
 40 H       -4.1040     1.6000     1.4930 H     1 <1>   0.1500 
 41 H       -2.1820     4.7650    -0.6230 H     1 <1>   0.1500 
 42 H       -6.2380     2.3600     0.7070 H     1 <1>   0.1500 
 43 H       -4.3260     5.5410    -1.4210 H     1 <1>   0.1500 
 44 H        4.3280     5.7980     0.7650 H     1 <1>   0.1500 
 45 H        4.8430     4.2870    -3.7770 H     1 <1>   0.1500 
 46 H        5.7170     7.1800    -0.7810 H     1 <1>   0.1500 
 47 H        5.9550     6.3570    -3.1190 H     1 <1>   0.1500 
 48 H       -7.8970     3.9370     0.9420 H     1 <1>   0.0800 
 49 H       -8.7240     5.1420     0.0000 H     1 <1>   0.0800 
 50 H       -7.2900     5.5690     0.8990 H     1 <1>   0.0800 
 51 H       -6.4190     6.5390    -1.2830 H     1 <1>   0.0800 
 52 H       -7.8390     5.9740    -2.1150 H     1 <1>   0.0800 
 53 H       -6.2650     5.5090    -2.6920 H     1 <1>   0.0800 
 54 H       -6.9080     3.0550    -2.5360 H     1 <1>   0.0800 
 55 H       -8.4940     3.6240    -2.0770 H     1 <1>   0.0800 
 56 H       -7.6720     2.4480    -1.0930 H     1 <1>   0.0800 
@<TRIPOS>BOND
  1   1   2  2   
  2   2   3  am  
  3   2   4  1   
  4   3   5  1   
  5   3   6  1   
  6   4   7  1   
  7   4   8  1   
  8   4  28  1   
  9   5   9  1   
 10   5  29  1   
 11   5  30  1   
 12   6  10  1   
 13   6  31  1   
 14   6  32  1   
 15   7  11  1   
 16   8  33  1   
 17   8  34  1   
 18   8  35  1   
 19   9  12  1   
 20   9  36  1   
 21   9  37  1   
 22  10  12  1   
 23  10  38  1   
 24  10  39  1   
 25  11  13  ar  
 26  11  14  ar  
 27  12  15  1   
 28  13  16  ar  
 29  13  40  1   
 30  14  17  ar  
 31  14  41  1   
 32  15  18  ar  
 33  15  19  ar  
 34  16  20  ar  
 35  16  42  1   
 36  17  20  ar  
 37  17  43  1   
 38  18  21  ar  
 39  19  22  ar  
 40  19  44  1   
 41  20  23  1   
 42  21  24  ar  
 43  21  45  1   
 44  22  24  ar  
 45  22  46  1   
 46  23  25  1   
 47  23  26  1   
 48  23  27  1   
 49  24  47  1   
 50  25  48  1   
 51  25  49  1   
 52  25  50  1   
 53  26  51  1   
 54  26  52  1   
 55  26  53  1   
 56  27  54  1   
 57  27  55  1   
 58  27  56  1   
@<TRIPOS>SUBSTRUCTURE
  1 ****   7 GROUP 4 **** **** 0

# MOE 2024.06 (io_trps.svl 2023.06)
