@<TRIPOS>MOLECULE
NONAME
28 32 1 0 0 
SMALL
USER_CHARGES


@<TRIPOS>ATOM
  1 O       -0.1430     0.1490    -0.0530 O.2   1 <1>  -0.5700 
  2 C        0.0400     1.3150     0.1860 C.2   1 <1>   0.6670 
  3 O       -0.9420     2.1200     0.5770 O.3   1 <1>  -0.4300 
  4 C        1.4080     1.9540     0.0600 C.3   1 <1>   0.0530 
  5 C       -2.2650     1.6510     0.7350 C.3   1 <1>   0.0400 
  6 C        1.7410     3.1470    -0.8820 C.3   1 <1>   0.0000 
  7 C        2.1700     2.6470     1.2270 C.3   1 <1>   0.0000 
  8 C        2.7140     1.2270    -0.3790 C.3   1 <1>   0.0000 
  9 C        2.5110     3.8440     0.2840 C.3   1 <1>   0.0000 
 10 C        3.0540     2.4250    -1.3210 C.3   1 <1>   0.0000 
 11 C        3.4830     1.9240     0.7880 C.3   1 <1>   0.0000 
 12 C        3.8160     3.1170    -0.1540 C.3   1 <1>   0.0530 
 13 C        5.1850     3.7570    -0.2810 C.2   1 <1>   0.6670 
 14 O        5.3680     4.9220    -0.0410 O.2   1 <1>  -0.5700 
 15 O        6.1660     2.9520    -0.6720 O.3   1 <1>  -0.4300 
 16 C        7.4890     3.4200    -0.8300 C.3   1 <1>   0.0400 
 17 H       -2.8820     2.4720     1.0550 H     1 <1>   0.0800 
 18 H       -2.2710     0.8700     1.4750 H     1 <1>   0.0800 
 19 H       -2.6140     1.2700    -0.2090 H     1 <1>   0.0800 
 20 H        1.0430     3.6280    -1.5440 H     1 <1>   0.0000 
 21 H        1.8120     2.7300     2.2370 H     1 <1>   0.0000 
 22 H        2.7900     0.1870    -0.6410 H     1 <1>   0.0000 
 23 H        2.4350     4.8840     0.5460 H     1 <1>   0.0000 
 24 H        3.4120     2.3410    -2.3320 H     1 <1>   0.0000 
 25 H        4.1810     1.4440     1.4500 H     1 <1>   0.0000 
 26 H        8.1060     2.6000    -1.1500 H     1 <1>   0.0800 
 27 H        7.8390     3.8010     0.1140 H     1 <1>   0.0800 
 28 H        7.4960     4.2010    -1.5700 H     1 <1>   0.0800 
@<TRIPOS>BOND
  1   1   2  2   
  2   2   3  1   
  3   2   4  1   
  4   3   5  1   
  5   4   6  1   
  6   4   7  1   
  7   4   8  1   
  8   5  17  1   
  9   5  18  1   
 10   5  19  1   
 11   6   9  1   
 12   6  10  1   
 13   6  20  1   
 14   7   9  1   
 15   7  11  1   
 16   7  21  1   
 17   8  10  1   
 18   8  11  1   
 19   8  22  1   
 20   9  12  1   
 21   9  23  1   
 22  10  12  1   
 23  10  24  1   
 24  11  12  1   
 25  11  25  1   
 26  12  13  1   
 27  13  14  2   
 28  13  15  1   
 29  15  16  1   
 30  16  26  1   
 31  16  27  1   
 32  16  28  1   
@<TRIPOS>SUBSTRUCTURE
  1 ****  12 GROUP 4 **** **** 0

# MOE 2024.06 (io_trps.svl 2023.06)
