@<TRIPOS>MOLECULE
NONAME
59 62 1 0 0 
SMALL
USER_CHARGES


@<TRIPOS>ATOM
  1 O       -0.8360     0.5490    -1.2300 O.2   1 <1>  -0.5700 
  2 C       -1.1720     1.5340    -0.6000 C.2   1 <1>   0.7800 
  3 O       -0.3350     2.0550     0.2980 O.3   1 <1>  -0.4300 
  4 N       -2.3860     2.1460    -0.7780 N.am  1 <1>  -0.6600 
  5 C        0.9300     1.4800     0.5280 C.3   1 <1>   0.1200 
  6 C       -3.3630     1.6520    -1.7870 C.3   1 <1>   0.1400 
  7 C       -2.7910     3.3730    -0.0340 C.3   1 <1>   0.1400 
  8 C        1.6350     2.3000     1.6040 C.3   1 <1>  -0.2400 
  9 C       -4.7310     1.4450    -1.1330 C.3   1 <1>  -0.1600 
 10 C       -4.1600     3.1610     0.6120 C.3   1 <1>  -0.1600 
 11 C       -5.1840     2.7240    -0.4340 C.3   1 <1>   0.2890 
 12 N       -6.4740     2.4900     0.2280 N.pl3 1 <1>  -0.8690 
 13 C       -7.5060     3.3660     0.2340 C.ar  1 <1>   0.7200 
 14 N       -8.6640     2.8400     0.4910 N.ar  1 <1>  -0.6200 
 15 N       -7.2470     4.6190    -0.0130 N.ar  1 <1>  -0.6200 
 16 C       -9.6430     3.7090     0.4880 C.ar  1 <1>   0.7200 
 17 C       -8.3050     5.3850     0.0170 C.ar  1 <1>   0.7200 
 18 N       -9.5280     4.9920     0.2580 N.ar  1 <1>  -0.6200 
 19 N      -10.9050     3.2330     0.7540 N.pl3 1 <1>  -0.8380 
 20 N       -8.1100     6.7230    -0.2350 N.pl3 1 <1>  -0.8380 
 21 C      -12.1210     4.0690     0.6880 C.3   1 <1>   0.2090 
 22 C      -11.2390     1.7980     0.8720 C.3   1 <1>   0.2090 
 23 C       -9.1520     7.7510    -0.0270 C.3   1 <1>   0.2090 
 24 C       -6.7730     7.3340    -0.3800 C.3   1 <1>   0.2090 
 25 C      -13.2580     3.1170     1.0420 C.3   1 <1>  -0.1600 
 26 C      -12.7450     1.7350     0.6430 C.3   1 <1>  -0.1600 
 27 C       -8.3780     9.0500     0.1690 C.3   1 <1>  -0.1600 
 28 C       -7.0470     8.8230    -0.5430 C.3   1 <1>  -0.1600 
 29 H        1.4840     1.4940    -0.3950 H     1 <1>   0.0800 
 30 H        0.7880     0.4610     0.8490 H     1 <1>   0.0800 
 31 H       -3.0280     0.7220    -2.2160 H     1 <1>   0.0800 
 32 H       -3.4410     2.3750    -2.5800 H     1 <1>   0.0800 
 33 H       -2.8370     4.1980    -0.7240 H     1 <1>   0.0800 
 34 H       -2.0740     3.6170     0.7300 H     1 <1>   0.0800 
 35 H        1.7580     3.3160     1.2730 H     1 <1>   0.0800 
 36 H        2.6070     1.8830     1.7990 H     1 <1>   0.0800 
 37 H        1.0650     2.2830     2.5150 H     1 <1>   0.0800 
 38 H       -4.6580     0.6400    -0.4240 H     1 <1>   0.0800 
 39 H       -5.4460     1.1760    -1.8900 H     1 <1>   0.0800 
 40 H       -4.4850     4.0810     1.0630 H     1 <1>   0.0800 
 41 H       -4.0770     2.4150     1.3810 H     1 <1>   0.0800 
 42 H       -5.2910     3.5040    -1.1710 H     1 <1>   0.0800 
 43 H       -6.7570     1.5230     0.3610 H     1 <1>   0.4000 
 44 H      -12.2360     4.4450    -0.3140 H     1 <1>   0.0800 
 45 H      -12.0590     4.8910     1.3810 H     1 <1>   0.0800 
 46 H      -10.9890     1.4630     1.8630 H     1 <1>   0.0800 
 47 H      -10.7050     1.2120     0.1430 H     1 <1>   0.0800 
 48 H       -9.7610     7.5240     0.8320 H     1 <1>   0.0800 
 49 H       -9.7700     7.8040    -0.9070 H     1 <1>   0.0800 
 50 H       -6.2570     6.9270    -1.2340 H     1 <1>   0.0800 
 51 H       -6.2010     7.1480     0.5130 H     1 <1>   0.0800 
 52 H      -14.1700     3.3800     0.5360 H     1 <1>   0.0800 
 53 H      -13.4210     3.1540     2.1040 H     1 <1>   0.0800 
 54 H      -13.2020     0.9460     1.2130 H     1 <1>   0.0800 
 55 H      -12.9280     1.5660    -0.4030 H     1 <1>   0.0800 
 56 H       -8.2090     9.1950     1.2220 H     1 <1>   0.0800 
 57 H       -8.9160     9.8960    -0.2200 H     1 <1>   0.0800 
 58 H       -7.1520     9.0430    -1.5910 H     1 <1>   0.0800 
 59 H       -6.2530     9.4220    -0.1350 H     1 <1>   0.0800 
@<TRIPOS>BOND
  1   1   2  2   
  2   2   3  1   
  3   2   4  am  
  4   3   5  1   
  5   4   6  1   
  6   4   7  1   
  7   5   8  1   
  8   5  29  1   
  9   5  30  1   
 10   6   9  1   
 11   6  31  1   
 12   6  32  1   
 13   7  10  1   
 14   7  33  1   
 15   7  34  1   
 16   8  35  1   
 17   8  36  1   
 18   8  37  1   
 19   9  11  1   
 20   9  38  1   
 21   9  39  1   
 22  10  11  1   
 23  10  40  1   
 24  10  41  1   
 25  11  12  1   
 26  11  42  1   
 27  12  13  1   
 28  12  43  1   
 29  13  14  ar  
 30  13  15  ar  
 31  14  16  ar  
 32  15  17  ar  
 33  16  18  ar  
 34  16  19  1   
 35  17  18  ar  
 36  17  20  1   
 37  19  21  1   
 38  19  22  1   
 39  20  23  1   
 40  20  24  1   
 41  21  25  1   
 42  21  44  1   
 43  21  45  1   
 44  22  26  1   
 45  22  46  1   
 46  22  47  1   
 47  23  27  1   
 48  23  48  1   
 49  23  49  1   
 50  24  28  1   
 51  24  50  1   
 52  24  51  1   
 53  25  26  1   
 54  25  52  1   
 55  25  53  1   
 56  26  54  1   
 57  26  55  1   
 58  27  28  1   
 59  27  56  1   
 60  27  57  1   
 61  28  58  1   
 62  28  59  1   
@<TRIPOS>SUBSTRUCTURE
  1 ****  13 GROUP 4 **** **** 0

# MOE 2024.06 (io_trps.svl 2023.06)
