@<TRIPOS>MOLECULE
NONAME
49 52 1 0 0 
SMALL
USER_CHARGES


@<TRIPOS>ATOM
  1 CL       3.6710    -0.6670    -4.2930 Cl    1 <1>  -0.1770 
  2 C        4.4580     0.2460    -3.0280 C.ar  1 <1>   0.1770 
  3 C        5.8350     0.2080    -2.8960 C.ar  1 <1>   0.1600 
  4 C        3.7020     1.0050    -2.1620 C.ar  1 <1>  -0.1500 
  5 N        6.5180     0.8660    -1.9660 N.ar  1 <1>  -0.6200 
  6 C        4.3990     1.6960    -1.1950 C.ar  1 <1>  -0.1500 
  7 C        5.7910     1.5990    -1.1310 C.ar  1 <1>   0.4270 
  8 N        6.5590     2.2580    -0.2020 N.am  1 <1>  -0.5470 
  9 C        6.2810     2.8220     1.0050 C.2   1 <1>   0.5690 
 10 O        5.1720     2.9130     1.4690 O.2   1 <1>  -0.5700 
 11 C        7.4780     3.3200     1.8200 C.3   1 <1>   0.1710 
 12 N        8.7000     2.4670     1.6680 N.3   1 <1>  -0.8100 
 13 C        9.9000     3.1260     2.2400 C.3   1 <1>   0.1100 
 14 C        8.5070     1.1270     2.2880 C.3   1 <1>   0.1100 
 15 C       11.1730     2.2500     2.1140 C.3   1 <1>   0.3430 
 16 C        9.7540     0.2180     2.1410 C.3   1 <1>   0.3430 
 17 N       10.8660     0.9400     1.4450 N.4   1 <1>  -0.9590 
 18 C       12.0630     0.1070     1.1680 C.3   1 <1>   0.4860 
 19 C       12.9780     0.8890     0.2460 C.ar  1 <1>  -0.1430 
 20 C       12.5820     1.1430    -1.0660 C.ar  1 <1>  -0.1500 
 21 C       14.2060     1.3660     0.7100 C.ar  1 <1>  -0.1500 
 22 C       13.4250     1.8850    -1.8670 C.ar  1 <1>   0.0830 
 23 C       15.0410     2.1070    -0.1170 C.ar  1 <1>  -0.1500 
 24 O       13.2390     2.2540    -3.1370 O.3   1 <1>  -0.3630 
 25 C       14.6190     2.3550    -1.4080 C.ar  1 <1>   0.0830 
 26 C       14.3970     2.9970    -3.5190 C.3   1 <1>   0.4000 
 27 O       15.2430     3.0410    -2.3700 O.3   1 <1>  -0.3620 
 28 H        6.3940    -0.3930    -3.5910 H     1 <1>   0.1500 
 29 H        2.6310     1.0510    -2.2460 H     1 <1>   0.1500 
 30 H        3.8680     2.3110    -0.4930 H     1 <1>   0.1500 
 31 H        7.5520     2.1880    -0.4080 H     1 <1>   0.3700 
 32 H        7.1910     3.3760     2.8560 H     1 <1>   0.0800 
 33 H        7.6960     4.3190     1.4850 H     1 <1>   0.0800 
 34 H        9.7330     3.3550     3.2800 H     1 <1>   0.0800 
 35 H       10.0730     4.0580     1.7290 H     1 <1>   0.0800 
 36 H        7.6680     0.6290     1.8310 H     1 <1>   0.0800 
 37 H        8.2770     1.2390     3.3350 H     1 <1>   0.0800 
 38 H       11.5840     2.0780     3.0950 H     1 <1>   0.0800 
 39 H       11.9090     2.7910     1.5420 H     1 <1>   0.0800 
 40 H        9.4780    -0.6600     1.5800 H     1 <1>   0.0800 
 41 H       10.0740    -0.1030     3.1180 H     1 <1>   0.0800 
 42 H       10.4660     1.2270     0.5400 H     1 <1>   0.4500 
 43 H       11.7740    -0.8130     0.6860 H     1 <1>   0.0800 
 44 H       12.5760    -0.1310     2.0860 H     1 <1>   0.0800 
 45 H       11.6540     0.7860    -1.4770 H     1 <1>   0.1500 
 46 H       14.5300     1.1660     1.7180 H     1 <1>   0.1500 
 47 H       15.9920     2.4820     0.2200 H     1 <1>   0.1500 
 48 H       14.1100     3.9960    -3.7960 H     1 <1>   0.0800 
 49 H       14.9030     2.4900    -4.3210 H     1 <1>   0.0800 
@<TRIPOS>BOND
  1   1   2  1   
  2   2   3  ar  
  3   2   4  ar  
  4   3   5  ar  
  5   3  28  1   
  6   4   6  ar  
  7   4  29  1   
  8   5   7  ar  
  9   6   7  ar  
 10   6  30  1   
 11   7   8  1   
 12   8   9  am  
 13   8  31  1   
 14   9  10  2   
 15   9  11  1   
 16  11  12  1   
 17  11  32  1   
 18  11  33  1   
 19  12  13  1   
 20  12  14  1   
 21  13  15  1   
 22  13  34  1   
 23  13  35  1   
 24  14  16  1   
 25  14  36  1   
 26  14  37  1   
 27  15  17  1   
 28  15  38  1   
 29  15  39  1   
 30  16  17  1   
 31  16  40  1   
 32  16  41  1   
 33  17  18  1   
 34  17  42  1   
 35  18  19  1   
 36  18  43  1   
 37  18  44  1   
 38  19  20  ar  
 39  19  21  ar  
 40  20  22  ar  
 41  20  45  1   
 42  21  23  ar  
 43  21  46  1   
 44  22  24  1   
 45  22  25  ar  
 46  23  25  ar  
 47  23  47  1   
 48  24  26  1   
 49  25  27  1   
 50  26  27  1   
 51  26  48  1   
 52  26  49  1   
@<TRIPOS>SUBSTRUCTURE
  1 ****  12 GROUP 4 **** **** 0

# MOE 2024.06 (io_trps.svl 2023.06)
