@<TRIPOS>MOLECULE
NONAME
43 44 1 0 0 
SMALL
USER_CHARGES


@<TRIPOS>ATOM
  1 N       -0.1840     0.1630     0.1270 N.4   1 <1>  -0.9590 
  2 C        1.1780     0.7570     0.4080 C.3   1 <1>   0.4230 
  3 C       -1.3490     1.0960     0.4140 C.3   1 <1>   0.3430 
  4 C       -0.3360    -1.0950     0.9200 C.3   1 <1>   0.3430 
  5 C        1.2460     2.2580     0.0540 C.3   1 <1>  -0.1600 
  6 C        2.2210    -0.0790    -0.3630 C.3   1 <1>  -0.1600 
  7 C       -2.7520     0.6490    -0.0970 C.3   1 <1>   0.3430 
  8 C       -1.0810    -2.1790     0.1390 C.3   1 <1>  -0.1600 
  9 C        2.6190     2.9310     0.2340 C.3   1 <1>  -0.1600 
 10 C        3.6440     0.1180     0.1800 C.3   1 <1>  -0.1600 
 11 N       -3.1620    -0.7850     0.1650 N.4   1 <1>  -0.9590 
 12 C       -2.3470    -1.7630    -0.6120 C.3   1 <1>   0.3430 
 13 C        3.6390     2.5200    -0.8340 C.3   1 <1>  -0.1600 
 14 C        4.4290     1.2460    -0.5020 C.3   1 <1>  -0.1600 
 15 C       -4.6080    -0.9560    -0.2100 C.3   1 <1>   0.2630 
 16 H       -0.1490    -0.0590    -0.8770 H     1 <1>   0.4500 
 17 H        1.3860     0.6650     1.4630 H     1 <1>   0.0800 
 18 H       -1.1570     2.0550    -0.0370 H     1 <1>   0.0800 
 19 H       -1.4090     1.2630     1.4770 H     1 <1>   0.0800 
 20 H       -0.8600    -0.8810     1.8380 H     1 <1>   0.0800 
 21 H        0.6320    -1.4830     1.1970 H     1 <1>   0.0800 
 22 H        0.5860     2.8000     0.7060 H     1 <1>   0.0800 
 23 H        0.9250     2.4120    -0.9620 H     1 <1>   0.0800 
 24 H        2.1960     0.1500    -1.4140 H     1 <1>   0.0800 
 25 H        2.0100    -1.1270    -0.2620 H     1 <1>   0.0800 
 26 H       -2.7930     0.8310    -1.1590 H     1 <1>   0.0800 
 27 H       -3.4820     1.3050     0.3510 H     1 <1>   0.0800 
 28 H       -1.3390    -2.9630     0.8290 H     1 <1>   0.0800 
 29 H       -0.4020    -2.6240    -0.5680 H     1 <1>   0.0800 
 30 H        3.0140     2.7570     1.2220 H     1 <1>   0.0800 
 31 H        2.4730     3.9950     0.1440 H     1 <1>   0.0800 
 32 H        4.2040    -0.7920     0.0380 H     1 <1>   0.0800 
 33 H        3.6140     0.2940     1.2430 H     1 <1>   0.0800 
 34 H       -3.1030    -1.0080     1.1710 H     1 <1>   0.4500 
 35 H       -2.9280    -2.6510    -0.8090 H     1 <1>   0.0800 
 36 H       -2.0840    -1.3350    -1.5660 H     1 <1>   0.0800 
 37 H        4.3520     3.3200    -0.9530 H     1 <1>   0.0800 
 38 H        3.1490     2.4080    -1.7870 H     1 <1>   0.0800 
 39 H        4.8560     0.8730    -1.4180 H     1 <1>   0.0800 
 40 H        5.2560     1.5090     0.1370 H     1 <1>   0.0800 
 41 H       -4.7570    -0.7530    -1.2590 H     1 <1>   0.0800 
 42 H       -5.2300    -0.2830     0.3600 H     1 <1>   0.0800 
 43 H       -4.9330    -1.9650    -0.0090 H     1 <1>   0.0800 
@<TRIPOS>BOND
  1   1   2  1   
  2   1   3  1   
  3   1   4  1   
  4   1  16  1   
  5   2   5  1   
  6   2   6  1   
  7   2  17  1   
  8   3   7  1   
  9   3  18  1   
 10   3  19  1   
 11   4   8  1   
 12   4  20  1   
 13   4  21  1   
 14   5   9  1   
 15   5  22  1   
 16   5  23  1   
 17   6  10  1   
 18   6  24  1   
 19   6  25  1   
 20   7  11  1   
 21   7  26  1   
 22   7  27  1   
 23   8  12  1   
 24   8  28  1   
 25   8  29  1   
 26   9  13  1   
 27   9  30  1   
 28   9  31  1   
 29  10  14  1   
 30  10  32  1   
 31  10  33  1   
 32  11  12  1   
 33  11  15  1   
 34  11  34  1   
 35  12  35  1   
 36  12  36  1   
 37  13  14  1   
 38  13  37  1   
 39  13  38  1   
 40  14  39  1   
 41  14  40  1   
 42  15  41  1   
 43  15  42  1   
 44  15  43  1   
@<TRIPOS>SUBSTRUCTURE
  1 ****   1 GROUP 4 **** **** 0

# MOE 2024.06 (io_trps.svl 2023.06)
