@<TRIPOS>MOLECULE
NONAME
45 47 1 0 0 
SMALL
USER_CHARGES


@<TRIPOS>ATOM
  1 O        0.0410     0.0880     1.1660 O.2   1 <1>  -0.5700 
  2 C        0.0250     1.1790     0.6320 C.2   1 <1>   0.5440 
  3 N       -1.1440     1.6830     0.1060 N.am  1 <1>  -0.5470 
  4 C        1.2430     1.9590     0.5330 C.ar  1 <1>   0.0860 
  5 C       -2.4600     1.1880     0.0840 C.ar  1 <1>   0.1170 
  6 C        2.4810     1.3330     0.3710 C.ar  1 <1>  -0.1500 
  7 C        1.2380     3.3560     0.5930 C.ar  1 <1>  -0.1500 
  8 C       -3.4970     2.0940    -0.1100 C.ar  1 <1>  -0.1500 
  9 C       -2.7760    -0.1610     0.2280 C.ar  1 <1>  -0.1500 
 10 C        3.6540     2.0550     0.2550 C.ar  1 <1>  -0.1500 
 11 C        2.4060     4.0850     0.4760 C.ar  1 <1>  -0.1500 
 12 C       -4.8110     1.6690    -0.1530 C.ar  1 <1>   0.0830 
 13 C       -4.0900    -0.5970     0.1830 C.ar  1 <1>  -0.1500 
 14 C        3.6230     3.4460     0.3040 C.ar  1 <1>   0.0830 
 15 O       -5.7930     2.5920    -0.3280 O.3   1 <1>  -0.3630 
 16 C       -5.1120     0.3130    -0.0140 C.ar  1 <1>   0.0830 
 17 O        4.7170     4.2300     0.1960 O.3   1 <1>  -0.3630 
 18 C       -7.1170     2.1750    -0.0490 C.3   1 <1>   0.1200 
 19 O       -6.3940    -0.1360    -0.0730 O.3   1 <1>  -0.3630 
 20 C        6.0080     3.6870     0.0410 C.3   1 <1>   0.1200 
 21 C       -7.3560     0.7610    -0.5960 C.3   1 <1>   0.1200 
 22 C        7.0070     4.8420    -0.0370 C.3   1 <1>  -0.1600 
 23 C        8.4420     4.3250    -0.2070 C.3   1 <1>  -0.1600 
 24 C        9.4380     5.4860    -0.2850 C.3   1 <1>  -0.2400 
 25 H       -1.0380     2.5890    -0.3440 H     1 <1>   0.3700 
 26 H        2.5130     0.2570     0.3360 H     1 <1>   0.1500 
 27 H        0.3130     3.8830     0.7440 H     1 <1>   0.1500 
 28 H       -3.2910     3.1410    -0.2230 H     1 <1>   0.1500 
 29 H       -1.9960    -0.8860     0.3730 H     1 <1>   0.1500 
 30 H        4.5780     1.5230     0.1300 H     1 <1>   0.1500 
 31 H        2.3890     5.1600     0.5230 H     1 <1>   0.1500 
 32 H       -4.3240    -1.6400     0.2960 H     1 <1>   0.1500 
 33 H       -7.7880     2.8800    -0.5050 H     1 <1>   0.0800 
 34 H       -7.2560     2.1920     1.0170 H     1 <1>   0.0800 
 35 H        6.0260     3.1070    -0.8650 H     1 <1>   0.0800 
 36 H        6.2170     3.0610     0.8920 H     1 <1>   0.0800 
 37 H       -7.2710     0.7540    -1.6680 H     1 <1>   0.0800 
 38 H       -8.3290     0.4020    -0.3160 H     1 <1>   0.0800 
 39 H        6.9410     5.4240     0.8660 H     1 <1>   0.0800 
 40 H        6.7510     5.4700    -0.8730 H     1 <1>   0.0800 
 41 H        8.5120     3.7390    -1.1080 H     1 <1>   0.0800 
 42 H        8.7010     3.6930     0.6250 H     1 <1>   0.0800 
 43 H        9.2110     6.1210    -1.1240 H     1 <1>   0.0800 
 44 H       10.4370     5.1060    -0.4040 H     1 <1>   0.0800 
 45 H        9.4010     6.0740     0.6150 H     1 <1>   0.0800 
@<TRIPOS>BOND
  1   1   2  2   
  2   2   3  am  
  3   2   4  1   
  4   3   5  1   
  5   3  25  1   
  6   4   6  ar  
  7   4   7  ar  
  8   5   8  ar  
  9   5   9  ar  
 10   6  10  ar  
 11   6  26  1   
 12   7  11  ar  
 13   7  27  1   
 14   8  12  ar  
 15   8  28  1   
 16   9  13  ar  
 17   9  29  1   
 18  10  14  ar  
 19  10  30  1   
 20  11  14  ar  
 21  11  31  1   
 22  12  15  1   
 23  12  16  ar  
 24  13  16  ar  
 25  13  32  1   
 26  14  17  1   
 27  15  18  1   
 28  16  19  1   
 29  17  20  1   
 30  18  21  1   
 31  18  33  1   
 32  18  34  1   
 33  19  21  1   
 34  20  22  1   
 35  20  35  1   
 36  20  36  1   
 37  21  37  1   
 38  21  38  1   
 39  22  23  1   
 40  22  39  1   
 41  22  40  1   
 42  23  24  1   
 43  23  41  1   
 44  23  42  1   
 45  24  43  1   
 46  24  44  1   
 47  24  45  1   
@<TRIPOS>SUBSTRUCTURE
  1 ****   2 GROUP 4 **** **** 0

# MOE 2024.06 (io_trps.svl 2023.06)
