@<TRIPOS>MOLECULE
NONAME
33 34 1 0 0 
SMALL
USER_CHARGES


@<TRIPOS>ATOM
  1 S       -0.0730    -0.0970    -0.3800 S.3   1 <1>  -0.3320 
  2 C        1.3410     1.0380    -0.2560 C.ar  1 <1>   0.1020 
  3 C       -1.5920     0.8430     0.1180 C.3   1 <1>   0.1310 
  4 C        1.2890     2.4260    -0.0380 C.ar  1 <1>  -0.1790 
  5 C        2.5560     0.3910    -0.4030 C.ar  1 <1>  -0.1500 
  6 C       -2.8980     0.0630     0.1710 C.2   1 <1>   0.5690 
  7 C        0.0870     3.2160     0.1070 C.2   1 <1>   0.9790 
  8 C        2.5090     3.1020     0.0360 C.ar  1 <1>  -0.1500 
  9 C        3.7470     1.0890    -0.3290 C.ar  1 <1>  -0.1500 
 10 O       -2.9230    -1.1220    -0.0840 O.2   1 <1>  -0.5700 
 11 N       -4.0430     0.7470     0.5030 N.am  1 <1>  -0.6600 
 12 O       -0.4110     3.4250     1.2270 O.co2 1 <1>  -0.9000 
 13 O       -0.4990     3.6820    -0.8840 O.co2 1 <1>  -0.9000 
 14 C        3.7200     2.4520    -0.1070 C.ar  1 <1>  -0.1500 
 15 C       -5.3920     0.1200     0.4300 C.3   1 <1>   0.1400 
 16 C       -4.0970     2.2110     0.8340 C.3   1 <1>   0.1400 
 17 C       -6.3130     0.9540    -0.4760 C.3   1 <1>   0.1200 
 18 C       -5.0970     2.9280    -0.0870 C.3   1 <1>   0.1200 
 19 O       -6.3480     2.2910    -0.0580 O.3   1 <1>  -0.5600 
 20 H       -1.7090     1.6210    -0.6090 H     1 <1>   0.0800 
 21 H       -1.3910     1.2440     1.0910 H     1 <1>   0.0800 
 22 H        2.5660    -0.6700    -0.5750 H     1 <1>   0.1500 
 23 H        2.4910     4.1660     0.2070 H     1 <1>   0.1500 
 24 H        4.6850     0.5750    -0.4430 H     1 <1>   0.1500 
 25 H        4.6380     3.0090    -0.0450 H     1 <1>   0.1500 
 26 H       -5.8120     0.0670     1.4190 H     1 <1>   0.0800 
 27 H       -5.3230    -0.8820     0.0430 H     1 <1>   0.0800 
 28 H       -3.1370     2.6890     0.7380 H     1 <1>   0.0800 
 29 H       -4.4120     2.3300     1.8550 H     1 <1>   0.0800 
 30 H       -7.3170     0.5710    -0.4360 H     1 <1>   0.0800 
 31 H       -5.9680     0.9200    -1.4940 H     1 <1>   0.0800 
 32 H       -4.7320     2.9360    -1.1000 H     1 <1>   0.0800 
 33 H       -5.2330     3.9440     0.2370 H     1 <1>   0.0800 
@<TRIPOS>BOND
  1   1   2  1   
  2   1   3  1   
  3   2   4  ar  
  4   2   5  ar  
  5   3   6  1   
  6   3  20  1   
  7   3  21  1   
  8   4   7  1   
  9   4   8  ar  
 10   5   9  ar  
 11   5  22  1   
 12   6  10  2   
 13   6  11  am  
 14   7  12  ar  
 15   7  13  ar  
 16   8  14  ar  
 17   8  23  1   
 18   9  14  ar  
 19   9  24  1   
 20  11  15  1   
 21  11  16  1   
 22  14  25  1   
 23  15  17  1   
 24  15  26  1   
 25  15  27  1   
 26  16  18  1   
 27  16  28  1   
 28  16  29  1   
 29  17  19  1   
 30  17  30  1   
 31  17  31  1   
 32  18  19  1   
 33  18  32  1   
 34  18  33  1   
@<TRIPOS>SUBSTRUCTURE
  1 ****   3 GROUP 4 **** **** 0

# MOE 2024.06 (io_trps.svl 2023.06)
