@<TRIPOS>MOLECULE
NONAME
38 38 1 0 0 
SMALL
USER_CHARGES


@<TRIPOS>ATOM
  1 O       -0.8210    -2.7340    -0.3000 O.2   1 <1>  -0.5700 
  2 C       -0.2150    -2.0800     0.5120 C.2   1 <1>   0.5690 
  3 N       -0.7800    -1.0540     1.1960 N.am  1 <1>  -0.7300 
  4 C        1.2330    -2.3970     0.7620 C.3   1 <1>  -0.0380 
  5 C       -2.1800    -0.5940     1.0450 C.3   1 <1>   0.1400 
  6 C        2.0510    -1.2080     0.3340 C.2   1 <1>   0.4480 
  7 C       -2.2120     0.7090     0.2480 C.3   1 <1>  -0.0170 
  8 O        2.3640    -0.3660     1.1200 O.2   1 <1>  -0.5700 
  9 C        2.4400    -1.1120    -1.1250 C.3   1 <1>  -0.1790 
 10 C       -3.6330     1.2430     0.1670 C.ar  1 <1>  -0.1440 
 11 C       -4.5010     0.7660    -0.8000 C.ar  1 <1>  -0.1500 
 12 C       -4.0780     2.2030     1.0590 C.ar  1 <1>  -0.1500 
 13 C       -5.8040     1.2290    -0.8890 C.ar  1 <1>   0.0820 
 14 C       -5.3730     2.6860     0.9790 C.ar  1 <1>  -0.1500 
 15 O       -6.5500     0.6620    -1.8780 O.3   1 <1>  -0.3630 
 16 C       -6.2510     2.2170     0.0040 C.ar  1 <1>   0.0820 
 17 C       -7.9250     0.4110    -1.6890 C.3   1 <1>   0.0400 
 18 O       -7.5190     2.7120    -0.1060 O.3   1 <1>  -0.3620 
 19 C       -7.9310     3.8690     0.5880 C.3   1 <1>   0.0400 
 20 H       -0.1840    -0.4810     1.8030 H     1 <1>   0.3700 
 21 H        1.5230    -3.2720     0.2120 H     1 <1>   0.0800 
 22 H        1.3790    -2.5830     1.8090 H     1 <1>   0.0800 
 23 H       -2.6110    -0.4410     2.0190 H     1 <1>   0.0800 
 24 H       -2.7610    -1.3440     0.5340 H     1 <1>   0.0800 
 25 H       -1.8400     0.5280    -0.7450 H     1 <1>   0.0800 
 26 H       -1.5790     1.4400     0.7190 H     1 <1>   0.0800 
 27 H        3.0660    -1.9410    -1.3940 H     1 <1>   0.0800 
 28 H        2.9790    -0.1980    -1.2960 H     1 <1>   0.0800 
 29 H        1.5590    -1.1160    -1.7400 H     1 <1>   0.0800 
 30 H       -4.1750     0.0180    -1.5000 H     1 <1>   0.1500 
 31 H       -3.4190     2.5830     1.8200 H     1 <1>   0.1500 
 32 H       -5.6740     3.4300     1.6900 H     1 <1>   0.1500 
 33 H       -8.2220    -0.3580    -2.3780 H     1 <1>   0.0800 
 34 H       -8.4730     1.3130    -1.8930 H     1 <1>   0.0800 
 35 H       -8.0880     0.0850    -0.6770 H     1 <1>   0.0800 
 36 H       -8.9230     4.1200     0.2590 H     1 <1>   0.0800 
 37 H       -7.2560     4.6740     0.3570 H     1 <1>   0.0800 
 38 H       -7.9400     3.6600     1.6430 H     1 <1>   0.0800 
@<TRIPOS>BOND
  1   1   2  2   
  2   2   3  am  
  3   2   4  1   
  4   3   5  1   
  5   3  20  1   
  6   4   6  1   
  7   4  21  1   
  8   4  22  1   
  9   5   7  1   
 10   5  23  1   
 11   5  24  1   
 12   6   8  2   
 13   6   9  1   
 14   7  10  1   
 15   7  25  1   
 16   7  26  1   
 17   9  27  1   
 18   9  28  1   
 19   9  29  1   
 20  10  11  ar  
 21  10  12  ar  
 22  11  13  ar  
 23  11  30  1   
 24  12  14  ar  
 25  12  31  1   
 26  13  15  1   
 27  13  16  ar  
 28  14  16  ar  
 29  14  32  1   
 30  15  17  1   
 31  16  18  1   
 32  17  33  1   
 33  17  34  1   
 34  17  35  1   
 35  18  19  1   
 36  19  36  1   
 37  19  37  1   
 38  19  38  1   
@<TRIPOS>SUBSTRUCTURE
  1 ****   7 GROUP 4 **** **** 0

# MOE 2024.06 (io_trps.svl 2023.06)
