@<TRIPOS>MOLECULE
NONAME
54 56 1 0 0 
SMALL
USER_CHARGES


@<TRIPOS>ATOM
  1 O        0.6110     3.5460     0.9270 O.2   1 <1>  -0.5700 
  2 C       -0.0790     2.8880     0.1840 C.2   1 <1>   0.5690 
  3 N        0.2070     1.5790    -0.1090 N.am  1 <1>  -0.5470 
  4 C       -1.3330     3.5140    -0.4820 C.3   1 <1>   0.2050 
  5 C        1.2750     0.7480     0.2600 C.ar  1 <1>   0.1170 
  6 C       -2.3690     2.3820    -0.7180 C.ar  1 <1>  -0.1440 
  7 C       -1.9960     4.6050     0.4020 C.3   1 <1>  -0.1600 
  8 C       -0.9020     4.1940    -1.8050 C.3   1 <1>  -0.1600 
  9 C        2.5240     1.2340     0.6300 C.ar  1 <1>  -0.1500 
 10 C        1.0870    -0.6260     0.2350 C.ar  1 <1>  -0.1500 
 11 C       -2.9360     1.7520     0.3870 C.ar  1 <1>  -0.1500 
 12 C       -2.7480     1.9350    -1.9830 C.ar  1 <1>  -0.1500 
 13 C       -1.2060     5.9210     0.4590 C.3   1 <1>   0.1200 
 14 C       -0.1140     5.4820    -1.5580 C.3   1 <1>   0.1200 
 15 C        3.5610     0.3810     0.9710 C.ar  1 <1>  -0.1430 
 16 C        2.1140    -1.4870     0.5720 C.ar  1 <1>  -0.1500 
 17 C       -3.8550     0.7260     0.2480 C.ar  1 <1>   0.0830 
 18 C       -3.6540     0.8990    -2.1340 C.ar  1 <1>  -0.1500 
 19 O       -0.9230     6.3500    -0.8340 O.3   1 <1>  -0.5600 
 20 C        3.3560    -0.9950     0.9410 C.ar  1 <1>  -0.1430 
 21 C        4.9030     0.9760     1.3730 C.3   1 <1>  -0.0970 
 22 O       -4.3810     0.2030     1.3810 O.3   1 <1>  -0.3620 
 23 C       -4.2020     0.2770    -1.0280 C.ar  1 <1>   0.0830 
 24 C        4.4630    -1.9730     1.3070 C.3   1 <1>  -0.0970 
 25 C       -5.7570     0.4340     1.5920 C.3   1 <1>   0.0400 
 26 O       -5.0560    -0.7530    -1.2480 O.3   1 <1>  -0.3630 
 27 C       -4.6560    -2.0230    -0.7790 C.3   1 <1>   0.0400 
 28 H       -0.5460     1.1010    -0.6060 H     1 <1>   0.3700 
 29 H       -2.1200     4.2450     1.4070 H     1 <1>   0.0800 
 30 H       -2.9750     4.8260     0.0140 H     1 <1>   0.0800 
 31 H       -1.7700     4.4650    -2.3800 H     1 <1>   0.0800 
 32 H       -0.3020     3.5210    -2.3900 H     1 <1>   0.0800 
 33 H        2.6850     2.2950     0.6490 H     1 <1>   0.1500 
 34 H        0.1310    -1.0280    -0.0440 H     1 <1>   0.1500 
 35 H       -2.6720     2.0460     1.3880 H     1 <1>   0.1500 
 36 H       -2.3520     2.3700    -2.8830 H     1 <1>   0.1500 
 37 H       -0.2800     5.8160     0.9970 H     1 <1>   0.0800 
 38 H       -1.7920     6.6870     0.9360 H     1 <1>   0.0800 
 39 H        0.1260     5.9620    -2.4910 H     1 <1>   0.0800 
 40 H        0.7960     5.3070    -1.0090 H     1 <1>   0.0800 
 41 H        1.9400    -2.5480     0.5460 H     1 <1>   0.1500 
 42 H       -3.9380     0.5630    -3.1150 H     1 <1>   0.1500 
 43 H        4.8710     2.0500     1.3490 H     1 <1>   0.0800 
 44 H        5.6700     0.6460     0.6950 H     1 <1>   0.0800 
 45 H        5.1580     0.6690     2.3710 H     1 <1>   0.0800 
 46 H        4.7790    -1.8090     2.3210 H     1 <1>   0.0800 
 47 H        5.3040    -1.8390     0.6510 H     1 <1>   0.0800 
 48 H        4.1250    -2.9900     1.2190 H     1 <1>   0.0800 
 49 H       -6.0200     0.0400     2.5570 H     1 <1>   0.0800 
 50 H       -6.3250    -0.0630     0.8260 H     1 <1>   0.0800 
 51 H       -5.9400     1.4940     1.5640 H     1 <1>   0.0800 
 52 H       -5.3610    -2.7500    -1.1390 H     1 <1>   0.0800 
 53 H       -4.6500    -2.0220     0.2960 H     1 <1>   0.0800 
 54 H       -3.6740    -2.2410    -1.1590 H     1 <1>   0.0800 
@<TRIPOS>BOND
  1   1   2  2   
  2   2   3  am  
  3   2   4  1   
  4   3   5  1   
  5   3  28  1   
  6   4   6  1   
  7   4   7  1   
  8   4   8  1   
  9   5   9  ar  
 10   5  10  ar  
 11   6  11  ar  
 12   6  12  ar  
 13   7  13  1   
 14   7  29  1   
 15   7  30  1   
 16   8  14  1   
 17   8  31  1   
 18   8  32  1   
 19   9  15  ar  
 20   9  33  1   
 21  10  16  ar  
 22  10  34  1   
 23  11  17  ar  
 24  11  35  1   
 25  12  18  ar  
 26  12  36  1   
 27  13  19  1   
 28  13  37  1   
 29  13  38  1   
 30  14  19  1   
 31  14  39  1   
 32  14  40  1   
 33  15  20  ar  
 34  15  21  1   
 35  16  20  ar  
 36  16  41  1   
 37  17  22  1   
 38  17  23  ar  
 39  18  23  ar  
 40  18  42  1   
 41  20  24  1   
 42  21  43  1   
 43  21  44  1   
 44  21  45  1   
 45  22  25  1   
 46  23  26  1   
 47  24  46  1   
 48  24  47  1   
 49  24  48  1   
 50  25  49  1   
 51  25  50  1   
 52  25  51  1   
 53  26  27  1   
 54  27  52  1   
 55  27  53  1   
 56  27  54  1   
@<TRIPOS>SUBSTRUCTURE
  1 ****   3 GROUP 4 **** **** 0

# MOE 2024.06 (io_trps.svl 2023.06)
