@<TRIPOS>MOLECULE
NONAME
48 50 1 0 0 
SMALL
USER_CHARGES


@<TRIPOS>ATOM
  1 CL       0.3690     0.5270    -1.7340 Cl    1 <1>  -0.1770 
  2 C        1.8530     0.9940    -0.9430 C.ar  1 <1>   0.1770 
  3 C        3.0020     0.2680    -1.1800 C.ar  1 <1>  -0.1500 
  4 C        1.8510     2.0830    -0.0920 C.ar  1 <1>  -0.1500 
  5 C        4.1910     0.6250    -0.5560 C.ar  1 <1>   0.1000 
  6 C        3.0310     2.4490     0.5330 C.ar  1 <1>  -0.1500 
  7 N        5.3440    -0.1210    -0.7930 N.pl3 1 <1>  -0.8380 
  8 C        4.1880     1.7240     0.3010 C.ar  1 <1>  -0.1500 
  9 C        6.6600     0.5470    -1.0300 C.3   1 <1>   0.2090 
 10 C        5.3830    -1.5490    -0.3560 C.3   1 <1>   0.2090 
 11 C        7.6390     0.2930     0.1360 C.3   1 <1>   0.3430 
 12 C        6.3840    -1.7520     0.8020 C.3   1 <1>   0.3430 
 13 N        7.7430    -1.1710     0.5020 N.4   1 <1>  -0.9590 
 14 C        8.7070    -1.3980     1.6130 C.3   1 <1>   0.4860 
 15 C       10.0700    -0.9030     1.1720 C.ar  1 <1>  -0.1430 
 16 C       10.7520    -1.5550     0.1540 C.ar  1 <1>  -0.1500 
 17 C       10.6350     0.2190     1.7650 C.ar  1 <1>  -0.1500 
 18 C       11.9760    -1.0790    -0.2850 C.ar  1 <1>   0.0830 
 19 C       11.8600     0.6990     1.3310 C.ar  1 <1>  -0.1500 
 20 O       12.5950    -1.7130    -1.3090 O.3   1 <1>  -0.3630 
 21 C       12.5290     0.0590     0.3010 C.ar  1 <1>   0.0830 
 22 C       13.2370    -2.9400    -1.0330 C.3   1 <1>   0.1200 
 23 O       13.7130     0.5500    -0.1200 O.3   1 <1>  -0.5330 
 24 C       14.5850    -2.6760    -0.3630 C.3   1 <1>  -0.2400 
 25 H        2.9750    -0.5660    -1.8550 H     1 <1>   0.1500 
 26 H        0.9410     2.6320     0.0740 H     1 <1>   0.1500 
 27 H        3.0440     3.2970     1.1970 H     1 <1>   0.1500 
 28 H        5.0920     2.0180     0.7970 H     1 <1>   0.1500 
 29 H        6.5150     1.6070    -1.1570 H     1 <1>   0.0800 
 30 H        7.0840     0.1710    -1.9450 H     1 <1>   0.0800 
 31 H        5.6600    -2.1660    -1.1930 H     1 <1>   0.0800 
 32 H        4.4030    -1.8570    -0.0330 H     1 <1>   0.0800 
 33 H        7.2970     0.8530     0.9900 H     1 <1>   0.0800 
 34 H        8.6100     0.6730    -0.1400 H     1 <1>   0.0800 
 35 H        6.4700    -2.8060     1.0060 H     1 <1>   0.0800 
 36 H        5.9760    -1.2780     1.6790 H     1 <1>   0.0800 
 37 H        8.1220    -1.6460    -0.3260 H     1 <1>   0.4500 
 38 H        8.7670    -2.4490     1.8460 H     1 <1>   0.0800 
 39 H        8.3900    -0.8690     2.4970 H     1 <1>   0.0800 
 40 H       10.3520    -2.4320    -0.3220 H     1 <1>   0.1500 
 41 H       10.1340     0.7350     2.5670 H     1 <1>   0.1500 
 42 H       12.2900     1.5690     1.7950 H     1 <1>   0.1500 
 43 H       13.3850    -3.4420    -1.9730 H     1 <1>   0.0800 
 44 H       12.6010    -3.5410    -0.4080 H     1 <1>   0.0800 
 45 H       14.0040     1.3450     0.3590 H     1 <1>   0.4500 
 46 H       15.1830    -2.0320    -0.9820 H     1 <1>   0.0800 
 47 H       15.1100    -3.6030    -0.2230 H     1 <1>   0.0800 
 48 H       14.4450    -2.2160     0.5990 H     1 <1>   0.0800 
@<TRIPOS>BOND
  1   1   2  1   
  2   2   3  ar  
  3   2   4  ar  
  4   3   5  ar  
  5   3  25  1   
  6   4   6  ar  
  7   4  26  1   
  8   5   7  1   
  9   5   8  ar  
 10   6   8  ar  
 11   6  27  1   
 12   7   9  1   
 13   7  10  1   
 14   8  28  1   
 15   9  11  1   
 16   9  29  1   
 17   9  30  1   
 18  10  12  1   
 19  10  31  1   
 20  10  32  1   
 21  11  13  1   
 22  11  33  1   
 23  11  34  1   
 24  12  13  1   
 25  12  35  1   
 26  12  36  1   
 27  13  14  1   
 28  13  37  1   
 29  14  15  1   
 30  14  38  1   
 31  14  39  1   
 32  15  16  ar  
 33  15  17  ar  
 34  16  18  ar  
 35  16  40  1   
 36  17  19  ar  
 37  17  41  1   
 38  18  20  1   
 39  18  21  ar  
 40  19  21  ar  
 41  19  42  1   
 42  20  22  1   
 43  21  23  1   
 44  22  24  1   
 45  22  43  1   
 46  22  44  1   
 47  23  45  1   
 48  24  46  1   
 49  24  47  1   
 50  24  48  1   
@<TRIPOS>SUBSTRUCTURE
  1 ****  11 GROUP 4 **** **** 0

# MOE 2024.06 (io_trps.svl 2023.06)
