@<TRIPOS>MOLECULE
NONAME
30 30 1 0 0 
SMALL
USER_CHARGES


@<TRIPOS>ATOM
  1 O        0.0020     0.8530     1.8630 O.2   1 <1>  -0.5700 
  2 C        0.1370     1.5310     0.8720 C.2   1 <1>   0.5690 
  3 N        1.3590     1.7880     0.3480 N.am  1 <1>  -0.7300 
  4 C       -1.1050     2.1120     0.1940 C.3   1 <1>   0.1810 
  5 C        2.6420     1.3470     0.9080 C.3   1 <1>   0.2840 
  6 O       -0.7810     2.8580    -0.9580 O.3   1 <1>  -0.5600 
  7 C        3.7340     2.2580     0.3780 C.ar  1 <1>  -0.1430 
  8 C       -1.8850     3.4110    -1.5990 C.3   1 <1>   0.0400 
  9 C        4.4660     1.9000    -0.7450 C.ar  1 <1>  -0.1500 
 10 C        4.0060     3.4610     1.0100 C.ar  1 <1>  -0.1500 
 11 C        5.4620     2.7300    -1.2300 C.ar  1 <1>  -0.1500 
 12 C        5.0010     4.2930     0.5280 C.ar  1 <1>  -0.1500 
 13 C        5.7350     3.9370    -0.5910 C.ar  1 <1>   0.0820 
 14 O        6.6920     4.8080    -0.9980 O.3   1 <1>  -0.3630 
 15 C        7.4830     4.5490    -2.1360 C.3   1 <1>   0.0400 
 16 H        1.4070     2.3930    -0.4790 H     1 <1>   0.3700 
 17 H       -1.6110     2.7550     0.8900 H     1 <1>   0.0800 
 18 H       -1.7560     1.3050    -0.0910 H     1 <1>   0.0800 
 19 H        2.8260     0.3270     0.6160 H     1 <1>   0.0800 
 20 H        2.6030     1.3910     1.9830 H     1 <1>   0.0800 
 21 H       -1.5340     3.9560    -2.4580 H     1 <1>   0.0800 
 22 H       -2.3880     4.0830    -0.9250 H     1 <1>   0.0800 
 23 H       -2.5460     2.6230    -1.9140 H     1 <1>   0.0800 
 24 H        4.2610     0.9700    -1.2480 H     1 <1>   0.1500 
 25 H        3.4410     3.7550     1.8780 H     1 <1>   0.1500 
 26 H        6.0100     2.4240    -2.0990 H     1 <1>   0.1500 
 27 H        5.2130     5.2270     1.0170 H     1 <1>   0.1500 
 28 H        8.1610     5.3740    -2.2660 H     1 <1>   0.0800 
 29 H        6.8420     4.4640    -2.9950 H     1 <1>   0.0800 
 30 H        8.0380     3.6420    -1.9750 H     1 <1>   0.0800 
@<TRIPOS>BOND
  1   1   2  2   
  2   2   3  am  
  3   2   4  1   
  4   3   5  1   
  5   3  16  1   
  6   4   6  1   
  7   4  17  1   
  8   4  18  1   
  9   5   7  1   
 10   5  19  1   
 11   5  20  1   
 12   6   8  1   
 13   7   9  ar  
 14   7  10  ar  
 15   8  21  1   
 16   8  22  1   
 17   8  23  1   
 18   9  11  ar  
 19   9  24  1   
 20  10  12  ar  
 21  10  25  1   
 22  11  13  ar  
 23  11  26  1   
 24  12  13  ar  
 25  12  27  1   
 26  13  14  1   
 27  14  15  1   
 28  15  28  1   
 29  15  29  1   
 30  15  30  1   
@<TRIPOS>SUBSTRUCTURE
  1 ****   7 GROUP 4 **** **** 0

# MOE 2024.06 (io_trps.svl 2023.06)
