@<TRIPOS>MOLECULE
NONAME
40 41 1 0 0 
SMALL
USER_CHARGES


@<TRIPOS>ATOM
  1 F        0.5610     0.5320    -0.0030 F     1 <1>  -0.1900 
  2 C        1.7840     0.9950     0.0000 C.ar  1 <1>   0.1900 
  3 C        2.8360     0.0980    -0.0060 C.ar  1 <1>  -0.1500 
  4 C        1.9780     2.3630     0.0080 C.ar  1 <1>  -0.1500 
  5 C        4.1310     0.5890    -0.0030 C.ar  1 <1>  -0.1500 
  6 C        3.2760     2.8450     0.0120 C.ar  1 <1>  -0.1500 
  7 C        4.3540     1.9680     0.0060 C.ar  1 <1>   0.0830 
  8 O        5.5880     2.5300     0.0100 O.3   1 <1>  -0.3630 
  9 C        6.7550     1.7400     0.0050 C.3   1 <1>   0.1200 
 10 C        7.9620     2.6790     0.0110 C.3   1 <1>  -0.1600 
 11 C        9.2790     1.8910     0.0050 C.3   1 <1>  -0.1600 
 12 C       10.4850     2.8290     0.0110 C.3   1 <1>   0.1200 
 13 O       11.6520     2.0400     0.0050 O.3   1 <1>  -0.3630 
 14 C       12.8850     2.6090     0.0090 C.ar  1 <1>   0.0830 
 15 C       13.1070     3.9850     0.0180 C.ar  1 <1>  -0.1500 
 16 C       13.9680     1.7460     0.0020 C.ar  1 <1>  -0.1500 
 17 C       14.4000     4.4810     0.0210 C.ar  1 <1>  -0.1500 
 18 C       15.2590     2.2420     0.0050 C.ar  1 <1>  -0.1500 
 19 C       15.4850     3.6090     0.0140 C.ar  1 <1>   0.0830 
 20 O       16.7820     4.0130     0.0160 O.3   1 <1>  -0.3620 
 21 C       17.1180     5.3830     0.0260 C.3   1 <1>   0.0400 
 22 H        2.6390    -0.9590    -0.0120 H     1 <1>   0.1500 
 23 H        1.1350     3.0290     0.0130 H     1 <1>   0.1500 
 24 H        4.9460    -0.1100    -0.0070 H     1 <1>   0.1500 
 25 H        3.4630     3.9030     0.0180 H     1 <1>   0.1500 
 26 H        6.7500     1.1320    -0.8830 H     1 <1>   0.0800 
 27 H        6.7500     1.1210     0.8850 H     1 <1>   0.0800 
 28 H        7.9170     3.2990     0.8900 H     1 <1>   0.0800 
 29 H        7.9170     3.3100    -0.8610 H     1 <1>   0.0800 
 30 H        9.3240     1.2710    -0.8740 H     1 <1>   0.0800 
 31 H        9.3240     1.2600     0.8760 H     1 <1>   0.0800 
 32 H       10.4910     3.4380     0.8990 H     1 <1>   0.0800 
 33 H       10.4910     3.4490    -0.8690 H     1 <1>   0.0800 
 34 H       12.2900     4.6810     0.0230 H     1 <1>   0.1500 
 35 H       13.7930     0.6850    -0.0050 H     1 <1>   0.1500 
 36 H       14.5420     5.5450     0.0280 H     1 <1>   0.1500 
 37 H       16.1000     1.5720     0.0000 H     1 <1>   0.1500 
 38 H       18.1900     5.4630     0.0260 H     1 <1>   0.0800 
 39 H       16.7180     5.8340     0.9160 H     1 <1>   0.0800 
 40 H       16.7170     5.8470    -0.8580 H     1 <1>   0.0800 
@<TRIPOS>BOND
  1   1   2  1   
  2   2   3  ar  
  3   2   4  ar  
  4   3   5  ar  
  5   3  22  1   
  6   4   6  ar  
  7   4  23  1   
  8   5   7  ar  
  9   5  24  1   
 10   6   7  ar  
 11   6  25  1   
 12   7   8  1   
 13   8   9  1   
 14   9  10  1   
 15   9  26  1   
 16   9  27  1   
 17  10  11  1   
 18  10  28  1   
 19  10  29  1   
 20  11  12  1   
 21  11  30  1   
 22  11  31  1   
 23  12  13  1   
 24  12  32  1   
 25  12  33  1   
 26  13  14  1   
 27  14  15  ar  
 28  14  16  ar  
 29  15  17  ar  
 30  15  34  1   
 31  16  18  ar  
 32  16  35  1   
 33  17  19  ar  
 34  17  36  1   
 35  18  19  ar  
 36  18  37  1   
 37  19  20  1   
 38  20  21  1   
 39  21  38  1   
 40  21  39  1   
 41  21  40  1   
@<TRIPOS>SUBSTRUCTURE
  1 ****  11 GROUP 4 **** **** 0

# MOE 2024.06 (io_trps.svl 2023.06)
