@<TRIPOS>MOLECULE
NONAME
38 38 1 0 0 
SMALL
USER_CHARGES


@<TRIPOS>ATOM
  1 S        0.1320    -0.0740     0.6890 S.o2  1 <1>   1.4470 
  2 O       -1.1530    -0.6320     1.0490 O.2   1 <1>  -0.6500 
  3 O        1.2380    -0.2090     1.6130 O.2   1 <1>  -0.6500 
  4 N        0.5930    -0.8320    -0.7570 N.am  1 <1>  -0.8490 
  5 C       -0.0420     1.6660     0.2130 C.ar  1 <1>  -0.0090 
  6 C        1.1390    -2.1990    -0.5270 C.3   1 <1>   0.2570 
  7 C       -0.4820    -0.8640    -1.7560 C.3   1 <1>   0.1160 
  8 C       -1.1830     2.3900     0.5390 C.ar  1 <1>  -0.1500 
  9 C        0.9620     2.3160    -0.4880 C.ar  1 <1>  -0.1500 
 10 C        2.6730    -2.2860    -0.4760 C.2   1 <1>   0.5690 
 11 C       -1.3410     3.7260     0.1780 C.ar  1 <1>   0.0820 
 12 C        0.8270     3.6400    -0.8590 C.ar  1 <1>  -0.1500 
 13 O        3.2350    -2.9770    -1.2930 O.2   1 <1>  -0.5700 
 14 N        3.3640    -1.6130     0.4840 N.am  1 <1>  -0.7300 
 15 O       -2.4750     4.4080     0.5130 O.3   1 <1>  -0.3630 
 16 C       -0.3110     4.3610    -0.5420 C.ar  1 <1>   0.0830 
 17 C        4.8360    -1.6080     0.6600 C.3   1 <1>   0.0600 
 18 C       -3.4770     3.8630     1.3450 C.3   1 <1>   0.0400 
 19 O       -0.2880     5.6510    -0.9860 O.3   1 <1>  -0.3630 
 20 C       -1.3420     6.5670    -0.7930 C.3   1 <1>   0.0400 
 21 H        0.8280    -2.8510    -1.3240 H     1 <1>   0.0800 
 22 H        0.7410    -2.6100     0.3840 H     1 <1>   0.0800 
 23 H       -0.8400     0.1330    -1.9510 H     1 <1>   0.0800 
 24 H       -1.3050    -1.4670    -1.4100 H     1 <1>   0.0800 
 25 H       -0.1120    -1.2720    -2.6820 H     1 <1>   0.0800 
 26 H       -1.9500     1.8730     1.0850 H     1 <1>   0.1500 
 27 H        1.8590     1.7780    -0.7500 H     1 <1>   0.1500 
 28 H        1.6150     4.1280    -1.4050 H     1 <1>   0.1500 
 29 H        2.8240    -1.0170     1.1330 H     1 <1>   0.3700 
 30 H        5.3030    -2.2450    -0.0720 H     1 <1>   0.0800 
 31 H        5.0840    -1.9670     1.6440 H     1 <1>   0.0800 
 32 H        5.2120    -0.6070     0.5420 H     1 <1>   0.0800 
 33 H       -4.2260     4.6180     1.5030 H     1 <1>   0.0800 
 34 H       -3.0380     3.5840     2.2860 H     1 <1>   0.0800 
 35 H       -3.9170     3.0130     0.8540 H     1 <1>   0.0800 
 36 H       -1.0630     7.4980    -1.2510 H     1 <1>   0.0800 
 37 H       -1.4910     6.7080     0.2630 H     1 <1>   0.0800 
 38 H       -2.2300     6.1800    -1.2600 H     1 <1>   0.0800 
@<TRIPOS>BOND
  1   1   2  2   
  2   1   3  2   
  3   1   4  am  
  4   1   5  1   
  5   4   6  1   
  6   4   7  1   
  7   5   8  ar  
  8   5   9  ar  
  9   6  10  1   
 10   6  21  1   
 11   6  22  1   
 12   7  23  1   
 13   7  24  1   
 14   7  25  1   
 15   8  11  ar  
 16   8  26  1   
 17   9  12  ar  
 18   9  27  1   
 19  10  13  2   
 20  10  14  am  
 21  11  15  1   
 22  11  16  ar  
 23  12  16  ar  
 24  12  28  1   
 25  14  17  1   
 26  14  29  1   
 27  15  18  1   
 28  16  19  1   
 29  17  30  1   
 30  17  31  1   
 31  17  32  1   
 32  18  33  1   
 33  18  34  1   
 34  18  35  1   
 35  19  20  1   
 36  20  36  1   
 37  20  37  1   
 38  20  38  1   
@<TRIPOS>SUBSTRUCTURE
  1 ****   5 GROUP 4 **** **** 0

# MOE 2024.06 (io_trps.svl 2023.06)
