@<TRIPOS>MOLECULE
NONAME
45 48 1 0 0 
SMALL
USER_CHARGES


@<TRIPOS>ATOM
  1 S        5.0220    -2.0610     0.5240 S.3   1 <1>  -0.4600 
  2 C        5.6750    -0.4030     0.8640 C.3   1 <1>   0.0700 
  3 C        4.1850    -1.8000    -1.0650 C.3   1 <1>   0.0700 
  4 C        4.5270     0.6120     0.7980 C.3   1 <1>   0.1400 
  5 C        3.1970    -0.6370    -0.9280 C.3   1 <1>   0.1400 
  6 N        3.9020     0.6340    -0.5590 N.am  1 <1>  -0.6600 
  7 C        3.8560     1.7520    -1.3730 C.2   1 <1>   0.7160 
  8 O        3.0870     1.7370    -2.3200 O.2   1 <1>  -0.5700 
  9 C        4.6150     2.9530    -1.1540 C.2   1 <1>  -0.0860 
 10 C        5.9110     3.2010    -0.7640 C.2   1 <1>  -0.0260 
 11 C        4.0980     4.2240    -1.3840 C.2   1 <1>   0.1390 
 12 N        6.9180     2.3320    -0.4340 N.2   1 <1>  -0.5760 
 13 N        6.0730     4.5660    -0.7880 N.pl3 1 <1>   0.6010 
 14 N        4.9400     5.1870    -1.1610 N.2   1 <1>  -0.7070 
 15 C        8.0920     2.8340    -0.1600 C.2   1 <1>   0.3490 
 16 C        7.2970     5.1060    -0.4890 C.2   1 <1>  -0.1690 
 17 C        9.1950     1.9650     0.1790 C.ar  1 <1>   0.0860 
 18 C        8.3070     4.2440    -0.1780 C.2   1 <1>  -0.1360 
 19 C        7.3880     6.6150    -0.5380 C.3   1 <1>   1.1580 
 20 C       10.4000     2.0130    -0.5210 C.ar  1 <1>  -0.1500 
 21 C        9.0930     1.0490     1.2240 C.ar  1 <1>  -0.1500 
 22 F        8.6090     7.0270    -0.2200 F     1 <1>  -0.3400 
 23 F        6.5750     7.2170     0.3190 F     1 <1>  -0.3400 
 24 F        7.1440     7.1190    -1.7400 F     1 <1>  -0.3400 
 25 C       11.4580     1.1880    -0.1860 C.ar  1 <1>  -0.1500 
 26 C       10.1470     0.2210     1.5610 C.ar  1 <1>  -0.1500 
 27 C       11.3390     0.2880     0.8600 C.ar  1 <1>  -0.1430 
 28 C       12.4960    -0.6230     1.2280 C.3   1 <1>  -0.0970 
 29 H        6.4290    -0.1950     0.1260 H     1 <1>   0.0800 
 30 H        6.1160    -0.4320     1.8430 H     1 <1>   0.0800 
 31 H        3.6790    -2.7160    -1.3120 H     1 <1>   0.0800 
 32 H        4.9380    -1.5870    -1.8030 H     1 <1>   0.0800 
 33 H        4.8930     1.5860     1.0640 H     1 <1>   0.0800 
 34 H        3.7790     0.3420     1.5230 H     1 <1>   0.0800 
 35 H        2.4710    -0.8720    -0.1700 H     1 <1>   0.0800 
 36 H        2.6700    -0.5260    -1.8590 H     1 <1>   0.0800 
 37 H        3.0870     4.3950    -1.7210 H     1 <1>   0.1500 
 38 H        9.2960     4.5910     0.0700 H     1 <1>   0.1500 
 39 H       10.5100     2.6980    -1.3430 H     1 <1>   0.1500 
 40 H        8.1740     0.9900     1.7780 H     1 <1>   0.1500 
 41 H       12.3770     1.2450    -0.7440 H     1 <1>   0.1500 
 42 H       10.0380    -0.4790     2.3720 H     1 <1>   0.1500 
 43 H       13.4330    -0.1790     0.9450 H     1 <1>   0.0800 
 44 H       12.3910    -1.5660     0.7220 H     1 <1>   0.0800 
 45 H       12.5120    -0.7980     2.2890 H     1 <1>   0.0800 
@<TRIPOS>BOND
  1   1   2  1   
  2   1   3  1   
  3   2   4  1   
  4   2  29  1   
  5   2  30  1   
  6   3   5  1   
  7   3  31  1   
  8   3  32  1   
  9   4   6  1   
 10   4  33  1   
 11   4  34  1   
 12   5   6  1   
 13   5  35  1   
 14   5  36  1   
 15   6   7  am  
 16   7   8  2   
 17   7   9  1   
 18   9  10  2   
 19   9  11  1   
 20  10  12  1   
 21  10  13  1   
 22  11  14  2   
 23  11  37  1   
 24  12  15  2   
 25  13  14  1   
 26  13  16  1   
 27  15  17  1   
 28  15  18  1   
 29  16  18  2   
 30  16  19  1   
 31  17  20  ar  
 32  17  21  ar  
 33  18  38  1   
 34  19  22  1   
 35  19  23  1   
 36  19  24  1   
 37  20  25  ar  
 38  20  39  1   
 39  21  26  ar  
 40  21  40  1   
 41  25  27  ar  
 42  25  41  1   
 43  26  27  ar  
 44  26  42  1   
 45  27  28  1   
 46  28  43  1   
 47  28  44  1   
 48  28  45  1   
@<TRIPOS>SUBSTRUCTURE
  1 ****  12 GROUP 4 **** **** 0

# MOE 2024.06 (io_trps.svl 2023.06)
