@<TRIPOS>MOLECULE
NONAME
48 51 1 0 0 
SMALL
USER_CHARGES


@<TRIPOS>ATOM
  1 S       -0.3650    -0.1460     0.3460 S.3   1 <1>  -0.0800 
  2 C       -0.8540    -1.4910     1.3770 C.2   1 <1>   0.1040 
  3 C       -1.4150     0.9740     1.1950 C.2   1 <1>  -0.1100 
  4 N       -0.3290    -2.7730     1.1680 N.am  1 <1>  -0.4940 
  5 C       -1.7700    -1.0600     2.2880 C.2   1 <1>   0.0190 
  6 C       -2.0750     0.3370     2.1770 C.2   1 <1>  -0.1500 
  7 C        0.7200    -3.2900     0.4610 C.2   1 <1>   0.5690 
  8 C       -2.3980    -1.8800     3.2770 C.1   1 <1>   0.5380 
  9 O        0.8180    -4.4920     0.4110 O.2   1 <1>  -0.5700 
 10 C        1.7600    -2.3910    -0.2440 C.3   1 <1>   0.1710 
 11 N       -2.8910    -2.5530     4.0540 N.1   1 <1>  -0.5570 
 12 N        3.0390    -3.0400    -0.6660 N.3   1 <1>  -0.8100 
 13 C        2.8650    -3.9640    -1.8160 C.3   1 <1>   0.1100 
 14 C        4.1080    -2.0540    -0.9580 C.3   1 <1>   0.1100 
 15 C        4.1620    -4.7540    -2.1160 C.3   1 <1>   0.3430 
 16 C        5.4200    -2.7330    -1.4270 C.3   1 <1>   0.3430 
 17 N        5.3150    -4.2270    -1.3150 N.4   1 <1>  -0.9590 
 18 C        6.5890    -4.9590    -1.5250 C.3   1 <1>   0.4860 
 19 C        7.6310    -4.4170    -0.5650 C.ar  1 <1>  -0.1430 
 20 C        7.5040    -4.6490     0.8030 C.ar  1 <1>  -0.1500 
 21 C        8.7110    -3.6770    -1.0510 C.ar  1 <1>  -0.1500 
 22 C        8.4600    -4.1190     1.6440 C.ar  1 <1>   0.0830 
 23 C        9.6640    -3.1550    -0.1850 C.ar  1 <1>  -0.1500 
 24 O        8.5300    -4.2090     2.9750 O.3   1 <1>  -0.3630 
 25 C        9.5100    -3.3920     1.1650 C.ar  1 <1>   0.0830 
 26 C        9.7080    -3.5070     3.3710 C.3   1 <1>   0.4000 
 27 O       10.2890    -2.9910     2.1740 O.3   1 <1>  -0.3620 
 28 H       -1.4250     1.9990     0.8620 H     1 <1>   0.1500 
 29 H       -0.8270    -3.5330     1.6390 H     1 <1>   0.3700 
 30 H       -2.7820     0.8010     2.8450 H     1 <1>   0.1500 
 31 H        2.0040    -1.6060     0.4500 H     1 <1>   0.0800 
 32 H        1.2940    -1.9420    -1.1020 H     1 <1>   0.0800 
 33 H        2.5770    -3.4050    -2.6910 H     1 <1>   0.0800 
 34 H        2.0800    -4.6730    -1.6200 H     1 <1>   0.0800 
 35 H        4.3150    -1.4860    -0.0660 H     1 <1>   0.0800 
 36 H        3.7770    -1.3620    -1.7140 H     1 <1>   0.0800 
 37 H        4.3780    -4.6930    -3.1700 H     1 <1>   0.0800 
 38 H        3.9950    -5.7900    -1.8730 H     1 <1>   0.0800 
 39 H        6.2340    -2.3690    -0.8200 H     1 <1>   0.0800 
 40 H        5.6220    -2.4540    -2.4480 H     1 <1>   0.0800 
 41 H        5.0150    -4.3610    -0.3360 H     1 <1>   0.4500 
 42 H        6.9260    -4.8320    -2.5400 H     1 <1>   0.0800 
 43 H        6.4460    -6.0110    -1.3400 H     1 <1>   0.0800 
 44 H        6.6970    -5.2210     1.2250 H     1 <1>   0.1500 
 45 H        8.8270    -3.5000    -2.1070 H     1 <1>   0.1500 
 46 H       10.5040    -2.5840    -0.5390 H     1 <1>   0.1500 
 47 H       10.3950    -4.1890     3.8400 H     1 <1>   0.0800 
 48 H        9.4440    -2.6940     4.0240 H     1 <1>   0.0800 
@<TRIPOS>BOND
  1   1   2  1   
  2   1   3  1   
  3   2   4  1   
  4   2   5  2   
  5   3   6  2   
  6   3  28  1   
  7   4   7  am  
  8   4  29  1   
  9   5   6  1   
 10   5   8  1   
 11   6  30  1   
 12   7   9  2   
 13   7  10  1   
 14   8  11  3   
 15  10  12  1   
 16  10  31  1   
 17  10  32  1   
 18  12  13  1   
 19  12  14  1   
 20  13  15  1   
 21  13  33  1   
 22  13  34  1   
 23  14  16  1   
 24  14  35  1   
 25  14  36  1   
 26  15  17  1   
 27  15  37  1   
 28  15  38  1   
 29  16  17  1   
 30  16  39  1   
 31  16  40  1   
 32  17  18  1   
 33  17  41  1   
 34  18  19  1   
 35  18  42  1   
 36  18  43  1   
 37  19  20  ar  
 38  19  21  ar  
 39  20  22  ar  
 40  20  44  1   
 41  21  23  ar  
 42  21  45  1   
 43  22  24  1   
 44  22  25  ar  
 45  23  25  ar  
 46  23  46  1   
 47  24  26  1   
 48  25  27  1   
 49  26  27  1   
 50  26  47  1   
 51  26  48  1   
@<TRIPOS>SUBSTRUCTURE
  1 ****  12 GROUP 4 **** **** 0

# MOE 2024.06 (io_trps.svl 2023.06)
