@<TRIPOS>MOLECULE
NONAME
35 36 1 0 0 
SMALL
USER_CHARGES


@<TRIPOS>ATOM
  1 CL      -0.1220    -0.0500     0.6460 Cl    1 <1>  -0.1770 
  2 C       -1.5880     0.8020     0.2110 C.ar  1 <1>   0.1770 
  3 C       -2.8340     0.1970     0.3300 C.ar  1 <1>  -0.1440 
  4 C       -1.4440     2.0980    -0.2450 C.ar  1 <1>  -0.1500 
  5 C       -3.9710     0.9380    -0.0110 C.ar  1 <1>   0.1170 
  6 C       -2.9650    -1.2470     0.8210 C.3   1 <1>  -0.0960 
  7 C       -2.5680     2.8240    -0.5900 C.ar  1 <1>  -0.1500 
  8 N       -5.2480     0.3710     0.1390 N.am  1 <1>  -0.5470 
  9 C       -3.8160     2.2450    -0.4690 C.ar  1 <1>  -0.1500 
 10 C       -6.4170     0.5990    -0.5370 C.2   1 <1>   0.5690 
 11 O       -6.5100     1.3770    -1.4550 O.2   1 <1>  -0.5700 
 12 C       -7.6490    -0.1960    -0.1020 C.3   1 <1>  -0.0190 
 13 C       -8.0640    -1.2120    -1.1840 C.3   1 <1>  -0.1600 
 14 C       -8.8290     0.7310     0.2500 C.3   1 <1>  -0.1600 
 15 C       -9.3030    -2.0140    -0.7590 C.3   1 <1>  -0.1600 
 16 C      -10.0670    -0.0700     0.6770 C.3   1 <1>  -0.1600 
 17 C      -10.4690    -1.0840    -0.4030 C.3   1 <1>  -0.1600 
 18 H       -0.4630     2.5310    -0.3280 H     1 <1>   0.1500 
 19 H       -2.0460    -1.7920     0.7070 H     1 <1>   0.0800 
 20 H       -3.7100    -1.7750     0.2530 H     1 <1>   0.0800 
 21 H       -3.2380    -1.2560     1.8600 H     1 <1>   0.0800 
 22 H       -2.4740     3.8350    -0.9490 H     1 <1>   0.1500 
 23 H       -5.2920    -0.3720     0.8310 H     1 <1>   0.3700 
 24 H       -4.6830     2.8240    -0.7310 H     1 <1>   0.1500 
 25 H       -7.3970    -0.7470     0.7850 H     1 <1>   0.0800 
 26 H       -7.2490    -1.8860    -1.3810 H     1 <1>   0.0800 
 27 H       -8.2800    -0.6850    -2.0980 H     1 <1>   0.0800 
 28 H       -9.0770     1.3320    -0.6090 H     1 <1>   0.0800 
 29 H       -8.5410     1.3990     1.0430 H     1 <1>   0.0800 
 30 H       -9.0610    -2.6250     0.0940 H     1 <1>   0.0800 
 31 H       -9.5990    -2.6690    -1.5610 H     1 <1>   0.0800 
 32 H      -10.8860     0.6040     0.8580 H     1 <1>   0.0800 
 33 H       -9.8600    -0.5910     1.5960 H     1 <1>   0.0800 
 34 H      -11.3050    -1.6680    -0.0570 H     1 <1>   0.0800 
 35 H      -10.7820    -0.5540    -1.2870 H     1 <1>   0.0800 
@<TRIPOS>BOND
  1   1   2  1   
  2   2   3  ar  
  3   2   4  ar  
  4   3   5  ar  
  5   3   6  1   
  6   4   7  ar  
  7   4  18  1   
  8   5   8  1   
  9   5   9  ar  
 10   6  19  1   
 11   6  20  1   
 12   6  21  1   
 13   7   9  ar  
 14   7  22  1   
 15   8  10  am  
 16   8  23  1   
 17   9  24  1   
 18  10  11  2   
 19  10  12  1   
 20  12  13  1   
 21  12  14  1   
 22  12  25  1   
 23  13  15  1   
 24  13  26  1   
 25  13  27  1   
 26  14  16  1   
 27  14  28  1   
 28  14  29  1   
 29  15  17  1   
 30  15  30  1   
 31  15  31  1   
 32  16  17  1   
 33  16  32  1   
 34  16  33  1   
 35  17  34  1   
 36  17  35  1   
@<TRIPOS>SUBSTRUCTURE
  1 ****   8 GROUP 4 **** **** 0

# MOE 2024.06 (io_trps.svl 2023.06)
