@<TRIPOS>MOLECULE
NONAME
43 45 1 0 0 
SMALL
USER_CHARGES


@<TRIPOS>ATOM
  1 S       -0.1150    -0.0800     0.5180 S.o2  1 <1>   1.4470 
  2 O       -0.2030    -0.9250    -0.6540 O.2   1 <1>  -0.6500 
  3 O       -0.3710    -0.6550     1.8210 O.2   1 <1>  -0.6500 
  4 N       -1.2480     1.1580     0.2960 N.am  1 <1>  -0.8490 
  5 C        1.4680     0.8040     0.5560 C.ar  1 <1>  -0.0090 
  6 C       -2.5960     0.6400     0.5460 C.3   1 <1>   0.3390 
  7 C       -1.1560     1.7780    -1.0350 C.3   1 <1>   0.1160 
  8 C        2.4590     0.5490    -0.3860 C.ar  1 <1>  -0.1500 
  9 C        1.7210     1.7670     1.5290 C.ar  1 <1>  -0.1500 
 10 C       -3.6470     1.7420     0.4540 C.ar  1 <1>  -0.1430 
 11 C        3.6610     1.2330    -0.3610 C.ar  1 <1>   0.0830 
 12 C        2.9190     2.4630     1.5630 C.ar  1 <1>  -0.1500 
 13 C       -4.6790     1.6610    -0.4700 C.ar  1 <1>  -0.1500 
 14 C       -3.5780     2.8400     1.2980 C.ar  1 <1>  -0.1500 
 15 O        4.6010     0.9390    -1.2920 O.3   1 <1>  -0.3630 
 16 C        3.8900     2.2040     0.6140 C.ar  1 <1>   0.0830 
 17 C       -5.6310     2.6630    -0.5500 C.ar  1 <1>  -0.1500 
 18 C       -4.5280     3.8430     1.2200 C.ar  1 <1>  -0.1500 
 19 C        5.9160     1.4010    -1.0430 C.3   1 <1>   0.1200 
 20 O        5.0500     2.9050     0.6490 O.3   1 <1>  -0.3630 
 21 C       -5.5590     3.7640     0.2990 C.ar  1 <1>   0.0830 
 22 C        5.8800     2.8350    -0.4950 C.3   1 <1>   0.1200 
 23 O       -6.4480     4.7890     0.2860 O.3   1 <1>  -0.3630 
 24 C       -7.5460     4.7980    -0.5980 C.3   1 <1>   0.0400 
 25 H       -2.6460     0.2210     1.5370 H     1 <1>   0.0800 
 26 H       -2.8200    -0.1470    -0.1560 H     1 <1>   0.0800 
 27 H       -0.1520     2.1250    -1.2150 H     1 <1>   0.0800 
 28 H       -1.8120     2.6290    -1.1010 H     1 <1>   0.0800 
 29 H       -1.4210     1.0710    -1.8040 H     1 <1>   0.0800 
 30 H        2.3000    -0.1930    -1.1500 H     1 <1>   0.1500 
 31 H        0.9660     1.9750     2.2690 H     1 <1>   0.1500 
 32 H        3.1030     3.2060     2.3180 H     1 <1>   0.1500 
 33 H       -4.7480     0.8160    -1.1320 H     1 <1>   0.1500 
 34 H       -2.7790     2.9140     2.0160 H     1 <1>   0.1500 
 35 H       -6.4170     2.5710    -1.2750 H     1 <1>   0.1500 
 36 H       -4.4750     4.6940     1.8740 H     1 <1>   0.1500 
 37 H        6.4640     1.3570    -1.9660 H     1 <1>   0.0800 
 38 H        6.3730     0.7400    -0.3280 H     1 <1>   0.0800 
 39 H        5.4860     3.5080    -1.2360 H     1 <1>   0.0800 
 40 H        6.8640     3.1610    -0.2110 H     1 <1>   0.0800 
 41 H       -8.1090     5.6960    -0.4210 H     1 <1>   0.0800 
 42 H       -8.1590     3.9360    -0.4010 H     1 <1>   0.0800 
 43 H       -7.1800     4.7890    -1.6100 H     1 <1>   0.0800 
@<TRIPOS>BOND
  1   1   2  2   
  2   1   3  2   
  3   1   4  am  
  4   1   5  1   
  5   4   6  1   
  6   4   7  1   
  7   5   8  ar  
  8   5   9  ar  
  9   6  10  1   
 10   6  25  1   
 11   6  26  1   
 12   7  27  1   
 13   7  28  1   
 14   7  29  1   
 15   8  11  ar  
 16   8  30  1   
 17   9  12  ar  
 18   9  31  1   
 19  10  13  ar  
 20  10  14  ar  
 21  11  15  1   
 22  11  16  ar  
 23  12  16  ar  
 24  12  32  1   
 25  13  17  ar  
 26  13  33  1   
 27  14  18  ar  
 28  14  34  1   
 29  15  19  1   
 30  16  20  1   
 31  17  21  ar  
 32  17  35  1   
 33  18  21  ar  
 34  18  36  1   
 35  19  22  1   
 36  19  37  1   
 37  19  38  1   
 38  20  22  1   
 39  21  23  1   
 40  22  39  1   
 41  22  40  1   
 42  23  24  1   
 43  24  41  1   
 44  24  42  1   
 45  24  43  1   
@<TRIPOS>SUBSTRUCTURE
  1 ****   4 GROUP 4 **** **** 0

# MOE 2024.06 (io_trps.svl 2023.06)
