@<TRIPOS>MOLECULE
NONAME
49 51 1 0 0 
SMALL
USER_CHARGES


@<TRIPOS>ATOM
  1 O       -2.3520    -0.1800     2.2320 O.2   1 <1>  -0.5700 
  2 C       -2.4980    -0.1730     1.0360 C.2   1 <1>   0.6590 
  3 O       -2.3100    -1.2630     0.2960 O.3   1 <1>  -0.4300 
  4 C       -2.8920     1.1010     0.2770 C.3   1 <1>   0.1710 
  5 C       -1.9100    -2.4890     0.8760 C.3   1 <1>   0.0400 
  6 N       -4.3410     1.2290    -0.0820 N.3   1 <1>  -0.8100 
  7 C       -4.6530     2.5720    -0.6260 C.3   1 <1>   0.1100 
  8 C       -4.7980     0.1620    -1.0110 C.3   1 <1>   0.1100 
  9 C       -6.1650     2.7500    -0.9130 C.3   1 <1>   0.3430 
 10 C       -6.2800     0.3320    -1.4280 C.3   1 <1>   0.3430 
 11 N       -6.9100     1.4690    -0.6820 N.4   1 <1>  -0.9590 
 12 C       -8.3790     1.5670    -0.8370 C.3   1 <1>   0.7100 
 13 C       -8.9060     2.7540    -0.0360 C.ar  1 <1>  -0.1440 
 14 C       -9.0440     0.2450    -0.4540 C.ar  1 <1>  -0.1440 
 15 C       -9.5370     3.7910    -0.7120 C.ar  1 <1>  -0.1500 
 16 C       -8.7580     2.8420     1.3440 C.ar  1 <1>  -0.1500 
 17 C       -8.6810    -0.4830     0.6760 C.ar  1 <1>  -0.1500 
 18 C      -10.0450    -0.2550    -1.2780 C.ar  1 <1>  -0.1500 
 19 C      -10.0010     4.8990    -0.0240 C.ar  1 <1>  -0.1500 
 20 C       -9.2230     3.9500     2.0300 C.ar  1 <1>  -0.1500 
 21 C       -9.2990    -1.6860     0.9660 C.ar  1 <1>  -0.1500 
 22 C      -10.6620    -1.4580    -0.9870 C.ar  1 <1>  -0.1500 
 23 C       -9.8430     4.9790     1.3470 C.ar  1 <1>  -0.1500 
 24 C      -10.2890    -2.1750     0.1340 C.ar  1 <1>  -0.1500 
 25 H       -2.2920     1.1580    -0.6140 H     1 <1>   0.0800 
 26 H       -2.6190     1.9300     0.9060 H     1 <1>   0.0800 
 27 H       -0.9620    -2.3500     1.3670 H     1 <1>   0.0800 
 28 H       -1.8190    -3.2240     0.0970 H     1 <1>   0.0800 
 29 H       -2.6540    -2.7950     1.5920 H     1 <1>   0.0800 
 30 H       -4.0980     2.7370    -1.5350 H     1 <1>   0.0800 
 31 H       -4.3470     3.3270     0.0800 H     1 <1>   0.0800 
 32 H       -4.6950    -0.7970    -0.5330 H     1 <1>   0.0800 
 33 H       -4.1800     0.1490    -1.8940 H     1 <1>   0.0800 
 34 H       -6.2980     3.0830    -1.9290 H     1 <1>   0.0800 
 35 H       -6.5500     3.5210    -0.2640 H     1 <1>   0.0800 
 36 H       -6.8050    -0.5880    -1.2260 H     1 <1>   0.0800 
 37 H       -6.3330     0.5120    -2.4890 H     1 <1>   0.0800 
 38 H       -6.7270     1.2560     0.3050 H     1 <1>   0.4500 
 39 H       -8.5960     1.7510    -1.8760 H     1 <1>   0.0800 
 40 H       -9.6800     3.7560    -1.7790 H     1 <1>   0.1500 
 41 H       -8.2870     2.0590     1.9090 H     1 <1>   0.1500 
 42 H       -7.9180    -0.1370     1.3500 H     1 <1>   0.1500 
 43 H      -10.3620     0.2830    -2.1560 H     1 <1>   0.1500 
 44 H      -10.4910     5.7000    -0.5520 H     1 <1>   0.1500 
 45 H       -9.1080     4.0120     3.0990 H     1 <1>   0.1500 
 46 H       -9.0160    -2.2450     1.8420 H     1 <1>   0.1500 
 47 H      -11.4380    -1.8390    -1.6300 H     1 <1>   0.1500 
 48 H      -10.2060     5.8400     1.8820 H     1 <1>   0.1500 
 49 H      -10.7720    -3.1110     0.3620 H     1 <1>   0.1500 
@<TRIPOS>BOND
  1   1   2  2   
  2   2   3  1   
  3   2   4  1   
  4   3   5  1   
  5   4   6  1   
  6   4  25  1   
  7   4  26  1   
  8   5  27  1   
  9   5  28  1   
 10   5  29  1   
 11   6   7  1   
 12   6   8  1   
 13   7   9  1   
 14   7  30  1   
 15   7  31  1   
 16   8  10  1   
 17   8  32  1   
 18   8  33  1   
 19   9  11  1   
 20   9  34  1   
 21   9  35  1   
 22  10  11  1   
 23  10  36  1   
 24  10  37  1   
 25  11  12  1   
 26  11  38  1   
 27  12  13  1   
 28  12  14  1   
 29  12  39  1   
 30  13  15  ar  
 31  13  16  ar  
 32  14  17  ar  
 33  14  18  ar  
 34  15  19  ar  
 35  15  40  1   
 36  16  20  ar  
 37  16  41  1   
 38  17  21  ar  
 39  17  42  1   
 40  18  22  ar  
 41  18  43  1   
 42  19  23  ar  
 43  19  44  1   
 44  20  23  ar  
 45  20  45  1   
 46  21  24  ar  
 47  21  46  1   
 48  22  24  ar  
 49  22  47  1   
 50  23  48  1   
 51  24  49  1   
@<TRIPOS>SUBSTRUCTURE
  1 ****  11 GROUP 4 **** **** 0

# MOE 2024.06 (io_trps.svl 2023.06)
