@<TRIPOS>MOLECULE
NONAME
47 48 1 0 0 
SMALL
USER_CHARGES


@<TRIPOS>ATOM
  1 O       -0.0760     0.2270     0.3770 O.2   1 <1>  -0.5700 
  2 C        0.5600     1.2460     0.2120 C.2   1 <1>   0.6340 
  3 O        1.8930     1.1680     0.1370 O.3   1 <1>  -0.4300 
  4 C       -0.0560     2.5560     0.0860 C.ar  1 <1>   0.0860 
  5 C        2.5750    -0.0650     0.2590 C.3   1 <1>   0.0400 
  6 C        0.7030     3.7180    -0.0470 C.ar  1 <1>  -0.1500 
  7 C       -1.4420     2.7010     0.0930 C.ar  1 <1>  -0.1500 
  8 C        0.1190     4.9710    -0.1650 C.ar  1 <1>   0.1170 
  9 C       -2.0780     3.9360    -0.0290 C.ar  1 <1>   0.0860 
 10 N        0.8710     6.1490    -0.3070 N.am  1 <1>  -0.5470 
 11 C       -1.2640     5.0600    -0.1590 C.ar  1 <1>  -0.1500 
 12 C       -3.5280     4.0350    -0.0200 C.2   1 <1>   0.6340 
 13 C        2.1180     6.4410     0.1900 C.2   1 <1>   0.5690 
 14 O       -4.2580     3.0750     0.0950 O.2   1 <1>  -0.5700 
 15 O       -4.0740     5.2490    -0.1480 O.3   1 <1>  -0.4300 
 16 O        2.7480     5.6780     0.8820 O.2   1 <1>  -0.5700 
 17 C        2.7760     7.7990    -0.1230 C.3   1 <1>   0.4040 
 18 C       -5.4770     5.4360    -0.1480 C.3   1 <1>   0.0400 
 19 N        4.2710     7.8110     0.1120 N.4   1 <1>  -0.9590 
 20 C        4.8290     9.1880     0.2210 C.3   1 <1>   0.3430 
 21 C        4.9990     6.9690    -0.8850 C.3   1 <1>   0.3430 
 22 C        6.3010     9.1160     0.6330 C.3   1 <1>  -0.1600 
 23 C        6.4730     6.8660    -0.4900 C.3   1 <1>  -0.1600 
 24 C        7.1200     8.2480    -0.3300 C.3   1 <1>  -0.1600 
 25 H        3.6300     0.1170     0.1670 H     1 <1>   0.0800 
 26 H        2.2410    -0.7260    -0.5220 H     1 <1>   0.0800 
 27 H        2.3540    -0.4900     1.2230 H     1 <1>   0.0800 
 28 H        1.7750     3.6320    -0.0610 H     1 <1>   0.1500 
 29 H       -2.0510     1.8170     0.1970 H     1 <1>   0.1500 
 30 H        0.3680     6.8950    -0.7910 H     1 <1>   0.3700 
 31 H       -1.7270     6.0260    -0.2500 H     1 <1>   0.1500 
 32 H        2.3140     8.5340     0.5120 H     1 <1>   0.0800 
 33 H        2.5700     8.0610    -1.1460 H     1 <1>   0.0800 
 34 H       -5.6830     6.4850    -0.2620 H     1 <1>   0.0800 
 35 H       -5.8750     5.0790     0.7870 H     1 <1>   0.0800 
 36 H       -5.9020     4.8820    -0.9670 H     1 <1>   0.0800 
 37 H        4.4100     7.3300     1.0180 H     1 <1>   0.4500 
 38 H        4.2810     9.7550     0.9570 H     1 <1>   0.0800 
 39 H        4.7480     9.6920    -0.7290 H     1 <1>   0.0800 
 40 H        4.9200     7.4100    -1.8660 H     1 <1>   0.0800 
 41 H        4.5720     5.9790    -0.9170 H     1 <1>   0.0800 
 42 H        6.3720     8.7210     1.6320 H     1 <1>   0.0800 
 43 H        6.7110    10.1110     0.6510 H     1 <1>   0.0800 
 44 H        7.0010     6.3110    -1.2460 H     1 <1>   0.0800 
 45 H        6.5560     6.3120     0.4290 H     1 <1>   0.0800 
 46 H        8.1260     8.1390     0.0410 H     1 <1>   0.0800 
 47 H        7.1790     8.7320    -1.2920 H     1 <1>   0.0800 
@<TRIPOS>BOND
  1   1   2  2   
  2   2   3  1   
  3   2   4  1   
  4   3   5  1   
  5   4   6  ar  
  6   4   7  ar  
  7   5  25  1   
  8   5  26  1   
  9   5  27  1   
 10   6   8  ar  
 11   6  28  1   
 12   7   9  ar  
 13   7  29  1   
 14   8  10  1   
 15   8  11  ar  
 16   9  11  ar  
 17   9  12  1   
 18  10  13  am  
 19  10  30  1   
 20  11  31  1   
 21  12  14  2   
 22  12  15  1   
 23  13  16  2   
 24  13  17  1   
 25  15  18  1   
 26  17  19  1   
 27  17  32  1   
 28  17  33  1   
 29  18  34  1   
 30  18  35  1   
 31  18  36  1   
 32  19  20  1   
 33  19  21  1   
 34  19  37  1   
 35  20  22  1   
 36  20  38  1   
 37  20  39  1   
 38  21  23  1   
 39  21  40  1   
 40  21  41  1   
 41  22  24  1   
 42  22  42  1   
 43  22  43  1   
 44  23  24  1   
 45  23  44  1   
 46  23  45  1   
 47  24  46  1   
 48  24  47  1   
@<TRIPOS>SUBSTRUCTURE
  1 ****   8 GROUP 4 **** **** 0

# MOE 2024.06 (io_trps.svl 2023.06)
