@<TRIPOS>MOLECULE
NONAME
34 34 1 0 0 
SMALL
USER_CHARGES


@<TRIPOS>ATOM
  1 N        1.5810    -0.5970     2.2760 N.1   1 <1>  -0.5570 
  2 C        2.0850    -1.1400     1.4160 C.1   1 <1>   0.7950 
  3 N        2.7350    -1.6820     0.3260 N.pl3 1 <1>  -0.6160 
  4 C        2.6720    -3.0260     0.2410 C.ar  1 <1>   0.9310 
  5 C        3.3110    -0.9290    -0.5640 C.cat 1 <1>   1.2000 
  6 N        3.8080    -3.6540     0.2720 N.ar  1 <1>  -0.6200 
  7 N        1.4900    -3.5390     0.1000 N.ar  1 <1>  -0.6200 
  8 N        4.0350    -1.4060    -1.5430 N.pl3 1 <1>  -0.9670 
  9 N        3.2200     0.3790    -0.5610 N.pl3 1 <1>  -0.9670 
 10 C        3.6900    -4.9500     0.1490 C.ar  1 <1>   0.7200 
 11 C        1.4930    -4.8420    -0.0100 C.ar  1 <1>   0.7200 
 12 N        2.5640    -5.5880    -0.0030 N.ar  1 <1>  -0.6200 
 13 N        4.8530    -5.6810     0.1490 N.pl3 1 <1>  -0.8380 
 14 N        0.2750    -5.4630    -0.1580 N.pl3 1 <1>  -0.8380 
 15 C        6.0770    -5.2590     0.8920 C.3   1 <1>   0.1290 
 16 C        4.8840    -7.0970    -0.3250 C.3   1 <1>   0.1290 
 17 C        0.1600    -6.8950    -0.5650 C.3   1 <1>   0.1290 
 18 C       -1.0230    -4.8140     0.1920 C.3   1 <1>   0.1290 
 19 H        4.4820    -0.8340    -2.2540 H     1 <1>   0.4500 
 20 H        4.2820    -2.4000    -1.5770 H     1 <1>   0.4500 
 21 H        3.6720     0.9580    -1.2630 H     1 <1>   0.4500 
 22 H        2.6860     0.9060     0.1320 H     1 <1>   0.4500 
 23 H        5.8900    -4.3830     1.4890 H     1 <1>   0.0800 
 24 H        6.8680    -5.0450     0.1950 H     1 <1>   0.0800 
 25 H        6.3950    -6.0490     1.5500 H     1 <1>   0.0800 
 26 H        4.1650    -7.2500    -1.1110 H     1 <1>   0.0800 
 27 H        4.6530    -7.7580     0.4920 H     1 <1>   0.0800 
 28 H        5.8600    -7.3370    -0.7090 H     1 <1>   0.0800 
 29 H        0.9970    -7.1880    -1.1750 H     1 <1>   0.0800 
 30 H       -0.7400    -7.0460    -1.1350 H     1 <1>   0.0800 
 31 H        0.1320    -7.5190     0.3120 H     1 <1>   0.0800 
 32 H       -0.8740    -3.9660     0.8370 H     1 <1>   0.0800 
 33 H       -1.6570    -5.5160     0.7070 H     1 <1>   0.0800 
 34 H       -1.5180    -4.4880    -0.7060 H     1 <1>   0.0800 
@<TRIPOS>BOND
  1   1   2  3   
  2   2   3  1   
  3   3   4  1   
  4   3   5  ar  
  5   4   6  ar  
  6   4   7  ar  
  7   5   8  ar  
  8   5   9  ar  
  9   6  10  ar  
 10   7  11  ar  
 11   8  19  1   
 12   8  20  1   
 13   9  21  1   
 14   9  22  1   
 15  10  12  ar  
 16  10  13  1   
 17  11  12  ar  
 18  11  14  1   
 19  13  15  1   
 20  13  16  1   
 21  14  17  1   
 22  14  18  1   
 23  15  23  1   
 24  15  24  1   
 25  15  25  1   
 26  16  26  1   
 27  16  27  1   
 28  16  28  1   
 29  17  29  1   
 30  17  30  1   
 31  17  31  1   
 32  18  32  1   
 33  18  33  1   
 34  18  34  1   
@<TRIPOS>SUBSTRUCTURE
  1 ****   4 GROUP 4 **** **** 0

# MOE 2024.06 (io_trps.svl 2023.06)
