@<TRIPOS>MOLECULE
NONAME
46 47 1 0 0 
SMALL
USER_CHARGES


@<TRIPOS>ATOM
  1 F        2.2900    -0.8940    -1.2850 F     1 <1>  -0.1900 
  2 C        3.0030     0.1730    -1.0520 C.ar  1 <1>   0.1900 
  3 C        2.7630     0.8980     0.0990 C.ar  1 <1>  -0.1500 
  4 C        3.9720     0.5400    -1.9650 C.ar  1 <1>  -0.1500 
  5 C        3.5250     2.0280     0.3440 C.ar  1 <1>  -0.1500 
  6 C        4.7290     1.6720    -1.7130 C.ar  1 <1>  -0.1500 
  7 C        4.5110     2.4160    -0.5570 C.ar  1 <1>  -0.1430 
  8 C        5.3540     3.6400    -0.2770 C.3   1 <1>   0.4870 
  9 N        6.5460     3.1640     0.4530 N.4   1 <1>  -0.9060 
 10 C        7.5670     4.1910     0.7100 C.3   1 <1>   0.4230 
 11 C        8.9080     3.5090     1.0130 C.3   1 <1>  -0.1600 
 12 C        7.1000     5.0270     1.8990 C.3   1 <1>  -0.2400 
 13 C        9.7250     3.0130    -0.2070 C.3   1 <1>   0.1800 
 14 C       11.0270     2.3780     0.2930 C.2   1 <1>  -0.0400 
 15 C        8.9640     1.9610    -1.0350 C.3   1 <1>  -0.2400 
 16 C       10.0850     4.1980    -1.1190 C.3   1 <1>  -0.2400 
 17 O       11.8700     1.8930    -0.6010 O.3   1 <1>  -0.2800 
 18 C       11.5280     2.1980     1.5380 C.2   1 <1>  -0.1500 
 19 C       12.9090     1.4010     0.0380 C.2   1 <1>  -0.0400 
 20 C       12.7610     1.5580     1.3690 C.2   1 <1>  -0.1500 
 21 C       14.0290     0.7820    -0.7680 C.3   1 <1>  -0.0600 
 22 H        1.9940     0.5780     0.7810 H     1 <1>   0.1500 
 23 H        4.1210    -0.0510    -2.8520 H     1 <1>   0.1500 
 24 H        3.3320     2.5950     1.2410 H     1 <1>   0.1500 
 25 H        5.4800     1.9600    -2.4310 H     1 <1>   0.1500 
 26 H        4.7990     4.3470     0.3170 H     1 <1>   0.0800 
 27 H        5.6400     4.1080    -1.2050 H     1 <1>   0.0800 
 28 H        6.9620     2.4020    -0.0920 H     1 <1>   0.4500 
 29 H        6.2440     2.7390     1.3360 H     1 <1>   0.4500 
 30 H        7.6790     4.8310    -0.1510 H     1 <1>   0.0800 
 31 H        8.7520     2.6970     1.7010 H     1 <1>   0.0800 
 32 H        9.5290     4.2260     1.5230 H     1 <1>   0.0800 
 33 H        6.9920     4.4220     2.7830 H     1 <1>   0.0800 
 34 H        6.1700     5.5240     1.6880 H     1 <1>   0.0800 
 35 H        7.8280     5.7910     2.1100 H     1 <1>   0.0800 
 36 H        8.1260     2.3860    -1.5530 H     1 <1>   0.0800 
 37 H        9.6170     1.5530    -1.7870 H     1 <1>   0.0800 
 38 H        8.6480     1.1440    -0.4110 H     1 <1>   0.0800 
 39 H       10.7090     3.8610    -1.9290 H     1 <1>   0.0800 
 40 H        9.2150     4.6600    -1.5470 H     1 <1>   0.0800 
 41 H       10.6410     4.9380    -0.5700 H     1 <1>   0.0800 
 42 H       11.1180     2.4690     2.4940 H     1 <1>   0.1500 
 43 H       13.4290     1.2660     2.1600 H     1 <1>   0.1500 
 44 H       14.4400     1.5140    -1.4380 H     1 <1>   0.0800 
 45 H       13.6490    -0.0430    -1.3420 H     1 <1>   0.0800 
 46 H       14.8050     0.4270    -0.1150 H     1 <1>   0.0800 
@<TRIPOS>BOND
  1   1   2  1   
  2   2   3  ar  
  3   2   4  ar  
  4   3   5  ar  
  5   3  22  1   
  6   4   6  ar  
  7   4  23  1   
  8   5   7  ar  
  9   5  24  1   
 10   6   7  ar  
 11   6  25  1   
 12   7   8  1   
 13   8   9  1   
 14   8  26  1   
 15   8  27  1   
 16   9  10  1   
 17   9  28  1   
 18   9  29  1   
 19  10  11  1   
 20  10  12  1   
 21  10  30  1   
 22  11  13  1   
 23  11  31  1   
 24  11  32  1   
 25  12  33  1   
 26  12  34  1   
 27  12  35  1   
 28  13  14  1   
 29  13  15  1   
 30  13  16  1   
 31  14  17  1   
 32  14  18  2   
 33  15  36  1   
 34  15  37  1   
 35  15  38  1   
 36  16  39  1   
 37  16  40  1   
 38  16  41  1   
 39  17  19  1   
 40  18  20  1   
 41  18  42  1   
 42  19  20  2   
 43  19  21  1   
 44  20  43  1   
 45  21  44  1   
 46  21  45  1   
 47  21  46  1   
@<TRIPOS>SUBSTRUCTURE
  1 ****  15 GROUP 4 **** **** 0

# MOE 2024.06 (io_trps.svl 2023.06)
