@<TRIPOS>MOLECULE
NONAME
30 31 1 0 0 
SMALL
USER_CHARGES


@<TRIPOS>ATOM
  1 CL       0.5270    -0.2240     1.7000 Cl    1 <1>  -0.2900 
  2 C        0.7600    -1.1460     0.2150 C.3   1 <1>   0.9310 
  3 CL       0.3960    -0.0470    -1.1160 Cl    1 <1>  -0.2900 
  4 CL      -0.5150    -2.3660     0.1940 Cl    1 <1>  -0.2900 
  5 C        2.2010    -1.7400     0.1190 C.2   1 <1>   0.5690 
  6 O        2.3260    -2.9470     0.1730 O.2   1 <1>  -0.5700 
  7 N        3.3360    -0.9540    -0.0220 N.am  1 <1>  -0.6600 
  8 C        3.3480     0.5510    -0.0880 C.3   1 <1>   0.1400 
  9 C        4.6950    -1.5930    -0.1340 C.3   1 <1>   0.1400 
 10 C        4.7100     1.1580     0.2950 C.3   1 <1>   0.2090 
 11 C        5.6510    -0.7800    -1.0240 C.3   1 <1>   0.2090 
 12 N        5.8290     0.6280    -0.5420 N.pl3 1 <1>  -0.8380 
 13 C        7.0850     0.9370    -0.0690 C.ar  1 <1>   0.4100 
 14 N        7.5230     0.2380     0.9710 N.ar  1 <1>  -0.6200 
 15 C        7.8190     1.9480    -0.6820 C.ar  1 <1>  -0.1500 
 16 C        8.7290     0.5600     1.4100 C.ar  1 <1>   0.1600 
 17 C        9.0710     2.2720    -0.2150 C.ar  1 <1>  -0.1500 
 18 C        9.5320     1.5480     0.8670 C.ar  1 <1>  -0.1500 
 19 H        2.6060     0.9600     0.5710 H     1 <1>   0.0800 
 20 H        3.1140     0.8610    -1.0920 H     1 <1>   0.0800 
 21 H        4.6080    -2.5840    -0.5420 H     1 <1>   0.0800 
 22 H        5.1280    -1.6790     0.8480 H     1 <1>   0.0800 
 23 H        4.9090     0.9490     1.3330 H     1 <1>   0.0800 
 24 H        4.6680     2.2270     0.1780 H     1 <1>   0.0800 
 25 H        5.2650    -0.7600    -2.0280 H     1 <1>   0.0800 
 26 H        6.6060    -1.2780    -1.0540 H     1 <1>   0.0800 
 27 H        7.3870     2.4610    -1.5190 H     1 <1>   0.1500 
 28 H        9.1000     0.0030     2.2530 H     1 <1>   0.1500 
 29 H        9.6620     3.0480    -0.6680 H     1 <1>   0.1500 
 30 H       10.5020     1.7480     1.2840 H     1 <1>   0.1500 
@<TRIPOS>BOND
  1   1   2  1   
  2   2   3  1   
  3   2   4  1   
  4   2   5  1   
  5   5   6  2   
  6   5   7  am  
  7   7   8  1   
  8   7   9  1   
  9   8  10  1   
 10   8  19  1   
 11   8  20  1   
 12   9  11  1   
 13   9  21  1   
 14   9  22  1   
 15  10  12  1   
 16  10  23  1   
 17  10  24  1   
 18  11  12  1   
 19  11  25  1   
 20  11  26  1   
 21  12  13  1   
 22  13  14  ar  
 23  13  15  ar  
 24  14  16  ar  
 25  15  17  ar  
 26  15  27  1   
 27  16  18  ar  
 28  16  28  1   
 29  17  18  ar  
 30  17  29  1   
 31  18  30  1   
@<TRIPOS>SUBSTRUCTURE
  1 ****  10 GROUP 4 **** **** 0

# MOE 2024.06 (io_trps.svl 2023.06)
