@<TRIPOS>MOLECULE
NONAME
51 54 1 0 0 
SMALL
USER_CHARGES


@<TRIPOS>ATOM
  1 O       -0.3170    -0.6440     0.5830 O.3   1 <1>  -0.3680 
  2 C       -0.4130    -1.9550     0.2520 C.ar  1 <1>   0.0750 
  3 C       -0.7160     0.3720    -0.3080 C.3   1 <1>   0.1130 
  4 C       -0.9020    -2.4170    -0.9660 C.ar  1 <1>  -0.1570 
  5 C        0.0080    -2.8700     1.2010 C.ar  1 <1>  -0.1570 
  6 C       -0.4750     1.7180     0.3690 C.3   1 <1>  -0.2460 
  7 C       -0.9620    -3.7760    -1.2200 C.ar  1 <1>  -0.1570 
  8 C       -0.0520    -4.2280     0.9470 C.ar  1 <1>  -0.1570 
  9 C       -0.5370    -4.6960    -0.2700 C.ar  1 <1>  -0.1500 
 10 C       -0.6030    -6.1910    -0.5790 C.3   1 <1>   0.5730 
 11 N       -1.3650    -6.9270     0.4610 N.pl3 1 <1>  -0.4620 
 12 C        0.8110    -6.7810    -0.6970 C.3   1 <1>  -0.1670 
 13 N       -2.4610    -6.4760     1.1490 N.2   1 <1>  -0.2660 
 14 C       -1.0550    -8.1490     0.8360 C.cat 1 <1>   1.0690 
 15 C        0.7890    -8.3140    -0.7580 C.3   1 <1>   0.3860 
 16 C       -2.7530    -7.4470     1.9310 C.2   1 <1>   0.4980 
 17 N       -1.9010    -8.5090     1.7700 N.pl3 1 <1>  -0.7030 
 18 N       -0.0600    -8.8530     0.3080 N.pl3 1 <1>  -0.7180 
 19 C        2.1650    -8.9290    -0.5830 C.ar  1 <1>  -0.1500 
 20 C        2.7000    -9.7100    -1.5960 C.ar  1 <1>  -0.1570 
 21 C        2.8980    -8.7440     0.5830 C.ar  1 <1>  -0.1570 
 22 C        3.9420   -10.3000    -1.4450 C.ar  1 <1>  -0.1570 
 23 C        4.1400    -9.3350     0.7310 C.ar  1 <1>  -0.1570 
 24 C        4.6690   -10.1160    -0.2810 C.ar  1 <1>  -0.1500 
 25 C        6.0340   -10.7660    -0.1160 C.3   1 <1>  -0.0240 
 26 C        5.8970   -12.1490     0.5250 C.3   1 <1>  -0.2460 
 27 H       -1.7600     0.2400    -0.5300 H     1 <1>   0.0730 
 28 H       -0.1270     0.2890    -1.2060 H     1 <1>   0.0730 
 29 H       -1.2380    -1.7320    -1.7210 H     1 <1>   0.1430 
 30 H        0.3840    -2.5050     2.1410 H     1 <1>   0.1430 
 31 H       -1.0550     1.7840     1.2730 H     1 <1>   0.0730 
 32 H       -0.7710     2.5140    -0.2880 H     1 <1>   0.0730 
 33 H        0.5680     1.8320     0.6020 H     1 <1>   0.0730 
 34 H       -1.3460    -4.1000    -2.1720 H     1 <1>   0.1430 
 35 H        0.2820    -4.9080     1.7100 H     1 <1>   0.1430 
 36 H       -1.1170    -6.3290    -1.5150 H     1 <1>   0.0730 
 37 H        1.4070    -6.4560     0.1360 H     1 <1>   0.0730 
 38 H        1.2840    -6.3960    -1.5820 H     1 <1>   0.0730 
 39 H        0.3810    -8.6240    -1.7070 H     1 <1>   0.0730 
 40 H       -3.5710    -7.4480     2.6370 H     1 <1>   0.1430 
 41 H       -1.9340    -9.3970     2.2660 H     1 <1>   0.4450 
 42 H        0.2490    -9.7560     0.6710 H     1 <1>   0.4450 
 43 H        2.1640    -9.8750    -2.5150 H     1 <1>   0.1430 
 44 H        2.5210    -8.1420     1.3910 H     1 <1>   0.1430 
 45 H        4.3460   -10.9060    -2.2370 H     1 <1>   0.1430 
 46 H        4.7000    -9.1860     1.6380 H     1 <1>   0.1430 
 47 H        6.6610   -10.1450     0.4980 H     1 <1>   0.0730 
 48 H        6.5100   -10.8610    -1.0770 H     1 <1>   0.0730 
 49 H        5.4420   -12.0650     1.4950 H     1 <1>   0.0730 
 50 H        6.8660   -12.6020     0.6350 H     1 <1>   0.0730 
 51 H        5.2860   -12.7840    -0.0910 H     1 <1>   0.0730 
@<TRIPOS>BOND
  1   1   2  1   
  2   1   3  1   
  3   2   4  ar  
  4   2   5  ar  
  5   3   6  1   
  6   3  27  1   
  7   3  28  1   
  8   4   7  ar  
  9   4  29  1   
 10   5   8  ar  
 11   5  30  1   
 12   6  31  1   
 13   6  32  1   
 14   6  33  1   
 15   7   9  ar  
 16   7  34  1   
 17   8   9  ar  
 18   8  35  1   
 19   9  10  1   
 20  10  11  1   
 21  10  12  1   
 22  10  36  1   
 23  11  13  1   
 24  11  14  ar  
 25  12  15  1   
 26  12  37  1   
 27  12  38  1   
 28  13  16  2   
 29  14  17  ar  
 30  14  18  ar  
 31  15  18  1   
 32  15  19  1   
 33  15  39  1   
 34  16  17  1   
 35  16  40  1   
 36  17  41  1   
 37  18  42  1   
 38  19  20  ar  
 39  19  21  ar  
 40  20  22  ar  
 41  20  43  1   
 42  21  23  ar  
 43  21  44  1   
 44  22  24  ar  
 45  22  45  1   
 46  23  24  ar  
 47  23  46  1   
 48  24  25  1   
 49  25  26  1   
 50  25  47  1   
 51  25  48  1   
 52  26  49  1   
 53  26  50  1   
 54  26  51  1   
@<TRIPOS>SUBSTRUCTURE
  1 ****  12 GROUP 4 **** **** 0

# MOE 2024.06 (io_trps.svl 2023.06)
