@<TRIPOS>MOLECULE
NONAME
49 51 1 0 0 
SMALL
USER_CHARGES


@<TRIPOS>ATOM
  1 F        0.5780    -0.1530    -0.9990 F     1 <1>  -0.1900 
  2 C        1.7200    -0.7430    -0.7850 C.ar  1 <1>   0.1900 
  3 C        2.0940    -1.0270     0.5150 C.ar  1 <1>  -0.1500 
  4 C        2.5190    -1.0670    -1.8650 C.ar  1 <1>  -0.1500 
  5 C        3.3100    -1.6510     0.7340 C.ar  1 <1>  -0.1500 
  6 C        3.7320    -1.6910    -1.6270 C.ar  1 <1>  -0.1500 
  7 C        4.1550    -1.9880    -0.3280 C.ar  1 <1>   0.0860 
  8 C        5.4320    -2.6340    -0.0990 C.2   1 <1>   0.5440 
  9 O        5.6410    -3.7160    -0.6150 O.2   1 <1>  -0.5700 
 10 N        6.4180    -2.0580     0.6800 N.am  1 <1>  -0.6600 
 11 C        7.6640    -2.7980     1.0290 C.3   1 <1>   0.1400 
 12 C        6.4190    -0.6240     1.0820 C.3   1 <1>   0.1400 
 13 C        8.8700    -2.1050     0.3890 C.3   1 <1>  -0.1600 
 14 C        7.6210     0.0840     0.4510 C.3   1 <1>  -0.1600 
 15 C        8.9500    -0.6200     0.7910 C.3   1 <1>  -0.0190 
 16 C       10.1620     0.0560     0.1460 C.2   1 <1>   0.5690 
 17 O       10.0260     0.6390    -0.9020 O.2   1 <1>  -0.5700 
 18 N       11.3590    -0.0540     0.8020 N.am  1 <1>  -0.5470 
 19 C       12.6350     0.4500     0.5030 C.ar  1 <1>   0.1170 
 20 C       12.8550     1.5040    -0.3770 C.ar  1 <1>  -0.1500 
 21 C       13.7360    -0.1200     1.1300 C.ar  1 <1>  -0.1500 
 22 C       14.1350     1.9680    -0.6250 C.ar  1 <1>  -0.1500 
 23 C       15.0170     0.3420     0.8850 C.ar  1 <1>  -0.1500 
 24 C       15.2250     1.3910     0.0050 C.ar  1 <1>  -0.1430 
 25 C       16.6310     1.9010    -0.2690 C.3   1 <1>  -0.0170 
 26 C       17.2580     1.1440    -1.4410 C.3   1 <1>  -0.2400 
 27 H        1.4420    -0.7660     1.3300 H     1 <1>   0.1500 
 28 H        2.1950    -0.8380    -2.8640 H     1 <1>   0.1500 
 29 H        3.6170    -1.8890     1.7370 H     1 <1>   0.1500 
 30 H        4.3700    -1.9610    -2.4520 H     1 <1>   0.1500 
 31 H        7.6120    -3.8180     0.6880 H     1 <1>   0.0800 
 32 H        7.7710    -2.8140     2.0990 H     1 <1>   0.0800 
 33 H        6.4760    -0.5600     2.1550 H     1 <1>   0.0800 
 34 H        5.5180    -0.1300     0.7640 H     1 <1>   0.0800 
 35 H        8.7870    -2.1870    -0.6820 H     1 <1>   0.0800 
 36 H        9.7680    -2.6170     0.6850 H     1 <1>   0.0800 
 37 H        7.6550     1.1040     0.7920 H     1 <1>   0.0800 
 38 H        7.4820     0.1050    -0.6170 H     1 <1>   0.0800 
 39 H        9.0780    -0.5670     1.8570 H     1 <1>   0.0800 
 40 H       11.3340    -0.6380     1.6340 H     1 <1>   0.3700 
 41 H       12.0280     1.9740    -0.8760 H     1 <1>   0.1500 
 42 H       13.5980    -0.9370     1.8140 H     1 <1>   0.1500 
 43 H       14.2770     2.7820    -1.3140 H     1 <1>   0.1500 
 44 H       15.8540    -0.1180     1.3790 H     1 <1>   0.1500 
 45 H       17.2400     1.7770     0.6100 H     1 <1>   0.0800 
 46 H       16.5970     2.9530    -0.4950 H     1 <1>   0.0800 
 47 H       17.3110     0.0930    -1.2170 H     1 <1>   0.0800 
 48 H       18.2500     1.5090    -1.6310 H     1 <1>   0.0800 
 49 H       16.6630     1.2760    -2.3270 H     1 <1>   0.0800 
@<TRIPOS>BOND
  1   1   2  1   
  2   2   3  ar  
  3   2   4  ar  
  4   3   5  ar  
  5   3  27  1   
  6   4   6  ar  
  7   4  28  1   
  8   5   7  ar  
  9   5  29  1   
 10   6   7  ar  
 11   6  30  1   
 12   7   8  1   
 13   8   9  2   
 14   8  10  am  
 15  10  11  1   
 16  10  12  1   
 17  11  13  1   
 18  11  31  1   
 19  11  32  1   
 20  12  14  1   
 21  12  33  1   
 22  12  34  1   
 23  13  15  1   
 24  13  35  1   
 25  13  36  1   
 26  14  15  1   
 27  14  37  1   
 28  14  38  1   
 29  15  16  1   
 30  15  39  1   
 31  16  17  2   
 32  16  18  am  
 33  18  19  1   
 34  18  40  1   
 35  19  20  ar  
 36  19  21  ar  
 37  20  22  ar  
 38  20  41  1   
 39  21  23  ar  
 40  21  42  1   
 41  22  24  ar  
 42  22  43  1   
 43  23  24  ar  
 44  23  44  1   
 45  24  25  1   
 46  25  26  1   
 47  25  45  1   
 48  25  46  1   
 49  26  47  1   
 50  26  48  1   
 51  26  49  1   
@<TRIPOS>SUBSTRUCTURE
  1 ****  15 GROUP 4 **** **** 0

# MOE 2024.06 (io_trps.svl 2023.06)
