@<TRIPOS>MOLECULE
NONAME
42 44 1 0 0 
SMALL
USER_CHARGES


@<TRIPOS>ATOM
  1 CL       0.1000    -0.3260     0.7790 Cl    1 <1>  -0.1770 
  2 C        1.1420    -1.6070     0.2020 C.ar  1 <1>   0.1770 
  3 C        0.6900    -2.4900    -0.7680 C.ar  1 <1>  -0.1440 
  4 C        2.4110    -1.7030     0.7370 C.ar  1 <1>  -0.1500 
  5 C        1.5510    -3.4880    -1.1970 C.ar  1 <1>  -0.1500 
  6 C       -0.7110    -2.3770    -1.3510 C.3   1 <1>  -0.0960 
  7 C        3.2740    -2.7030     0.3100 C.ar  1 <1>   0.1170 
  8 C        2.8260    -3.5890    -0.6650 C.ar  1 <1>  -0.1500 
  9 N        4.5620    -2.7660     0.8590 N.am  1 <1>  -0.5470 
 10 C        5.4430    -3.8020     0.9730 C.2   1 <1>   0.6900 
 11 O        5.1060    -4.9450     0.7290 O.2   1 <1>  -0.5700 
 12 N        6.7150    -3.5320     1.4020 N.am  1 <1>  -0.6600 
 13 C        7.4390    -2.2550     1.0970 C.3   1 <1>   0.1400 
 14 C        7.6320    -4.6380     1.8280 C.3   1 <1>   0.1400 
 15 C        8.5890    -2.4830     0.1000 C.3   1 <1>   0.2090 
 16 C        8.7650    -4.8490     0.8100 C.3   1 <1>   0.2090 
 17 N        9.5000    -3.5730     0.5640 N.pl3 1 <1>  -0.8380 
 18 C       10.7500    -3.6710    -0.0180 C.ar  1 <1>   0.4100 
 19 N       10.8790    -3.2370    -1.2670 N.ar  1 <1>  -0.6200 
 20 C       11.8050    -4.2160     0.7110 C.ar  1 <1>  -0.1500 
 21 C       12.0840    -3.3570    -1.8000 C.ar  1 <1>   0.1600 
 22 C       13.0520    -4.3350     0.1450 C.ar  1 <1>  -0.1500 
 23 C       13.1860    -3.8880    -1.1540 C.ar  1 <1>  -0.1500 
 24 H        2.7170    -1.0000     1.4880 H     1 <1>   0.1500 
 25 H        1.2380    -4.1930    -1.9470 H     1 <1>   0.1500 
 26 H       -1.4420    -2.4790    -0.5690 H     1 <1>   0.0800 
 27 H       -0.8860    -3.1430    -2.0850 H     1 <1>   0.0800 
 28 H       -0.8370    -1.4180    -1.8210 H     1 <1>   0.0800 
 29 H        3.4780    -4.3690    -1.0170 H     1 <1>   0.1500 
 30 H        4.8640    -1.9490     1.3780 H     1 <1>   0.3700 
 31 H        7.8460    -1.8560     2.0100 H     1 <1>   0.0800 
 32 H        6.7700    -1.5230     0.6830 H     1 <1>   0.0800 
 33 H        7.0860    -5.5580     1.9460 H     1 <1>   0.0800 
 34 H        8.0620    -4.3890     2.7820 H     1 <1>   0.0800 
 35 H        9.1520    -1.5730    -0.0130 H     1 <1>   0.0800 
 36 H        8.1830    -2.7440    -0.8620 H     1 <1>   0.0800 
 37 H        8.3470    -5.2050    -0.1170 H     1 <1>   0.0800 
 38 H        9.4430    -5.5980     1.1790 H     1 <1>   0.0800 
 39 H       11.6250    -4.5330     1.7190 H     1 <1>   0.1500 
 40 H       12.2000    -3.0110    -2.8120 H     1 <1>   0.1500 
 41 H       13.8840    -4.7520     0.6870 H     1 <1>   0.1500 
 42 H       14.1330    -3.9500    -1.6580 H     1 <1>   0.1500 
@<TRIPOS>BOND
  1   1   2  1   
  2   2   3  ar  
  3   2   4  ar  
  4   3   5  ar  
  5   3   6  1   
  6   4   7  ar  
  7   4  24  1   
  8   5   8  ar  
  9   5  25  1   
 10   6  26  1   
 11   6  27  1   
 12   6  28  1   
 13   7   8  ar  
 14   7   9  1   
 15   8  29  1   
 16   9  10  am  
 17   9  30  1   
 18  10  11  2   
 19  10  12  am  
 20  12  13  1   
 21  12  14  1   
 22  13  15  1   
 23  13  31  1   
 24  13  32  1   
 25  14  16  1   
 26  14  33  1   
 27  14  34  1   
 28  15  17  1   
 29  15  35  1   
 30  15  36  1   
 31  16  17  1   
 32  16  37  1   
 33  16  38  1   
 34  17  18  1   
 35  18  19  ar  
 36  18  20  ar  
 37  19  21  ar  
 38  20  22  ar  
 39  20  39  1   
 40  21  23  ar  
 41  21  40  1   
 42  22  23  ar  
 43  22  41  1   
 44  23  42  1   
@<TRIPOS>SUBSTRUCTURE
  1 ****  12 GROUP 4 **** **** 0

# MOE 2024.06 (io_trps.svl 2023.06)
