@<TRIPOS>MOLECULE
NONAME
42 45 1 0 0 
SMALL
USER_CHARGES


@<TRIPOS>ATOM
  1 S       -2.2890    -1.5710    -1.7660 S.3   1 <1>  -0.0800 
  2 C       -2.3850    -1.4060    -0.0110 C.2   1 <1>   0.4420 
  3 C       -0.5720    -1.8770    -1.6370 C.ar  1 <1>   0.0400 
  4 N       -1.2660    -1.5610     0.5900 N.2   1 <1>  -0.5650 
  5 N       -3.6310    -1.1310     0.4940 N.am  1 <1>  -0.4940 
  6 C       -0.2350    -1.8270    -0.2980 C.ar  1 <1>   0.2270 
  7 C        0.3370    -2.1310    -2.6470 C.ar  1 <1>  -0.1500 
  8 C       -4.0780    -0.9990     1.7750 C.2   1 <1>   0.5690 
  9 C        1.0910    -2.0430     0.0500 C.ar  1 <1>  -0.1500 
 10 C        1.6560    -2.3440    -2.2810 C.ar  1 <1>  -0.1500 
 11 O       -3.4010    -1.1510     2.7610 O.2   1 <1>  -0.5700 
 12 C       -5.5530    -0.6270     1.9310 C.3   1 <1>   0.1710 
 13 C        2.0290    -2.3000    -0.9390 C.ar  1 <1>  -0.1500 
 14 N       -6.3800    -0.9480     0.7270 N.3   1 <1>  -0.8100 
 15 C       -6.6820    -2.3930     0.6780 C.3   1 <1>   0.1100 
 16 C       -7.6240    -0.1600     0.7370 C.3   1 <1>   0.1100 
 17 C       -7.4170    -2.7240    -0.6210 C.3   1 <1>  -0.1600 
 18 C       -8.3980    -0.4000    -0.5580 C.3   1 <1>  -0.1600 
 19 C       -8.6880    -1.8830    -0.7390 C.3   1 <1>   0.5600 
 20 O       -9.2970    -2.0840    -1.9680 O.3   1 <1>  -0.5600 
 21 O       -9.6240    -2.2850     0.2100 O.3   1 <1>  -0.5600 
 22 C      -10.2150    -3.1080    -1.8520 C.3   1 <1>   0.1200 
 23 C      -10.5060    -3.1810    -0.3660 C.3   1 <1>   0.1200 
 24 H       -4.3920    -1.0270    -0.1810 H     1 <1>   0.3700 
 25 H        0.0250    -2.1590    -3.6760 H     1 <1>   0.1500 
 26 H        1.3660    -2.0070     1.0880 H     1 <1>   0.1500 
 27 H        2.3980    -2.5450    -3.0350 H     1 <1>   0.1500 
 28 H       -5.5850     0.4310     2.1160 H     1 <1>   0.0800 
 29 H       -5.9510    -1.1240     2.7990 H     1 <1>   0.0800 
 30 H        3.0570    -2.4670    -0.6670 H     1 <1>   0.1500 
 31 H       -7.2950    -2.6680     1.5220 H     1 <1>   0.0800 
 32 H       -5.7710    -2.9650     0.7230 H     1 <1>   0.0800 
 33 H       -7.3910     0.8890     0.8140 H     1 <1>   0.0800 
 34 H       -8.2320    -0.4380     1.5830 H     1 <1>   0.0800 
 35 H       -7.6590    -3.7690    -0.6450 H     1 <1>   0.0800 
 36 H       -6.7700    -2.5030    -1.4490 H     1 <1>   0.0800 
 37 H       -7.8090    -0.0500    -1.3850 H     1 <1>   0.0800 
 38 H       -9.3240     0.1450    -0.5420 H     1 <1>   0.0800 
 39 H       -9.7700    -4.0190    -2.2120 H     1 <1>   0.0800 
 40 H      -11.0900    -2.8670    -2.4290 H     1 <1>   0.0800 
 41 H      -11.5110    -2.8700    -0.1410 H     1 <1>   0.0800 
 42 H      -10.3220    -4.1640     0.0300 H     1 <1>   0.0800 
@<TRIPOS>BOND
  1   1   2  1   
  2   1   3  1   
  3   2   4  2   
  4   2   5  1   
  5   3   6  ar  
  6   3   7  ar  
  7   4   6  1   
  8   5   8  am  
  9   5  24  1   
 10   6   9  ar  
 11   7  10  ar  
 12   7  25  1   
 13   8  11  2   
 14   8  12  1   
 15   9  13  ar  
 16   9  26  1   
 17  10  13  ar  
 18  10  27  1   
 19  12  14  1   
 20  12  28  1   
 21  12  29  1   
 22  13  30  1   
 23  14  15  1   
 24  14  16  1   
 25  15  17  1   
 26  15  31  1   
 27  15  32  1   
 28  16  18  1   
 29  16  33  1   
 30  16  34  1   
 31  17  19  1   
 32  17  35  1   
 33  17  36  1   
 34  18  19  1   
 35  18  37  1   
 36  18  38  1   
 37  19  20  1   
 38  19  21  1   
 39  20  22  1   
 40  21  23  1   
 41  22  23  1   
 42  22  39  1   
 43  22  40  1   
 44  23  41  1   
 45  23  42  1   
@<TRIPOS>SUBSTRUCTURE
  1 ****   5 GROUP 4 **** **** 0

# MOE 2024.06 (io_trps.svl 2023.06)
