@<TRIPOS>MOLECULE
NONAME
51 52 1 0 0 
SMALL
USER_CHARGES


@<TRIPOS>ATOM
  1 S        0.5260     0.8020     2.6000 S.o2  1 <1>   1.3330 
  2 O        0.2920    -0.2270     1.6220 O.2   1 <1>  -0.6500 
  3 O        1.8270     0.9280     3.2160 O.2   1 <1>  -0.6500 
  4 N        0.1970     2.3330     1.8660 N.am  1 <1>  -0.6930 
  5 C       -0.7120     0.7240     3.8750 C.3   1 <1>  -0.1350 
  6 C       -0.8770     2.4980     0.9990 C.ar  1 <1>   0.1990 
  7 C        1.3210     3.3180     1.7680 C.3   1 <1>   0.2570 
  8 C       -0.8660     1.9360    -0.2710 C.ar  1 <1>  -0.1500 
  9 C       -1.9840     3.2360     1.4010 C.ar  1 <1>  -0.1500 
 10 C        2.3860     2.9720     0.7220 C.2   1 <1>   0.5690 
 11 C       -1.9440     2.0940    -1.1220 C.ar  1 <1>   0.0820 
 12 C       -3.0630     3.4110     0.5520 C.ar  1 <1>  -0.1500 
 13 O        2.4620     3.6730    -0.2590 O.2   1 <1>  -0.5700 
 14 N        3.2120     1.9030     0.9550 N.am  1 <1>  -0.5470 
 15 O       -1.8880     1.4910    -2.3340 O.3   1 <1>  -0.3630 
 16 C       -3.0470     2.8530    -0.7150 C.ar  1 <1>   0.0830 
 17 C        4.2390     1.3260     0.1960 C.ar  1 <1>   0.1170 
 18 C       -2.7070     0.3550    -2.4880 C.3   1 <1>   0.0400 
 19 O       -4.1270     3.0700    -1.5120 O.3   1 <1>  -0.3630 
 20 C        4.8940     1.9850    -0.8400 C.ar  1 <1>  -0.1500 
 21 C        4.6340     0.0300     0.5030 C.ar  1 <1>  -0.1500 
 22 C       -3.8940     3.8390    -2.6720 C.3   1 <1>   0.0400 
 23 C        5.9070     1.3640    -1.5480 C.ar  1 <1>  -0.1500 
 24 C        5.6490    -0.5930    -0.2020 C.ar  1 <1>  -0.1500 
 25 C        6.2930     0.0700    -1.2350 C.ar  1 <1>  -0.1430 
 26 C        7.4050    -0.6110    -2.0150 C.3   1 <1>  -0.0170 
 27 C        8.7650    -0.3230    -1.3750 C.3   1 <1>  -0.2400 
 28 H       -0.6060    -0.1850     4.4350 H     1 <1>   0.0800 
 29 H       -1.6920     0.7450     3.4390 H     1 <1>   0.0800 
 30 H       -0.6110     1.5550     4.5440 H     1 <1>   0.0800 
 31 H        1.7980     3.4160     2.7270 H     1 <1>   0.0800 
 32 H        0.9130     4.2810     1.5140 H     1 <1>   0.0800 
 33 H       -0.0160     1.3640    -0.5970 H     1 <1>   0.1500 
 34 H       -1.9970     3.6760     2.3810 H     1 <1>   0.1500 
 35 H       -3.9200     3.9820     0.8620 H     1 <1>   0.1500 
 36 H        2.9910     1.3820     1.8140 H     1 <1>   0.3700 
 37 H       -2.5390    -0.0500    -3.4690 H     1 <1>   0.0800 
 38 H       -3.7370     0.6450    -2.3790 H     1 <1>   0.0800 
 39 H       -2.4390    -0.3690    -1.7380 H     1 <1>   0.0800 
 40 H        4.6170     2.9890    -1.1010 H     1 <1>   0.1500 
 41 H        4.1420    -0.4990     1.2980 H     1 <1>   0.1500 
 42 H       -4.8420     4.0500    -3.1310 H     1 <1>   0.0800 
 43 H       -3.2750     3.2810    -3.3520 H     1 <1>   0.0800 
 44 H       -3.4070     4.7560    -2.3910 H     1 <1>   0.0800 
 45 H        6.3960     1.8950    -2.3450 H     1 <1>   0.1500 
 46 H        5.9350    -1.5970     0.0560 H     1 <1>   0.1500 
 47 H        7.4020    -0.2580    -3.0310 H     1 <1>   0.0800 
 48 H        7.2350    -1.6730    -2.0380 H     1 <1>   0.0800 
 49 H        8.9500     0.7360    -1.3600 H     1 <1>   0.0800 
 50 H        9.5480    -0.8040    -1.9340 H     1 <1>   0.0800 
 51 H        8.7840    -0.6900    -0.3640 H     1 <1>   0.0800 
@<TRIPOS>BOND
  1   1   2  2   
  2   1   3  2   
  3   1   4  am  
  4   1   5  1   
  5   4   6  1   
  6   4   7  1   
  7   5  28  1   
  8   5  29  1   
  9   5  30  1   
 10   6   8  ar  
 11   6   9  ar  
 12   7  10  1   
 13   7  31  1   
 14   7  32  1   
 15   8  11  ar  
 16   8  33  1   
 17   9  12  ar  
 18   9  34  1   
 19  10  13  2   
 20  10  14  am  
 21  11  15  1   
 22  11  16  ar  
 23  12  16  ar  
 24  12  35  1   
 25  14  17  1   
 26  14  36  1   
 27  15  18  1   
 28  16  19  1   
 29  17  20  ar  
 30  17  21  ar  
 31  18  37  1   
 32  18  38  1   
 33  18  39  1   
 34  19  22  1   
 35  20  23  ar  
 36  20  40  1   
 37  21  24  ar  
 38  21  41  1   
 39  22  42  1   
 40  22  43  1   
 41  22  44  1   
 42  23  25  ar  
 43  23  45  1   
 44  24  25  ar  
 45  24  46  1   
 46  25  26  1   
 47  26  27  1   
 48  26  47  1   
 49  26  48  1   
 50  27  49  1   
 51  27  50  1   
 52  27  51  1   
@<TRIPOS>SUBSTRUCTURE
  1 ****  10 GROUP 4 **** **** 0

# MOE 2024.06 (io_trps.svl 2023.06)
