@<TRIPOS>MOLECULE
NONAME
40 42 1 0 0 
SMALL
USER_CHARGES


@<TRIPOS>ATOM
  1 O        0.2380    -0.3720    -1.0270 O.2   1 <1>  -0.5700 
  2 C        0.6770    -1.2200    -0.2720 C.2   1 <1>   0.6900 
  3 N        2.0340    -1.3390    -0.1060 N.am  1 <1>  -0.6600 
  4 N       -0.1550    -2.0500     0.4240 N.am  1 <1>  -0.5470 
  5 C        2.7390    -2.5330    -0.6740 C.3   1 <1>   0.3640 
  6 C        2.7960    -0.0590    -0.2270 C.3   1 <1>   0.1400 
  7 C       -1.5480    -2.1960     0.4640 C.ar  1 <1>   0.1170 
  8 C        2.0100    -3.8350    -0.3500 C.ar  1 <1>  -0.1440 
  9 C        4.2010    -2.6210    -0.1940 C.3   1 <1>  -0.1600 
 10 C        4.2200    -0.1830     0.3140 C.3   1 <1>  -0.1600 
 11 C       -2.0660    -3.3820     0.9720 C.ar  1 <1>  -0.1500 
 12 C       -2.4390    -1.2160     0.0370 C.ar  1 <1>  -0.1500 
 13 C        1.9290    -4.3110     0.9530 C.ar  1 <1>   0.1600 
 14 C        1.3840    -4.5510    -1.3520 C.ar  1 <1>  -0.1500 
 15 C        4.9710    -1.3140    -0.3900 C.3   1 <1>  -0.1600 
 16 C       -3.4320    -3.5910     1.0450 C.ar  1 <1>  -0.1500 
 17 C       -3.8060    -1.4210     0.1060 C.ar  1 <1>  -0.1500 
 18 N        1.2830    -5.4030     1.3240 N.ar  1 <1>  -0.6200 
 19 C        0.7170    -5.6990    -0.9850 C.ar  1 <1>  -0.1500 
 20 C       -4.3050    -2.6100     0.6100 C.ar  1 <1>  -0.1500 
 21 C        0.6980    -6.0750     0.3460 C.ar  1 <1>   0.1600 
 22 H        0.3550    -2.7890     0.8990 H     1 <1>   0.3700 
 23 H        2.7540    -2.4090    -1.7440 H     1 <1>   0.0800 
 24 H        2.2750     0.7150     0.3120 H     1 <1>   0.0800 
 25 H        2.8270     0.2290    -1.2650 H     1 <1>   0.0800 
 26 H        4.6960    -3.4110    -0.7320 H     1 <1>   0.0800 
 27 H        4.2310    -2.8770     0.8490 H     1 <1>   0.0800 
 28 H        4.1810    -0.3630     1.3740 H     1 <1>   0.0800 
 29 H        4.7390     0.7470     0.1570 H     1 <1>   0.0800 
 30 H       -1.3940    -4.1500     1.3120 H     1 <1>   0.1500 
 31 H       -2.0700    -0.2860    -0.3510 H     1 <1>   0.1500 
 32 H        2.4080    -3.7550     1.7410 H     1 <1>   0.1500 
 33 H        1.4030    -4.2280    -2.3800 H     1 <1>   0.1500 
 34 H        5.0610    -1.0950    -1.4400 H     1 <1>   0.0800 
 35 H        5.9630    -1.4070     0.0210 H     1 <1>   0.0800 
 36 H       -3.8150    -4.5160     1.4400 H     1 <1>   0.1500 
 37 H       -4.4800    -0.6530    -0.2310 H     1 <1>   0.1500 
 38 H        0.2120    -6.2960    -1.7220 H     1 <1>   0.1500 
 39 H       -5.3680    -2.7680     0.6650 H     1 <1>   0.1500 
 40 H        0.1720    -6.9740     0.6200 H     1 <1>   0.1500 
@<TRIPOS>BOND
  1   1   2  2   
  2   2   3  am  
  3   2   4  am  
  4   3   5  1   
  5   3   6  1   
  6   4   7  1   
  7   4  22  1   
  8   5   8  1   
  9   5   9  1   
 10   5  23  1   
 11   6  10  1   
 12   6  24  1   
 13   6  25  1   
 14   7  11  ar  
 15   7  12  ar  
 16   8  13  ar  
 17   8  14  ar  
 18   9  15  1   
 19   9  26  1   
 20   9  27  1   
 21  10  15  1   
 22  10  28  1   
 23  10  29  1   
 24  11  16  ar  
 25  11  30  1   
 26  12  17  ar  
 27  12  31  1   
 28  13  18  ar  
 29  13  32  1   
 30  14  19  ar  
 31  14  33  1   
 32  15  34  1   
 33  15  35  1   
 34  16  20  ar  
 35  16  36  1   
 36  17  20  ar  
 37  17  37  1   
 38  18  21  ar  
 39  19  21  ar  
 40  19  38  1   
 41  20  39  1   
 42  21  40  1   
@<TRIPOS>SUBSTRUCTURE
  1 ****   4 GROUP 4 **** **** 0

# MOE 2024.06 (io_trps.svl 2023.06)
