@<TRIPOS>MOLECULE
NONAME
49 50 1 0 0 
SMALL
USER_CHARGES


@<TRIPOS>ATOM
  1 S       -0.0920     0.1190    -0.2710 S.o2  1 <1>   1.3330 
  2 O        1.2980     0.1830     0.1170 O.2   1 <1>  -0.6500 
  3 O       -0.9770     1.1920     0.1120 O.2   1 <1>  -0.6500 
  4 N       -0.7060    -1.3960     0.3140 N.am  1 <1>  -0.6930 
  5 C       -0.1530    -0.0670    -2.0420 C.3   1 <1>  -0.1350 
  6 C       -0.0840    -2.5860    -0.0450 C.ar  1 <1>   0.1990 
  7 C       -2.0510    -1.4850     0.9670 C.3   1 <1>   0.3370 
  8 C       -0.7100    -3.4770    -0.9110 C.ar  1 <1>  -0.1500 
  9 C        1.1700    -2.9110     0.4530 C.ar  1 <1>  -0.1500 
 10 C       -3.2710    -1.2570     0.0320 C.2   1 <1>   0.5690 
 11 C       -2.0780    -0.6420     2.2540 C.3   1 <1>  -0.2400 
 12 C       -0.1050    -4.6690    -1.2650 C.ar  1 <1>  -0.1440 
 13 C        1.7900    -4.0980     0.1050 C.ar  1 <1>  -0.1440 
 14 O       -3.0930    -0.7050    -1.0320 O.2   1 <1>  -0.5700 
 15 N       -4.5290    -1.7180     0.3680 N.am  1 <1>  -0.6600 
 16 C        1.1450    -4.9750    -0.7520 C.ar  1 <1>  -0.1500 
 17 C       -0.7910    -5.6410    -2.2080 C.3   1 <1>  -0.0970 
 18 C        3.1620    -4.4420     0.6550 C.3   1 <1>  -0.0970 
 19 C       -4.8680    -2.5740     1.5420 C.3   1 <1>   0.1400 
 20 C       -5.7020    -1.4600    -0.5180 C.3   1 <1>   0.1400 
 21 C       -5.4010    -3.9240     1.0500 C.3   1 <1>  -0.1600 
 22 C       -6.2510    -2.7920    -1.0400 C.3   1 <1>  -0.1600 
 23 C       -6.6010    -3.7490     0.1080 C.3   1 <1>  -0.1600 
 24 H        0.2600     0.8020    -2.5130 H     1 <1>   0.0800 
 25 H       -1.1620    -0.1860    -2.3800 H     1 <1>   0.0800 
 26 H        0.4150    -0.9240    -2.3440 H     1 <1>   0.0800 
 27 H       -2.1340    -2.5060     1.2910 H     1 <1>   0.0800 
 28 H       -1.6750    -3.2230    -1.3120 H     1 <1>   0.1500 
 29 H        1.6550    -2.2180     1.1180 H     1 <1>   0.1500 
 30 H       -2.2250     0.3980     2.0340 H     1 <1>   0.0800 
 31 H       -1.1590    -0.7660     2.7990 H     1 <1>   0.0800 
 32 H       -2.8890    -0.9480     2.8850 H     1 <1>   0.0800 
 33 H        1.6210    -5.9020    -1.0240 H     1 <1>   0.1500 
 34 H       -1.7400    -5.2550    -2.5360 H     1 <1>   0.0800 
 35 H       -0.9560    -6.5790    -1.7100 H     1 <1>   0.0800 
 36 H       -0.1740    -5.8090    -3.0720 H     1 <1>   0.0800 
 37 H        3.6370    -3.5690     1.0660 H     1 <1>   0.0800 
 38 H        3.7870    -4.8310    -0.1280 H     1 <1>   0.0800 
 39 H        3.0690    -5.1820     1.4290 H     1 <1>   0.0800 
 40 H       -5.6230    -2.0780     2.1280 H     1 <1>   0.0800 
 41 H       -4.0190    -2.7430     2.1750 H     1 <1>   0.0800 
 42 H       -5.4300    -0.8310    -1.3490 H     1 <1>   0.0800 
 43 H       -6.4610    -0.9460     0.0470 H     1 <1>   0.0800 
 44 H       -5.6930    -4.5210     1.8960 H     1 <1>   0.0800 
 45 H       -4.6120    -4.4460     0.5380 H     1 <1>   0.0800 
 46 H       -5.5110    -3.2420    -1.6790 H     1 <1>   0.0800 
 47 H       -7.1270    -2.6050    -1.6360 H     1 <1>   0.0800 
 48 H       -7.4340    -3.3490     0.6620 H     1 <1>   0.0800 
 49 H       -6.8960    -4.7040    -0.2910 H     1 <1>   0.0800 
@<TRIPOS>BOND
  1   1   2  2   
  2   1   3  2   
  3   1   4  am  
  4   1   5  1   
  5   4   6  1   
  6   4   7  1   
  7   5  24  1   
  8   5  25  1   
  9   5  26  1   
 10   6   8  ar  
 11   6   9  ar  
 12   7  10  1   
 13   7  11  1   
 14   7  27  1   
 15   8  12  ar  
 16   8  28  1   
 17   9  13  ar  
 18   9  29  1   
 19  10  14  2   
 20  10  15  am  
 21  11  30  1   
 22  11  31  1   
 23  11  32  1   
 24  12  16  ar  
 25  12  17  1   
 26  13  16  ar  
 27  13  18  1   
 28  15  19  1   
 29  15  20  1   
 30  16  33  1   
 31  17  34  1   
 32  17  35  1   
 33  17  36  1   
 34  18  37  1   
 35  18  38  1   
 36  18  39  1   
 37  19  21  1   
 38  19  40  1   
 39  19  41  1   
 40  20  22  1   
 41  20  42  1   
 42  20  43  1   
 43  21  23  1   
 44  21  44  1   
 45  21  45  1   
 46  22  23  1   
 47  22  46  1   
 48  22  47  1   
 49  23  48  1   
 50  23  49  1   
@<TRIPOS>SUBSTRUCTURE
  1 ****   7 GROUP 4 **** **** 0

# MOE 2024.06 (io_trps.svl 2023.06)
