@<TRIPOS>MOLECULE
NONAME
36 37 1 0 0 
SMALL
USER_CHARGES


@<TRIPOS>ATOM
  1 I       -0.2790     0.2710     0.7650 I     1 <1>  -0.0810 
  2 C        1.8090     0.0650     0.3960 C.ar  1 <1>   0.0810 
  3 C        2.4470    -1.0900     0.8070 C.ar  1 <1>  -0.1500 
  4 C        2.4750     1.0910    -0.2460 C.ar  1 <1>  -0.1500 
  5 C        3.8030    -1.2140     0.5630 C.ar  1 <1>  -0.1500 
  6 C        3.8320     0.9480    -0.4800 C.ar  1 <1>  -0.1500 
  7 C        4.5140    -0.1990    -0.0790 C.ar  1 <1>   0.1170 
  8 N        5.8870    -0.2900    -0.3570 N.am  1 <1>  -0.5470 
  9 C        6.8730    -1.0400     0.2270 C.2   1 <1>   0.5690 
 10 O        6.6820    -1.7700     1.1680 O.2   1 <1>  -0.5700 
 11 C        8.2850    -0.9150    -0.3490 C.3   1 <1>  -0.0190 
 12 C        9.0480    -2.2550    -0.3340 C.3   1 <1>  -0.1600 
 13 C        9.0930     0.1570     0.4050 C.3   1 <1>  -0.1600 
 14 C       10.4690    -2.1030    -0.8830 C.3   1 <1>   0.1400 
 15 C       10.5160     0.2870    -0.1460 C.3   1 <1>   0.1400 
 16 N       11.1850    -1.0430    -0.1200 N.am  1 <1>  -0.6600 
 17 C       12.3480    -1.2290     0.5860 C.2   1 <1>   0.5690 
 18 O       12.9050    -0.3240     1.1600 O.2   1 <1>  -0.5700 
 19 C       12.9880    -2.5940     0.6730 C.3   1 <1>  -0.1790 
 20 H        1.9020    -1.8720     1.3050 H     1 <1>   0.1500 
 21 H        1.9490     1.9780    -0.5530 H     1 <1>   0.1500 
 22 H        4.3070    -2.1110     0.8740 H     1 <1>   0.1500 
 23 H        4.3630     1.7400    -0.9760 H     1 <1>   0.1500 
 24 H        6.2070     0.3440    -1.0840 H     1 <1>   0.3700 
 25 H        8.1960    -0.6070    -1.3750 H     1 <1>   0.0800 
 26 H        8.5150    -2.9820    -0.9190 H     1 <1>   0.0800 
 27 H        9.1080    -2.6310     0.6740 H     1 <1>   0.0800 
 28 H        9.1500    -0.1010     1.4490 H     1 <1>   0.0800 
 29 H        8.5990     1.1090     0.3330 H     1 <1>   0.0800 
 30 H       10.4320    -1.8180    -1.9200 H     1 <1>   0.0800 
 31 H       10.9790    -3.0470    -0.8180 H     1 <1>   0.0800 
 32 H       11.0630     1.0020     0.4450 H     1 <1>   0.0800 
 33 H       10.4920     0.6460    -1.1600 H     1 <1>   0.0800 
 34 H       13.2760    -2.9260    -0.3060 H     1 <1>   0.0800 
 35 H       12.3010    -3.2920     1.1130 H     1 <1>   0.0800 
 36 H       13.8660    -2.5430     1.2910 H     1 <1>   0.0800 
@<TRIPOS>BOND
  1   1   2  1   
  2   2   3  ar  
  3   2   4  ar  
  4   3   5  ar  
  5   3  20  1   
  6   4   6  ar  
  7   4  21  1   
  8   5   7  ar  
  9   5  22  1   
 10   6   7  ar  
 11   6  23  1   
 12   7   8  1   
 13   8   9  am  
 14   8  24  1   
 15   9  10  2   
 16   9  11  1   
 17  11  12  1   
 18  11  13  1   
 19  11  25  1   
 20  12  14  1   
 21  12  26  1   
 22  12  27  1   
 23  13  15  1   
 24  13  28  1   
 25  13  29  1   
 26  14  16  1   
 27  14  30  1   
 28  14  31  1   
 29  15  16  1   
 30  15  32  1   
 31  15  33  1   
 32  16  17  am  
 33  17  18  2   
 34  17  19  1   
 35  19  34  1   
 36  19  35  1   
 37  19  36  1   
@<TRIPOS>SUBSTRUCTURE
  1 ****   9 GROUP 4 **** **** 0

# MOE 2024.06 (io_trps.svl 2023.06)
