@<TRIPOS>MOLECULE
NONAME
31 32 1 0 0 
SMALL
USER_CHARGES


@<TRIPOS>ATOM
  1 O        0.4960     0.3650    -0.6630 O.2   1 <1>  -0.5700 
  2 C        1.1620     1.2730    -0.2210 C.2   1 <1>   0.6340 
  3 O        2.3830     1.0330     0.2420 O.3   1 <1>  -0.4300 
  4 C        0.8130     2.6470    -0.0370 C.ar  1 <1>   0.0860 
  5 C        2.9450     2.2080     0.7830 C.3   1 <1>   0.6240 
  6 C       -0.3200     3.3940    -0.3500 C.ar  1 <1>   0.0830 
  7 C        1.8730     3.2580     0.5900 C.ar  1 <1>  -0.1440 
  8 O        4.0630     2.5340     0.0280 O.3   1 <1>  -0.5600 
  9 O       -1.3470     2.8150    -1.0080 O.3   1 <1>  -0.3630 
 10 C       -0.3710     4.7490    -0.0090 C.ar  1 <1>   0.0830 
 11 C        1.8510     4.5960     0.9270 C.ar  1 <1>  -0.1500 
 12 C        5.1210     1.6400     0.1400 C.3   1 <1>   0.1200 
 13 C       -2.3060     2.1430    -0.2270 C.3   1 <1>   0.0400 
 14 O       -1.5050     5.4410    -0.3150 O.3   1 <1>  -0.3630 
 15 C        0.7190     5.3420     0.6290 C.ar  1 <1>  -0.1500 
 16 C        6.2830     2.2060    -0.6650 C.3   1 <1>  -0.2400 
 17 C       -1.5630     6.8460    -0.2160 C.3   1 <1>   0.0400 
 18 H        3.2120     2.0550     1.8160 H     1 <1>   0.0800 
 19 H        2.6980     5.0560     1.4090 H     1 <1>   0.1500 
 20 H        4.8190     0.6850    -0.2570 H     1 <1>   0.0800 
 21 H        5.3920     1.5400     1.1780 H     1 <1>   0.0800 
 22 H       -3.0700     1.7700    -0.8850 H     1 <1>   0.0800 
 23 H       -2.7300     2.8390     0.4750 H     1 <1>   0.0800 
 24 H       -1.8320     1.3250     0.2850 H     1 <1>   0.0800 
 25 H        0.7090     6.3800     0.9000 H     1 <1>   0.1500 
 26 H        5.9990     2.3110    -1.6970 H     1 <1>   0.0800 
 27 H        7.1250     1.5410    -0.6080 H     1 <1>   0.0800 
 28 H        6.5740     3.1650    -0.2740 H     1 <1>   0.0800 
 29 H       -2.5150     7.1670    -0.5970 H     1 <1>   0.0800 
 30 H       -0.7710     7.2710    -0.8080 H     1 <1>   0.0800 
 31 H       -1.4700     7.1290     0.8170 H     1 <1>   0.0800 
@<TRIPOS>BOND
  1   1   2  2   
  2   2   3  1   
  3   2   4  1   
  4   3   5  1   
  5   4   6  ar  
  6   4   7  ar  
  7   5   7  1   
  8   5   8  1   
  9   5  18  1   
 10   6   9  1   
 11   6  10  ar  
 12   7  11  ar  
 13   8  12  1   
 14   9  13  1   
 15  10  14  1   
 16  10  15  ar  
 17  11  15  ar  
 18  11  19  1   
 19  12  16  1   
 20  12  20  1   
 21  12  21  1   
 22  13  22  1   
 23  13  23  1   
 24  13  24  1   
 25  14  17  1   
 26  15  25  1   
 27  16  26  1   
 28  16  27  1   
 29  16  28  1   
 30  17  29  1   
 31  17  30  1   
 32  17  31  1   
@<TRIPOS>SUBSTRUCTURE
  1 ****   4 GROUP 4 **** **** 0

# MOE 2024.06 (io_trps.svl 2023.06)
