@<TRIPOS>MOLECULE
NONAME
47 48 1 0 0 
SMALL
USER_CHARGES


@<TRIPOS>ATOM
  1 O       -0.0100     0.1170     0.5510 O.2   1 <1>  -0.5700 
  2 C        0.0410    -1.0520     0.2250 C.2   1 <1>   0.5440 
  3 N        1.2450    -1.6490    -0.0710 N.am  1 <1>  -0.5470 
  4 C       -1.1750    -1.8350     0.1400 C.ar  1 <1>   0.0860 
  5 C        2.5650    -1.1630    -0.0530 C.ar  1 <1>   0.1170 
  6 C       -2.3370    -1.2900    -0.4010 C.ar  1 <1>  -0.1500 
  7 C       -1.2360    -3.1550     0.5920 C.ar  1 <1>  -0.1500 
  8 C        3.6050    -2.0800     0.0490 C.ar  1 <1>  -0.1500 
  9 C        2.8860     0.1870    -0.1520 C.ar  1 <1>  -0.1500 
 10 C       -3.5050    -2.0230    -0.4990 C.ar  1 <1>   0.0830 
 11 C       -2.3950    -3.9050     0.4900 C.ar  1 <1>  -0.1500 
 12 C        4.9270    -1.6690     0.0580 C.ar  1 <1>  -0.1500 
 13 C        4.2050     0.6050    -0.1430 C.ar  1 <1>  -0.1500 
 14 O       -4.5810    -1.4100    -1.0500 O.3   1 <1>  -0.3630 
 15 C       -3.5460    -3.3520    -0.0650 C.ar  1 <1>   0.0830 
 16 C        5.2340    -0.3150    -0.0380 C.ar  1 <1>   0.0830 
 17 C       -5.6840    -1.1370    -0.2130 C.3   1 <1>   0.1200 
 18 O       -4.7030    -4.0530    -0.2080 O.3   1 <1>  -0.3630 
 19 O        6.5000     0.1800    -0.0370 O.3   1 <1>  -0.3630 
 20 C       -5.4130     0.1480     0.5690 C.3   1 <1>  -0.2400 
 21 C       -4.8090    -5.4130     0.1380 C.3   1 <1>   0.1200 
 22 C        7.6140    -0.6730     0.0880 C.3   1 <1>   0.1200 
 23 C       -6.2280    -5.8700    -0.1850 C.3   1 <1>  -0.2400 
 24 C        8.8720     0.1890     0.0670 C.3   1 <1>  -0.2400 
 25 H        1.1650    -2.6190    -0.3650 H     1 <1>   0.3700 
 26 H       -2.3300    -0.2730    -0.7490 H     1 <1>   0.1500 
 27 H       -0.3650    -3.6010     1.0400 H     1 <1>   0.1500 
 28 H        3.3830    -3.1280     0.1270 H     1 <1>   0.1500 
 29 H        2.1090     0.9230    -0.2420 H     1 <1>   0.1500 
 30 H       -2.3850    -4.9160     0.8500 H     1 <1>   0.1500 
 31 H        5.6980    -2.4110     0.1410 H     1 <1>   0.1500 
 32 H        4.4430     1.6500    -0.2180 H     1 <1>   0.1500 
 33 H       -5.8500    -1.9680     0.4490 H     1 <1>   0.0800 
 34 H       -6.5460    -1.0170    -0.8460 H     1 <1>   0.0800 
 35 H       -4.5670     0.0190     1.2200 H     1 <1>   0.0800 
 36 H       -6.2700     0.3930     1.1710 H     1 <1>   0.0800 
 37 H       -5.2250     0.9610    -0.1090 H     1 <1>   0.0800 
 38 H       -4.6080    -5.5150     1.1900 H     1 <1>   0.0800 
 39 H       -4.0900    -5.9690    -0.4390 H     1 <1>   0.0800 
 40 H        7.6110    -1.3620    -0.7390 H     1 <1>   0.0800 
 41 H        7.5330    -1.2050     1.0200 H     1 <1>   0.0800 
 42 H       -6.9390    -5.2980     0.3840 H     1 <1>   0.0800 
 43 H       -6.3440    -6.9090     0.0640 H     1 <1>   0.0800 
 44 H       -6.4250    -5.7440    -1.2350 H     1 <1>   0.0800 
 45 H        8.9340     0.7290    -0.8610 H     1 <1>   0.0800 
 46 H        9.7420    -0.4340     0.1610 H     1 <1>   0.0800 
 47 H        8.8560     0.8850     0.8860 H     1 <1>   0.0800 
@<TRIPOS>BOND
  1   1   2  2   
  2   2   3  am  
  3   2   4  1   
  4   3   5  1   
  5   3  25  1   
  6   4   6  ar  
  7   4   7  ar  
  8   5   8  ar  
  9   5   9  ar  
 10   6  10  ar  
 11   6  26  1   
 12   7  11  ar  
 13   7  27  1   
 14   8  12  ar  
 15   8  28  1   
 16   9  13  ar  
 17   9  29  1   
 18  10  14  1   
 19  10  15  ar  
 20  11  15  ar  
 21  11  30  1   
 22  12  16  ar  
 23  12  31  1   
 24  13  16  ar  
 25  13  32  1   
 26  14  17  1   
 27  15  18  1   
 28  16  19  1   
 29  17  20  1   
 30  17  33  1   
 31  17  34  1   
 32  18  21  1   
 33  19  22  1   
 34  20  35  1   
 35  20  36  1   
 36  20  37  1   
 37  21  23  1   
 38  21  38  1   
 39  21  39  1   
 40  22  24  1   
 41  22  40  1   
 42  22  41  1   
 43  23  42  1   
 44  23  43  1   
 45  23  44  1   
 46  24  45  1   
 47  24  46  1   
 48  24  47  1   
@<TRIPOS>SUBSTRUCTURE
  1 ****   2 GROUP 4 **** **** 0

# MOE 2024.06 (io_trps.svl 2023.06)
