@<TRIPOS>MOLECULE
NONAME
52 55 1 0 0 
SMALL
USER_CHARGES


@<TRIPOS>ATOM
  1 S       -0.0630     0.2010    -0.7470 S.o2  1 <1>   1.4470 
  2 O        0.0920     0.5130    -2.1500 O.2   1 <1>  -0.6500 
  3 O       -0.2000     1.2640     0.2210 O.2   1 <1>  -0.6500 
  4 N        1.3640    -0.6190    -0.3230 N.am  1 <1>  -0.8490 
  5 C       -1.3580    -1.0430    -0.4940 C.ar  1 <1>  -0.0090 
  6 C        1.7580    -1.6310    -1.3280 C.3   1 <1>   0.1960 
  7 C        2.4690     0.3470    -0.1160 C.3   1 <1>   0.1960 
  8 C       -1.5720    -1.5950     0.7660 C.ar  1 <1>  -0.1500 
  9 C       -2.1600    -1.4780    -1.5580 C.ar  1 <1>  -0.1500 
 10 C        3.0260    -2.4180    -0.9060 C.3   1 <1>   0.3430 
 11 C        3.8330    -0.3340     0.1630 C.3   1 <1>   0.3430 
 12 C       -2.5550    -2.5530     0.9220 C.ar  1 <1>   0.0830 
 13 C       -3.1460    -2.4380    -1.3910 C.ar  1 <1>  -0.1500 
 14 N        3.6900    -1.8230     0.3120 N.4   1 <1>  -0.9590 
 15 O       -2.9120    -3.2080     2.0440 O.3   1 <1>  -0.2320 
 16 C       -3.3360    -2.9770    -0.1290 C.ar  1 <1>   0.1170 
 17 C        4.9420    -2.4900     0.7660 C.3   1 <1>   0.4230 
 18 C       -3.9100    -4.0310     1.7110 C.2   1 <1>   0.7800 
 19 N       -4.2000    -3.9220     0.3770 N.am  1 <1>  -0.4770 
 20 C        6.0240    -2.5050    -0.3270 C.3   1 <1>  -0.1600 
 21 C        4.6330    -3.9110     1.2550 C.3   1 <1>  -0.1600 
 22 O       -4.4530    -4.7630     2.5160 O.2   1 <1>  -0.5700 
 23 C       -5.2640    -4.6420    -0.3580 C.3   1 <1>   0.0600 
 24 C        7.3010    -3.1870     0.1860 C.3   1 <1>  -0.1600 
 25 C        5.9070    -4.5970     1.7720 C.3   1 <1>  -0.1600 
 26 C        7.0070    -4.6010     0.7030 C.3   1 <1>  -0.1600 
 27 H        1.9490    -1.1540    -2.2760 H     1 <1>   0.0800 
 28 H        0.9530    -2.3300    -1.4800 H     1 <1>   0.0800 
 29 H        2.2310     0.9850     0.7190 H     1 <1>   0.0800 
 30 H        2.5670     0.9850    -0.9810 H     1 <1>   0.0800 
 31 H       -0.9890    -1.2820     1.6150 H     1 <1>   0.1500 
 32 H       -2.0090    -1.0500    -2.5360 H     1 <1>   0.1500 
 33 H        3.7140    -2.4300    -1.7350 H     1 <1>   0.0800 
 34 H        2.7470    -3.4380    -0.7030 H     1 <1>   0.0800 
 35 H        4.2560     0.0900     1.0590 H     1 <1>   0.0800 
 36 H        4.5040    -0.1120    -0.6490 H     1 <1>   0.0800 
 37 H       -3.7570    -2.7610    -2.2150 H     1 <1>   0.1500 
 38 H        2.9920    -1.9340     1.0620 H     1 <1>   0.4500 
 39 H        5.3360    -1.9420     1.6070 H     1 <1>   0.0800 
 40 H        6.2710    -1.5020    -0.6250 H     1 <1>   0.0800 
 41 H        5.6820    -3.0480    -1.1900 H     1 <1>   0.0800 
 42 H        4.2350    -4.5080     0.4540 H     1 <1>   0.0800 
 43 H        3.9120    -3.8770     2.0520 H     1 <1>   0.0800 
 44 H       -4.8290    -5.2100    -1.1610 H     1 <1>   0.0800 
 45 H       -5.9680    -3.9340    -0.7590 H     1 <1>   0.0800 
 46 H       -5.7800    -5.3120     0.3080 H     1 <1>   0.0800 
 47 H        7.7330    -2.6010     0.9810 H     1 <1>   0.0800 
 48 H        8.0280    -3.2410    -0.6080 H     1 <1>   0.0800 
 49 H        5.6830    -5.6110     2.0590 H     1 <1>   0.0800 
 50 H        6.2660    -4.0840     2.6500 H     1 <1>   0.0800 
 51 H        7.9070    -5.0250     1.1180 H     1 <1>   0.0800 
 52 H        6.7070    -5.2290    -0.1190 H     1 <1>   0.0800 
@<TRIPOS>BOND
  1   1   2  2   
  2   1   3  2   
  3   1   4  am  
  4   1   5  1   
  5   4   6  1   
  6   4   7  1   
  7   5   8  ar  
  8   5   9  ar  
  9   6  10  1   
 10   6  27  1   
 11   6  28  1   
 12   7  11  1   
 13   7  29  1   
 14   7  30  1   
 15   8  12  ar  
 16   8  31  1   
 17   9  13  ar  
 18   9  32  1   
 19  10  14  1   
 20  10  33  1   
 21  10  34  1   
 22  11  14  1   
 23  11  35  1   
 24  11  36  1   
 25  12  15  1   
 26  12  16  ar  
 27  13  16  ar  
 28  13  37  1   
 29  14  17  1   
 30  14  38  1   
 31  15  18  1   
 32  16  19  1   
 33  17  20  1   
 34  17  21  1   
 35  17  39  1   
 36  18  19  am  
 37  18  22  2   
 38  19  23  1   
 39  20  24  1   
 40  20  40  1   
 41  20  41  1   
 42  21  25  1   
 43  21  42  1   
 44  21  43  1   
 45  23  44  1   
 46  23  45  1   
 47  23  46  1   
 48  24  26  1   
 49  24  47  1   
 50  24  48  1   
 51  25  26  1   
 52  25  49  1   
 53  25  50  1   
 54  26  51  1   
 55  26  52  1   
@<TRIPOS>SUBSTRUCTURE
  1 ****   4 GROUP 4 **** **** 0

# MOE 2024.06 (io_trps.svl 2023.06)
