@<TRIPOS>MOLECULE
NONAME
44 45 1 0 0 
SMALL
USER_CHARGES


@<TRIPOS>ATOM
  1 O        0.7530    -0.9120     0.2400 O.3   1 <1>  -0.3630 
  2 C       -0.5550    -1.2080     0.0110 C.ar  1 <1>   0.0830 
  3 C        1.5570    -0.3150    -0.7430 C.3   1 <1>   0.1200 
  4 C       -1.2710    -1.8080     1.0430 C.ar  1 <1>  -0.1440 
  5 C       -1.1920    -0.9370    -1.1980 C.ar  1 <1>  -0.1500 
  6 C        2.9470    -0.1350    -0.1380 C.3   1 <1>  -0.1600 
  7 C       -2.6060    -2.1280     0.8550 C.ar  1 <1>  -0.1500 
  8 C       -0.6040    -2.1160     2.3760 C.3   1 <1>  -0.0960 
  9 C       -2.5250    -1.2620    -1.3720 C.ar  1 <1>  -0.1500 
 10 C        3.8930     0.5170    -1.1430 C.3   1 <1>   0.3430 
 11 C       -3.2390    -1.8600    -0.3480 C.ar  1 <1>  -0.1440 
 12 N        5.2730     0.5910    -0.5870 N.4   1 <1>  -0.9590 
 13 C       -4.7020    -2.2160    -0.5360 C.3   1 <1>  -0.0970 
 14 C        5.3920     1.5970     0.5140 C.3   1 <1>   0.3430 
 15 C        6.2630     0.8550    -1.6720 C.3   1 <1>   0.3430 
 16 C        6.7930     1.5330     1.1230 C.3   1 <1>  -0.1600 
 17 C        7.6830     0.7730    -1.1090 C.3   1 <1>  -0.1600 
 18 C        7.8850     1.7390     0.0650 C.3   1 <1>  -0.1600 
 19 H        1.1170     0.6320    -1.0060 H     1 <1>   0.0800 
 20 H        1.5820    -0.9700    -1.5980 H     1 <1>   0.0800 
 21 H       -0.6760    -0.4760    -2.0160 H     1 <1>   0.1500 
 22 H        3.3230    -1.1040     0.1400 H     1 <1>   0.0800 
 23 H        2.8500     0.4780     0.7400 H     1 <1>   0.0800 
 24 H       -3.1630    -2.5900     1.6510 H     1 <1>   0.1500 
 25 H       -0.2420    -1.2070     2.8200 H     1 <1>   0.0800 
 26 H        0.2260    -2.7820     2.2210 H     1 <1>   0.0800 
 27 H       -1.2930    -2.5800     3.0570 H     1 <1>   0.0800 
 28 H       -3.0070    -1.0470    -2.3090 H     1 <1>   0.1500 
 29 H        3.5410     1.5050    -1.3950 H     1 <1>   0.0800 
 30 H        3.9010    -0.0770    -2.0440 H     1 <1>   0.0800 
 31 H        5.5060    -0.3270    -0.1840 H     1 <1>   0.4500 
 32 H       -4.9400    -3.1160     0.0010 H     1 <1>   0.0800 
 33 H       -4.9220    -2.3740    -1.5770 H     1 <1>   0.0800 
 34 H       -5.3200    -1.4170    -0.1670 H     1 <1>   0.0800 
 35 H        4.6630     1.3990     1.2830 H     1 <1>   0.0800 
 36 H        5.2140     2.5870     0.1250 H     1 <1>   0.0800 
 37 H        6.0980     1.8370    -2.0870 H     1 <1>   0.0800 
 38 H        6.1500     0.1300    -2.4620 H     1 <1>   0.0800 
 39 H        6.9280     0.5830     1.6100 H     1 <1>   0.0800 
 40 H        6.8830     2.2950     1.8780 H     1 <1>   0.0800 
 41 H        8.3850     1.0120    -1.8890 H     1 <1>   0.0800 
 42 H        7.8860    -0.2360    -0.7940 H     1 <1>   0.0800 
 43 H        8.8560     1.5840     0.5050 H     1 <1>   0.0800 
 44 H        7.8490     2.7540    -0.2950 H     1 <1>   0.0800 
@<TRIPOS>BOND
  1   1   2  1   
  2   1   3  1   
  3   2   4  ar  
  4   2   5  ar  
  5   3   6  1   
  6   3  19  1   
  7   3  20  1   
  8   4   7  ar  
  9   4   8  1   
 10   5   9  ar  
 11   5  21  1   
 12   6  10  1   
 13   6  22  1   
 14   6  23  1   
 15   7  11  ar  
 16   7  24  1   
 17   8  25  1   
 18   8  26  1   
 19   8  27  1   
 20   9  11  ar  
 21   9  28  1   
 22  10  12  1   
 23  10  29  1   
 24  10  30  1   
 25  11  13  1   
 26  12  14  1   
 27  12  15  1   
 28  12  31  1   
 29  13  32  1   
 30  13  33  1   
 31  13  34  1   
 32  14  16  1   
 33  14  35  1   
 34  14  36  1   
 35  15  17  1   
 36  15  37  1   
 37  15  38  1   
 38  16  18  1   
 39  16  39  1   
 40  16  40  1   
 41  17  18  1   
 42  17  41  1   
 43  17  42  1   
 44  18  43  1   
 45  18  44  1   
@<TRIPOS>SUBSTRUCTURE
  1 ****   3 GROUP 4 **** **** 0

# MOE 2024.06 (io_trps.svl 2023.06)
