@<TRIPOS>MOLECULE
NONAME
46 48 1 0 0 
SMALL
USER_CHARGES


@<TRIPOS>ATOM
  1 S        0.5900    -0.3160     1.7160 S.3   1 <1>  -0.0800 
  2 C        1.9860    -0.7910     0.7390 C.2   1 <1>  -0.0450 
  3 C       -0.0630    -1.9390     1.7090 C.2   1 <1>  -0.1100 
  4 C        2.9670     0.2050     0.3870 C.2   1 <1>   0.7150 
  5 C        1.8870    -2.1190     0.4660 C.2   1 <1>  -0.1500 
  6 C        0.7370    -2.7630     1.0100 C.2   1 <1>  -0.1500 
  7 O        2.8760     1.3660     0.7370 O.2   1 <1>  -0.5700 
  8 N        4.0460    -0.1480    -0.3630 N.am  1 <1>  -0.7300 
  9 C        5.1950     0.7430    -0.6890 C.3   1 <1>   0.2010 
 10 C        6.4520    -0.0310    -1.1120 C.2   1 <1>   0.5690 
 11 O        6.3490    -1.2310    -1.2590 O.2   1 <1>  -0.5700 
 12 N        7.6450     0.6230    -1.3140 N.am  1 <1>  -0.6600 
 13 C        7.8510     2.0920    -1.1870 C.3   1 <1>   0.1400 
 14 C        8.8910    -0.1240    -1.6400 C.3   1 <1>   0.1400 
 15 C        8.8710     2.3660    -0.0780 C.3   1 <1>  -0.1600 
 16 C        9.9370     0.1260    -0.5490 C.3   1 <1>  -0.1600 
 17 C       10.1990     1.6300    -0.3340 C.3   1 <1>  -0.0800 
 18 C       11.1840     1.8800     0.8230 C.3   1 <1>  -0.0170 
 19 C       12.5480     1.2560     0.5610 C.ar  1 <1>  -0.1430 
 20 C       13.4430     1.8730    -0.2990 C.ar  1 <1>  -0.1500 
 21 C       12.9090     0.0680     1.1780 C.ar  1 <1>  -0.1500 
 22 C       14.6830     1.3080    -0.5430 C.ar  1 <1>  -0.1500 
 23 C       14.1490    -0.4980     0.9360 C.ar  1 <1>  -0.1500 
 24 C       15.0360     0.1220     0.0740 C.ar  1 <1>  -0.1500 
 25 H       -0.9870    -2.1060     2.2350 H     1 <1>   0.1500 
 26 H        2.5980    -2.6810    -0.1140 H     1 <1>   0.1500 
 27 H        0.5630    -3.8140     0.8530 H     1 <1>   0.1500 
 28 H        4.2220    -1.1310    -0.5910 H     1 <1>   0.3700 
 29 H        5.4280     1.3390     0.1760 H     1 <1>   0.0800 
 30 H        4.9060     1.3990    -1.4900 H     1 <1>   0.0800 
 31 H        6.9320     2.6040    -0.9670 H     1 <1>   0.0800 
 32 H        8.2230     2.4730    -2.1240 H     1 <1>   0.0800 
 33 H        9.2660     0.2130    -2.5920 H     1 <1>   0.0800 
 34 H        8.6980    -1.1810    -1.7160 H     1 <1>   0.0800 
 35 H        8.4510     2.0520     0.8620 H     1 <1>   0.0800 
 36 H        9.0490     3.4250    -0.0220 H     1 <1>   0.0800 
 37 H       10.8490    -0.3680    -0.8340 H     1 <1>   0.0800 
 38 H        9.5930    -0.3240     0.3650 H     1 <1>   0.0800 
 39 H       10.6350     2.0260    -1.2360 H     1 <1>   0.0800 
 40 H       10.7760     1.4870     1.7380 H     1 <1>   0.0800 
 41 H       11.3140     2.9390     0.9610 H     1 <1>   0.0800 
 42 H       13.1780     2.7960    -0.7840 H     1 <1>   0.1500 
 43 H       12.2270    -0.4230     1.8490 H     1 <1>   0.1500 
 44 H       15.3720     1.7930    -1.2120 H     1 <1>   0.1500 
 45 H       14.4220    -1.4200     1.4170 H     1 <1>   0.1500 
 46 H       16.0000    -0.3180    -0.1150 H     1 <1>   0.1500 
@<TRIPOS>BOND
  1   1   2  1   
  2   1   3  1   
  3   2   4  1   
  4   2   5  2   
  5   3   6  2   
  6   3  25  1   
  7   4   7  2   
  8   4   8  am  
  9   5   6  1   
 10   5  26  1   
 11   6  27  1   
 12   8   9  1   
 13   8  28  1   
 14   9  10  1   
 15   9  29  1   
 16   9  30  1   
 17  10  11  2   
 18  10  12  am  
 19  12  13  1   
 20  12  14  1   
 21  13  15  1   
 22  13  31  1   
 23  13  32  1   
 24  14  16  1   
 25  14  33  1   
 26  14  34  1   
 27  15  17  1   
 28  15  35  1   
 29  15  36  1   
 30  16  17  1   
 31  16  37  1   
 32  16  38  1   
 33  17  18  1   
 34  17  39  1   
 35  18  19  1   
 36  18  40  1   
 37  18  41  1   
 38  19  20  ar  
 39  19  21  ar  
 40  20  22  ar  
 41  20  42  1   
 42  21  23  ar  
 43  21  43  1   
 44  22  24  ar  
 45  22  44  1   
 46  23  24  ar  
 47  23  45  1   
 48  24  46  1   
@<TRIPOS>SUBSTRUCTURE
  1 ****  12 GROUP 4 **** **** 0

# MOE 2024.06 (io_trps.svl 2023.06)
