@<TRIPOS>MOLECULE
NONAME
56 58 1 0 0 
SMALL
USER_CHARGES


@<TRIPOS>ATOM
  1 O        0.0340     0.1780    -0.4150 O.2   1 <1>  -0.5700 
  2 C       -0.0110    -0.9810    -0.0550 C.2   1 <1>   0.5440 
  3 N        1.1120    -1.5820     0.4690 N.am  1 <1>  -0.5470 
  4 C       -1.2510    -1.7290    -0.1380 C.ar  1 <1>   0.0860 
  5 C        2.4330    -1.1220     0.5730 C.ar  1 <1>   0.1170 
  6 C       -2.4840    -1.0870    -0.0110 C.ar  1 <1>  -0.1500 
  7 C       -1.2700    -3.1110    -0.3450 C.ar  1 <1>  -0.1500 
  8 C        3.2470    -1.6290     1.5780 C.ar  1 <1>  -0.1500 
  9 C        2.9740    -0.1830    -0.2990 C.ar  1 <1>  -0.1500 
 10 C       -3.6780    -1.7820    -0.0680 C.ar  1 <1>  -0.1500 
 11 C       -2.4590    -3.8140    -0.4020 C.ar  1 <1>  -0.1500 
 12 C        4.5580    -1.2100     1.7140 C.ar  1 <1>  -0.1500 
 13 C        4.2820     0.2430    -0.1660 C.ar  1 <1>  -0.1500 
 14 C       -3.6720    -3.1600    -0.2620 C.ar  1 <1>   0.0830 
 15 C        5.0870    -0.2710     0.8400 C.ar  1 <1>  -0.1430 
 16 O       -4.7880    -3.9190    -0.3270 O.3   1 <1>  -0.3630 
 17 C        6.5260     0.1860     0.9780 C.3   1 <1>   0.4870 
 18 C       -6.0760    -3.3570    -0.2190 C.3   1 <1>   0.1200 
 19 N        7.3120    -0.3560    -0.1620 N.4   1 <1>  -0.9590 
 20 C       -7.1010    -4.4840    -0.3450 C.3   1 <1>  -0.1600 
 21 C        7.2720    -1.8550    -0.2670 C.3   1 <1>   0.3430 
 22 C        8.7220     0.1530    -0.2200 C.3   1 <1>   0.3430 
 23 C       -8.5340    -3.9460    -0.2360 C.3   1 <1>  -0.1600 
 24 C        8.0520    -2.3480    -1.5080 C.3   1 <1>   0.1200 
 25 C        9.5190    -0.5090    -1.3690 C.3   1 <1>   0.1200 
 26 C       -9.5570    -5.0780    -0.3620 C.3   1 <1>  -0.2400 
 27 O        8.6800    -1.2870    -2.1790 O.3   1 <1>  -0.5600 
 28 H        0.9230    -2.4590     0.9510 H     1 <1>   0.3700 
 29 H       -2.4980    -0.0200     0.1360 H     1 <1>   0.1500 
 30 H       -0.3460    -3.6470    -0.4750 H     1 <1>   0.1500 
 31 H        2.8470    -2.3520     2.2670 H     1 <1>   0.1500 
 32 H        2.3660     0.2220    -1.0880 H     1 <1>   0.1500 
 33 H       -4.5980    -1.2390     0.0380 H     1 <1>   0.1500 
 34 H       -2.4600    -4.8780    -0.5600 H     1 <1>   0.1500 
 35 H        5.1540    -1.6210     2.5120 H     1 <1>   0.1500 
 36 H        4.6520     0.9820    -0.8560 H     1 <1>   0.1500 
 37 H        6.9340    -0.1640     1.9120 H     1 <1>   0.0800 
 38 H        6.5580     1.2630     0.9720 H     1 <1>   0.0800 
 39 H       -6.2000    -2.6400    -1.0120 H     1 <1>   0.0800 
 40 H       -6.1570    -2.8740     0.7390 H     1 <1>   0.0800 
 41 H        6.8630    -0.0350    -1.0320 H     1 <1>   0.4500 
 42 H       -6.9280    -5.2030     0.4370 H     1 <1>   0.0800 
 43 H       -6.9720    -4.9700    -1.2960 H     1 <1>   0.0800 
 44 H        6.2520    -2.1960    -0.3380 H     1 <1>   0.0800 
 45 H        7.7020    -2.2980     0.6160 H     1 <1>   0.0800 
 46 H        9.2280    -0.0440     0.7100 H     1 <1>   0.0800 
 47 H        8.7200     1.2200    -0.3690 H     1 <1>   0.0800 
 48 H       -8.7100    -3.2230    -1.0140 H     1 <1>   0.0800 
 49 H       -8.6670    -3.4560     0.7140 H     1 <1>   0.0800 
 50 H        7.3790    -2.8190    -2.2040 H     1 <1>   0.0800 
 51 H        8.8010    -3.0690    -1.2270 H     1 <1>   0.0800 
 52 H       10.3010    -1.1390    -0.9800 H     1 <1>   0.0800 
 53 H        9.9720     0.2440    -1.9900 H     1 <1>   0.0800 
 54 H       -9.4580    -5.5710    -1.3140 H     1 <1>   0.0800 
 55 H      -10.5550    -4.6840    -0.2840 H     1 <1>   0.0800 
 56 H       -9.4140    -5.8040     0.4200 H     1 <1>   0.0800 
@<TRIPOS>BOND
  1   1   2  2   
  2   2   3  am  
  3   2   4  1   
  4   3   5  1   
  5   3  28  1   
  6   4   6  ar  
  7   4   7  ar  
  8   5   8  ar  
  9   5   9  ar  
 10   6  10  ar  
 11   6  29  1   
 12   7  11  ar  
 13   7  30  1   
 14   8  12  ar  
 15   8  31  1   
 16   9  13  ar  
 17   9  32  1   
 18  10  14  ar  
 19  10  33  1   
 20  11  14  ar  
 21  11  34  1   
 22  12  15  ar  
 23  12  35  1   
 24  13  15  ar  
 25  13  36  1   
 26  14  16  1   
 27  15  17  1   
 28  16  18  1   
 29  17  19  1   
 30  17  37  1   
 31  17  38  1   
 32  18  20  1   
 33  18  39  1   
 34  18  40  1   
 35  19  21  1   
 36  19  22  1   
 37  19  41  1   
 38  20  23  1   
 39  20  42  1   
 40  20  43  1   
 41  21  24  1   
 42  21  44  1   
 43  21  45  1   
 44  22  25  1   
 45  22  46  1   
 46  22  47  1   
 47  23  26  1   
 48  23  48  1   
 49  23  49  1   
 50  24  27  1   
 51  24  50  1   
 52  24  51  1   
 53  25  27  1   
 54  25  52  1   
 55  25  53  1   
 56  26  54  1   
 57  26  55  1   
 58  26  56  1   
@<TRIPOS>SUBSTRUCTURE
  1 ****   3 GROUP 4 **** **** 0

# MOE 2024.06 (io_trps.svl 2023.06)
