@<TRIPOS>MOLECULE
NONAME
38 40 1 0 0 
SMALL
USER_CHARGES


@<TRIPOS>ATOM
  1 F       -0.5610     0.8530     1.3790 F     1 <1>  -0.3400 
  2 C       -1.2550     1.4550     0.4210 C.3   1 <1>   1.1640 
  3 F       -0.4230     1.6060    -0.6030 F     1 <1>  -0.3400 
  4 F       -1.5280     2.6750     0.8650 F     1 <1>  -0.3400 
  5 C       -2.5360     0.6910     0.0400 C.ar  1 <1>  -0.1440 
  6 C       -3.2010    -0.0970     0.9740 C.ar  1 <1>  -0.1500 
  7 C       -3.0610     0.7770    -1.2450 C.ar  1 <1>  -0.1500 
  8 C       -4.3560    -0.7780     0.6350 C.ar  1 <1>  -0.1500 
  9 C       -4.2170     0.0970    -1.5870 C.ar  1 <1>  -0.1500 
 10 C       -4.8760    -0.6810    -0.6470 C.ar  1 <1>  -0.1430 
 11 C       -6.1530    -1.4100    -1.0170 C.3   1 <1>   0.4870 
 12 N       -7.2970    -0.7190    -0.3670 N.4   1 <1>  -0.9590 
 13 C       -8.5670    -1.4780    -0.5120 C.3   1 <1>   0.4860 
 14 C       -7.4750     0.6870    -0.8410 C.3   1 <1>   0.3430 
 15 C       -9.6860    -0.7650     0.2280 C.ar  1 <1>  -0.1430 
 16 C       -8.4230     1.4370     0.0980 C.3   1 <1>  -0.0170 
 17 C       -9.6270     0.5990     0.5030 C.ar  1 <1>  -0.1430 
 18 C      -10.7960    -1.4950     0.6270 C.ar  1 <1>  -0.1500 
 19 C      -10.6760     1.2110     1.1700 C.ar  1 <1>  -0.1500 
 20 C      -11.8390    -0.8770     1.2930 C.ar  1 <1>  -0.1500 
 21 C      -11.7790     0.4760     1.5640 C.ar  1 <1>  -0.1500 
 22 H       -2.8160    -0.1860     1.9790 H     1 <1>   0.1500 
 23 H       -2.5670     1.3780    -1.9920 H     1 <1>   0.1500 
 24 H       -4.8350    -1.3850     1.3850 H     1 <1>   0.1500 
 25 H       -4.5880     0.1840    -2.5950 H     1 <1>   0.1500 
 26 H       -6.0900    -2.4300    -0.6730 H     1 <1>   0.0800 
 27 H       -6.2780    -1.4160    -2.0870 H     1 <1>   0.0800 
 28 H       -7.1000    -0.6640     0.6390 H     1 <1>   0.4500 
 29 H       -8.4520    -2.4700    -0.1060 H     1 <1>   0.0800 
 30 H       -8.8320    -1.5620    -1.5530 H     1 <1>   0.0800 
 31 H       -7.8890     0.6830    -1.8370 H     1 <1>   0.0800 
 32 H       -6.5280     1.2020    -0.8670 H     1 <1>   0.0800 
 33 H       -8.7530     2.3380    -0.3880 H     1 <1>   0.0800 
 34 H       -7.8840     1.7260     0.9830 H     1 <1>   0.0800 
 35 H      -10.8680    -2.5510     0.4260 H     1 <1>   0.1500 
 36 H      -10.6430     2.2650     1.3920 H     1 <1>   0.1500 
 37 H      -12.6990    -1.4470     1.6010 H     1 <1>   0.1500 
 38 H      -12.5910     0.9580     2.0830 H     1 <1>   0.1500 
@<TRIPOS>BOND
  1   1   2  1   
  2   2   3  1   
  3   2   4  1   
  4   2   5  1   
  5   5   6  ar  
  6   5   7  ar  
  7   6   8  ar  
  8   6  22  1   
  9   7   9  ar  
 10   7  23  1   
 11   8  10  ar  
 12   8  24  1   
 13   9  10  ar  
 14   9  25  1   
 15  10  11  1   
 16  11  12  1   
 17  11  26  1   
 18  11  27  1   
 19  12  13  1   
 20  12  14  1   
 21  12  28  1   
 22  13  15  1   
 23  13  29  1   
 24  13  30  1   
 25  14  16  1   
 26  14  31  1   
 27  14  32  1   
 28  15  17  ar  
 29  15  18  ar  
 30  16  17  1   
 31  16  33  1   
 32  16  34  1   
 33  17  19  ar  
 34  18  20  ar  
 35  18  35  1   
 36  19  21  ar  
 37  19  36  1   
 38  20  21  ar  
 39  20  37  1   
 40  21  38  1   
@<TRIPOS>SUBSTRUCTURE
  1 ****  12 GROUP 4 **** **** 0

# MOE 2024.06 (io_trps.svl 2023.06)
