@<TRIPOS>MOLECULE
NONAME
49 52 1 0 0 
SMALL
USER_CHARGES


@<TRIPOS>ATOM
  1 S       -1.1220     0.2640    -0.4380 S.o2  1 <1>   1.4470 
  2 O       -1.8620    -0.1290     0.7440 O.2   1 <1>  -0.6500 
  3 O       -1.6790     1.2300    -1.3520 O.2   1 <1>  -0.6500 
  4 N       -0.9460    -1.1880    -1.3880 N.am  1 <1>  -0.5780 
  5 C        0.5890     0.6870    -0.0170 C.ar  1 <1>  -0.0090 
  6 N       -0.7980    -2.4920    -0.9290 N.2   1 <1>  -0.4300 
  7 C        1.0790     1.9720    -0.2200 C.ar  1 <1>  -0.1500 
  8 C        1.4540    -0.2560     0.5260 C.ar  1 <1>  -0.1500 
  9 C       -1.7690    -3.1570    -0.4410 C.2   1 <1>   0.3280 
 10 C        2.3830     2.3040     0.1030 C.ar  1 <1>  -0.1500 
 11 C        2.7600     0.0690     0.8510 C.ar  1 <1>  -0.1500 
 12 C       -1.6010    -4.5570     0.1450 C.3   1 <1>   0.0610 
 13 C       -3.2190    -2.7040    -0.3450 C.3   1 <1>  -0.0190 
 14 C        3.2310     1.3530     0.6420 C.ar  1 <1>  -0.1430 
 15 C       -1.9710    -4.4630     1.6360 C.3   1 <1>   0.3430 
 16 C       -2.5270    -5.5220    -0.6200 C.3   1 <1>   0.1100 
 17 C       -0.1530    -5.0870     0.0350 C.3   1 <1>  -0.2400 
 18 C       -3.5950    -2.5920     1.1340 C.3   1 <1>   0.3430 
 19 C       -4.1070    -3.6850    -1.1150 C.3   1 <1>   0.1100 
 20 C        4.6630     1.7110     0.9960 C.3   1 <1>  -0.0960 
 21 N       -3.3090    -3.8340     1.9350 N.4   1 <1>  -0.9590 
 22 N       -3.9250    -5.0640    -0.6430 N.3   1 <1>  -0.8100 
 23 C       -4.4400    -4.8250     1.8760 C.3   1 <1>   0.3430 
 24 C       -4.7550    -5.4670     0.5050 C.3   1 <1>   0.1100 
 25 H       -0.4970    -0.9490    -2.2750 H     1 <1>   0.4200 
 26 H        0.4330     2.7280    -0.6370 H     1 <1>   0.1500 
 27 H        1.1080    -1.2600     0.6980 H     1 <1>   0.1500 
 28 H        2.7340     3.3070    -0.0670 H     1 <1>   0.1500 
 29 H        3.4100    -0.6820     1.2670 H     1 <1>   0.1500 
 30 H       -3.3550    -1.7390    -0.7940 H     1 <1>   0.0800 
 31 H       -1.2080    -3.8700     2.1140 H     1 <1>   0.0800 
 32 H       -1.9300    -5.4480     2.0700 H     1 <1>   0.0800 
 33 H       -2.4750    -6.5130    -0.2020 H     1 <1>   0.0800 
 34 H       -2.1860    -5.5900    -1.6410 H     1 <1>   0.0800 
 35 H       -0.0690    -6.0740     0.4560 H     1 <1>   0.0800 
 36 H        0.5340    -4.4370     0.5500 H     1 <1>   0.0800 
 37 H        0.1510    -5.1360    -0.9970 H     1 <1>   0.0800 
 38 H       -4.6370    -2.3330     1.2170 H     1 <1>   0.0800 
 39 H       -3.0310    -1.7800     1.5610 H     1 <1>   0.0800 
 40 H       -3.8390    -3.6470    -2.1590 H     1 <1>   0.0800 
 41 H       -5.1440    -3.4010    -1.0400 H     1 <1>   0.0800 
 42 H        4.7430     2.7570     1.2350 H     1 <1>   0.0800 
 43 H        5.3090     1.4950     0.1650 H     1 <1>   0.0800 
 44 H        4.9930     1.1450     1.8490 H     1 <1>   0.0800 
 45 H       -3.2650    -3.5230     2.9150 H     1 <1>   0.4500 
 46 H       -4.2400    -5.6240     2.5700 H     1 <1>   0.0800 
 47 H       -5.3410    -4.3450     2.2230 H     1 <1>   0.0800 
 48 H       -5.7850    -5.2610     0.2670 H     1 <1>   0.0800 
 49 H       -4.6900    -6.5360     0.6120 H     1 <1>   0.0800 
@<TRIPOS>BOND
  1   1   2  2   
  2   1   3  2   
  3   1   4  am  
  4   1   5  1   
  5   4   6  1   
  6   4  25  1   
  7   5   7  ar  
  8   5   8  ar  
  9   6   9  2   
 10   7  10  ar  
 11   7  26  1   
 12   8  11  ar  
 13   8  27  1   
 14   9  12  1   
 15   9  13  1   
 16  10  14  ar  
 17  10  28  1   
 18  11  14  ar  
 19  11  29  1   
 20  12  15  1   
 21  12  16  1   
 22  12  17  1   
 23  13  18  1   
 24  13  19  1   
 25  13  30  1   
 26  14  20  1   
 27  15  21  1   
 28  15  31  1   
 29  15  32  1   
 30  16  22  1   
 31  16  33  1   
 32  16  34  1   
 33  17  35  1   
 34  17  36  1   
 35  17  37  1   
 36  18  21  1   
 37  18  38  1   
 38  18  39  1   
 39  19  22  1   
 40  19  40  1   
 41  19  41  1   
 42  20  42  1   
 43  20  43  1   
 44  20  44  1   
 45  21  23  1   
 46  21  45  1   
 47  22  24  1   
 48  23  24  1   
 49  23  46  1   
 50  23  47  1   
 51  24  48  1   
 52  24  49  1   
@<TRIPOS>SUBSTRUCTURE
  1 ****   6 GROUP 4 **** **** 0

# MOE 2024.06 (io_trps.svl 2023.06)
