@<TRIPOS>MOLECULE
NONAME
51 54 1 0 0 
SMALL
USER_CHARGES


@<TRIPOS>ATOM
  1 O       -0.9970     4.2310     0.4430 O.3   1 <1>  -0.5600 
  2 C       -1.6180     3.4680     1.4380 C.3   1 <1>   0.1200 
  3 C       -0.8320     3.5720    -0.7800 C.3   1 <1>   0.1200 
  4 C       -3.0300     3.0500     0.9860 C.3   1 <1>   0.3430 
  5 C       -2.2000     3.1560    -1.3530 C.3   1 <1>   0.3430 
  6 N       -2.9960     2.3700    -0.3530 N.4   1 <1>  -0.9590 
  7 C       -4.3520     1.9760    -0.8450 C.3   1 <1>   0.3430 
  8 C       -4.8280     0.7000    -0.1200 C.3   1 <1>   0.2000 
  9 O       -3.7280    -0.1230     0.1240 O.3   1 <1>  -0.6800 
 10 C       -5.8630    -0.1040    -0.9180 C.3   1 <1>   0.1200 
 11 O       -5.9710    -1.3630    -0.3280 O.3   1 <1>  -0.5600 
 12 C       -6.9160    -2.2270    -0.8990 C.3   1 <1>   0.2000 
 13 C       -8.3340    -1.9210    -0.3600 C.3   1 <1>  -0.0800 
 14 C       -6.5300    -3.6770    -0.5350 C.3   1 <1>  -0.0800 
 15 C       -9.3340    -2.8890    -1.0280 C.3   1 <1>  -0.1600 
 16 C       -8.3850    -2.1330     1.1690 C.3   1 <1>  -0.1600 
 17 C       -7.5350    -4.6380    -1.2040 C.3   1 <1>  -0.1600 
 18 C       -6.5890    -3.8840     0.9940 C.3   1 <1>  -0.1600 
 19 C       -8.9610    -4.3470    -0.6980 C.3   1 <1>  -0.0800 
 20 C       -8.0090    -3.5870     1.5130 C.3   1 <1>  -0.0800 
 21 C       -9.0050    -4.5430     0.8290 C.3   1 <1>  -0.1600 
 22 H       -1.6760     4.0720     2.3260 H     1 <1>   0.0800 
 23 H       -1.0070     2.6070     1.6490 H     1 <1>   0.0800 
 24 H       -0.1960     2.7160    -0.6310 H     1 <1>   0.0800 
 25 H       -0.3380     4.2520    -1.4530 H     1 <1>   0.0800 
 26 H       -3.6440     3.9330     0.9330 H     1 <1>   0.0800 
 27 H       -3.4560     2.3880     1.7230 H     1 <1>   0.0800 
 28 H       -2.0490     2.5720    -2.2460 H     1 <1>   0.0800 
 29 H       -2.7380     4.0500    -1.6260 H     1 <1>   0.0800 
 30 H       -2.5330     1.4520    -0.1990 H     1 <1>   0.4500 
 31 H       -4.2970     1.7580    -1.8990 H     1 <1>   0.0800 
 32 H       -5.0610     2.7760    -0.7090 H     1 <1>   0.0800 
 33 H       -5.2550     0.9600     0.8330 H     1 <1>   0.0800 
 34 H       -4.0940    -1.0320     0.2710 H     1 <1>   0.4000 
 35 H       -5.5460    -0.2320    -1.9390 H     1 <1>   0.0800 
 36 H       -6.8200     0.3860    -0.8950 H     1 <1>   0.0800 
 37 H       -6.8850    -2.1120    -1.9690 H     1 <1>   0.0800 
 38 H       -8.6200    -0.9140    -0.6030 H     1 <1>   0.0800 
 39 H       -5.5410    -3.8870    -0.9000 H     1 <1>   0.0800 
 40 H       -9.3270    -2.7450    -2.0950 H     1 <1>   0.0800 
 41 H      -10.3300    -2.6820    -0.6790 H     1 <1>   0.0800 
 42 H       -9.3740    -1.9180     1.5350 H     1 <1>   0.0800 
 43 H       -7.7040    -1.4590     1.6570 H     1 <1>   0.0800 
 44 H       -7.2700    -5.6570    -0.9760 H     1 <1>   0.0800 
 45 H       -7.4960    -4.5230    -2.2730 H     1 <1>   0.0800 
 46 H       -5.8820    -3.2370     1.4820 H     1 <1>   0.0800 
 47 H       -6.3180    -4.8980     1.2350 H     1 <1>   0.0800 
 48 H       -9.6600    -5.0180    -1.1700 H     1 <1>   0.0800 
 49 H       -8.0430    -3.7290     2.5800 H     1 <1>   0.0800 
 50 H       -8.7570    -5.5610     1.0730 H     1 <1>   0.0800 
 51 H      -10.0000    -4.3540     1.1930 H     1 <1>   0.0800 
@<TRIPOS>BOND
  1   1   2  1   
  2   1   3  1   
  3   2   4  1   
  4   2  22  1   
  5   2  23  1   
  6   3   5  1   
  7   3  24  1   
  8   3  25  1   
  9   4   6  1   
 10   4  26  1   
 11   4  27  1   
 12   5   6  1   
 13   5  28  1   
 14   5  29  1   
 15   6   7  1   
 16   6  30  1   
 17   7   8  1   
 18   7  31  1   
 19   7  32  1   
 20   8   9  1   
 21   8  10  1   
 22   8  33  1   
 23   9  34  1   
 24  10  11  1   
 25  10  35  1   
 26  10  36  1   
 27  11  12  1   
 28  12  13  1   
 29  12  14  1   
 30  12  37  1   
 31  13  15  1   
 32  13  16  1   
 33  13  38  1   
 34  14  17  1   
 35  14  18  1   
 36  14  39  1   
 37  15  19  1   
 38  15  40  1   
 39  15  41  1   
 40  16  20  1   
 41  16  42  1   
 42  16  43  1   
 43  17  19  1   
 44  17  44  1   
 45  17  45  1   
 46  18  20  1   
 47  18  46  1   
 48  18  47  1   
 49  19  21  1   
 50  19  48  1   
 51  20  21  1   
 52  20  49  1   
 53  21  50  1   
 54  21  51  1   
@<TRIPOS>SUBSTRUCTURE
  1 ****  11 GROUP 4 **** **** 0

# MOE 2024.06 (io_trps.svl 2023.06)
