@<TRIPOS>MOLECULE
NONAME
45 47 1 0 0 
SMALL
USER_CHARGES


@<TRIPOS>ATOM
  1 O        0.4110     0.0610     0.1780 O.2   1 <1>  -0.5700 
  2 C        1.6310     0.0490     0.1700 C.2   1 <1>   0.6900 
  3 N        2.3300     1.2300     0.3720 N.am  1 <1>  -0.4200 
  4 N        2.3110    -1.1360    -0.0440 N.am  1 <1>  -0.4230 
  5 C        3.7150     1.2630     0.3130 C.2   1 <1>   0.7160 
  6 C        1.5710     2.4950     0.6110 C.3   1 <1>   0.0600 
  7 C        3.7180    -1.1450    -0.0860 C.2   1 <1>   0.0630 
  8 C        1.6050    -2.4270    -0.2510 C.3   1 <1>   0.0600 
  9 O        4.2950     2.3260     0.4510 O.2   1 <1>  -0.5700 
 10 C        4.4320     0.0410     0.0880 C.2   1 <1>  -0.0860 
 11 C        4.6100    -2.1470    -0.2780 C.2   1 <1>  -0.3020 
 12 C        5.7710    -0.2900    -0.0090 C.2   1 <1>  -0.2050 
 13 N        5.8740    -1.6390    -0.2320 N.pl3 1 <1>   0.0480 
 14 C        6.8830     0.6120     0.1050 C.ar  1 <1>   0.0530 
 15 C        7.0910    -2.4860    -0.3950 C.3   1 <1>   0.1760 
 16 C        7.4750     1.1700    -1.0240 C.ar  1 <1>  -0.1500 
 17 C        7.3950     0.9580     1.3520 C.ar  1 <1>  -0.1500 
 18 C        7.9680    -2.3850     0.8670 C.3   1 <1>   0.1200 
 19 C        7.8230    -2.1310    -1.7090 C.3   1 <1>  -0.1600 
 20 C        8.5620     2.0180    -0.9160 C.ar  1 <1>  -0.1500 
 21 C        8.4810     1.8060     1.4670 C.ar  1 <1>  -0.1500 
 22 O        8.9260    -3.3910     0.8860 O.3   1 <1>  -0.6800 
 23 C        8.5860    -3.3130    -2.3260 C.3   1 <1>  -0.2400 
 24 C        9.0700     2.3350     0.3320 C.ar  1 <1>  -0.1500 
 25 H        0.6610     2.2910     1.1480 H     1 <1>   0.0800 
 26 H        1.3270     2.9480    -0.3340 H     1 <1>   0.0800 
 27 H        2.1560     3.1860     1.1920 H     1 <1>   0.0800 
 28 H        0.5400    -2.3060    -0.1610 H     1 <1>   0.0800 
 29 H        1.9350    -3.1380     0.4850 H     1 <1>   0.0800 
 30 H        1.8290    -2.8020    -1.2340 H     1 <1>   0.0800 
 31 H        4.4120    -3.1900    -0.4430 H     1 <1>   0.1500 
 32 H        6.7430    -3.5010    -0.4630 H     1 <1>   0.0800 
 33 H        7.0720     0.9330    -1.9920 H     1 <1>   0.1500 
 34 H        6.9300     0.5580     2.2340 H     1 <1>   0.1500 
 35 H        7.3600    -2.5070     1.7470 H     1 <1>   0.0800 
 36 H        8.4800    -1.4410     0.9140 H     1 <1>   0.0800 
 37 H        8.5080    -1.3190    -1.5380 H     1 <1>   0.0800 
 38 H        7.0960    -1.8030    -2.4330 H     1 <1>   0.0800 
 39 H        9.0090     2.4370    -1.8010 H     1 <1>   0.1500 
 40 H        8.8660     2.0600     2.4400 H     1 <1>   0.1500 
 41 H        9.6010    -3.2340     0.1970 H     1 <1>   0.4000 
 42 H        9.3840    -3.6460    -1.6880 H     1 <1>   0.0800 
 43 H        9.0150    -3.0170    -3.2680 H     1 <1>   0.0800 
 44 H        7.9200    -4.1390    -2.5050 H     1 <1>   0.0800 
 45 H        9.9140     2.9960     0.4190 H     1 <1>   0.1500 
@<TRIPOS>BOND
  1   1   2  2   
  2   2   3  am  
  3   2   4  am  
  4   3   5  am  
  5   3   6  1   
  6   4   7  1   
  7   4   8  1   
  8   5   9  2   
  9   5  10  1   
 10   6  25  1   
 11   6  26  1   
 12   6  27  1   
 13   7  10  1   
 14   7  11  2   
 15   8  28  1   
 16   8  29  1   
 17   8  30  1   
 18  10  12  2   
 19  11  13  1   
 20  11  31  1   
 21  12  13  1   
 22  12  14  1   
 23  13  15  1   
 24  14  16  ar  
 25  14  17  ar  
 26  15  18  1   
 27  15  19  1   
 28  15  32  1   
 29  16  20  ar  
 30  16  33  1   
 31  17  21  ar  
 32  17  34  1   
 33  18  22  1   
 34  18  35  1   
 35  18  36  1   
 36  19  23  1   
 37  19  37  1   
 38  19  38  1   
 39  20  24  ar  
 40  20  39  1   
 41  21  24  ar  
 42  21  40  1   
 43  22  41  1   
 44  23  42  1   
 45  23  43  1   
 46  23  44  1   
 47  24  45  1   
@<TRIPOS>SUBSTRUCTURE
  1 ****  12 GROUP 4 **** **** 0

# MOE 2024.06 (io_trps.svl 2023.06)
