@<TRIPOS>MOLECULE
NONAME
45 46 1 0 0 
SMALL
USER_CHARGES


@<TRIPOS>ATOM
  1 O       -0.1720     0.0450     0.4050 O.2   1 <1>  -0.5700 
  2 C       -0.1010     1.2580     0.4470 C.2   1 <1>   0.5440 
  3 N        1.1210     1.8300     0.6690 N.am  1 <1>  -0.7300 
  4 C       -1.2870     2.0810     0.2860 C.ar  1 <1>   0.0860 
  5 C        2.3930     1.0910     0.8010 C.3   1 <1>   0.1400 
  6 C       -1.2260     3.3850    -0.2100 C.ar  1 <1>  -0.1500 
  7 C       -2.5500     1.5940     0.6240 C.ar  1 <1>  -0.1500 
  8 C        3.5230     1.9340     0.2170 C.3   1 <1>  -0.1600 
  9 C       -2.3620     4.1600    -0.3460 C.ar  1 <1>  -0.1500 
 10 C       -3.6860     2.3690     0.4880 C.ar  1 <1>  -0.1500 
 11 C        4.8500     1.1870     0.2940 C.3   1 <1>   0.1200 
 12 C       -3.6160     3.6700     0.0020 C.ar  1 <1>   0.0000 
 13 O        5.8340     2.0300    -0.2090 O.3   1 <1>  -0.5600 
 14 C       -4.8030     4.4800    -0.1410 C.ar  1 <1>   0.0000 
 15 C        7.1170     1.5030    -0.2390 C.3   1 <1>   0.2000 
 16 C       -5.8640     4.0620    -0.9400 C.ar  1 <1>  -0.1500 
 17 C       -4.9210     5.7040     0.5130 C.ar  1 <1>  -0.1500 
 18 C        8.0770     2.6850    -0.1640 C.3   1 <1>  -0.2400 
 19 C        7.2990     0.7250    -1.5420 C.3   1 <1>  -0.2400 
 20 C       -7.0020     4.8350    -1.0810 C.ar  1 <1>  -0.1500 
 21 C       -6.0560     6.4820     0.3760 C.ar  1 <1>  -0.1500 
 22 C       -7.1000     6.0480    -0.4220 C.ar  1 <1>  -0.1500 
 23 H        1.1760     2.8340     0.8400 H     1 <1>   0.3700 
 24 H        2.3220     0.1520     0.2750 H     1 <1>   0.0800 
 25 H        2.5760     0.8860     1.8420 H     1 <1>   0.0800 
 26 H       -0.2770     3.7960    -0.5040 H     1 <1>   0.1500 
 27 H       -2.6330     0.5880     1.0000 H     1 <1>   0.1500 
 28 H        3.6090     2.8530     0.7690 H     1 <1>   0.0800 
 29 H        3.3090     2.1520    -0.8140 H     1 <1>   0.0800 
 30 H       -2.2850     5.1610    -0.7350 H     1 <1>   0.1500 
 31 H       -4.6450     1.9640     0.7630 H     1 <1>   0.1500 
 32 H        4.8140     0.2900    -0.3010 H     1 <1>   0.0800 
 33 H        5.0940     0.9440     1.3150 H     1 <1>   0.0800 
 34 H        7.2640     0.8640     0.6180 H     1 <1>   0.0800 
 35 H       -5.7920     3.1220    -1.4570 H     1 <1>   0.1500 
 36 H       -4.1150     6.0440     1.1390 H     1 <1>   0.1500 
 37 H        7.9220     3.3440    -0.9990 H     1 <1>   0.0800 
 38 H        9.0940     2.3370    -0.1810 H     1 <1>   0.0800 
 39 H        7.9170     3.2270     0.7510 H     1 <1>   0.0800 
 40 H        7.0900     1.3610    -2.3840 H     1 <1>   0.0800 
 41 H        6.6500    -0.1290    -1.5710 H     1 <1>   0.0800 
 42 H        8.3130     0.3760    -1.6210 H     1 <1>   0.0800 
 43 H       -7.8120     4.4950    -1.7030 H     1 <1>   0.1500 
 44 H       -6.1300     7.4250     0.8900 H     1 <1>   0.1500 
 45 H       -7.9840     6.6520    -0.5300 H     1 <1>   0.1500 
@<TRIPOS>BOND
  1   1   2  2   
  2   2   3  am  
  3   2   4  1   
  4   3   5  1   
  5   3  23  1   
  6   4   6  ar  
  7   4   7  ar  
  8   5   8  1   
  9   5  24  1   
 10   5  25  1   
 11   6   9  ar  
 12   6  26  1   
 13   7  10  ar  
 14   7  27  1   
 15   8  11  1   
 16   8  28  1   
 17   8  29  1   
 18   9  12  ar  
 19   9  30  1   
 20  10  12  ar  
 21  10  31  1   
 22  11  13  1   
 23  11  32  1   
 24  11  33  1   
 25  12  14  1   
 26  13  15  1   
 27  14  16  ar  
 28  14  17  ar  
 29  15  18  1   
 30  15  19  1   
 31  15  34  1   
 32  16  20  ar  
 33  16  35  1   
 34  17  21  ar  
 35  17  36  1   
 36  18  37  1   
 37  18  38  1   
 38  18  39  1   
 39  19  40  1   
 40  19  41  1   
 41  19  42  1   
 42  20  22  ar  
 43  20  43  1   
 44  21  22  ar  
 45  21  44  1   
 46  22  45  1   
@<TRIPOS>SUBSTRUCTURE
  1 ****   6 GROUP 4 **** **** 0

# MOE 2024.06 (io_trps.svl 2023.06)
