@<TRIPOS>MOLECULE
NONAME
42 43 1 0 0 
SMALL
USER_CHARGES


@<TRIPOS>ATOM
  1 S        0.3510    -0.2780     0.6740 S.o2  1 <1>   1.4470 
  2 O       -0.8660    -0.9140     1.1260 O.2   1 <1>  -0.6500 
  3 O        1.5570    -0.4310     1.4590 O.2   1 <1>  -0.6500 
  4 N        0.6830    -0.9200    -0.8610 N.am  1 <1>  -0.8490 
  5 C        0.0710     1.4810     0.3410 C.ar  1 <1>  -0.0090 
  6 C        1.3100    -2.2680    -0.7870 C.3   1 <1>   0.2570 
  7 C       -0.4910    -0.9380    -1.7420 C.3   1 <1>   0.1160 
  8 C       -1.0590     2.1330     0.8200 C.ar  1 <1>  -0.1500 
  9 C        0.9830     2.2180    -0.4010 C.ar  1 <1>  -0.1500 
 10 C        2.8410    -2.2760    -0.9130 C.2   1 <1>   0.5690 
 11 C       -1.2960     3.4830     0.5700 C.ar  1 <1>   0.0830 
 12 C        0.7670     3.5570    -0.6630 C.ar  1 <1>  -0.1500 
 13 O        3.3380    -2.9010    -1.8230 O.2   1 <1>  -0.5700 
 14 N        3.5960    -1.6030    -0.0040 N.am  1 <1>  -0.5790 
 15 O       -2.4160     4.0940     1.0560 O.3   1 <1>  -0.3630 
 16 C       -0.3610     4.2070    -0.1930 C.ar  1 <1>   0.0830 
 17 C        5.0590    -1.5020     0.0150 C.3   1 <1>   0.0490 
 18 C       -3.3190     3.4530     1.9320 C.3   1 <1>   0.0400 
 19 O       -0.4260     5.5240    -0.5450 O.3   1 <1>  -0.3630 
 20 C        5.7350    -1.4080     1.3410 C.3   1 <1>  -0.2000 
 21 C        5.6620    -0.2070     0.4470 C.3   1 <1>  -0.2000 
 22 C       -1.5060     6.3700    -0.2260 C.3   1 <1>   0.0400 
 23 H        0.9400    -2.8840    -1.5890 H     1 <1>   0.0800 
 24 H        1.0370    -2.7570     0.1320 H     1 <1>   0.0800 
 25 H       -0.9090     0.0510    -1.8280 H     1 <1>   0.0800 
 26 H       -1.2460    -1.6020    -1.3540 H     1 <1>   0.0800 
 27 H       -0.2070    -1.2660    -2.7280 H     1 <1>   0.0800 
 28 H       -1.7530     1.5500     1.3940 H     1 <1>   0.1500 
 29 H        1.8700     1.7380    -0.7810 H     1 <1>   0.1500 
 30 H        1.4830     4.1140    -1.2420 H     1 <1>   0.1500 
 31 H        3.1080    -1.0800     0.7380 H     1 <1>   0.3700 
 32 H        5.5380    -2.0600    -0.7760 H     1 <1>   0.1000 
 33 H       -4.0750     4.1650     2.2100 H     1 <1>   0.0800 
 34 H       -2.7860     3.1280     2.8080 H     1 <1>   0.0800 
 35 H       -3.7730     2.6220     1.4220 H     1 <1>   0.0800 
 36 H        6.6880    -1.8910     1.4690 H     1 <1>   0.1000 
 37 H        5.1330    -1.4350     2.2320 H     1 <1>   0.1000 
 38 H        5.0080     0.6050     0.7150 H     1 <1>   0.1000 
 39 H        6.5650     0.1270    -0.0330 H     1 <1>   0.1000 
 40 H       -1.3110     7.3370    -0.6510 H     1 <1>   0.0800 
 41 H       -1.5810     6.4500     0.8440 H     1 <1>   0.0800 
 42 H       -2.4070     5.9600    -0.6460 H     1 <1>   0.0800 
@<TRIPOS>BOND
  1   1   2  2   
  2   1   3  2   
  3   1   4  am  
  4   1   5  1   
  5   4   6  1   
  6   4   7  1   
  7   5   8  ar  
  8   5   9  ar  
  9   6  10  1   
 10   6  23  1   
 11   6  24  1   
 12   7  25  1   
 13   7  26  1   
 14   7  27  1   
 15   8  11  ar  
 16   8  28  1   
 17   9  12  ar  
 18   9  29  1   
 19  10  13  2   
 20  10  14  am  
 21  11  15  1   
 22  11  16  ar  
 23  12  16  ar  
 24  12  30  1   
 25  14  17  1   
 26  14  31  1   
 27  15  18  1   
 28  16  19  1   
 29  17  20  1   
 30  17  21  1   
 31  17  32  1   
 32  18  33  1   
 33  18  34  1   
 34  18  35  1   
 35  19  22  1   
 36  20  21  1   
 37  20  36  1   
 38  20  37  1   
 39  21  38  1   
 40  21  39  1   
 41  22  40  1   
 42  22  41  1   
 43  22  42  1   
@<TRIPOS>SUBSTRUCTURE
  1 ****   5 GROUP 4 **** **** 0

# MOE 2024.06 (io_trps.svl 2023.06)
