@<TRIPOS>MOLECULE
NONAME
63 67 1 0 0 
SMALL
USER_CHARGES


@<TRIPOS>ATOM
  1 O       -6.7330     0.1520    -0.0210 O.2   1 <1>  -0.5700 
  2 C       -7.0200     1.3250    -0.0250 C.2   1 <1>   0.5690 
  3 N       -6.0610     2.2770    -0.3060 N.am  1 <1>  -0.6600 
  4 C       -8.4660     1.6840     0.3200 C.3   1 <1>   0.1810 
  5 C       -6.2720     3.7550    -0.1930 C.3   1 <1>   0.1400 
  6 C       -4.7360     1.8680    -0.8710 C.3   1 <1>   0.1400 
  7 O       -8.9940     2.6450    -0.5830 O.3   1 <1>  -0.3620 
  8 C       -5.0690     4.4530     0.4750 C.3   1 <1>   0.3430 
  9 C       -3.5740     2.5880    -0.1650 C.3   1 <1>   0.3430 
 10 C      -10.2340     3.1640    -0.4050 C.ar  1 <1>   0.0820 
 11 N       -3.7570     4.0850    -0.1640 N.4   1 <1>  -0.9590 
 12 C      -11.1010     2.7800     0.6110 C.ar  1 <1>  -0.1500 
 13 C      -10.6390     4.1380    -1.3000 C.ar  1 <1>  -0.1500 
 14 C       -2.6310     4.7890     0.5040 C.3   1 <1>   0.3430 
 15 C      -12.3460     3.3740     0.7250 C.ar  1 <1>  -0.1500 
 16 C      -11.8840     4.7260    -1.1790 C.ar  1 <1>  -0.1500 
 17 C       -1.3890     4.7230    -0.3750 C.3   1 <1>  -0.2400 
 18 C      -12.7640     4.3600    -0.1660 C.ar  1 <1>  -0.1430 
 19 C      -14.1470     5.0470    -0.0750 C.3   1 <1>   0.1430 
 20 C      -15.0090     4.5320     1.1070 C.3   1 <1>  -0.1600 
 21 C      -14.9450     4.7970    -1.3770 C.3   1 <1>  -0.1600 
 22 C      -13.9660     6.5730     0.1110 C.3   1 <1>  -0.1600 
 23 C      -16.3760     5.2400     1.1620 C.3   1 <1>  -0.0800 
 24 C      -16.3100     5.5130    -1.3410 C.3   1 <1>  -0.0800 
 25 C      -15.3270     7.2950     0.1530 C.3   1 <1>  -0.0800 
 26 C      -17.1310     4.9800    -0.1540 C.3   1 <1>  -0.1600 
 27 C      -16.1530     6.7530     1.3320 C.3   1 <1>  -0.1600 
 28 C      -16.0820     7.0260    -1.1620 C.3   1 <1>  -0.1600 
 29 H       -8.5060     2.0870     1.3140 H     1 <1>   0.0800 
 30 H       -9.0770     0.8010     0.2600 H     1 <1>   0.0800 
 31 H       -7.1480     3.9690     0.3930 H     1 <1>   0.0800 
 32 H       -6.4320     4.1630    -1.1760 H     1 <1>   0.0800 
 33 H       -4.7180     2.0950    -1.9230 H     1 <1>   0.0800 
 34 H       -4.5910     0.8060    -0.7710 H     1 <1>   0.0800 
 35 H       -5.0530     4.1730     1.5150 H     1 <1>   0.0800 
 36 H       -5.2140     5.5200     0.4250 H     1 <1>   0.0800 
 37 H       -2.6540     2.3280    -0.6610 H     1 <1>   0.0800 
 38 H       -3.5150     2.2260     0.8490 H     1 <1>   0.0800 
 39 H       -3.7890     4.3950    -1.1440 H     1 <1>   0.4500 
 40 H      -10.8350     2.0210     1.3220 H     1 <1>   0.1500 
 41 H       -9.9780     4.4320    -2.0940 H     1 <1>   0.1500 
 42 H       -2.4300     4.3460     1.4670 H     1 <1>   0.0800 
 43 H       -2.8910     5.8250     0.6580 H     1 <1>   0.0800 
 44 H      -12.9780     3.0420     1.5270 H     1 <1>   0.1500 
 45 H      -12.1610     5.4790    -1.8950 H     1 <1>   0.1500 
 46 H       -1.0300     3.7150    -0.4800 H     1 <1>   0.0800 
 47 H       -0.6040     5.2990     0.0840 H     1 <1>   0.0800 
 48 H       -1.5810     5.1450    -1.3460 H     1 <1>   0.0800 
 49 H      -14.4930     4.7030     2.0350 H     1 <1>   0.0800 
 50 H      -15.1720     3.4740     1.0030 H     1 <1>   0.0800 
 51 H      -15.0930     3.7400    -1.5080 H     1 <1>   0.0800 
 52 H      -14.3940     5.1520    -2.2280 H     1 <1>   0.0800 
 53 H      -13.3850     6.9830    -0.6940 H     1 <1>   0.0800 
 54 H      -13.4280     6.7600     1.0240 H     1 <1>   0.0800 
 55 H      -16.9490     4.8620     1.9910 H     1 <1>   0.0800 
 56 H      -16.8400     5.3300    -2.2600 H     1 <1>   0.0800 
 57 H      -15.1730     8.3540     0.2740 H     1 <1>   0.0800 
 58 H      -18.0900     5.4670    -0.1260 H     1 <1>   0.0800 
 59 H      -17.3030     3.9250    -0.2740 H     1 <1>   0.0800 
 60 H      -15.6370     6.9450     2.2570 H     1 <1>   0.0800 
 61 H      -17.1020     7.2590     1.3760 H     1 <1>   0.0800 
 62 H      -17.0290     7.5370    -1.1490 H     1 <1>   0.0800 
 63 H      -15.5170     7.4100    -1.9930 H     1 <1>   0.0800 
@<TRIPOS>BOND
  1   1   2  2   
  2   2   3  am  
  3   2   4  1   
  4   3   5  1   
  5   3   6  1   
  6   4   7  1   
  7   4  29  1   
  8   4  30  1   
  9   5   8  1   
 10   5  31  1   
 11   5  32  1   
 12   6   9  1   
 13   6  33  1   
 14   6  34  1   
 15   7  10  1   
 16   8  11  1   
 17   8  35  1   
 18   8  36  1   
 19   9  11  1   
 20   9  37  1   
 21   9  38  1   
 22  10  12  ar  
 23  10  13  ar  
 24  11  14  1   
 25  11  39  1   
 26  12  15  ar  
 27  12  40  1   
 28  13  16  ar  
 29  13  41  1   
 30  14  17  1   
 31  14  42  1   
 32  14  43  1   
 33  15  18  ar  
 34  15  44  1   
 35  16  18  ar  
 36  16  45  1   
 37  17  46  1   
 38  17  47  1   
 39  17  48  1   
 40  18  19  1   
 41  19  20  1   
 42  19  21  1   
 43  19  22  1   
 44  20  23  1   
 45  20  49  1   
 46  20  50  1   
 47  21  24  1   
 48  21  51  1   
 49  21  52  1   
 50  22  25  1   
 51  22  53  1   
 52  22  54  1   
 53  23  26  1   
 54  23  27  1   
 55  23  55  1   
 56  24  26  1   
 57  24  28  1   
 58  24  56  1   
 59  25  27  1   
 60  25  28  1   
 61  25  57  1   
 62  26  58  1   
 63  26  59  1   
 64  27  60  1   
 65  27  61  1   
 66  28  62  1   
 67  28  63  1   
@<TRIPOS>SUBSTRUCTURE
  1 ****  10 GROUP 4 **** **** 0

# MOE 2024.06 (io_trps.svl 2023.06)
