@<TRIPOS>MOLECULE
NONAME
50 52 1 0 0 
SMALL
USER_CHARGES


@<TRIPOS>ATOM
  1 S       -0.2900    -0.4690    -0.1140 S.3   1 <1>  -0.3320 
  2 C        0.9300     0.8070    -0.4730 C.ar  1 <1>   0.1020 
  3 C       -1.9200     0.3910     0.0240 C.3   1 <1>   0.0700 
  4 C        2.2530     0.4100    -0.5390 C.ar  1 <1>  -0.1500 
  5 C        0.5750     2.1320    -0.6770 C.ar  1 <1>  -0.1500 
  6 C       -2.9870    -0.6560     0.3390 C.3   1 <1>   0.1400 
  7 C        3.2360     1.3460    -0.8070 C.ar  1 <1>  -0.1500 
  8 C        1.5630     3.0650    -0.9460 C.ar  1 <1>  -0.1500 
  9 N       -4.2750     0.0060     0.6680 N.am  1 <1>  -0.7300 
 10 C        2.8900     2.6720    -1.0100 C.ar  1 <1>  -0.1500 
 11 C       -5.1260     0.5510    -0.2520 C.2   1 <1>   0.5440 
 12 O       -4.7850     0.5690    -1.4180 O.2   1 <1>  -0.5700 
 13 C       -6.4040     1.1130     0.1470 C.ar  1 <1>   0.0860 
 14 C       -6.9580     2.1860    -0.5500 C.ar  1 <1>  -0.1500 
 15 C       -7.1350     0.6090     1.2230 C.ar  1 <1>  -0.1500 
 16 C       -8.1800     2.7300    -0.1990 C.ar  1 <1>  -0.1500 
 17 C       -8.3590     1.1450     1.5810 C.ar  1 <1>  -0.1500 
 18 C       -8.8960     2.2050     0.8660 C.ar  1 <1>  -0.1430 
 19 C      -10.2560     2.7720     1.2320 C.3   1 <1>   0.4860 
 20 N      -11.2370     2.3490     0.1950 N.4   1 <1>  -0.9590 
 21 C      -12.5810     2.9910     0.3940 C.3   1 <1>   0.3430 
 22 C      -11.3650     0.8490     0.1230 C.3   1 <1>   0.3430 
 23 C      -13.6150     2.4610    -0.6200 C.3   1 <1>   0.1200 
 24 C      -12.4550     0.4240    -0.8780 C.3   1 <1>   0.1200 
 25 O      -13.6610     1.0650    -0.5770 O.3   1 <1>  -0.5600 
 26 H       -2.1170     0.8690    -0.9200 H     1 <1>   0.0800 
 27 H       -1.8300     1.1130     0.8150 H     1 <1>   0.0800 
 28 H        2.5070    -0.6230    -0.3800 H     1 <1>   0.1500 
 29 H       -0.4480     2.4520    -0.6350 H     1 <1>   0.1500 
 30 H       -2.6730    -1.2580     1.1740 H     1 <1>   0.0800 
 31 H       -3.1200    -1.2960    -0.5170 H     1 <1>   0.0800 
 32 H        4.2680     1.0430    -0.8590 H     1 <1>   0.1500 
 33 H        1.3000     4.0960    -1.1060 H     1 <1>   0.1500 
 34 H       -4.4730     0.1140     1.6640 H     1 <1>   0.3700 
 35 H        3.6550     3.4000    -1.2190 H     1 <1>   0.1500 
 36 H       -6.4100     2.5940    -1.3850 H     1 <1>   0.1500 
 37 H       -6.7420    -0.2240     1.7810 H     1 <1>   0.1500 
 38 H       -8.5560     3.5640    -0.7690 H     1 <1>   0.1500 
 39 H       -8.8860     0.7220     2.4210 H     1 <1>   0.1500 
 40 H      -10.1950     3.8480     1.2710 H     1 <1>   0.0800 
 41 H      -10.5580     2.4100     2.2010 H     1 <1>   0.0800 
 42 H      -10.8620     2.6530    -0.7110 H     1 <1>   0.4500 
 43 H      -12.5010     4.0610     0.2930 H     1 <1>   0.0800 
 44 H      -12.9450     2.7770     1.3860 H     1 <1>   0.0800 
 45 H      -11.6250     0.4570     1.0920 H     1 <1>   0.0800 
 46 H      -10.4250     0.4100    -0.1710 H     1 <1>   0.0800 
 47 H      -13.3750     2.7710    -1.6220 H     1 <1>   0.0800 
 48 H      -14.5970     2.8280    -0.3740 H     1 <1>   0.0800 
 49 H      -12.6240    -0.6380    -0.8130 H     1 <1>   0.0800 
 50 H      -12.1740     0.6640    -1.8890 H     1 <1>   0.0800 
@<TRIPOS>BOND
  1   1   2  1   
  2   1   3  1   
  3   2   4  ar  
  4   2   5  ar  
  5   3   6  1   
  6   3  26  1   
  7   3  27  1   
  8   4   7  ar  
  9   4  28  1   
 10   5   8  ar  
 11   5  29  1   
 12   6   9  1   
 13   6  30  1   
 14   6  31  1   
 15   7  10  ar  
 16   7  32  1   
 17   8  10  ar  
 18   8  33  1   
 19   9  11  am  
 20   9  34  1   
 21  10  35  1   
 22  11  12  2   
 23  11  13  1   
 24  13  14  ar  
 25  13  15  ar  
 26  14  16  ar  
 27  14  36  1   
 28  15  17  ar  
 29  15  37  1   
 30  16  18  ar  
 31  16  38  1   
 32  17  18  ar  
 33  17  39  1   
 34  18  19  1   
 35  19  20  1   
 36  19  40  1   
 37  19  41  1   
 38  20  21  1   
 39  20  22  1   
 40  20  42  1   
 41  21  23  1   
 42  21  43  1   
 43  21  44  1   
 44  22  24  1   
 45  22  45  1   
 46  22  46  1   
 47  23  25  1   
 48  23  47  1   
 49  23  48  1   
 50  24  25  1   
 51  24  49  1   
 52  24  50  1   
@<TRIPOS>SUBSTRUCTURE
  1 ****  13 GROUP 4 **** **** 0

# MOE 2024.06 (io_trps.svl 2023.06)
