@<TRIPOS>MOLECULE
NONAME
48 50 1 0 0 
SMALL
USER_CHARGES


@<TRIPOS>ATOM
  1 O       -0.7880     1.9340    -3.1570 O.2   1 <1>  -0.5700 
  2 C       -0.1060     1.9970    -2.1630 C.2   1 <1>   0.5690 
  3 N       -0.5800     1.9540    -0.8830 N.am  1 <1>  -0.5470 
  4 C        1.4120     2.1310    -2.3060 C.3   1 <1>   0.1710 
  5 C       -1.8550     1.8250    -0.3090 C.ar  1 <1>   0.1170 
  6 N        2.1690     1.6760    -1.0990 N.3   1 <1>  -0.8100 
  7 C       -1.9700     1.5220     1.0540 C.ar  1 <1>  -0.1430 
  8 C       -3.0080     2.0050    -1.0630 C.ar  1 <1>  -0.1500 
  9 C        3.5560     2.1930    -1.1190 C.3   1 <1>   0.1100 
 10 C        2.2000     0.1910    -1.0220 C.3   1 <1>   0.1100 
 11 C       -3.2330     1.4090     1.6350 C.ar  1 <1>  -0.1430 
 12 C       -0.6890     1.3220     1.8720 C.3   1 <1>  -0.0970 
 13 C       -4.2560     1.8880    -0.4870 C.ar  1 <1>  -0.1500 
 14 C        4.3670     1.7310     0.1080 C.3   1 <1>   0.2090 
 15 C        2.9860    -0.3130     0.2030 C.3   1 <1>   0.2090 
 16 C       -4.3660     1.5920     0.8570 C.ar  1 <1>  -0.1500 
 17 C       -3.4360     1.0890     3.1110 C.3   1 <1>  -0.0970 
 18 N        4.3710     0.2460     0.2210 N.pl3 1 <1>  -0.8380 
 19 C        5.2700    -0.2930     1.1190 C.ar  1 <1>   0.4100 
 20 N        4.7970    -0.7020     2.2910 N.ar  1 <1>  -0.6200 
 21 C        6.6150    -0.3740     0.7680 C.ar  1 <1>  -0.1500 
 22 C        5.6900    -1.1980     3.1320 C.ar  1 <1>   0.1600 
 23 C        7.5330    -0.8920     1.6520 C.ar  1 <1>  -0.1500 
 24 C        7.0440    -1.3150     2.8710 C.ar  1 <1>  -0.1500 
 25 H        0.1970     1.9490    -0.2170 H     1 <1>   0.3700 
 26 H        1.6160     3.1720    -2.4820 H     1 <1>   0.0800 
 27 H        1.7310     1.5810    -3.1730 H     1 <1>   0.0800 
 28 H       -2.9390     2.2410    -2.1080 H     1 <1>   0.1500 
 29 H        3.5360     3.2680    -1.1300 H     1 <1>   0.0800 
 30 H        4.0600     1.8570    -2.0090 H     1 <1>   0.0800 
 31 H        2.6600    -0.2120    -1.9080 H     1 <1>   0.0800 
 32 H        1.1960    -0.1930    -0.9670 H     1 <1>   0.0800 
 33 H       -0.1260     2.2380     1.8970 H     1 <1>   0.0800 
 34 H       -0.0850     0.5550     1.4220 H     1 <1>   0.0800 
 35 H       -0.8780     1.0260     2.8850 H     1 <1>   0.0800 
 36 H       -5.1400     2.0290    -1.0850 H     1 <1>   0.1500 
 37 H        3.9360     2.1520     1.0000 H     1 <1>   0.0800 
 38 H        5.3780     2.0890     0.0250 H     1 <1>   0.0800 
 39 H        3.0390    -1.3880     0.1810 H     1 <1>   0.0800 
 40 H        2.4720    -0.0230     1.1020 H     1 <1>   0.0800 
 41 H       -5.3460     1.5060     1.2910 H     1 <1>   0.1500 
 42 H       -3.0320     0.1190     3.3360 H     1 <1>   0.0800 
 43 H       -4.4790     1.0860     3.3680 H     1 <1>   0.0800 
 44 H       -2.9460     1.8290     3.7190 H     1 <1>   0.0800 
 45 H        6.9150    -0.0300    -0.2020 H     1 <1>   0.1500 
 46 H        5.3200    -1.5330     4.0850 H     1 <1>   0.1500 
 47 H        8.5780    -0.9660     1.4060 H     1 <1>   0.1500 
 48 H        7.7040    -1.7300     3.6100 H     1 <1>   0.1500 
@<TRIPOS>BOND
  1   1   2  2   
  2   2   3  am  
  3   2   4  1   
  4   3   5  1   
  5   3  25  1   
  6   4   6  1   
  7   4  26  1   
  8   4  27  1   
  9   5   7  ar  
 10   5   8  ar  
 11   6   9  1   
 12   6  10  1   
 13   7  11  ar  
 14   7  12  1   
 15   8  13  ar  
 16   8  28  1   
 17   9  14  1   
 18   9  29  1   
 19   9  30  1   
 20  10  15  1   
 21  10  31  1   
 22  10  32  1   
 23  11  16  ar  
 24  11  17  1   
 25  12  33  1   
 26  12  34  1   
 27  12  35  1   
 28  13  16  ar  
 29  13  36  1   
 30  14  18  1   
 31  14  37  1   
 32  14  38  1   
 33  15  18  1   
 34  15  39  1   
 35  15  40  1   
 36  16  41  1   
 37  17  42  1   
 38  17  43  1   
 39  17  44  1   
 40  18  19  1   
 41  19  20  ar  
 42  19  21  ar  
 43  20  22  ar  
 44  21  23  ar  
 45  21  45  1   
 46  22  24  ar  
 47  22  46  1   
 48  23  24  ar  
 49  23  47  1   
 50  24  48  1   
@<TRIPOS>SUBSTRUCTURE
  1 ****  10 GROUP 4 **** **** 0

# MOE 2024.06 (io_trps.svl 2023.06)
