@<TRIPOS>MOLECULE
NONAME
44 45 1 0 0 
SMALL
USER_CHARGES


@<TRIPOS>ATOM
  1 BR       0.3220     1.2440     2.5840 Br    1 <1>  -0.1110 
  2 C        1.6270     1.5640     1.1990 C.ar  1 <1>   0.1110 
  3 C        1.5310     2.7040     0.4110 C.ar  1 <1>   0.0830 
  4 C        2.6310     0.6300     1.0360 C.ar  1 <1>  -0.1500 
  5 O        0.5100     3.5710     0.6400 O.3   1 <1>  -0.3630 
  6 C        2.4960     2.8910    -0.5730 C.ar  1 <1>  -0.1500 
  7 C        3.5970     0.8150     0.0530 C.ar  1 <1>  -0.0090 
  8 C        0.3460     4.7400    -0.1310 C.3   1 <1>   0.0400 
  9 C        3.5080     1.9570    -0.7400 C.ar  1 <1>  -0.1500 
 10 S        4.9460    -0.3730    -0.1770 S.o2  1 <1>   1.4470 
 11 O        4.7890    -1.5020     0.7090 O.2   1 <1>  -0.6500 
 12 O        5.2010    -0.5670    -1.5860 O.2   1 <1>  -0.6500 
 13 N        6.2690     0.4350     0.4620 N.am  1 <1>  -0.9140 
 14 C        7.5400    -0.0910    -0.0270 C.3   1 <1>   0.1960 
 15 C        8.6960     0.6730     0.6160 C.3   1 <1>   0.0700 
 16 S       10.2490    -0.0730     0.0530 S.3   1 <1>  -0.4600 
 17 C       11.5230     0.9810     0.8040 C.3   1 <1>   0.2130 
 18 C       12.8910     0.4320     0.4370 C.ar  1 <1>  -0.1430 
 19 C       13.7160     1.1210    -0.4390 C.ar  1 <1>  -0.1500 
 20 C       13.3340    -0.7620     0.9830 C.ar  1 <1>  -0.1500 
 21 C       14.9680     0.6250    -0.7590 C.ar  1 <1>  -0.1500 
 22 C       14.5860    -1.2580     0.6630 C.ar  1 <1>  -0.1500 
 23 C       15.4110    -0.5660    -0.2070 C.ar  1 <1>  -0.1430 
 24 C       16.7830    -1.1110    -0.5600 C.3   1 <1>  -0.0970 
 25 H        2.6580    -0.2370     1.6740 H     1 <1>   0.1500 
 26 H        2.4770     3.7510    -1.2160 H     1 <1>   0.1500 
 27 H       -0.5250     5.2560     0.2290 H     1 <1>   0.0800 
 28 H        0.2060     4.4630    -1.1610 H     1 <1>   0.0800 
 29 H        1.2140     5.3630    -0.0120 H     1 <1>   0.0800 
 30 H        4.2490     2.1150    -1.5070 H     1 <1>   0.1500 
 31 H        6.2150     0.2040     1.4520 H     1 <1>   0.4200 
 32 H        7.5980     0.0250    -1.0980 H     1 <1>   0.0800 
 33 H        7.6190    -1.1400     0.2090 H     1 <1>   0.0800 
 34 H        8.6760     0.5940     1.6870 H     1 <1>   0.0800 
 35 H        8.7010     1.7030     0.3050 H     1 <1>   0.0800 
 36 H       11.3720     0.9640     1.8680 H     1 <1>   0.0800 
 37 H       11.3790     1.9770     0.4250 H     1 <1>   0.0800 
 38 H       13.3880     2.0460    -0.8800 H     1 <1>   0.1500 
 39 H       12.7010    -1.3140     1.6550 H     1 <1>   0.1500 
 40 H       15.5960     1.1700    -1.4410 H     1 <1>   0.1500 
 41 H       14.9130    -2.1880     1.0940 H     1 <1>   0.1500 
 42 H       17.4620    -0.3070    -0.7780 H     1 <1>   0.0800 
 43 H       16.7090    -1.7490    -1.4220 H     1 <1>   0.0800 
 44 H       17.1830    -1.6790     0.2600 H     1 <1>   0.0800 
@<TRIPOS>BOND
  1   1   2  1   
  2   2   3  ar  
  3   2   4  ar  
  4   3   5  1   
  5   3   6  ar  
  6   4   7  ar  
  7   4  25  1   
  8   5   8  1   
  9   6   9  ar  
 10   6  26  1   
 11   7   9  ar  
 12   7  10  1   
 13   8  27  1   
 14   8  28  1   
 15   8  29  1   
 16   9  30  1   
 17  10  11  2   
 18  10  12  2   
 19  10  13  am  
 20  13  14  1   
 21  13  31  1   
 22  14  15  1   
 23  14  32  1   
 24  14  33  1   
 25  15  16  1   
 26  15  34  1   
 27  15  35  1   
 28  16  17  1   
 29  17  18  1   
 30  17  36  1   
 31  17  37  1   
 32  18  19  ar  
 33  18  20  ar  
 34  19  21  ar  
 35  19  38  1   
 36  20  22  ar  
 37  20  39  1   
 38  21  23  ar  
 39  21  40  1   
 40  22  23  ar  
 41  22  41  1   
 42  23  24  1   
 43  24  42  1   
 44  24  43  1   
 45  24  44  1   
@<TRIPOS>SUBSTRUCTURE
  1 ****  14 GROUP 4 **** **** 0

# MOE 2024.06 (io_trps.svl 2023.06)
