@<TRIPOS>MOLECULE
NONAME
42 44 1 0 0 
SMALL
USER_CHARGES


@<TRIPOS>ATOM
  1 S        0.2830     0.0310    -0.9480 S.3   1 <1>  -0.0800 
  2 C        1.3520     1.0490    -0.0110 C.2   1 <1>   0.4420 
  3 C       -1.0170     1.1410    -0.6470 C.2   1 <1>  -0.1400 
  4 N        0.7810     2.0870     0.4680 N.2   1 <1>  -0.5650 
  5 N        2.6690     0.6580     0.1260 N.am  1 <1>  -0.1840 
  6 C       -0.5760     2.1660     0.1280 C.2   1 <1>   0.1410 
  7 C       -2.3440     0.7890    -1.2990 C.3   1 <1>  -0.0600 
  8 C        3.5950     0.7170    -0.8710 C.2   1 <1>   0.5690 
  9 C        3.2580     0.3300     1.3100 C.2   1 <1>   0.5690 
 10 C       -1.3560     3.2870     0.6230 C.2   1 <1>   0.5950 
 11 O        3.3770     0.9500    -2.0310 O.2   1 <1>  -0.5700 
 12 C        4.9880     0.4280    -0.3440 C.3   1 <1>  -0.0190 
 13 O        2.6970     0.0930     2.3470 O.2   1 <1>  -0.5700 
 14 C        4.7590     0.2460     1.1700 C.3   1 <1>  -0.0990 
 15 O       -0.9780     4.4310     0.6380 O.2   1 <1>  -0.5700 
 16 C       -2.7430     3.0320     1.1770 C.3   1 <1>  -0.1790 
 17 C        5.9830     1.5490    -0.6890 C.3   1 <1>  -0.0160 
 18 C        7.3600     1.2600    -0.1120 C.ar  1 <1>  -0.1440 
 19 C        7.8250     1.9570     0.9920 C.ar  1 <1>  -0.1500 
 20 C        8.1660     0.2910    -0.6880 C.ar  1 <1>  -0.1500 
 21 C        9.0760     1.6820     1.5180 C.ar  1 <1>  -0.1500 
 22 C        9.4170     0.0170    -0.1620 C.ar  1 <1>  -0.1500 
 23 C        9.8790     0.7110     0.9440 C.ar  1 <1>  -0.1440 
 24 C       11.2500     0.4100     1.5210 C.3   1 <1>  -0.0970 
 25 H       -2.1950     0.6080    -2.3490 H     1 <1>   0.0800 
 26 H       -3.0550     1.5870    -1.1950 H     1 <1>   0.0800 
 27 H       -2.7480    -0.1010    -0.8510 H     1 <1>   0.0800 
 28 H        5.3220    -0.4990    -0.7750 H     1 <1>   0.0800 
 29 H        5.1170    -0.7080     1.5120 H     1 <1>   0.0800 
 30 H        5.2080     1.0300     1.7520 H     1 <1>   0.0800 
 31 H       -2.8770     1.9900     1.4030 H     1 <1>   0.0800 
 32 H       -3.4800     3.3490     0.4640 H     1 <1>   0.0800 
 33 H       -2.8700     3.5980     2.0810 H     1 <1>   0.0800 
 34 H        5.6180     2.4920    -0.3190 H     1 <1>   0.0800 
 35 H        6.0640     1.6370    -1.7600 H     1 <1>   0.0800 
 36 H        7.2200     2.7190     1.4520 H     1 <1>   0.1500 
 37 H        7.8270    -0.2550    -1.5500 H     1 <1>   0.1500 
 38 H        9.4230     2.2300     2.3760 H     1 <1>   0.1500 
 39 H       10.0310    -0.7390    -0.6190 H     1 <1>   0.1500 
 40 H       11.6780     1.2960     1.9550 H     1 <1>   0.0800 
 41 H       11.9140     0.0560     0.7530 H     1 <1>   0.0800 
 42 H       11.1670    -0.3440     2.2830 H     1 <1>   0.0800 
@<TRIPOS>BOND
  1   1   2  1   
  2   1   3  1   
  3   2   4  2   
  4   2   5  1   
  5   3   6  2   
  6   3   7  1   
  7   4   6  1   
  8   5   8  am  
  9   5   9  am  
 10   6  10  1   
 11   7  25  1   
 12   7  26  1   
 13   7  27  1   
 14   8  11  2   
 15   8  12  1   
 16   9  13  2   
 17   9  14  1   
 18  10  15  2   
 19  10  16  1   
 20  12  14  1   
 21  12  17  1   
 22  12  28  1   
 23  14  29  1   
 24  14  30  1   
 25  16  31  1   
 26  16  32  1   
 27  16  33  1   
 28  17  18  1   
 29  17  34  1   
 30  17  35  1   
 31  18  19  ar  
 32  18  20  ar  
 33  19  21  ar  
 34  19  36  1   
 35  20  22  ar  
 36  20  37  1   
 37  21  23  ar  
 38  21  38  1   
 39  22  23  ar  
 40  22  39  1   
 41  23  24  1   
 42  24  40  1   
 43  24  41  1   
 44  24  42  1   
@<TRIPOS>SUBSTRUCTURE
  1 ****   5 GROUP 4 **** **** 0

# MOE 2024.06 (io_trps.svl 2023.06)
