@<TRIPOS>MOLECULE
NONAME
29 31 1 0 0 
SMALL
USER_CHARGES


@<TRIPOS>ATOM
  1 S      -10.0090     1.6120     0.1520 S.3   1 <1>  -0.0800 
  2 C       -8.2870     1.4180     0.1440 C.2   1 <1>  -0.1400 
  3 C       -9.7670     3.3280    -0.1160 C.2   1 <1>   0.1980 
  4 C       -7.6870     2.6020    -0.0440 C.2   1 <1>   0.1730 
  5 C       -7.6020     0.0870     0.3460 C.3   1 <1>   0.0200 
  6 N       -8.5490     3.6880    -0.1940 N.2   1 <1>  -0.5650 
  7 C      -11.0000     4.1920    -0.2250 C.3   1 <1>  -0.0600 
  8 C       -6.2440     2.7010    -0.0590 C.ar  1 <1>   0.0540 
  9 C       -6.1820     0.1540    -0.2520 C.3   1 <1>  -0.0170 
 10 C       -5.4910     1.5210    -0.1190 C.ar  1 <1>  -0.1440 
 11 C       -5.5750     3.9180     0.0090 C.ar  1 <1>  -0.1500 
 12 C       -4.1070     1.5830    -0.0930 C.ar  1 <1>  -0.1500 
 13 C       -4.1930     3.9800     0.0320 C.ar  1 <1>   0.0830 
 14 C       -3.4560     2.8010    -0.0160 C.ar  1 <1>  -0.1500 
 15 O       -3.6350     5.2150     0.1030 O.3   1 <1>  -0.3620 
 16 C       -2.2360     5.3880     0.1240 C.3   1 <1>   0.0400 
 17 H       -8.1630    -0.6990    -0.1270 H     1 <1>   0.0800 
 18 H       -7.5480    -0.1130     1.4010 H     1 <1>   0.0800 
 19 H      -11.6030     3.8620    -1.0500 H     1 <1>   0.0800 
 20 H      -10.7120     5.2140    -0.3880 H     1 <1>   0.0800 
 21 H      -11.5700     4.1280     0.6830 H     1 <1>   0.0800 
 22 H       -6.2520    -0.0630    -1.3040 H     1 <1>   0.0800 
 23 H       -5.5760    -0.6130     0.1960 H     1 <1>   0.0800 
 24 H       -6.1410     4.8300     0.0490 H     1 <1>   0.1500 
 25 H       -3.5260     0.6790    -0.1390 H     1 <1>   0.1500 
 26 H       -2.3840     2.8120     0.0030 H     1 <1>   0.1500 
 27 H       -2.0320     6.4420     0.1780 H     1 <1>   0.0800 
 28 H       -1.8210     4.9810    -0.7810 H     1 <1>   0.0800 
 29 H       -1.8370     4.8930     0.9910 H     1 <1>   0.0800 
@<TRIPOS>BOND
  1   1   2  1   
  2   1   3  1   
  3   2   4  2   
  4   2   5  1   
  5   3   6  2   
  6   3   7  1   
  7   4   6  1   
  8   4   8  1   
  9   5   9  1   
 10   5  17  1   
 11   5  18  1   
 12   7  19  1   
 13   7  20  1   
 14   7  21  1   
 15   8  10  ar  
 16   8  11  ar  
 17   9  10  1   
 18   9  22  1   
 19   9  23  1   
 20  10  12  ar  
 21  11  13  ar  
 22  11  24  1   
 23  12  14  ar  
 24  12  25  1   
 25  13  14  ar  
 26  13  15  1   
 27  14  26  1   
 28  15  16  1   
 29  16  27  1   
 30  16  28  1   
 31  16  29  1   
@<TRIPOS>SUBSTRUCTURE
  1 ****   8 GROUP 4 **** **** 0

# MOE 2024.06 (io_trps.svl 2023.06)
