@<TRIPOS>MOLECULE
NONAME
57 59 1 0 0 
SMALL
USER_CHARGES


@<TRIPOS>ATOM
  1 S       -0.1000    -0.3010    -1.3320 S.o2  1 <1>   1.4470 
  2 O        0.0970    -0.6350    -2.7280 O.2   1 <1>  -0.6500 
  3 O       -0.8760     0.8810    -1.0180 O.2   1 <1>  -0.6500 
  4 N        1.4570    -0.0680    -0.7020 N.am  1 <1>  -0.8490 
  5 C       -0.7640    -1.7400    -0.4550 C.ar  1 <1>  -0.0090 
  6 C        2.3920    -1.1220    -1.0770 C.3   1 <1>   0.1960 
  7 C        1.9700     1.2680    -1.0200 C.3   1 <1>   0.1960 
  8 C       -0.8510    -1.7700     0.9330 C.ar  1 <1>   0.0830 
  9 C       -1.2120    -2.8550    -1.1560 C.ar  1 <1>  -0.1500 
 10 C        3.6440    -1.0460    -0.1890 C.3   1 <1>  -0.1600 
 11 C        3.4600     1.4230    -0.6620 C.3   1 <1>  -0.1600 
 12 O       -0.4240    -0.7260     1.6690 O.3   1 <1>  -0.3620 
 13 C       -1.3540    -2.8800     1.5950 C.ar  1 <1>  -0.1500 
 14 C       -1.7250    -3.9670    -0.5070 C.ar  1 <1>  -0.1430 
 15 C        3.9160     0.3710     0.3650 C.3   1 <1>  -0.0190 
 16 C       -1.4150     0.1470     2.1620 C.3   1 <1>   0.0400 
 17 C       -1.7920    -3.9760     0.8760 C.ar  1 <1>  -0.1500 
 18 C       -2.2040    -5.1670    -1.3030 C.3   1 <1>  -0.0970 
 19 C        5.3640     0.5610     0.8070 C.2   1 <1>   0.5690 
 20 O        5.6200     0.8070     1.9640 O.2   1 <1>  -0.5700 
 21 N        6.3870     0.4650    -0.0920 N.am  1 <1>  -0.6600 
 22 C        7.3860    -0.6320     0.1250 C.3   1 <1>   0.1400 
 23 C        7.0390     1.7430    -0.5250 C.3   1 <1>   0.1400 
 24 C        8.5800    -0.1870     1.0090 C.3   1 <1>   0.3430 
 25 C        8.1600     2.1910     0.4500 C.3   1 <1>   0.3430 
 26 N        8.3780     1.1970     1.5540 N.4   1 <1>  -0.9590 
 27 C        9.4190     1.6120     2.5360 C.3   1 <1>   0.2630 
 28 H        2.6620    -1.0060    -2.1150 H     1 <1>   0.0800 
 29 H        1.9340    -2.0900    -0.9570 H     1 <1>   0.0800 
 30 H        1.3960     1.9890    -0.4610 H     1 <1>   0.0800 
 31 H        1.8290     1.4780    -2.0680 H     1 <1>   0.0800 
 32 H       -1.1580    -2.8500    -2.2320 H     1 <1>   0.1500 
 33 H        4.4790    -1.3930    -0.7700 H     1 <1>   0.0800 
 34 H        3.5250    -1.7230     0.6390 H     1 <1>   0.0800 
 35 H        3.6230     2.4140    -0.2780 H     1 <1>   0.0800 
 36 H        4.0400     1.3220    -1.5610 H     1 <1>   0.0800 
 37 H       -1.3960    -2.8830     2.6690 H     1 <1>   0.1500 
 38 H        3.2990     0.4980     1.2400 H     1 <1>   0.0800 
 39 H       -0.9250     0.9510     2.6800 H     1 <1>   0.0800 
 40 H       -2.0560    -0.3930     2.8350 H     1 <1>   0.0800 
 41 H       -1.9810     0.5370     1.3340 H     1 <1>   0.0800 
 42 H       -2.1810    -4.8340     1.3960 H     1 <1>   0.1500 
 43 H       -1.4030    -5.8760    -1.4120 H     1 <1>   0.0800 
 44 H       -2.5350    -4.8650    -2.2800 H     1 <1>   0.0800 
 45 H       -3.0250    -5.6470    -0.8010 H     1 <1>   0.0800 
 46 H        7.7500    -0.9790    -0.8260 H     1 <1>   0.0800 
 47 H        6.8960    -1.4670     0.6010 H     1 <1>   0.0800 
 48 H        6.2990     2.5230    -0.5880 H     1 <1>   0.0800 
 49 H        7.4500     1.6140    -1.5110 H     1 <1>   0.0800 
 50 H        9.4840    -0.2210     0.4240 H     1 <1>   0.0800 
 51 H        8.6890    -0.8870     1.8210 H     1 <1>   0.0800 
 52 H        7.8880     3.1440     0.8730 H     1 <1>   0.0800 
 53 H        9.0730     2.3310    -0.1050 H     1 <1>   0.0800 
 54 H        7.4480     1.1440     2.0350 H     1 <1>   0.4500 
 55 H       10.3840     1.6700     2.0590 H     1 <1>   0.0800 
 56 H        9.4730     0.9000     3.3440 H     1 <1>   0.0800 
 57 H        9.1770     2.5770     2.9490 H     1 <1>   0.0800 
@<TRIPOS>BOND
  1   1   2  2   
  2   1   3  2   
  3   1   4  am  
  4   1   5  1   
  5   4   6  1   
  6   4   7  1   
  7   5   8  ar  
  8   5   9  ar  
  9   6  10  1   
 10   6  28  1   
 11   6  29  1   
 12   7  11  1   
 13   7  30  1   
 14   7  31  1   
 15   8  12  1   
 16   8  13  ar  
 17   9  14  ar  
 18   9  32  1   
 19  10  15  1   
 20  10  33  1   
 21  10  34  1   
 22  11  15  1   
 23  11  35  1   
 24  11  36  1   
 25  12  16  1   
 26  13  17  ar  
 27  13  37  1   
 28  14  17  ar  
 29  14  18  1   
 30  15  19  1   
 31  15  38  1   
 32  16  39  1   
 33  16  40  1   
 34  16  41  1   
 35  17  42  1   
 36  18  43  1   
 37  18  44  1   
 38  18  45  1   
 39  19  20  2   
 40  19  21  am  
 41  21  22  1   
 42  21  23  1   
 43  22  24  1   
 44  22  46  1   
 45  22  47  1   
 46  23  25  1   
 47  23  48  1   
 48  23  49  1   
 49  24  26  1   
 50  24  50  1   
 51  24  51  1   
 52  25  26  1   
 53  25  52  1   
 54  25  53  1   
 55  26  27  1   
 56  26  54  1   
 57  27  55  1   
 58  27  56  1   
 59  27  57  1   
@<TRIPOS>SUBSTRUCTURE
  1 ****  10 GROUP 4 **** **** 0

# MOE 2024.06 (io_trps.svl 2023.06)
