@<TRIPOS>MOLECULE
NONAME
46 50 1 0 0 
SMALL
USER_CHARGES


@<TRIPOS>ATOM
  1 O        0.1300     1.4320    -2.5260 O.2   1 <1>  -0.5700 
  2 C        0.1710     1.6740    -1.3560 C.2   1 <1>   0.4480 
  3 C        1.4330     1.6550    -0.5190 C.3   1 <1>   0.0610 
  4 C       -1.0300     2.0470    -0.5130 C.3   1 <1>   0.0610 
  5 C        2.5790     2.4230    -1.1920 C.3   1 <1>   0.1200 
  6 C        1.9030     0.2050    -0.3290 C.3   1 <1>   0.1200 
  7 C        1.0060     2.2940     0.8190 C.3   1 <1>  -0.1600 
  8 C       -2.1960     1.0710    -0.7180 C.3   1 <1>   0.1200 
  9 C       -1.5270     3.4450    -0.9120 C.3   1 <1>   0.1200 
 10 C       -0.4970     2.0250     0.9350 C.3   1 <1>  -0.1600 
 11 O        3.7410     2.2390    -0.4450 O.3   1 <1>  -0.5600 
 12 O        3.1290     0.2100     0.3320 O.3   1 <1>  -0.5600 
 13 O       -3.3080     1.5560    -0.0320 O.3   1 <1>  -0.5600 
 14 O       -2.7070     3.7230    -0.2230 O.3   1 <1>  -0.5600 
 15 C        4.1460     0.8990    -0.3430 C.3   1 <1>   0.6600 
 16 C       -3.7460     2.8120    -0.4700 C.3   1 <1>   0.6600 
 17 C        5.4500     0.8030     0.4420 C.2   1 <1>  -0.0400 
 18 C       -4.9960     3.2250     0.2980 C.2   1 <1>  -0.0400 
 19 O        6.1220    -0.3360     0.4440 O.3   1 <1>  -0.2800 
 20 C        6.1000     1.7290     1.1820 C.2   1 <1>  -0.1500 
 21 O       -6.1530     2.6490     0.0110 O.3   1 <1>  -0.2800 
 22 C       -5.1630     4.1390     1.2810 C.2   1 <1>  -0.1500 
 23 C        7.2000    -0.1630     1.1820 C.2   1 <1>  -0.0100 
 24 C        7.2490     1.0940     1.6690 C.2   1 <1>  -0.1500 
 25 C       -7.0680     3.1740     0.8000 C.2   1 <1>  -0.0100 
 26 C       -6.5230     4.1040     1.6120 C.2   1 <1>  -0.1500 
 27 H        2.3710     3.4780    -1.2330 H     1 <1>   0.0800 
 28 H        2.7540     2.0640    -2.1930 H     1 <1>   0.0800 
 29 H        2.0270    -0.2920    -1.2770 H     1 <1>   0.0800 
 30 H        1.2060    -0.3550     0.2700 H     1 <1>   0.0800 
 31 H        1.1690     3.3580     0.7880 H     1 <1>   0.0800 
 32 H        1.5540     1.8970     1.6580 H     1 <1>   0.0800 
 33 H       -1.9630     0.0950    -0.3300 H     1 <1>   0.0800 
 34 H       -2.4500     0.9790    -1.7610 H     1 <1>   0.0800 
 35 H       -1.7280     3.4980    -1.9690 H     1 <1>   0.0800 
 36 H       -0.8060     4.2010    -0.6550 H     1 <1>   0.0800 
 37 H       -0.6440     1.0490     1.3660 H     1 <1>   0.0800 
 38 H       -0.9900     2.7450     1.5670 H     1 <1>   0.0800 
 39 H        4.2730     0.4850    -1.3290 H     1 <1>   0.0800 
 40 H       -3.9510     2.7790    -1.5270 H     1 <1>   0.0800 
 41 H        5.8110     2.7480     1.3720 H     1 <1>   0.1500 
 42 H       -4.4170     4.7700     1.7320 H     1 <1>   0.1500 
 43 H        7.8790    -0.9880     1.3080 H     1 <1>   0.1500 
 44 H        7.9940     1.5460     2.3000 H     1 <1>   0.1500 
 45 H       -8.0830     2.8270     0.7190 H     1 <1>   0.1500 
 46 H       -6.9990     4.7080     2.3640 H     1 <1>   0.1500 
@<TRIPOS>BOND
  1   1   2  2   
  2   2   3  1   
  3   2   4  1   
  4   3   5  1   
  5   3   6  1   
  6   3   7  1   
  7   4   8  1   
  8   4   9  1   
  9   4  10  1   
 10   5  11  1   
 11   5  27  1   
 12   5  28  1   
 13   6  12  1   
 14   6  29  1   
 15   6  30  1   
 16   7  10  1   
 17   7  31  1   
 18   7  32  1   
 19   8  13  1   
 20   8  33  1   
 21   8  34  1   
 22   9  14  1   
 23   9  35  1   
 24   9  36  1   
 25  10  37  1   
 26  10  38  1   
 27  11  15  1   
 28  12  15  1   
 29  13  16  1   
 30  14  16  1   
 31  15  17  1   
 32  15  39  1   
 33  16  18  1   
 34  16  40  1   
 35  17  19  1   
 36  17  20  2   
 37  18  21  1   
 38  18  22  2   
 39  19  23  1   
 40  20  24  1   
 41  20  41  1   
 42  21  25  1   
 43  22  26  1   
 44  22  42  1   
 45  23  24  2   
 46  23  43  1   
 47  24  44  1   
 48  25  26  2   
 49  25  45  1   
 50  26  46  1   
@<TRIPOS>SUBSTRUCTURE
  1 ****  10 GROUP 4 **** **** 0

# MOE 2024.06 (io_trps.svl 2023.06)
