@<TRIPOS>MOLECULE
NONAME
46 48 1 0 0 
SMALL
USER_CHARGES


@<TRIPOS>ATOM
  1 S       -0.0660     1.1840    -2.3860 S.3   1 <1>  -0.3320 
  2 C        0.0490     2.6020    -1.2830 C.ar  1 <1>   0.1020 
  3 C        0.0540    -0.3290    -1.3340 C.3   1 <1>  -0.0100 
  4 C       -0.0750     3.8530    -1.8570 C.ar  1 <1>  -0.1500 
  5 C        0.2520     2.4660     0.0800 C.ar  1 <1>  -0.1500 
  6 C        0.0070     4.9840    -1.0640 C.ar  1 <1>  -0.1500 
  7 C        0.3350     3.5990     0.8710 C.ar  1 <1>  -0.1500 
  8 C        0.2180     4.8620     0.3040 C.ar  1 <1>  -0.1430 
  9 C        0.3290     6.1010     1.1730 C.3   1 <1>   0.4860 
 10 N        1.6080     6.7910     0.8680 N.4   1 <1>  -0.9590 
 11 C        2.8290     5.9330     1.0330 C.3   1 <1>   0.3430 
 12 C        1.7750     8.1080     1.5620 C.3   1 <1>   0.3430 
 13 C        4.1030     6.6790     0.5610 C.3   1 <1>   0.1100 
 14 C        3.0660     8.8250     1.0950 C.3   1 <1>   0.1100 
 15 N        3.8080     8.0460     0.0680 N.3   1 <1>  -0.8100 
 16 C        5.0290     8.7360    -0.3920 C.3   1 <1>   0.2530 
 17 C        4.6740    10.0610    -1.0440 C.ar  1 <1>  -0.1430 
 18 C        5.0540    11.2610    -0.4590 C.ar  1 <1>   0.1600 
 19 C        3.9620    10.0960    -2.2270 C.ar  1 <1>  -0.1500 
 20 N        4.7750    12.4610    -0.9400 N.ar  1 <1>  -0.6200 
 21 C        3.6710    11.3380    -2.7480 C.ar  1 <1>  -0.1500 
 22 C        4.0950    12.4720    -2.0750 C.ar  1 <1>   0.1600 
 23 H       -0.0360    -1.1820    -1.9820 H     1 <1>   0.0800 
 24 H       -0.7520    -0.3050    -0.6230 H     1 <1>   0.0800 
 25 H        1.0120    -0.3220    -0.8470 H     1 <1>   0.0800 
 26 H       -0.2370     3.9330    -2.9180 H     1 <1>   0.1500 
 27 H        0.3430     1.4960     0.5310 H     1 <1>   0.1500 
 28 H       -0.0990     5.9500    -1.5290 H     1 <1>   0.1500 
 29 H        0.4880     3.4800     1.9310 H     1 <1>   0.1500 
 30 H        0.2960     5.8220     2.2130 H     1 <1>   0.0800 
 31 H       -0.5030     6.7550     0.9680 H     1 <1>   0.0800 
 32 H        1.6250     7.0270    -0.1350 H     1 <1>   0.4500 
 33 H        2.7240     5.0290     0.4540 H     1 <1>   0.0800 
 34 H        2.9460     5.6480     2.0650 H     1 <1>   0.0800 
 35 H        1.8180     7.9630     2.6280 H     1 <1>   0.0800 
 36 H        0.9320     8.7450     1.3500 H     1 <1>   0.0800 
 37 H        4.5610     6.1070    -0.2290 H     1 <1>   0.0800 
 38 H        4.8060     6.7250     1.3750 H     1 <1>   0.0800 
 39 H        3.6990     9.0060     1.9470 H     1 <1>   0.0800 
 40 H        2.7880     9.7850     0.6930 H     1 <1>   0.0800 
 41 H        5.5350     8.1230    -1.1190 H     1 <1>   0.0800 
 42 H        5.7000     8.8930     0.4360 H     1 <1>   0.0800 
 43 H        5.6160    11.2390     0.4580 H     1 <1>   0.1500 
 44 H        3.6460     9.1930    -2.7190 H     1 <1>   0.1500 
 45 H        3.1230    11.4320    -3.6680 H     1 <1>   0.1500 
 46 H        3.8620    13.4370    -2.4920 H     1 <1>   0.1500 
@<TRIPOS>BOND
  1   1   2  1   
  2   1   3  1   
  3   2   4  ar  
  4   2   5  ar  
  5   3  23  1   
  6   3  24  1   
  7   3  25  1   
  8   4   6  ar  
  9   4  26  1   
 10   5   7  ar  
 11   5  27  1   
 12   6   8  ar  
 13   6  28  1   
 14   7   8  ar  
 15   7  29  1   
 16   8   9  1   
 17   9  10  1   
 18   9  30  1   
 19   9  31  1   
 20  10  11  1   
 21  10  12  1   
 22  10  32  1   
 23  11  13  1   
 24  11  33  1   
 25  11  34  1   
 26  12  14  1   
 27  12  35  1   
 28  12  36  1   
 29  13  15  1   
 30  13  37  1   
 31  13  38  1   
 32  14  15  1   
 33  14  39  1   
 34  14  40  1   
 35  15  16  1   
 36  16  17  1   
 37  16  41  1   
 38  16  42  1   
 39  17  18  ar  
 40  17  19  ar  
 41  18  20  ar  
 42  18  43  1   
 43  19  21  ar  
 44  19  44  1   
 45  20  22  ar  
 46  21  22  ar  
 47  21  45  1   
 48  22  46  1   
@<TRIPOS>SUBSTRUCTURE
  1 ****  10 GROUP 4 **** **** 0

# MOE 2024.06 (io_trps.svl 2023.06)
