@<TRIPOS>MOLECULE
NONAME
35 37 1 0 0 
SMALL
USER_CHARGES


@<TRIPOS>ATOM
  1 F        0.2610    -0.8190    -1.7640 F     1 <1>  -0.1900 
  2 C        0.8560    -1.7410    -1.0510 C.ar  1 <1>   0.1900 
  3 C        0.0750    -2.6600    -0.3050 C.ar  1 <1>   0.1000 
  4 C        2.2210    -1.7720    -1.0800 C.ar  1 <1>  -0.1500 
  5 N       -1.3280    -2.6340    -0.2670 N.pl3 1 <1>  -0.8380 
  6 C        0.7740    -3.6150     0.4050 C.ar  1 <1>  -0.1500 
  7 C        2.9180    -2.7450    -0.3550 C.ar  1 <1>   0.3100 
  8 C       -2.1530    -3.8670    -0.0660 C.3   1 <1>   0.2090 
  9 C       -2.1050    -1.3540    -0.2260 C.3   1 <1>   0.2090 
 10 C        2.1730    -3.6900     0.4020 C.ar  1 <1>   0.3100 
 11 N        4.2740    -2.7580    -0.3990 N.ar  1 <1>  -0.6200 
 12 C       -3.6160    -3.6370    -0.5070 C.3   1 <1>   0.2000 
 13 C       -3.4030    -1.5050     0.6010 C.3   1 <1>   0.2000 
 14 N        2.7810    -4.6660     1.1270 N.ar  1 <1>  -0.6200 
 15 C        4.8110    -3.7050     0.3080 C.ar  1 <1>   0.1600 
 16 O       -4.2230    -2.5580     0.1590 O.3   1 <1>  -0.5600 
 17 C       -4.4960    -4.8590    -0.2570 C.3   1 <1>  -0.2400 
 18 C       -4.2580    -0.2400     0.5720 C.3   1 <1>  -0.2400 
 19 C        4.0770    -4.6440     1.0590 C.ar  1 <1>   0.1600 
 20 H        2.7810    -1.0600    -1.6570 H     1 <1>   0.1500 
 21 H        0.2540    -4.3390     1.0000 H     1 <1>   0.1500 
 22 H       -2.1370    -4.1460     0.9730 H     1 <1>   0.0800 
 23 H       -1.7300    -4.6730    -0.6400 H     1 <1>   0.0800 
 24 H       -2.3560    -1.0580    -1.2300 H     1 <1>   0.0800 
 25 H       -1.4970    -0.5800     0.2080 H     1 <1>   0.0800 
 26 H       -3.6230    -3.4050    -1.5590 H     1 <1>   0.0800 
 27 H       -3.1320    -1.7230     1.6200 H     1 <1>   0.0800 
 28 H        5.8840    -3.7820     0.3260 H     1 <1>   0.1500 
 29 H       -4.5270    -5.0870     0.7940 H     1 <1>   0.0800 
 30 H       -4.1070    -5.7100    -0.7860 H     1 <1>   0.0800 
 31 H       -5.4940    -4.6660    -0.6070 H     1 <1>   0.0800 
 32 H       -4.5650    -0.0230    -0.4350 H     1 <1>   0.0800 
 33 H       -3.6980     0.5940     0.9520 H     1 <1>   0.0800 
 34 H       -5.1300    -0.3760     1.1870 H     1 <1>   0.0800 
 35 H        4.6300    -5.3860     1.6070 H     1 <1>   0.1500 
@<TRIPOS>BOND
  1   1   2  1   
  2   2   3  ar  
  3   2   4  ar  
  4   3   5  1   
  5   3   6  ar  
  6   4   7  ar  
  7   4  20  1   
  8   5   8  1   
  9   5   9  1   
 10   6  10  ar  
 11   6  21  1   
 12   7  10  ar  
 13   7  11  ar  
 14   8  12  1   
 15   8  22  1   
 16   8  23  1   
 17   9  13  1   
 18   9  24  1   
 19   9  25  1   
 20  10  14  ar  
 21  11  15  ar  
 22  12  16  1   
 23  12  17  1   
 24  12  26  1   
 25  13  16  1   
 26  13  18  1   
 27  13  27  1   
 28  14  19  ar  
 29  15  19  ar  
 30  15  28  1   
 31  17  29  1   
 32  17  30  1   
 33  17  31  1   
 34  18  32  1   
 35  18  33  1   
 36  18  34  1   
 37  19  35  1   
@<TRIPOS>SUBSTRUCTURE
  1 ****   3 GROUP 4 **** **** 0

# MOE 2024.06 (io_trps.svl 2023.06)
