@<TRIPOS>MOLECULE
NONAME
31 32 1 0 0 
SMALL
USER_CHARGES


@<TRIPOS>ATOM
  1 F        0.7710    -0.9140     2.6960 F     1 <1>  -0.1900 
  2 C        1.7620    -0.6250     1.8960 C.ar  1 <1>   0.1900 
  3 C        2.8020     0.1460     2.3730 C.ar  1 <1>  -0.1500 
  4 C        1.7360    -1.1040     0.6020 C.ar  1 <1>  -0.1500 
  5 C        3.8500     0.4480     1.5200 C.ar  1 <1>  -0.1500 
  6 C        2.7900    -0.7950    -0.2410 C.ar  1 <1>  -0.1500 
  7 C        3.8560    -0.0110     0.2030 C.ar  1 <1>  -0.1430 
  8 C        5.0380     0.3300    -0.7250 C.3   1 <1>   0.7240 
  9 O        4.6720     0.2510    -2.0470 O.3   1 <1>  -0.6800 
 10 N        5.5790     1.6920    -0.5060 N.am  1 <1>  -0.2980 
 11 C        6.2470    -0.5690    -0.4780 C.3   1 <1>  -0.0990 
 12 N        6.8890     1.6420    -0.0680 N.2   1 <1>  -0.5120 
 13 C        4.8550     2.8230    -0.8050 C.2   1 <1>   0.5690 
 14 C        7.2770     0.4450    -0.0540 C.2   1 <1>   0.3280 
 15 O        3.7360     2.7720    -1.2670 O.2   1 <1>  -0.5700 
 16 C        5.4680     4.1810    -0.5560 C.3   1 <1>   0.1010 
 17 C        8.6550    -0.0270     0.3480 C.3   1 <1>  -0.1790 
 18 C        6.3190     4.5580    -1.7090 C.1   1 <1>   0.3570 
 19 N        6.9700     4.8790    -2.5850 N.1   1 <1>  -0.5570 
 20 H        2.7870     0.5000     3.3890 H     1 <1>   0.1500 
 21 H        0.9100    -1.7040     0.2660 H     1 <1>   0.1500 
 22 H        4.6630     1.0470     1.8960 H     1 <1>   0.1500 
 23 H        2.7700    -1.1740    -1.2500 H     1 <1>   0.1500 
 24 H        4.0380     0.9880    -2.1880 H     1 <1>   0.4000 
 25 H        6.5510    -1.0860    -1.3690 H     1 <1>   0.0800 
 26 H        6.0560    -1.2690     0.3140 H     1 <1>   0.0800 
 27 H        6.0590     4.1660     0.3380 H     1 <1>   0.0800 
 28 H        4.6890     4.9100    -0.4420 H     1 <1>   0.0800 
 29 H        8.5870    -0.6910     1.1900 H     1 <1>   0.0800 
 30 H        9.2660     0.8150     0.6180 H     1 <1>   0.0800 
 31 H        9.1200    -0.5410    -0.4730 H     1 <1>   0.0800 
@<TRIPOS>BOND
  1   1   2  1   
  2   2   3  ar  
  3   2   4  ar  
  4   3   5  ar  
  5   3  20  1   
  6   4   6  ar  
  7   4  21  1   
  8   5   7  ar  
  9   5  22  1   
 10   6   7  ar  
 11   6  23  1   
 12   7   8  1   
 13   8   9  1   
 14   8  10  1   
 15   8  11  1   
 16   9  24  1   
 17  10  12  1   
 18  10  13  am  
 19  11  14  1   
 20  11  25  1   
 21  11  26  1   
 22  12  14  2   
 23  13  15  2   
 24  13  16  1   
 25  14  17  1   
 26  16  18  1   
 27  16  27  1   
 28  16  28  1   
 29  17  29  1   
 30  17  30  1   
 31  17  31  1   
 32  18  19  3   
@<TRIPOS>SUBSTRUCTURE
  1 ****   8 GROUP 4 **** **** 0

# MOE 2024.06 (io_trps.svl 2023.06)
