@<TRIPOS>MOLECULE
NONAME
43 46 1 0 0 
SMALL
USER_CHARGES


@<TRIPOS>ATOM
  1 S       -0.3030     0.4780     1.4810 S.3   1 <1>  -0.3320 
  2 C       -2.0500     0.6580     1.1330 C.ar  1 <1>   0.7220 
  3 C        0.1570    -1.1470     0.7240 C.3   1 <1>   0.0700 
  4 N       -2.6000     1.8040     1.5890 N.ar  1 <1>  -0.3100 
  5 N       -2.6170    -0.3220     0.4740 N.ar  1 <1>  -0.5670 
  6 C        1.6450    -1.4420     0.9710 C.3   1 <1>   0.3430 
  7 N       -3.8640     2.0350     1.3850 N.ar  1 <1>  -0.2560 
  8 C       -3.9170    -0.0700     0.2760 C.ar  1 <1>   0.1050 
  9 N        2.5800    -0.6770     0.0770 N.4   1 <1>  -0.9590 
 10 C       -4.5350     1.0860     0.7210 C.ar  1 <1>   0.2560 
 11 N       -4.8430    -0.8550    -0.3660 N.pl3 1 <1>   0.0480 
 12 C        3.9820    -1.2130     0.1430 C.3   1 <1>   0.3430 
 13 C        2.5920     0.8160     0.2950 C.3   1 <1>   0.3430 
 14 C       -5.8990     1.0110     0.3360 C.ar  1 <1>   0.0000 
 15 C       -6.0600    -0.1990    -0.3340 C.ar  1 <1>  -0.1520 
 16 C       -4.6030    -2.1750    -0.9780 C.3   1 <1>   0.0160 
 17 C        4.9180    -0.4740    -0.8430 C.3   1 <1>   0.1200 
 18 C        3.6970     1.5130    -0.5320 C.3   1 <1>   0.1200 
 19 C       -6.9900     1.8650     0.5040 C.ar  1 <1>  -0.1500 
 20 C       -7.3070    -0.5680    -0.8410 C.ar  1 <1>  -0.1500 
 21 O        4.2750     0.6180    -1.4430 O.3   1 <1>  -0.5600 
 22 C       -8.2200     1.4980     0.0020 C.ar  1 <1>  -0.1500 
 23 C       -8.3770     0.2830    -0.6690 C.ar  1 <1>  -0.1500 
 24 H       -0.0830    -1.1130    -0.3240 H     1 <1>   0.0800 
 25 H       -0.4570    -1.8850     1.2090 H     1 <1>   0.0800 
 26 H        1.7990    -2.4960     0.8050 H     1 <1>   0.0800 
 27 H        1.8760    -1.2390     2.0050 H     1 <1>   0.0800 
 28 H        2.3000    -0.7920    -0.9090 H     1 <1>   0.4500 
 29 H        3.9920    -2.2650    -0.0880 H     1 <1>   0.0800 
 30 H        4.3690    -1.0960     1.1420 H     1 <1>   0.0800 
 31 H        2.7360     1.0420     1.3390 H     1 <1>   0.0800 
 32 H        1.6430     1.2340     0.0040 H     1 <1>   0.0800 
 33 H       -3.5660    -2.4380    -0.8840 H     1 <1>   0.0800 
 34 H       -4.8690    -2.1360    -2.0190 H     1 <1>   0.0800 
 35 H       -5.2060    -2.9110    -0.4790 H     1 <1>   0.0800 
 36 H        5.2270    -1.1400    -1.6300 H     1 <1>   0.0800 
 37 H        5.8000    -0.1200    -0.3380 H     1 <1>   0.0800 
 38 H        4.4700     1.9000     0.1100 H     1 <1>   0.0800 
 39 H        3.2810     2.3340    -1.0900 H     1 <1>   0.0800 
 40 H       -6.8530     2.7970     1.0230 H     1 <1>   0.1500 
 41 H       -7.4300    -1.5040    -1.3570 H     1 <1>   0.1500 
 42 H       -9.0700     2.1470     0.1240 H     1 <1>   0.1500 
 43 H       -9.3470     0.0170    -1.0520 H     1 <1>   0.1500 
@<TRIPOS>BOND
  1   1   2  1   
  2   1   3  1   
  3   2   4  ar  
  4   2   5  ar  
  5   3   6  1   
  6   3  24  1   
  7   3  25  1   
  8   4   7  ar  
  9   5   8  ar  
 10   6   9  1   
 11   6  26  1   
 12   6  27  1   
 13   7  10  ar  
 14   8  10  ar  
 15   8  11  1   
 16   9  12  1   
 17   9  13  1   
 18   9  28  1   
 19  10  14  1   
 20  11  15  1   
 21  11  16  1   
 22  12  17  1   
 23  12  29  1   
 24  12  30  1   
 25  13  18  1   
 26  13  31  1   
 27  13  32  1   
 28  14  15  ar  
 29  14  19  ar  
 30  15  20  ar  
 31  16  33  1   
 32  16  34  1   
 33  16  35  1   
 34  17  21  1   
 35  17  36  1   
 36  17  37  1   
 37  18  21  1   
 38  18  38  1   
 39  18  39  1   
 40  19  22  ar  
 41  19  40  1   
 42  20  23  ar  
 43  20  41  1   
 44  22  23  ar  
 45  22  42  1   
 46  23  43  1   
@<TRIPOS>SUBSTRUCTURE
  1 ****   5 GROUP 4 **** **** 0

# MOE 2024.06 (io_trps.svl 2023.06)
