@<TRIPOS>MOLECULE
NONAME
47 49 1 0 0 
SMALL
USER_CHARGES


@<TRIPOS>ATOM
  1 O       -0.0980     1.0880    -0.9980 O.3   1 <1>  -0.3630 
  2 C       -1.2250     1.2450    -0.2320 C.ar  1 <1>   0.0830 
  3 C        0.0120     0.0310    -1.9270 C.3   1 <1>   0.0400 
  4 C       -1.2730     2.3190     0.6770 C.ar  1 <1>   0.1000 
  5 C       -2.3110     0.3790    -0.3290 C.ar  1 <1>  -0.1500 
  6 N       -0.2350     3.2460     0.8510 N.pl3 1 <1>  -0.8380 
  7 C       -2.4090     2.4850     1.4550 C.ar  1 <1>  -0.1500 
  8 C       -3.4340     0.5670     0.4600 C.ar  1 <1>  -0.1500 
  9 C        0.0060     4.1280    -0.3280 C.3   1 <1>   0.2090 
 10 C        1.0080     2.6720     1.4440 C.3   1 <1>   0.2090 
 11 C       -3.4830     1.6200     1.3520 C.ar  1 <1>  -0.1500 
 12 C        1.0600     5.2070    -0.0100 C.3   1 <1>   0.3430 
 13 C        2.0470     3.7740     1.7330 C.3   1 <1>   0.3430 
 14 N        2.3520     4.6210     0.5170 N.4   1 <1>  -0.9590 
 15 C        3.3720     5.6690     0.7930 C.3   1 <1>   0.4230 
 16 C        3.7880     6.4090    -0.4890 C.3   1 <1>  -0.1600 
 17 C        4.6640     5.0560     1.3520 C.3   1 <1>  -0.1600 
 18 C        5.2710     6.1060    -0.7140 C.3   1 <1>  -0.0800 
 19 C        5.8080     5.8090     0.6800 C.3   1 <1>  -0.1600 
 20 C        6.0190     7.2480    -1.4080 C.3   1 <1>  -0.2400 
 21 H        0.9700     0.1040    -2.4090 H     1 <1>   0.0800 
 22 H       -0.7710     0.1250    -2.6590 H     1 <1>   0.0800 
 23 H       -0.0610    -0.9060    -1.4030 H     1 <1>   0.0800 
 24 H       -2.3130    -0.4510    -1.0090 H     1 <1>   0.1500 
 25 H       -2.4480     3.3040     2.1490 H     1 <1>   0.1500 
 26 H       -4.2690    -0.1080     0.3780 H     1 <1>   0.1500 
 27 H       -0.9210     4.6040    -0.6030 H     1 <1>   0.0800 
 28 H        0.3330     3.5410    -1.1680 H     1 <1>   0.0800 
 29 H        1.4330     1.9430     0.7780 H     1 <1>   0.0800 
 30 H        0.7560     2.1700     2.3630 H     1 <1>   0.0800 
 31 H       -4.3550     1.7670     1.9660 H     1 <1>   0.1500 
 32 H        0.6420     5.8740     0.7250 H     1 <1>   0.0800 
 33 H        1.2450     5.7760    -0.9040 H     1 <1>   0.0800 
 34 H        2.9460     3.3080     2.0970 H     1 <1>   0.0800 
 35 H        1.6590     4.4000     2.5200 H     1 <1>   0.0800 
 36 H        2.7300     3.9990    -0.2070 H     1 <1>   0.4500 
 37 H        2.9830     6.3850     1.4990 H     1 <1>   0.0800 
 38 H        3.6650     7.4640    -0.3150 H     1 <1>   0.0800 
 39 H        3.2220     6.1370    -1.3600 H     1 <1>   0.0800 
 40 H        4.7490     4.0180     1.0800 H     1 <1>   0.0800 
 41 H        4.7190     5.1550     2.4220 H     1 <1>   0.0800 
 42 H        5.3590     5.2130    -1.3130 H     1 <1>   0.0800 
 43 H        6.7150     5.2300     0.6470 H     1 <1>   0.0800 
 44 H        5.9990     6.7290     1.2080 H     1 <1>   0.0800 
 45 H        5.9640     8.1550    -0.8320 H     1 <1>   0.0800 
 46 H        5.5990     7.4330    -2.3810 H     1 <1>   0.0800 
 47 H        7.0560     6.9880    -1.5330 H     1 <1>   0.0800 
@<TRIPOS>BOND
  1   1   2  1   
  2   1   3  1   
  3   2   4  ar  
  4   2   5  ar  
  5   3  21  1   
  6   3  22  1   
  7   3  23  1   
  8   4   6  1   
  9   4   7  ar  
 10   5   8  ar  
 11   5  24  1   
 12   6   9  1   
 13   6  10  1   
 14   7  11  ar  
 15   7  25  1   
 16   8  11  ar  
 17   8  26  1   
 18   9  12  1   
 19   9  27  1   
 20   9  28  1   
 21  10  13  1   
 22  10  29  1   
 23  10  30  1   
 24  11  31  1   
 25  12  14  1   
 26  12  32  1   
 27  12  33  1   
 28  13  14  1   
 29  13  34  1   
 30  13  35  1   
 31  14  15  1   
 32  14  36  1   
 33  15  16  1   
 34  15  17  1   
 35  15  37  1   
 36  16  18  1   
 37  16  38  1   
 38  16  39  1   
 39  17  19  1   
 40  17  40  1   
 41  17  41  1   
 42  18  19  1   
 43  18  20  1   
 44  18  42  1   
 45  19  43  1   
 46  19  44  1   
 47  20  45  1   
 48  20  46  1   
 49  20  47  1   
@<TRIPOS>SUBSTRUCTURE
  1 ****   9 GROUP 4 **** **** 0

# MOE 2024.06 (io_trps.svl 2023.06)
