@<TRIPOS>MOLECULE
NONAME
40 41 1 0 0 
SMALL
USER_CHARGES


@<TRIPOS>ATOM
  1 S        0.0150     1.4330     1.2870 S.o2  1 <1>   1.4470 
  2 O       -0.2900     2.5400     2.1660 O.2   1 <1>  -0.6500 
  3 O       -0.0640     0.0870     1.8150 O.2   1 <1>  -0.6500 
  4 N       -1.1020     1.4910     0.0160 N.am  1 <1>  -0.8490 
  5 C        1.6190     1.6970     0.4580 C.ar  1 <1>  -0.0090 
  6 C       -1.0660     0.3140    -0.8570 C.3   1 <1>   0.1960 
  7 C       -2.4730     1.7460     0.4960 C.3   1 <1>   0.1960 
  8 C        1.9590     2.8870    -0.1910 C.ar  1 <1>  -0.1440 
  9 C        2.5520     0.6670     0.4490 C.ar  1 <1>  -0.1500 
 10 C       -2.0110     0.4860    -2.0700 C.3   1 <1>   0.1200 
 11 C       -3.5740     1.2920    -0.4900 C.3   1 <1>   0.1200 
 12 C        3.1920     3.0110    -0.8120 C.ar  1 <1>  -0.1500 
 13 C        1.0070     4.0780    -0.2420 C.3   1 <1>  -0.0960 
 14 C        3.7980     0.7620    -0.1720 C.ar  1 <1>   0.0860 
 15 O       -3.1170     1.3130    -1.8110 O.3   1 <1>  -0.5600 
 16 C        4.0940     1.9680    -0.8020 C.ar  1 <1>  -0.1500 
 17 C        4.7300    -0.3520    -0.1580 C.2   1 <1>   0.6340 
 18 O        4.4640    -1.4340     0.3220 O.2   1 <1>  -0.5700 
 19 O        5.9340    -0.1690    -0.7070 O.3   1 <1>  -0.4300 
 20 C        6.8970    -1.1980    -0.7340 C.3   1 <1>   0.1200 
 21 C        8.1450    -0.6580    -1.4250 C.3   1 <1>  -0.2400 
 22 H       -1.3640    -0.5600    -0.3010 H     1 <1>   0.0800 
 23 H       -0.0650     0.1450    -1.2160 H     1 <1>   0.0800 
 24 H       -2.5780     2.8010     0.6790 H     1 <1>   0.0800 
 25 H       -2.6360     1.2420     1.4350 H     1 <1>   0.0800 
 26 H        2.3070    -0.2580     0.9470 H     1 <1>   0.1500 
 27 H       -2.3750    -0.4730    -2.3930 H     1 <1>   0.0800 
 28 H       -1.4710     0.9320    -2.8860 H     1 <1>   0.0800 
 29 H       -4.4270     1.9430    -0.4200 H     1 <1>   0.0800 
 30 H       -3.8920     0.2900    -0.2610 H     1 <1>   0.0800 
 31 H        3.4580     3.9280    -1.3110 H     1 <1>   0.1500 
 32 H        0.0780     3.8000    -0.7080 H     1 <1>   0.0800 
 33 H        1.4280     4.8890    -0.8080 H     1 <1>   0.0800 
 34 H        0.8050     4.4380     0.7510 H     1 <1>   0.0800 
 35 H        5.0440     2.0940    -1.2940 H     1 <1>   0.1500 
 36 H        6.4870    -2.0360    -1.2720 H     1 <1>   0.0800 
 37 H        7.1120    -1.4900     0.2810 H     1 <1>   0.0800 
 38 H        7.9130    -0.3620    -2.4320 H     1 <1>   0.0800 
 39 H        8.8990    -1.4240    -1.4590 H     1 <1>   0.0800 
 40 H        8.5370     0.1830    -0.8820 H     1 <1>   0.0800 
@<TRIPOS>BOND
  1   1   2  2   
  2   1   3  2   
  3   1   4  am  
  4   1   5  1   
  5   4   6  1   
  6   4   7  1   
  7   5   8  ar  
  8   5   9  ar  
  9   6  10  1   
 10   6  22  1   
 11   6  23  1   
 12   7  11  1   
 13   7  24  1   
 14   7  25  1   
 15   8  12  ar  
 16   8  13  1   
 17   9  14  ar  
 18   9  26  1   
 19  10  15  1   
 20  10  27  1   
 21  10  28  1   
 22  11  15  1   
 23  11  29  1   
 24  11  30  1   
 25  12  16  ar  
 26  12  31  1   
 27  13  32  1   
 28  13  33  1   
 29  13  34  1   
 30  14  16  ar  
 31  14  17  1   
 32  16  35  1   
 33  17  18  2   
 34  17  19  1   
 35  19  20  1   
 36  20  21  1   
 37  20  36  1   
 38  20  37  1   
 39  21  38  1   
 40  21  39  1   
 41  21  40  1   
@<TRIPOS>SUBSTRUCTURE
  1 ****   5 GROUP 4 **** **** 0

# MOE 2024.06 (io_trps.svl 2023.06)
