@<TRIPOS>MOLECULE
NONAME
40 41 1 0 0 
SMALL
USER_CHARGES


@<TRIPOS>ATOM
  1 F       -0.7570     1.0040     1.6450 F     1 <1>  -0.3400 
  2 C       -1.3970     1.4790     0.5830 C.3   1 <1>   1.1640 
  3 F       -0.4940     1.5780    -0.3840 F     1 <1>  -0.3400 
  4 F       -1.7610     2.7170     0.8870 F     1 <1>  -0.3400 
  5 C       -2.6080     0.6170     0.1790 C.ar  1 <1>  -0.1440 
  6 C       -3.0720     0.6220    -1.1320 C.ar  1 <1>  -0.1500 
  7 C       -3.2660    -0.1790     1.1100 C.ar  1 <1>  -0.1500 
  8 C       -4.1640    -0.1420    -1.5020 C.ar  1 <1>  -0.1500 
  9 C       -4.3590    -0.9450     0.7430 C.ar  1 <1>  -0.1500 
 10 C       -4.8230    -0.9230    -0.5640 C.ar  1 <1>  -0.1430 
 11 C       -6.0400    -1.7360    -0.9580 C.3   1 <1>   0.4870 
 12 N       -7.2420    -1.0460    -0.3890 N.4   1 <1>  -0.9590 
 13 C       -8.4360    -1.9700    -0.3990 C.3   1 <1>   0.3430 
 14 C       -7.4960     0.2230    -1.1320 C.3   1 <1>   0.3430 
 15 C       -9.6770    -1.5020     0.4210 C.3   1 <1>   0.3430 
 16 C       -8.0580     1.3130    -0.2180 C.3   1 <1>  -0.1600 
 17 N      -10.1050    -0.0600     0.2500 N.4   1 <1>  -0.9590 
 18 C       -9.1160     0.9080     0.8100 C.3   1 <1>   0.3430 
 19 C      -11.4230     0.1450     0.9440 C.3   1 <1>   0.2630 
 20 H       -2.5760     1.2250    -1.8780 H     1 <1>   0.1500 
 21 H       -2.9230    -0.2100     2.1330 H     1 <1>   0.1500 
 22 H       -4.4820    -0.1180    -2.5320 H     1 <1>   0.1500 
 23 H       -4.8270    -1.5590     1.4950 H     1 <1>   0.1500 
 24 H       -5.9430    -2.7290    -0.5490 H     1 <1>   0.0800 
 25 H       -6.1100    -1.8110    -2.0310 H     1 <1>   0.0800 
 26 H       -6.9480    -0.8090     0.5680 H     1 <1>   0.4500 
 27 H       -8.1390    -2.9330    -0.0150 H     1 <1>   0.0800 
 28 H       -8.7470    -2.1300    -1.4190 H     1 <1>   0.0800 
 29 H       -8.1790     0.0370    -1.9450 H     1 <1>   0.0800 
 30 H       -6.5790     0.5940    -1.5630 H     1 <1>   0.0800 
 31 H       -9.4760    -1.6820     1.4650 H     1 <1>   0.0800 
 32 H      -10.5020    -2.1440     0.1550 H     1 <1>   0.0800 
 33 H       -8.4670     2.0900    -0.8410 H     1 <1>   0.0800 
 34 H       -7.2380     1.7680     0.3110 H     1 <1>   0.0800 
 35 H      -10.2730     0.1600    -0.7440 H     1 <1>   0.4500 
 36 H       -9.6240     1.8020     1.1390 H     1 <1>   0.0800 
 37 H       -8.6390     0.4760     1.6760 H     1 <1>   0.0800 
 38 H      -11.3310    -0.0510     2.0010 H     1 <1>   0.0800 
 39 H      -12.1720    -0.5170     0.5370 H     1 <1>   0.0800 
 40 H      -11.7640     1.1600     0.8140 H     1 <1>   0.0800 
@<TRIPOS>BOND
  1   1   2  1   
  2   2   3  1   
  3   2   4  1   
  4   2   5  1   
  5   5   6  ar  
  6   5   7  ar  
  7   6   8  ar  
  8   6  20  1   
  9   7   9  ar  
 10   7  21  1   
 11   8  10  ar  
 12   8  22  1   
 13   9  10  ar  
 14   9  23  1   
 15  10  11  1   
 16  11  12  1   
 17  11  24  1   
 18  11  25  1   
 19  12  13  1   
 20  12  14  1   
 21  12  26  1   
 22  13  15  1   
 23  13  27  1   
 24  13  28  1   
 25  14  16  1   
 26  14  29  1   
 27  14  30  1   
 28  15  17  1   
 29  15  31  1   
 30  15  32  1   
 31  16  18  1   
 32  16  33  1   
 33  16  34  1   
 34  17  18  1   
 35  17  19  1   
 36  17  35  1   
 37  18  36  1   
 38  18  37  1   
 39  19  38  1   
 40  19  39  1   
 41  19  40  1   
@<TRIPOS>SUBSTRUCTURE
  1 ****  10 GROUP 4 **** **** 0

# MOE 2024.06 (io_trps.svl 2023.06)
