@<TRIPOS>MOLECULE
NONAME
49 51 1 0 0 
SMALL
USER_CHARGES


@<TRIPOS>ATOM
  1 S       -0.0970     0.1060     0.0590 S.o2  1 <1>   1.4470 
  2 O       -0.7130     0.1340     1.3660 O.2   1 <1>  -0.6500 
  3 O       -0.9180     0.0340    -1.1280 O.2   1 <1>  -0.6500 
  4 N        0.7290     1.5860    -0.0570 N.am  1 <1>  -0.8490 
  5 C        1.2410    -1.1160    -0.0160 C.ar  1 <1>  -0.0090 
  6 C       -0.2190     2.6890    -0.3300 C.3   1 <1>   0.1960 
  7 C        1.5250     1.8870     1.1540 C.3   1 <1>   0.1960 
  8 C        1.6030    -1.8590     1.1030 C.ar  1 <1>  -0.1500 
  9 C        1.9560    -1.3180    -1.1910 C.ar  1 <1>  -0.1500 
 10 C        0.4710     4.0760    -0.3920 C.3   1 <1>   0.3430 
 11 C        2.3060     3.2200     1.0290 C.3   1 <1>   0.3430 
 12 C        2.6490    -2.7650     1.0540 C.ar  1 <1>  -0.1500 
 13 C        3.0020    -2.2230    -1.2480 C.ar  1 <1>  -0.1500 
 14 N        1.9620     3.9620    -0.2390 N.4   1 <1>  -0.9590 
 15 C        3.3510    -2.9460    -0.1230 C.ar  1 <1>  -0.1500 
 16 C        2.6720     5.2520    -0.4540 C.3   1 <1>   0.4230 
 17 C        4.1490     4.9940    -0.8040 C.3   1 <1>  -0.1600 
 18 C        2.5250     6.2040     0.7410 C.3   1 <1>  -0.1600 
 19 C        5.0770     6.1700    -0.4340 C.3   1 <1>  -0.0800 
 20 C        3.1300     7.5830     0.4150 C.3   1 <1>  -0.1600 
 21 C        4.3350     7.5110    -0.5430 C.3   1 <1>  -0.1600 
 22 C        6.3330     6.1670    -1.3110 C.3   1 <1>  -0.2400 
 23 H       -0.9860     2.7110     0.4270 H     1 <1>   0.0800 
 24 H       -0.7110     2.5130    -1.2720 H     1 <1>   0.0800 
 25 H        2.2300     1.0920     1.3350 H     1 <1>   0.0800 
 26 H        0.8800     1.9440     2.0160 H     1 <1>   0.0800 
 27 H        1.0600    -1.7330     2.0260 H     1 <1>   0.1500 
 28 H        1.6880    -0.7630    -2.0740 H     1 <1>   0.1500 
 29 H        0.0690     4.7000     0.3880 H     1 <1>   0.0800 
 30 H        0.2320     4.5390    -1.3360 H     1 <1>   0.0800 
 31 H        3.3610     3.0050     1.0530 H     1 <1>   0.0800 
 32 H        2.0820     3.8310     1.8870 H     1 <1>   0.0800 
 33 H        2.9140    -3.3330     1.9300 H     1 <1>   0.1500 
 34 H        3.5430    -2.3680    -2.1690 H     1 <1>   0.1500 
 35 H        2.2420     3.3190    -0.9950 H     1 <1>   0.4500 
 36 H        4.1630    -3.6520    -0.1650 H     1 <1>   0.1500 
 37 H        2.2310     5.7470    -1.3040 H     1 <1>   0.0800 
 38 H        4.2010     4.8250    -1.8660 H     1 <1>   0.0800 
 39 H        4.5270     4.1160    -0.3140 H     1 <1>   0.0800 
 40 H        3.0500     5.8030     1.5900 H     1 <1>   0.0800 
 41 H        1.4920     6.3370     1.0080 H     1 <1>   0.0800 
 42 H        5.3940     6.0530     0.5900 H     1 <1>   0.0800 
 43 H        3.4370     8.0500     1.3370 H     1 <1>   0.0800 
 44 H        2.3810     8.2190    -0.0260 H     1 <1>   0.0800 
 45 H        3.9970     7.6460    -1.5570 H     1 <1>   0.0800 
 46 H        5.0080     8.3230    -0.3220 H     1 <1>   0.0800 
 47 H        6.0820     6.3180    -2.3470 H     1 <1>   0.0800 
 48 H        6.8580     5.2330    -1.2170 H     1 <1>   0.0800 
 49 H        7.0000     6.9560    -1.0080 H     1 <1>   0.0800 
@<TRIPOS>BOND
  1   1   2  2   
  2   1   3  2   
  3   1   4  am  
  4   1   5  1   
  5   4   6  1   
  6   4   7  1   
  7   5   8  ar  
  8   5   9  ar  
  9   6  10  1   
 10   6  23  1   
 11   6  24  1   
 12   7  11  1   
 13   7  25  1   
 14   7  26  1   
 15   8  12  ar  
 16   8  27  1   
 17   9  13  ar  
 18   9  28  1   
 19  10  14  1   
 20  10  29  1   
 21  10  30  1   
 22  11  14  1   
 23  11  31  1   
 24  11  32  1   
 25  12  15  ar  
 26  12  33  1   
 27  13  15  ar  
 28  13  34  1   
 29  14  16  1   
 30  14  35  1   
 31  15  36  1   
 32  16  17  1   
 33  16  18  1   
 34  16  37  1   
 35  17  19  1   
 36  17  38  1   
 37  17  39  1   
 38  18  20  1   
 39  18  40  1   
 40  18  41  1   
 41  19  21  1   
 42  19  22  1   
 43  19  42  1   
 44  20  21  1   
 45  20  43  1   
 46  20  44  1   
 47  21  45  1   
 48  21  46  1   
 49  22  47  1   
 50  22  48  1   
 51  22  49  1   
@<TRIPOS>SUBSTRUCTURE
  1 ****   7 GROUP 4 **** **** 0

# MOE 2024.06 (io_trps.svl 2023.06)
