@<TRIPOS>MOLECULE
NONAME
42 44 1 0 0 
SMALL
USER_CHARGES


@<TRIPOS>ATOM
  1 CL      -1.0580     0.7690    -0.2350 Cl    1 <1>  -0.1770 
  2 C       -2.7760     0.5620    -0.0050 C.ar  1 <1>   0.1770 
  3 C       -3.6020     1.6660     0.1920 C.ar  1 <1>   0.1770 
  4 C       -3.3000    -0.7180    -0.0230 C.ar  1 <1>  -0.1500 
  5 CL      -2.9390     3.2790     0.2140 Cl    1 <1>  -0.1770 
  6 C       -4.9640     1.5070     0.3750 C.ar  1 <1>  -0.1500 
  7 C       -4.6690    -0.8810     0.1600 C.ar  1 <1>   0.0860 
  8 C       -5.4940     0.2210     0.3570 C.ar  1 <1>   0.0860 
  9 C       -5.5090    -2.0440     0.1970 C.2   1 <1>   0.5440 
 10 C       -6.8320    -0.2800     0.5090 C.2   1 <1>   0.5440 
 11 O       -5.1670    -3.1970     0.0660 O.2   1 <1>  -0.5700 
 12 N       -6.8040    -1.6470     0.4070 N.am  1 <1>  -0.4200 
 13 O       -7.8490     0.3640     0.6800 O.2   1 <1>  -0.5700 
 14 C       -7.9460    -2.5590     0.6430 C.3   1 <1>   0.1400 
 15 C       -8.6400    -2.9270    -0.6730 C.3   1 <1>  -0.0990 
 16 C      -10.1400    -2.9370    -0.4660 C.2   1 <1>   0.5690 
 17 O      -10.6230    -3.9520    -0.0310 O.2   1 <1>  -0.5700 
 18 N      -10.9180    -1.8270    -0.6980 N.am  1 <1>  -0.6600 
 19 C      -12.3900    -1.8660    -0.4380 C.3   1 <1>   0.1400 
 20 C      -10.4170    -0.4480    -0.9880 C.3   1 <1>   0.1400 
 21 C      -12.7480    -0.9240     0.7260 C.3   1 <1>   0.3430 
 22 C      -10.7770     0.5060     0.1700 C.3   1 <1>   0.3430 
 23 N      -12.2520     0.4840     0.4940 N.4   1 <1>  -0.9590 
 24 C      -12.5410     1.3530     1.6740 C.3   1 <1>   0.2630 
 25 H       -2.6640    -1.5740    -0.1750 H     1 <1>   0.1500 
 26 H       -5.5990     2.3620     0.5290 H     1 <1>   0.1500 
 27 H       -8.6400    -2.0740     1.3080 H     1 <1>   0.0800 
 28 H       -7.5990    -3.4550     1.1310 H     1 <1>   0.0800 
 29 H       -8.3300    -3.9170    -0.9600 H     1 <1>   0.0800 
 30 H       -8.3710    -2.2670    -1.4730 H     1 <1>   0.0800 
 31 H      -12.7120    -2.8640    -0.1940 H     1 <1>   0.0800 
 32 H      -12.9190    -1.5700    -1.3280 H     1 <1>   0.0800 
 33 H      -10.8630    -0.0930    -1.9010 H     1 <1>   0.0800 
 34 H       -9.3540    -0.4370    -1.1290 H     1 <1>   0.0800 
 35 H      -12.3050    -1.3200     1.6250 H     1 <1>   0.0800 
 36 H      -13.8170    -0.9190     0.8600 H     1 <1>   0.0800 
 37 H      -10.4700     1.5060    -0.0880 H     1 <1>   0.0800 
 38 H      -10.2120     0.2080     1.0380 H     1 <1>   0.0800 
 39 H      -12.7530     0.8590    -0.3240 H     1 <1>   0.4500 
 40 H      -12.0230     0.9850     2.5450 H     1 <1>   0.0800 
 41 H      -13.5990     1.3650     1.8820 H     1 <1>   0.0800 
 42 H      -12.2180     2.3640     1.4830 H     1 <1>   0.0800 
@<TRIPOS>BOND
  1   1   2  1   
  2   2   3  ar  
  3   2   4  ar  
  4   3   5  1   
  5   3   6  ar  
  6   4   7  ar  
  7   4  25  1   
  8   6   8  ar  
  9   6  26  1   
 10   7   8  ar  
 11   7   9  1   
 12   8  10  1   
 13   9  11  2   
 14   9  12  am  
 15  10  12  am  
 16  10  13  2   
 17  12  14  1   
 18  14  15  1   
 19  14  27  1   
 20  14  28  1   
 21  15  16  1   
 22  15  29  1   
 23  15  30  1   
 24  16  17  2   
 25  16  18  am  
 26  18  19  1   
 27  18  20  1   
 28  19  21  1   
 29  19  31  1   
 30  19  32  1   
 31  20  22  1   
 32  20  33  1   
 33  20  34  1   
 34  21  23  1   
 35  21  35  1   
 36  21  36  1   
 37  22  23  1   
 38  22  37  1   
 39  22  38  1   
 40  23  24  1   
 41  23  39  1   
 42  24  40  1   
 43  24  41  1   
 44  24  42  1   
@<TRIPOS>SUBSTRUCTURE
  1 ****  10 GROUP 4 **** **** 0

# MOE 2024.06 (io_trps.svl 2023.06)
