@<TRIPOS>MOLECULE
NONAME
44 45 1 0 0 
SMALL
USER_CHARGES


@<TRIPOS>ATOM
  1 S        0.0150     0.3830    -0.7120 S.3   1 <1>  -0.0800 
  2 C       -0.2460    -1.3170    -0.3820 C.2   1 <1>   0.1040 
  3 C        1.7390     0.2340    -0.4460 C.2   1 <1>  -0.1400 
  4 N       -1.5260    -1.8510    -0.4360 N.am  1 <1>  -0.4940 
  5 C        0.9330    -1.9500    -0.0840 C.2   1 <1>  -0.0860 
  6 C        2.0630    -1.0360    -0.1270 C.2   1 <1>  -0.1810 
  7 C        2.5180     1.5260    -0.6200 C.3   1 <1>  -0.0600 
  8 C       -2.7530    -1.3120    -0.7370 C.2   1 <1>   0.5690 
  9 C        0.9680    -3.3620     0.2290 C.2   1 <1>   0.8060 
 10 C        3.4910    -1.4810     0.1650 C.3   1 <1>  -0.0590 
 11 O       -2.9340    -0.1680    -1.0780 O.2   1 <1>  -0.5700 
 12 C       -4.0000    -2.2020    -0.6200 C.3   1 <1>   0.4040 
 13 O       -0.0480    -4.0400     0.2830 O.2   1 <1>  -0.5700 
 14 O        2.1340    -3.9720     0.4680 O.3   1 <1>  -0.4300 
 15 N       -5.2720    -1.4160    -0.3940 N.4   1 <1>  -0.9590 
 16 C        2.2210    -5.3510     0.7750 C.3   1 <1>   0.0400 
 17 C       -5.2780    -0.7510     0.9440 C.3   1 <1>   0.3430 
 18 C       -6.5000    -2.2170    -0.6510 C.3   1 <1>   0.3430 
 19 C       -6.4930     0.1710     1.0530 C.3   1 <1>  -0.1600 
 20 C       -7.7310    -1.3130    -0.5650 C.3   1 <1>  -0.1600 
 21 C       -7.8050    -0.5760     0.7790 C.3   1 <1>  -0.1600 
 22 H       -1.5100    -2.8530    -0.2040 H     1 <1>   0.3700 
 23 H        2.3800     1.8990    -1.6190 H     1 <1>   0.0800 
 24 H        3.5680     1.3830    -0.4520 H     1 <1>   0.0800 
 25 H        2.1570     2.2620     0.0750 H     1 <1>   0.0800 
 26 H        4.1840    -0.6650     0.0980 H     1 <1>   0.0800 
 27 H        3.7970    -2.2310    -0.5420 H     1 <1>   0.0800 
 28 H        3.5560    -1.8860     1.1590 H     1 <1>   0.0800 
 29 H       -3.8580    -2.9020     0.1850 H     1 <1>   0.0800 
 30 H       -4.0860    -2.7590    -1.5370 H     1 <1>   0.0800 
 31 H       -5.2320    -0.6400    -1.0770 H     1 <1>   0.4500 
 32 H        3.2560    -5.6020     0.9240 H     1 <1>   0.0800 
 33 H        1.8180    -5.9180    -0.0470 H     1 <1>   0.0800 
 34 H        1.6610    -5.5460     1.6730 H     1 <1>   0.0800 
 35 H       -4.3790    -0.1670     1.0720 H     1 <1>   0.0800 
 36 H       -5.3190    -1.4940     1.7240 H     1 <1>   0.0800 
 37 H       -6.5830    -3.0040     0.0800 H     1 <1>   0.0800 
 38 H       -6.4540    -2.6640    -1.6320 H     1 <1>   0.0800 
 39 H       -6.3820     0.9870     0.3580 H     1 <1>   0.0800 
 40 H       -6.5240     0.5960     2.0410 H     1 <1>   0.0800 
 41 H       -8.6170    -1.9110    -0.6920 H     1 <1>   0.0800 
 42 H       -7.7070    -0.6010    -1.3720 H     1 <1>   0.0800 
 43 H       -8.6270     0.1210     0.7690 H     1 <1>   0.0800 
 44 H       -7.9870    -1.2850     1.5690 H     1 <1>   0.0800 
@<TRIPOS>BOND
  1   1   2  1   
  2   1   3  1   
  3   2   4  1   
  4   2   5  2   
  5   3   6  2   
  6   3   7  1   
  7   4   8  am  
  8   4  22  1   
  9   5   6  1   
 10   5   9  1   
 11   6  10  1   
 12   7  23  1   
 13   7  24  1   
 14   7  25  1   
 15   8  11  2   
 16   8  12  1   
 17   9  13  2   
 18   9  14  1   
 19  10  26  1   
 20  10  27  1   
 21  10  28  1   
 22  12  15  1   
 23  12  29  1   
 24  12  30  1   
 25  14  16  1   
 26  15  17  1   
 27  15  18  1   
 28  15  31  1   
 29  16  32  1   
 30  16  33  1   
 31  16  34  1   
 32  17  19  1   
 33  17  35  1   
 34  17  36  1   
 35  18  20  1   
 36  18  37  1   
 37  18  38  1   
 38  19  21  1   
 39  19  39  1   
 40  19  40  1   
 41  20  21  1   
 42  20  41  1   
 43  20  42  1   
 44  21  43  1   
 45  21  44  1   
@<TRIPOS>SUBSTRUCTURE
  1 ****   4 GROUP 4 **** **** 0

# MOE 2024.06 (io_trps.svl 2023.06)
