@<TRIPOS>MOLECULE
NONAME
44 45 1 0 0 
SMALL
USER_CHARGES


@<TRIPOS>ATOM
  1 O        3.5770    -4.2120    -0.0030 O.3   1 <1>  -0.3630 
  2 C        4.8040    -3.6500    -0.1620 C.ar  1 <1>   0.0830 
  3 C        2.4090    -3.4260     0.1310 C.3   1 <1>   0.1200 
  4 C        5.9000    -4.5070    -0.2350 C.ar  1 <1>  -0.1440 
  5 C        4.9990    -2.2730    -0.2510 C.ar  1 <1>  -0.1500 
  6 C        1.2030    -4.3560     0.3090 C.3   1 <1>   0.2000 
  7 C        7.1720    -3.9800    -0.3940 C.ar  1 <1>  -0.1500 
  8 C        5.7150    -6.0150    -0.1420 C.3   1 <1>  -0.0960 
  9 C        6.2740    -1.7590    -0.4100 C.ar  1 <1>  -0.1500 
 10 O        1.2140    -5.2890    -0.7230 O.3   1 <1>  -0.6800 
 11 C       -0.1340    -3.5760     0.3360 C.3   1 <1>   0.1100 
 12 C        7.3600    -2.6120    -0.4810 C.ar  1 <1>  -0.1500 
 13 N       -1.3410    -4.4230     0.1850 N.3   1 <1>  -0.8100 
 14 C       -1.5020    -5.4590     1.2330 C.3   1 <1>   0.1100 
 15 C       -2.5860    -3.6480    -0.0050 C.3   1 <1>   0.1100 
 16 C       -2.7250    -6.3690     0.9610 C.3   1 <1>   0.3430 
 17 C       -3.7820    -4.5710    -0.3500 C.3   1 <1>   0.3430 
 18 N       -3.3660    -6.0130    -0.3470 N.4   1 <1>  -0.9590 
 19 C       -4.4330    -6.9570    -0.7780 C.3   1 <1>   0.2630 
 20 H        2.2940    -2.8300    -0.7570 H     1 <1>   0.0800 
 21 H        2.5230    -2.7900     0.9900 H     1 <1>   0.0800 
 22 H        4.1790    -1.5850    -0.2020 H     1 <1>   0.1500 
 23 H        1.3230    -4.8930     1.2330 H     1 <1>   0.0800 
 24 H        8.0260    -4.6320    -0.4510 H     1 <1>   0.1500 
 25 H        5.2320    -6.2660     0.7850 H     1 <1>   0.0800 
 26 H        6.6590    -6.5260    -0.1860 H     1 <1>   0.0800 
 27 H        5.1010    -6.3560    -0.9560 H     1 <1>   0.0800 
 28 H        6.4220    -0.6950    -0.4780 H     1 <1>   0.1500 
 29 H        2.1480    -5.5370    -0.8950 H     1 <1>   0.4000 
 30 H       -0.1150    -2.8660    -0.4730 H     1 <1>   0.0800 
 31 H       -0.1970    -3.0180     1.2550 H     1 <1>   0.0800 
 32 H        8.3520    -2.2120    -0.6040 H     1 <1>   0.1500 
 33 H       -1.6040    -4.9960     2.2000 H     1 <1>   0.0800 
 34 H       -0.6240    -6.0820     1.2600 H     1 <1>   0.0800 
 35 H       -2.4500    -2.9440    -0.8090 H     1 <1>   0.0800 
 36 H       -2.8080    -3.0860     0.8870 H     1 <1>   0.0800 
 37 H       -3.4370    -6.2610     1.7620 H     1 <1>   0.0800 
 38 H       -2.3980    -7.3960     0.9440 H     1 <1>   0.0800 
 39 H       -4.1580    -4.3020    -1.3230 H     1 <1>   0.0800 
 40 H       -4.5730    -4.4110     0.3640 H     1 <1>   0.0800 
 41 H       -2.5630    -6.0270    -1.0050 H     1 <1>   0.4500 
 42 H       -5.2570    -6.9340    -0.0840 H     1 <1>   0.0800 
 43 H       -4.0460    -7.9620    -0.8230 H     1 <1>   0.0800 
 44 H       -4.7970    -6.6870    -1.7570 H     1 <1>   0.0800 
@<TRIPOS>BOND
  1   1   2  1   
  2   1   3  1   
  3   2   4  ar  
  4   2   5  ar  
  5   3   6  1   
  6   3  20  1   
  7   3  21  1   
  8   4   7  ar  
  9   4   8  1   
 10   5   9  ar  
 11   5  22  1   
 12   6  10  1   
 13   6  11  1   
 14   6  23  1   
 15   7  12  ar  
 16   7  24  1   
 17   8  25  1   
 18   8  26  1   
 19   8  27  1   
 20   9  12  ar  
 21   9  28  1   
 22  10  29  1   
 23  11  13  1   
 24  11  30  1   
 25  11  31  1   
 26  12  32  1   
 27  13  14  1   
 28  13  15  1   
 29  14  16  1   
 30  14  33  1   
 31  14  34  1   
 32  15  17  1   
 33  15  35  1   
 34  15  36  1   
 35  16  18  1   
 36  16  37  1   
 37  16  38  1   
 38  17  18  1   
 39  17  39  1   
 40  17  40  1   
 41  18  19  1   
 42  18  41  1   
 43  19  42  1   
 44  19  43  1   
 45  19  44  1   
@<TRIPOS>SUBSTRUCTURE
  1 ****   6 GROUP 4 **** **** 0

# MOE 2024.06 (io_trps.svl 2023.06)
