@<TRIPOS>MOLECULE
NONAME
47 48 1 0 0 
SMALL
USER_CHARGES


@<TRIPOS>ATOM
  1 S        0.0660     0.2770    -0.0120 S.o2  1 <1>   1.4470 
  2 O        0.2330     1.0500    -1.2200 O.2   1 <1>  -0.6500 
  3 O        0.4370     0.8410     1.2660 O.2   1 <1>  -0.6500 
  4 N        1.2100    -0.9230    -0.2970 N.am  1 <1>  -0.9140 
  5 C       -1.5180    -0.5990     0.0720 C.ar  1 <1>  -0.0090 
  6 C        2.5570    -0.4460     0.0090 C.3   1 <1>   0.1960 
  7 C       -2.7060     0.1080    -0.0810 C.ar  1 <1>   0.0830 
  8 C       -1.5930    -1.9680     0.3140 C.ar  1 <1>  -0.1500 
  9 C        3.6230    -1.5110    -0.3030 C.3   1 <1>   0.3430 
 10 O       -2.6110     1.4460    -0.2850 O.3   1 <1>  -0.3630 
 11 C       -3.9320    -0.5510    -0.0180 C.ar  1 <1>  -0.1500 
 12 C       -2.8080    -2.6290     0.3820 C.ar  1 <1>  -0.1440 
 13 N        4.9980    -1.0990     0.1380 N.4   1 <1>  -0.9590 
 14 C       -3.7440     2.2680    -0.4540 C.3   1 <1>   0.0400 
 15 C       -3.9780    -1.9120     0.2100 C.ar  1 <1>  -0.1500 
 16 C       -2.8620    -4.1270     0.6430 C.3   1 <1>  -0.0170 
 17 C        5.5320     0.1380    -0.5360 C.3   1 <1>   0.3430 
 18 C        5.9960    -2.2190     0.0320 C.3   1 <1>   0.3430 
 19 C       -2.9020    -4.9020    -0.6750 C.3   1 <1>  -0.2400 
 20 C        6.9690     0.4650    -0.0630 C.3   1 <1>   0.1200 
 21 C        7.3950    -1.7750     0.5230 C.3   1 <1>   0.1200 
 22 O        7.3890    -0.4320     0.9280 O.3   1 <1>  -0.5600 
 23 H        1.1230    -1.0210    -1.3110 H     1 <1>   0.4200 
 24 H        2.6130    -0.2110     1.0600 H     1 <1>   0.0800 
 25 H        2.7520     0.4510    -0.5560 H     1 <1>   0.0800 
 26 H       -0.6880    -2.5310     0.4560 H     1 <1>   0.1500 
 27 H        3.6260    -1.7090    -1.3620 H     1 <1>   0.0800 
 28 H        3.3450    -2.4180     0.2110 H     1 <1>   0.0800 
 29 H       -4.8590    -0.0230    -0.1410 H     1 <1>   0.1500 
 30 H        4.9830    -0.8660     1.1450 H     1 <1>   0.4500 
 31 H       -3.4040     3.2770    -0.6000 H     1 <1>   0.0800 
 32 H       -4.3520     2.2120     0.4310 H     1 <1>   0.0800 
 33 H       -4.2900     1.9380    -1.3210 H     1 <1>   0.0800 
 34 H       -4.9300    -2.4130     0.2560 H     1 <1>   0.1500 
 35 H       -3.7360    -4.3610     1.2250 H     1 <1>   0.0800 
 36 H       -2.0020    -4.4300     1.2140 H     1 <1>   0.0800 
 37 H        4.8980     0.9820    -0.3180 H     1 <1>   0.0800 
 38 H        5.5390     0.0060    -1.6050 H     1 <1>   0.0800 
 39 H        6.0750    -2.5480    -0.9900 H     1 <1>   0.0800 
 40 H        5.6710    -3.0620     0.6210 H     1 <1>   0.0800 
 41 H       -3.7730    -4.6240    -1.2430 H     1 <1>   0.0800 
 42 H       -2.9390    -5.9590    -0.4820 H     1 <1>   0.0800 
 43 H       -2.0260    -4.6880    -1.2610 H     1 <1>   0.0800 
 44 H        7.0060     1.4570     0.3540 H     1 <1>   0.0800 
 45 H        7.6620     0.4210    -0.8860 H     1 <1>   0.0800 
 46 H        8.1300    -1.8990    -0.2540 H     1 <1>   0.0800 
 47 H        7.6980    -2.3700     1.3680 H     1 <1>   0.0800 
@<TRIPOS>BOND
  1   1   2  2   
  2   1   3  2   
  3   1   4  am  
  4   1   5  1   
  5   4   6  1   
  6   4  23  1   
  7   5   7  ar  
  8   5   8  ar  
  9   6   9  1   
 10   6  24  1   
 11   6  25  1   
 12   7  10  1   
 13   7  11  ar  
 14   8  12  ar  
 15   8  26  1   
 16   9  13  1   
 17   9  27  1   
 18   9  28  1   
 19  10  14  1   
 20  11  15  ar  
 21  11  29  1   
 22  12  15  ar  
 23  12  16  1   
 24  13  17  1   
 25  13  18  1   
 26  13  30  1   
 27  14  31  1   
 28  14  32  1   
 29  14  33  1   
 30  15  34  1   
 31  16  19  1   
 32  16  35  1   
 33  16  36  1   
 34  17  20  1   
 35  17  37  1   
 36  17  38  1   
 37  18  21  1   
 38  18  39  1   
 39  18  40  1   
 40  19  41  1   
 41  19  42  1   
 42  19  43  1   
 43  20  22  1   
 44  20  44  1   
 45  20  45  1   
 46  21  22  1   
 47  21  46  1   
 48  21  47  1   
@<TRIPOS>SUBSTRUCTURE
  1 ****   4 GROUP 4 **** **** 0

# MOE 2024.06 (io_trps.svl 2023.06)
