@<TRIPOS>MOLECULE
NONAME
43 45 1 0 0 
SMALL
USER_CHARGES


@<TRIPOS>ATOM
  1 O       -0.4010     0.5520    -0.9790 O.2   1 <1>  -0.5700 
  2 C       -0.3610     1.6640    -0.5040 C.2   1 <1>   0.7800 
  3 O       -1.4920     2.3630    -0.4480 O.3   1 <1>  -0.4300 
  4 N        0.7900     2.2130    -0.0310 N.am  1 <1>  -0.7300 
  5 C       -1.5770     3.6830     0.0510 C.3   1 <1>   0.1200 
  6 C        2.1130     1.5590    -0.0510 C.3   1 <1>   0.1400 
  7 C       -3.0230     4.2070    -0.0470 C.3   1 <1>   0.0000 
  8 C        3.1340     2.5170    -0.6630 C.3   1 <1>  -0.1600 
  9 C       -3.0820     5.6500     0.5050 C.3   1 <1>  -0.1600 
 10 C       -3.5060     4.2260    -1.5170 C.3   1 <1>  -0.1600 
 11 C       -3.9880     3.3260     0.7810 C.3   1 <1>  -0.1600 
 12 C        4.5310     1.8870    -0.7060 C.3   1 <1>  -0.2400 
 13 C       -4.5150     6.2090     0.4230 C.3   1 <1>  -0.0800 
 14 C       -4.9420     4.7750    -1.6090 C.3   1 <1>  -0.0800 
 15 C       -5.4270     3.8720     0.6990 C.3   1 <1>  -0.0800 
 16 C       -4.9740     6.2090    -1.0470 C.3   1 <1>  -0.1600 
 17 C       -5.4550     5.3100     1.2480 C.3   1 <1>  -0.1600 
 18 C       -5.8790     3.8820    -0.7730 C.3   1 <1>  -0.1600 
 19 H        0.7550     3.1400     0.3810 H     1 <1>   0.3700 
 20 H       -0.9190     4.3050    -0.5310 H     1 <1>   0.0800 
 21 H       -1.2570     3.6740     1.0790 H     1 <1>   0.0800 
 22 H        2.0660     0.6520    -0.6320 H     1 <1>   0.0800 
 23 H        2.3970     1.3020     0.9560 H     1 <1>   0.0800 
 24 H        3.1760     3.4210    -0.0810 H     1 <1>   0.0800 
 25 H        2.8300     2.7640    -1.6660 H     1 <1>   0.0800 
 26 H       -2.4220     6.2860    -0.0580 H     1 <1>   0.0800 
 27 H       -2.7550     5.6640     1.5300 H     1 <1>   0.0800 
 28 H       -2.8490     4.8340    -2.1130 H     1 <1>   0.0800 
 29 H       -3.4830     3.2290    -1.9230 H     1 <1>   0.0800 
 30 H       -3.6720     3.2990     1.8090 H     1 <1>   0.0800 
 31 H       -3.9720     2.3160     0.4100 H     1 <1>   0.0800 
 32 H        4.8670     1.6430     0.2860 H     1 <1>   0.0800 
 33 H        5.2320     2.5760    -1.1440 H     1 <1>   0.0800 
 34 H        4.5200     0.9890    -1.3000 H     1 <1>   0.0800 
 35 H       -4.5390     7.2130     0.8110 H     1 <1>   0.0800 
 36 H       -5.2650     4.7790    -2.6360 H     1 <1>   0.0800 
 37 H       -6.0860     3.2480     1.2770 H     1 <1>   0.0800 
 38 H       -4.3300     6.8430    -1.6310 H     1 <1>   0.0800 
 39 H       -5.9720     6.6040    -1.1160 H     1 <1>   0.0800 
 40 H       -5.1510     5.3120     2.2800 H     1 <1>   0.0800 
 41 H       -6.4590     5.6960     1.2040 H     1 <1>   0.0800 
 42 H       -5.8680     2.8790    -1.1640 H     1 <1>   0.0800 
 43 H       -6.8880     4.2490    -0.8420 H     1 <1>   0.0800 
@<TRIPOS>BOND
  1   1   2  2   
  2   2   3  1   
  3   2   4  am  
  4   3   5  1   
  5   4   6  1   
  6   4  19  1   
  7   5   7  1   
  8   5  20  1   
  9   5  21  1   
 10   6   8  1   
 11   6  22  1   
 12   6  23  1   
 13   7   9  1   
 14   7  10  1   
 15   7  11  1   
 16   8  12  1   
 17   8  24  1   
 18   8  25  1   
 19   9  13  1   
 20   9  26  1   
 21   9  27  1   
 22  10  14  1   
 23  10  28  1   
 24  10  29  1   
 25  11  15  1   
 26  11  30  1   
 27  11  31  1   
 28  12  32  1   
 29  12  33  1   
 30  12  34  1   
 31  13  16  1   
 32  13  17  1   
 33  13  35  1   
 34  14  16  1   
 35  14  18  1   
 36  14  36  1   
 37  15  17  1   
 38  15  18  1   
 39  15  37  1   
 40  16  38  1   
 41  16  39  1   
 42  17  40  1   
 43  17  41  1   
 44  18  42  1   
 45  18  43  1   
@<TRIPOS>SUBSTRUCTURE
  1 ****   5 GROUP 4 **** **** 0

# MOE 2024.06 (io_trps.svl 2023.06)
