@<TRIPOS>MOLECULE
NONAME
35 37 1 0 0 
SMALL
USER_CHARGES


@<TRIPOS>ATOM
  1 O        0.0610    -0.6680    -1.7110 O.2   1 <1>  -0.5700 
  2 C       -0.0700    -1.8180    -1.3540 C.2   1 <1>   0.7060 
  3 O        1.0060    -2.5930    -1.3310 O.3   1 <1>  -0.4300 
  4 C       -1.3060    -2.3810    -0.9560 C.2   1 <1>  -0.1360 
  5 C        1.0000    -3.7660    -0.5480 C.3   1 <1>   0.5600 
  6 C       -1.4040    -3.6790    -0.5930 C.2   1 <1>   0.0480 
  7 O       -0.2700    -4.4010    -0.5900 O.3   1 <1>  -0.3570 
  8 C        1.4150    -3.4440     0.8850 C.3   1 <1>  -0.1600 
  9 C        2.0880    -4.7050    -1.0480 C.3   1 <1>  -0.1600 
 10 C       -2.6060    -4.3850    -0.2110 C.ar  1 <1>   0.0280 
 11 C        2.9480    -3.4120     0.8610 C.3   1 <1>  -0.1600 
 12 C        3.3790    -4.2430    -0.3570 C.3   1 <1>  -0.1600 
 13 C       -3.8660    -3.9790    -0.6580 C.ar  1 <1>  -0.1500 
 14 C       -2.5580    -5.5030     0.6230 C.ar  1 <1>  -0.1500 
 15 C       -5.0190    -4.6450    -0.2860 C.ar  1 <1>  -0.1500 
 16 C       -3.7050    -6.1750     0.9990 C.ar  1 <1>  -0.1500 
 17 C       -4.9460    -5.7540     0.5520 C.ar  1 <1>   0.0820 
 18 O       -6.0220    -6.4620     0.9650 O.3   1 <1>  -0.3630 
 19 C       -7.3300    -6.1310     0.5590 C.3   1 <1>   0.0400 
 20 H       -2.1450    -1.7150    -0.9710 H     1 <1>   0.1500 
 21 H        1.0970    -4.2470     1.5260 H     1 <1>   0.0800 
 22 H        0.9970    -2.5180     1.2350 H     1 <1>   0.0800 
 23 H        2.1700    -4.6830    -2.1200 H     1 <1>   0.0800 
 24 H        1.8600    -5.7050    -0.7250 H     1 <1>   0.0800 
 25 H        3.3600    -3.8040     1.7750 H     1 <1>   0.0800 
 26 H        3.2860    -2.3960     0.7350 H     1 <1>   0.0800 
 27 H        3.9510    -3.6250    -1.0290 H     1 <1>   0.0800 
 28 H        3.9810    -5.0870    -0.0650 H     1 <1>   0.0800 
 29 H       -3.9490    -3.1320    -1.3140 H     1 <1>   0.1500 
 30 H       -1.6070    -5.8510     0.9860 H     1 <1>   0.1500 
 31 H       -5.9630    -4.2930    -0.6560 H     1 <1>   0.1500 
 32 H       -3.6490    -7.0330     1.6440 H     1 <1>   0.1500 
 33 H       -8.0070    -6.8340     1.0090 H     1 <1>   0.0800 
 34 H       -7.3920    -6.2000    -0.5130 H     1 <1>   0.0800 
 35 H       -7.5590    -5.1350     0.8960 H     1 <1>   0.0800 
@<TRIPOS>BOND
  1   1   2  2   
  2   2   3  1   
  3   2   4  1   
  4   3   5  1   
  5   4   6  2   
  6   4  20  1   
  7   5   7  1   
  8   5   8  1   
  9   5   9  1   
 10   6   7  1   
 11   6  10  1   
 12   8  11  1   
 13   8  21  1   
 14   8  22  1   
 15   9  12  1   
 16   9  23  1   
 17   9  24  1   
 18  10  13  ar  
 19  10  14  ar  
 20  11  12  1   
 21  11  25  1   
 22  11  26  1   
 23  12  27  1   
 24  12  28  1   
 25  13  15  ar  
 26  13  29  1   
 27  14  16  ar  
 28  14  30  1   
 29  15  17  ar  
 30  15  31  1   
 31  16  17  ar  
 32  16  32  1   
 33  17  18  1   
 34  18  19  1   
 35  19  33  1   
 36  19  34  1   
 37  19  35  1   
@<TRIPOS>SUBSTRUCTURE
  1 ****   6 GROUP 4 **** **** 0

# MOE 2024.06 (io_trps.svl 2023.06)
