@<TRIPOS>MOLECULE
NONAME
38 38 1 0 0 
SMALL
USER_CHARGES


@<TRIPOS>ATOM
  1 O        4.0870    -6.3380     0.0070 O.3   1 <1>  -0.3620 
  2 C        5.3030    -5.7310     0.0130 C.ar  1 <1>   0.0830 
  3 C        2.8980    -5.5900     0.0070 C.3   1 <1>   0.1200 
  4 C        6.4110    -6.5630     0.0130 C.ar  1 <1>  -0.1500 
  5 C        5.4830    -4.3500     0.0200 C.ar  1 <1>  -0.1500 
  6 C        1.7400    -6.5900    -0.0010 C.3   1 <1>   0.3430 
  7 C        7.6860    -6.0290     0.0190 C.ar  1 <1>  -0.1500 
  8 C        6.7610    -3.8160     0.0260 C.ar  1 <1>  -0.1500 
  9 N        0.4100    -5.9070    -0.0010 N.4   1 <1>  -0.9060 
 10 C        7.8720    -4.6560     0.0250 C.ar  1 <1>   0.0830 
 11 C       -0.7100    -6.8780    -0.0090 C.3   1 <1>   0.3430 
 12 O        9.1560    -4.2150     0.0310 O.3   1 <1>  -0.3630 
 13 C       -2.0290    -6.1110    -0.0090 C.3   1 <1>  -0.1600 
 14 C        9.4560    -2.8360     0.0380 C.3   1 <1>   0.0400 
 15 C       -3.2210    -7.0770    -0.0170 C.3   1 <1>  -0.1600 
 16 C       -4.5470    -6.3100    -0.0170 C.3   1 <1>  -0.2400 
 17 H        2.8900    -4.9780    -0.8780 H     1 <1>   0.0800 
 18 H        2.8850    -4.9860     0.8980 H     1 <1>   0.0800 
 19 H        6.2750    -7.6300     0.0070 H     1 <1>   0.1500 
 20 H        4.6530    -3.6710     0.0210 H     1 <1>   0.1500 
 21 H        1.8240    -7.2190     0.8710 H     1 <1>   0.0800 
 22 H        1.8290    -7.2110    -0.8780 H     1 <1>   0.0800 
 23 H        8.5480    -6.6720     0.0180 H     1 <1>   0.1500 
 24 H        6.8760    -2.7490     0.0310 H     1 <1>   0.1500 
 25 H        0.3250    -5.2990    -0.8260 H     1 <1>   0.4500 
 26 H        0.3210    -5.3070     0.8290 H     1 <1>   0.4500 
 27 H       -0.6600    -7.5110     0.8640 H     1 <1>   0.0800 
 28 H       -0.6550    -7.5030    -0.8870 H     1 <1>   0.0800 
 29 H       -2.0880    -5.4840    -0.8820 H     1 <1>   0.0800 
 30 H       -2.0920    -5.4930     0.8700 H     1 <1>   0.0800 
 31 H       10.5250    -2.7280     0.0420 H     1 <1>   0.0800 
 32 H        9.0410    -2.3930     0.9260 H     1 <1>   0.0800 
 33 H        9.0460    -2.3850    -0.8480 H     1 <1>   0.0800 
 34 H       -3.1890    -7.7140     0.8530 H     1 <1>   0.0800 
 35 H       -3.1840    -7.7050    -0.8920 H     1 <1>   0.0800 
 36 H       -4.6320    -5.6930     0.8610 H     1 <1>   0.0800 
 37 H       -5.3720    -7.0020    -0.0220 H     1 <1>   0.0800 
 38 H       -4.6270    -5.6850    -0.8890 H     1 <1>   0.0800 
@<TRIPOS>BOND
  1   1   2  1   
  2   1   3  1   
  3   2   4  ar  
  4   2   5  ar  
  5   3   6  1   
  6   3  17  1   
  7   3  18  1   
  8   4   7  ar  
  9   4  19  1   
 10   5   8  ar  
 11   5  20  1   
 12   6   9  1   
 13   6  21  1   
 14   6  22  1   
 15   7  10  ar  
 16   7  23  1   
 17   8  10  ar  
 18   8  24  1   
 19   9  11  1   
 20   9  25  1   
 21   9  26  1   
 22  10  12  1   
 23  11  13  1   
 24  11  27  1   
 25  11  28  1   
 26  12  14  1   
 27  13  15  1   
 28  13  29  1   
 29  13  30  1   
 30  14  31  1   
 31  14  32  1   
 32  14  33  1   
 33  15  16  1   
 34  15  34  1   
 35  15  35  1   
 36  16  36  1   
 37  16  37  1   
 38  16  38  1   
@<TRIPOS>SUBSTRUCTURE
  1 ****   3 GROUP 4 **** **** 0

# MOE 2024.06 (io_trps.svl 2023.06)
