@<TRIPOS>MOLECULE
NONAME
23 23 1 0 0 
SMALL
USER_CHARGES


@<TRIPOS>ATOM
  1 O        0.5390    -0.4680    -1.4110 O.2   1 <1>  -0.5700 
  2 C        1.3350    -0.6940    -0.5350 C.2   1 <1>   0.4230 
  3 C        2.5540     0.0440    -0.3610 C.ar  1 <1>   0.0860 
  4 C        0.9730    -1.7930     0.4450 C.3   1 <1>  -0.1790 
  5 C        2.5220     1.4370    -0.2780 C.ar  1 <1>   0.4100 
  6 C        3.8160    -0.5260    -0.2510 C.ar  1 <1>   0.1660 
  7 N        3.5960     2.1610    -0.0520 N.ar  1 <1>  -0.6200 
  8 N        1.3880     2.1630    -0.4190 N.pl3 1 <1>  -0.9000 
  9 N        4.8950     0.1870    -0.0220 N.ar  1 <1>  -0.6200 
 10 C        4.0590    -2.0190    -0.4040 C.3   1 <1>  -0.0970 
 11 C        4.7200     1.4970     0.0690 C.ar  1 <1>   0.4770 
 12 C        5.9660     2.3060     0.3360 C.3   1 <1>  -0.0970 
 13 H       -0.0460    -1.6620     0.7610 H     1 <1>   0.0800 
 14 H        1.0630    -2.7500    -0.0330 H     1 <1>   0.0800 
 15 H        1.6080    -1.7600     1.3110 H     1 <1>   0.0800 
 16 H        1.4650     3.1790    -0.4740 H     1 <1>   0.4000 
 17 H        0.5690     1.7490    -0.8810 H     1 <1>   0.4000 
 18 H        5.0440    -2.1890    -0.8020 H     1 <1>   0.0800 
 19 H        3.9940    -2.5000     0.5550 H     1 <1>   0.0800 
 20 H        3.3520    -2.4620    -1.0800 H     1 <1>   0.0800 
 21 H        5.7280     3.3510     0.4180 H     1 <1>   0.0800 
 22 H        6.6610     2.1670    -0.4700 H     1 <1>   0.0800 
 23 H        6.4170     1.9760     1.2530 H     1 <1>   0.0800 
@<TRIPOS>BOND
  1   1   2  2   
  2   2   3  1   
  3   2   4  1   
  4   3   5  ar  
  5   3   6  ar  
  6   4  13  1   
  7   4  14  1   
  8   4  15  1   
  9   5   7  ar  
 10   5   8  1   
 11   6   9  ar  
 12   6  10  1   
 13   7  11  ar  
 14   8  16  1   
 15   8  17  1   
 16   9  11  ar  
 17  10  18  1   
 18  10  19  1   
 19  10  20  1   
 20  11  12  1   
 21  12  21  1   
 22  12  22  1   
 23  12  23  1   
@<TRIPOS>SUBSTRUCTURE
  1 ****   3 GROUP 4 **** **** 0

# MOE 2024.06 (io_trps.svl 2023.06)
