@<TRIPOS>MOLECULE
NONAME
41 42 1 0 0 
SMALL
USER_CHARGES


@<TRIPOS>ATOM
  1 O       -0.9280     1.9410    -2.0510 O.2   1 <1>  -0.5700 
  2 C       -0.2600     1.9270    -1.0440 C.2   1 <1>   0.5690 
  3 N       -0.7550     1.6150     0.1830 N.am  1 <1>  -0.7300 
  4 C        1.2300     2.2750    -1.1330 C.3   1 <1>   0.1710 
  5 C       -2.1230     1.2130     0.5640 C.3   1 <1>   0.2200 
  6 N        2.0660     1.6500    -0.0660 N.3   1 <1>  -0.8100 
  7 C       -2.5060    -0.0780    -0.1760 C.3   1 <1>  -0.1600 
  8 C       -3.0750     2.3970     0.3530 C.3   1 <1>  -0.1600 
  9 C        3.3920     2.2970     0.0550 C.3   1 <1>   0.1100 
 10 C        2.2080     0.1940    -0.2440 C.3   1 <1>   0.1100 
 11 C       -3.7090    -0.7870     0.4660 C.3   1 <1>  -0.1600 
 12 C       -4.5430     2.1180     0.7190 C.3   1 <1>  -0.1600 
 13 C        4.4900     1.3680     0.6240 C.3   1 <1>   0.1200 
 14 C        2.9960    -0.4400     0.9260 C.3   1 <1>   0.1200 
 15 C       -5.0830    -0.3050    -0.0260 C.3   1 <1>  -0.1600 
 16 C       -5.2330     1.2000    -0.3000 C.3   1 <1>  -0.1600 
 17 O        3.9500     0.4210     1.4970 O.3   1 <1>  -0.5600 
 18 H       -0.0510     1.5850     0.9280 H     1 <1>   0.3700 
 19 H        1.3050     3.3440    -1.0570 H     1 <1>   0.0800 
 20 H        1.5950     1.9840    -2.1020 H     1 <1>   0.0800 
 21 H       -2.1020     0.9940     1.6190 H     1 <1>   0.0800 
 22 H       -1.6670    -0.7490    -0.1220 H     1 <1>   0.0800 
 23 H       -2.6980     0.1240    -1.2150 H     1 <1>   0.0800 
 24 H       -3.0280     2.7170    -0.6730 H     1 <1>   0.0800 
 25 H       -2.7280     3.2120     0.9620 H     1 <1>   0.0800 
 26 H        3.2940     3.1520     0.7010 H     1 <1>   0.0800 
 27 H        3.7220     2.6540    -0.9060 H     1 <1>   0.0800 
 28 H        2.7250    -0.0080    -1.1670 H     1 <1>   0.0800 
 29 H        1.2400    -0.2740    -0.3060 H     1 <1>   0.0800 
 30 H       -3.6570    -0.6830     1.5360 H     1 <1>   0.0800 
 31 H       -3.6380    -1.8410     0.2550 H     1 <1>   0.0800 
 32 H       -5.0610     3.0620     0.7140 H     1 <1>   0.0800 
 33 H       -4.6220     1.7140     1.7140 H     1 <1>   0.0800 
 34 H        5.2220     1.9410     1.1640 H     1 <1>   0.0800 
 35 H        4.9880     0.8430    -0.1720 H     1 <1>   0.0800 
 36 H        3.5020    -1.3280     0.5920 H     1 <1>   0.0800 
 37 H        2.3150    -0.7150     1.7110 H     1 <1>   0.0800 
 38 H       -5.8180    -0.5990     0.7040 H     1 <1>   0.0800 
 39 H       -5.3240    -0.8270    -0.9360 H     1 <1>   0.0800 
 40 H       -4.8630     1.4200    -1.2870 H     1 <1>   0.0800 
 41 H       -6.2850     1.4270    -0.3100 H     1 <1>   0.0800 
@<TRIPOS>BOND
  1   1   2  2   
  2   2   3  am  
  3   2   4  1   
  4   3   5  1   
  5   3  18  1   
  6   4   6  1   
  7   4  19  1   
  8   4  20  1   
  9   5   7  1   
 10   5   8  1   
 11   5  21  1   
 12   6   9  1   
 13   6  10  1   
 14   7  11  1   
 15   7  22  1   
 16   7  23  1   
 17   8  12  1   
 18   8  24  1   
 19   8  25  1   
 20   9  13  1   
 21   9  26  1   
 22   9  27  1   
 23  10  14  1   
 24  10  28  1   
 25  10  29  1   
 26  11  15  1   
 27  11  30  1   
 28  11  31  1   
 29  12  16  1   
 30  12  32  1   
 31  12  33  1   
 32  13  17  1   
 33  13  34  1   
 34  13  35  1   
 35  14  17  1   
 36  14  36  1   
 37  14  37  1   
 38  15  16  1   
 39  15  38  1   
 40  15  39  1   
 41  16  40  1   
 42  16  41  1   
@<TRIPOS>SUBSTRUCTURE
  1 ****   3 GROUP 4 **** **** 0

# MOE 2024.06 (io_trps.svl 2023.06)
