@<TRIPOS>MOLECULE
NONAME
38 38 1 0 0 
SMALL
USER_CHARGES


@<TRIPOS>ATOM
  1 I        0.6860     0.5910     2.3960 I     1 <1>  -0.0810 
  2 C        2.0340     1.4140     0.9550 C.ar  1 <1>   0.0810 
  3 C        1.8580     2.7090     0.4830 C.ar  1 <1>   0.0820 
  4 C        3.0650     0.5950     0.5260 C.ar  1 <1>  -0.1500 
  5 O        0.8060     3.4510     0.9110 O.3   1 <1>  -0.3630 
  6 C        2.7900     3.2000    -0.4390 C.ar  1 <1>   0.0830 
  7 C        3.9670     1.0840    -0.4090 C.ar  1 <1>  -0.1440 
  8 C       -0.2690     3.5670     0.0070 C.3   1 <1>   0.1200 
  9 O        2.7730     4.4580    -0.9480 O.3   1 <1>  -0.3630 
 10 C        3.8170     2.3800    -0.8850 C.ar  1 <1>  -0.1500 
 11 C        5.1100     0.2230    -0.8980 C.3   1 <1>   0.4860 
 12 C       -1.3490     4.4190     0.6650 C.3   1 <1>  -0.2400 
 13 C        2.6020     5.5510    -0.0700 C.3   1 <1>   0.1200 
 14 N        6.2710     0.5330    -0.0390 N.4   1 <1>  -0.9060 
 15 C        3.1970     6.7880    -0.7350 C.3   1 <1>  -0.2400 
 16 C        7.4900    -0.2210    -0.3930 C.3   1 <1>   0.3430 
 17 C        8.5960     0.1920     0.5670 C.3   1 <1>  -0.2400 
 18 H        3.1430    -0.4030     0.9220 H     1 <1>   0.1500 
 19 H       -0.6400     2.5790    -0.2090 H     1 <1>   0.0800 
 20 H        0.0870     4.0270    -0.8990 H     1 <1>   0.0800 
 21 H        4.4950     2.7890    -1.6150 H     1 <1>   0.1500 
 22 H        5.3280     0.4540    -1.9290 H     1 <1>   0.0800 
 23 H        4.8480    -0.8200    -0.8210 H     1 <1>   0.0800 
 24 H       -1.6870     3.9500     1.5720 H     1 <1>   0.0800 
 25 H       -2.1870     4.5210    -0.0010 H     1 <1>   0.0800 
 26 H       -0.9660     5.3980     0.8870 H     1 <1>   0.0800 
 27 H        3.1040     5.3350     0.8580 H     1 <1>   0.0800 
 28 H        1.5510     5.6910     0.1090 H     1 <1>   0.0800 
 29 H        6.0080     0.3510     0.9370 H     1 <1>   0.4500 
 30 H        6.4480     1.5430    -0.0940 H     1 <1>   0.4500 
 31 H        4.2460     6.6430    -0.9200 H     1 <1>   0.0800 
 32 H        3.0770     7.6390    -0.0900 H     1 <1>   0.0800 
 33 H        2.6910     6.9880    -1.6630 H     1 <1>   0.0800 
 34 H        7.7860    -0.0010    -1.4070 H     1 <1>   0.0800 
 35 H        7.3120    -1.2830    -0.3080 H     1 <1>   0.0800 
 36 H        8.8100     1.2430     0.4800 H     1 <1>   0.0800 
 37 H        9.4950    -0.3490     0.3260 H     1 <1>   0.0800 
 38 H        8.3330    -0.0430     1.5830 H     1 <1>   0.0800 
@<TRIPOS>BOND
  1   1   2  1   
  2   2   3  ar  
  3   2   4  ar  
  4   3   5  1   
  5   3   6  ar  
  6   4   7  ar  
  7   4  18  1   
  8   5   8  1   
  9   6   9  1   
 10   6  10  ar  
 11   7  10  ar  
 12   7  11  1   
 13   8  12  1   
 14   8  19  1   
 15   8  20  1   
 16   9  13  1   
 17  10  21  1   
 18  11  14  1   
 19  11  22  1   
 20  11  23  1   
 21  12  24  1   
 22  12  25  1   
 23  12  26  1   
 24  13  15  1   
 25  13  27  1   
 26  13  28  1   
 27  14  16  1   
 28  14  29  1   
 29  14  30  1   
 30  15  31  1   
 31  15  32  1   
 32  15  33  1   
 33  16  17  1   
 34  16  34  1   
 35  16  35  1   
 36  17  36  1   
 37  17  37  1   
 38  17  38  1   
@<TRIPOS>SUBSTRUCTURE
  1 ****   6 GROUP 4 **** **** 0

# MOE 2024.06 (io_trps.svl 2023.06)
