@<TRIPOS>MOLECULE
NONAME
39 41 1 0 0 
SMALL
USER_CHARGES


@<TRIPOS>ATOM
  1 S       -0.2230    -0.8900    -0.9550 S.3   1 <1>  -0.0800 
  2 C        0.9800     0.2550    -0.3500 C.ar  1 <1>   0.2970 
  3 C       -1.4860     0.3330    -0.8530 C.2   1 <1>  -0.1400 
  4 N        2.2400    -0.0680    -0.1700 N.ar  1 <1>  -0.5670 
  5 C        0.4080     1.4850    -0.1110 C.ar  1 <1>   0.0000 
  6 C       -1.0090     1.4930    -0.3900 C.2   1 <1>  -0.1810 
  7 C       -2.9180     0.0330    -1.2410 C.3   1 <1>   0.3000 
  8 C        2.9430     0.9520     0.2840 C.ar  1 <1>   0.7220 
  9 C        1.3020     2.4550     0.3480 C.ar  1 <1>   0.4100 
 10 C       -1.9730     2.6520    -0.2090 C.3   1 <1>   0.0210 
 11 O       -3.6500     1.2360    -1.2630 O.3   1 <1>  -0.5600 
 12 S        4.6770     0.6290     0.5770 S.3   1 <1>  -0.3320 
 13 N        2.5690     2.1940     0.5560 N.ar  1 <1>  -0.6200 
 14 N        0.9510     3.7400     0.5950 N.pl3 1 <1>  -0.9000 
 15 C       -3.4530     2.1690    -0.2240 C.3   1 <1>   0.2800 
 16 C        4.9110    -1.1450     0.1230 C.3   1 <1>   0.0700 
 17 C       -4.3810     3.3670    -0.5270 C.3   1 <1>  -0.1600 
 18 C       -3.8400     1.5130     1.1150 C.3   1 <1>  -0.2400 
 19 C        6.3790    -1.4980     0.3500 C.3   1 <1>  -0.2400 
 20 C       -5.8820     3.0360    -0.6270 C.3   1 <1>  -0.2400 
 21 H       -3.3760    -0.6410    -0.5390 H     1 <1>   0.0800 
 22 H       -2.9630    -0.3950    -2.2270 H     1 <1>   0.0800 
 23 H       -1.8110     3.3570    -1.0030 H     1 <1>   0.0800 
 24 H       -1.7770     3.1500     0.7240 H     1 <1>   0.0800 
 25 H        1.7250     4.3640     0.8350 H     1 <1>   0.4000 
 26 H        0.2060     4.1770     0.0550 H     1 <1>   0.4000 
 27 H        4.6290    -1.2530    -0.9110 H     1 <1>   0.0800 
 28 H        4.2580    -1.7270     0.7490 H     1 <1>   0.0800 
 29 H       -4.0740     3.8070    -1.4600 H     1 <1>   0.0800 
 30 H       -4.2480     4.1150     0.2340 H     1 <1>   0.0800 
 31 H       -3.1080     0.7890     1.4210 H     1 <1>   0.0800 
 32 H       -4.7970     1.0310     1.0380 H     1 <1>   0.0800 
 33 H       -3.8960     2.2600     1.8860 H     1 <1>   0.0800 
 34 H        7.0080    -0.8780    -0.2640 H     1 <1>   0.0800 
 35 H        6.5520    -2.5270     0.0950 H     1 <1>   0.0800 
 36 H        6.6390    -1.3490     1.3830 H     1 <1>   0.0800 
 37 H       -6.4310     3.9130    -0.9180 H     1 <1>   0.0800 
 38 H       -6.0490     2.2720    -1.3660 H     1 <1>   0.0800 
 39 H       -6.2670     2.6960     0.3170 H     1 <1>   0.0800 
@<TRIPOS>BOND
  1   1   2  1   
  2   1   3  1   
  3   2   4  ar  
  4   2   5  ar  
  5   3   6  2   
  6   3   7  1   
  7   4   8  ar  
  8   5   6  1   
  9   5   9  ar  
 10   6  10  1   
 11   7  11  1   
 12   7  21  1   
 13   7  22  1   
 14   8  12  1   
 15   8  13  ar  
 16   9  13  ar  
 17   9  14  1   
 18  10  15  1   
 19  10  23  1   
 20  10  24  1   
 21  11  15  1   
 22  12  16  1   
 23  14  25  1   
 24  14  26  1   
 25  15  17  1   
 26  15  18  1   
 27  16  19  1   
 28  16  27  1   
 29  16  28  1   
 30  17  20  1   
 31  17  29  1   
 32  17  30  1   
 33  18  31  1   
 34  18  32  1   
 35  18  33  1   
 36  19  34  1   
 37  19  35  1   
 38  19  36  1   
 39  20  37  1   
 40  20  38  1   
 41  20  39  1   
@<TRIPOS>SUBSTRUCTURE
  1 ****   5 GROUP 4 **** **** 0

# MOE 2024.06 (io_trps.svl 2023.06)
