@<TRIPOS>MOLECULE
NONAME
39 43 1 0 0 
SMALL
USER_CHARGES


@<TRIPOS>ATOM
  1 O        0.1050     0.9680    -0.5520 O.2   1 <1>  -0.5700 
  2 C       -0.3700     1.8220     0.1580 C.2   1 <1>   0.5690 
  3 N        0.2900     2.7390     0.9530 N.am  1 <1>  -0.1200 
  4 C       -1.8400     2.0140     0.4020 C.3   1 <1>  -0.0190 
  5 N        1.7320     2.9550     0.9210 N.am  1 <1>  -0.4300 
  6 C       -0.6020     3.6670     1.4530 C.2   1 <1>   0.5690 
  7 C       -3.1410     1.6060    -0.3380 C.3   1 <1>   0.1530 
  8 C       -1.8600     3.5340     0.6440 C.3   1 <1>  -0.0190 
  9 C        2.3500     3.7700     0.0170 C.2   1 <1>   0.5440 
 10 O       -0.4290     4.4620     2.3470 O.2   1 <1>  -0.5700 
 11 C       -4.1320     1.7050     0.8310 C.2   1 <1>  -0.2880 
 12 C       -3.5730     2.7240    -1.3390 C.3   1 <1>  -0.1950 
 13 C       -3.3300     4.0140     0.8190 C.3   1 <1>   0.1530 
 14 O        1.6600     4.4050    -0.7640 O.2   1 <1>  -0.5700 
 15 C        3.7940     3.8920     0.0050 C.ar  1 <1>   0.0860 
 16 C       -4.1890     2.9010     1.4390 C.2   1 <1>  -0.2880 
 17 C       -3.8020     4.0720    -0.6700 C.3   1 <1>  -0.1950 
 18 C       -4.9320     3.3590    -1.3700 C.3   1 <1>  -0.2000 
 19 C        4.4050     5.1190    -0.2570 C.ar  1 <1>  -0.1500 
 20 C        4.6270     2.7990     0.2550 C.ar  1 <1>  -0.1500 
 21 C        5.7810     5.2560    -0.2540 C.ar  1 <1>  -0.1500 
 22 C        6.0050     2.9310     0.2610 C.ar  1 <1>  -0.1500 
 23 C        6.5840     4.1610     0.0090 C.ar  1 <1>  -0.1500 
 24 H       -1.9220     1.5220     1.3600 H     1 <1>   0.0800 
 25 H        2.2770     2.5120     1.6630 H     1 <1>   0.3700 
 26 H       -3.1050     0.6190    -0.7670 H     1 <1>   0.0800 
 27 H       -1.5260     4.0190    -0.2610 H     1 <1>   0.0800 
 28 H       -4.6850     0.8160     1.0840 H     1 <1>   0.1500 
 29 H       -2.9920     2.7190    -2.2460 H     1 <1>   0.1000 
 30 H       -3.4200     4.9640     1.3160 H     1 <1>   0.0800 
 31 H       -4.7940     3.1720     2.2870 H     1 <1>   0.1500 
 32 H       -3.4410     4.9550    -1.1720 H     1 <1>   0.1000 
 33 H       -5.7430     2.9590    -0.7880 H     1 <1>   0.1000 
 34 H       -5.2820     3.7590    -2.3050 H     1 <1>   0.1000 
 35 H        3.7840     5.9740    -0.4670 H     1 <1>   0.1500 
 36 H        4.1970     1.8300     0.4360 H     1 <1>   0.1500 
 37 H        6.2270     6.2150    -0.4570 H     1 <1>   0.1500 
 38 H        6.6290     2.0760     0.4570 H     1 <1>   0.1500 
 39 H        7.6550     4.2660     0.0120 H     1 <1>   0.1500 
@<TRIPOS>BOND
  1   1   2  2   
  2   2   3  am  
  3   2   4  1   
  4   3   5  1   
  5   3   6  am  
  6   4   7  1   
  7   4   8  1   
  8   4  24  1   
  9   5   9  am  
 10   5  25  1   
 11   6   8  1   
 12   6  10  2   
 13   7  11  1   
 14   7  12  1   
 15   7  26  1   
 16   8  13  1   
 17   8  27  1   
 18   9  14  2   
 19   9  15  1   
 20  11  16  2   
 21  11  28  1   
 22  12  17  1   
 23  12  18  1   
 24  12  29  1   
 25  13  16  1   
 26  13  17  1   
 27  13  30  1   
 28  15  19  ar  
 29  15  20  ar  
 30  16  31  1   
 31  17  18  1   
 32  17  32  1   
 33  18  33  1   
 34  18  34  1   
 35  19  21  ar  
 36  19  35  1   
 37  20  22  ar  
 38  20  36  1   
 39  21  23  ar  
 40  21  37  1   
 41  22  23  ar  
 42  22  38  1   
 43  23  39  1   
@<TRIPOS>SUBSTRUCTURE
  1 ****   3 GROUP 4 **** **** 0

# MOE 2024.06 (io_trps.svl 2023.06)
