@<TRIPOS>MOLECULE
NONAME
51 53 1 0 0 
SMALL
USER_CHARGES


@<TRIPOS>ATOM
  1 O       -0.5760     0.1120    -1.4400 O.2   1 <1>  -0.5700 
  2 C       -0.7290    -0.6320    -0.4910 C.2   1 <1>   0.6900 
  3 N       -1.9840    -0.9510    -0.0500 N.am  1 <1>  -0.6600 
  4 N        0.3450    -1.1590     0.1410 N.am  1 <1>  -0.7300 
  5 C       -3.1790    -0.4640    -0.8150 C.3   1 <1>   0.3200 
  6 C       -2.2540    -1.4910     1.3100 C.3   1 <1>   0.1400 
  7 C        1.7500    -0.9580    -0.2420 C.3   1 <1>   0.2200 
  8 C       -4.2330    -1.5440    -1.0050 C.2   1 <1>   0.2980 
  9 C       -2.2260    -3.0190     1.2870 C.3   1 <1>  -0.2400 
 10 C        2.2910    -2.2600    -0.8420 C.3   1 <1>  -0.1600 
 11 C        2.5450    -0.5450     1.0000 C.3   1 <1>  -0.1600 
 12 O       -3.9760    -2.5290    -1.8250 O.3   1 <1>  -0.0190 
 13 N       -5.3670    -1.5930    -0.4340 N.2   1 <1>  -0.5650 
 14 C        3.7890    -2.1450    -1.1590 C.3   1 <1>  -0.1600 
 15 C        4.0430    -0.4260     0.6860 C.3   1 <1>  -0.1600 
 16 N       -5.0360    -3.2720    -1.7670 N.2   1 <1>  -0.4100 
 17 C       -5.8620    -2.7250    -0.9480 C.2   1 <1>   0.4620 
 18 C        4.5890    -1.7270     0.0830 C.3   1 <1>  -0.1600 
 19 C       -7.1750    -3.2420    -0.5950 C.ar  1 <1>   0.0540 
 20 C       -8.0210    -2.5660     0.2870 C.ar  1 <1>  -0.1500 
 21 C       -7.6440    -4.4440    -1.1290 C.ar  1 <1>  -0.1500 
 22 C       -9.2710    -3.0570     0.6250 C.ar  1 <1>  -0.1440 
 23 C       -8.8900    -4.9440    -0.7990 C.ar  1 <1>  -0.1500 
 24 C       -9.7040    -4.2510     0.0770 C.ar  1 <1>  -0.1500 
 25 C      -10.1690    -2.2990     1.5860 C.3   1 <1>  -0.0970 
 26 H        0.1710    -1.8930     0.8190 H     1 <1>   0.3700 
 27 H       -2.8910    -0.1090    -1.7880 H     1 <1>   0.0800 
 28 H       -3.6160     0.3610    -0.2820 H     1 <1>   0.0800 
 29 H       -3.2170    -1.1510     1.6550 H     1 <1>   0.0800 
 30 H       -1.5140    -1.1210     1.9990 H     1 <1>   0.0800 
 31 H        1.8180    -0.1750    -0.9800 H     1 <1>   0.0800 
 32 H       -3.0160    -3.4040     0.6680 H     1 <1>   0.0800 
 33 H       -2.3690    -3.3970     2.2830 H     1 <1>   0.0800 
 34 H       -1.2840    -3.3810     0.9170 H     1 <1>   0.0800 
 35 H        1.7520    -2.4820    -1.7460 H     1 <1>   0.0800 
 36 H        2.1410    -3.0680    -0.1470 H     1 <1>   0.0800 
 37 H        2.4070    -1.2760     1.7770 H     1 <1>   0.0800 
 38 H        2.1790     0.4040     1.3540 H     1 <1>   0.0800 
 39 H        3.9320    -1.4130    -1.9360 H     1 <1>   0.0800 
 40 H        4.1550    -3.0890    -1.5240 H     1 <1>   0.0800 
 41 H        4.5840    -0.1900     1.5870 H     1 <1>   0.0800 
 42 H        4.1980     0.3810    -0.0100 H     1 <1>   0.0800 
 43 H        5.6230    -1.5950    -0.1830 H     1 <1>   0.0800 
 44 H        4.5370    -2.5110     0.8200 H     1 <1>   0.0800 
 45 H       -7.6890    -1.6360     0.7130 H     1 <1>   0.1500 
 46 H       -7.0220    -4.9960    -1.8120 H     1 <1>   0.1500 
 47 H       -9.2270    -5.8730    -1.2250 H     1 <1>   0.1500 
 48 H      -10.6730    -4.6440     0.3290 H     1 <1>   0.1500 
 49 H       -9.6160    -1.5390     2.1090 H     1 <1>   0.0800 
 50 H      -10.5880    -2.9730     2.3110 H     1 <1>   0.0800 
 51 H      -10.9690    -1.8300     1.0420 H     1 <1>   0.0800 
@<TRIPOS>BOND
  1   1   2  2   
  2   2   3  am  
  3   2   4  am  
  4   3   5  1   
  5   3   6  1   
  6   4   7  1   
  7   4  26  1   
  8   5   8  1   
  9   5  27  1   
 10   5  28  1   
 11   6   9  1   
 12   6  29  1   
 13   6  30  1   
 14   7  10  1   
 15   7  11  1   
 16   7  31  1   
 17   8  12  1   
 18   8  13  2   
 19   9  32  1   
 20   9  33  1   
 21   9  34  1   
 22  10  14  1   
 23  10  35  1   
 24  10  36  1   
 25  11  15  1   
 26  11  37  1   
 27  11  38  1   
 28  12  16  1   
 29  13  17  1   
 30  14  18  1   
 31  14  39  1   
 32  14  40  1   
 33  15  18  1   
 34  15  41  1   
 35  15  42  1   
 36  16  17  2   
 37  17  19  1   
 38  18  43  1   
 39  18  44  1   
 40  19  20  ar  
 41  19  21  ar  
 42  20  22  ar  
 43  20  45  1   
 44  21  23  ar  
 45  21  46  1   
 46  22  24  ar  
 47  22  25  1   
 48  23  24  ar  
 49  23  47  1   
 50  24  48  1   
 51  25  49  1   
 52  25  50  1   
 53  25  51  1   
@<TRIPOS>SUBSTRUCTURE
  1 ****   8 GROUP 4 **** **** 0

# MOE 2024.06 (io_trps.svl 2023.06)
