@<TRIPOS>MOLECULE
NONAME
30 30 1 0 0 
SMALL
USER_CHARGES


@<TRIPOS>ATOM
  1 F        0.0280    -0.8030     0.4800 F     1 <1>  -0.1900 
  2 C        1.2530    -1.1900     0.2600 C.ar  1 <1>   0.1900 
  3 C        2.1720    -0.2710    -0.2090 C.ar  1 <1>  -0.1500 
  4 C        1.5940    -2.5070     0.5010 C.ar  1 <1>  -0.1500 
  5 C        3.4710    -0.6910    -0.4360 C.ar  1 <1>  -0.1500 
  6 C        2.8970    -2.9100     0.2670 C.ar  1 <1>  -0.1500 
  7 C        3.8660    -2.0120    -0.2000 C.ar  1 <1>   0.0860 
  8 C        5.2350    -2.4330    -0.4360 C.2   1 <1>   0.5440 
  9 O        5.9150    -1.9010    -1.2930 O.2   1 <1>  -0.5700 
 10 N        5.7640    -3.4400     0.3090 N.am  1 <1>  -0.7300 
 11 C        6.6580    -4.5190    -0.2240 C.3   1 <1>   0.1140 
 12 C        5.9180    -5.8720    -0.0870 C.2   1 <1>   0.9060 
 13 C        8.0170    -4.4820     0.5240 C.3   1 <1>  -0.0800 
 14 O        6.1900    -6.8210    -0.8340 O.co2 1 <1>  -0.9000 
 15 O        5.0110    -5.9480     0.7640 O.co2 1 <1>  -0.9000 
 16 C        8.6930    -3.1030     0.4250 C.3   1 <1>  -0.2400 
 17 C        8.9930    -5.5420    -0.0120 C.3   1 <1>  -0.2400 
 18 H        1.8740     0.7460    -0.3900 H     1 <1>   0.1500 
 19 H        0.8560    -3.2020     0.8600 H     1 <1>   0.1500 
 20 H        4.2040     0.0070    -0.8050 H     1 <1>   0.1500 
 21 H        3.1670    -3.9410     0.4400 H     1 <1>   0.1500 
 22 H        5.1340    -3.9090     0.9770 H     1 <1>   0.3700 
 23 H        6.8260    -4.3520    -1.2730 H     1 <1>   0.0800 
 24 H        7.8270    -4.7020     1.5610 H     1 <1>   0.0800 
 25 H        8.8330    -2.8310    -0.6070 H     1 <1>   0.0800 
 26 H        9.6480    -3.1120     0.9170 H     1 <1>   0.0800 
 27 H        8.0840    -2.3500     0.8910 H     1 <1>   0.0800 
 28 H        9.1580    -5.4000    -1.0660 H     1 <1>   0.0800 
 29 H        8.5950    -6.5300     0.1360 H     1 <1>   0.0800 
 30 H        9.9350    -5.4830     0.5010 H     1 <1>   0.0800 
@<TRIPOS>BOND
  1   1   2  1   
  2   2   3  ar  
  3   2   4  ar  
  4   3   5  ar  
  5   3  18  1   
  6   4   6  ar  
  7   4  19  1   
  8   5   7  ar  
  9   5  20  1   
 10   6   7  ar  
 11   6  21  1   
 12   7   8  1   
 13   8   9  2   
 14   8  10  am  
 15  10  11  1   
 16  10  22  1   
 17  11  12  1   
 18  11  13  1   
 19  11  23  1   
 20  12  14  ar  
 21  12  15  ar  
 22  13  16  1   
 23  13  17  1   
 24  13  24  1   
 25  16  25  1   
 26  16  26  1   
 27  16  27  1   
 28  17  28  1   
 29  17  29  1   
 30  17  30  1   
@<TRIPOS>SUBSTRUCTURE
  1 ****   8 GROUP 4 **** **** 0

# MOE 2024.06 (io_trps.svl 2023.06)
