@<TRIPOS>MOLECULE
NONAME
54 56 1 0 0 
SMALL
USER_CHARGES


@<TRIPOS>ATOM
  1 O       -0.1520    -0.0360    -2.5320 O.2   1 <1>  -0.5700 
  2 C        0.0240     1.0460    -2.0250 C.2   1 <1>   0.5690 
  3 N       -1.0020     1.7890    -1.5460 N.am  1 <1>  -0.7300 
  4 C        1.4350     1.5920    -1.9070 C.3   1 <1>   0.0440 
  5 C       -2.4000     1.3270    -1.3970 C.3   1 <1>   0.1400 
  6 C        1.8310     1.8030    -0.4510 C.ar  1 <1>  -0.1430 
  7 C       -3.2490     2.2020    -0.4330 C.3   1 <1>   0.1430 
  8 C        1.9680     3.0810     0.0710 C.ar  1 <1>  -0.1500 
  9 C        2.0440     0.7070     0.3720 C.ar  1 <1>  -0.1500 
 10 C       -4.6760     1.6030    -0.4890 C.ar  1 <1>  -0.1430 
 11 C       -2.6620     2.1760     1.0040 C.3   1 <1>  -0.1600 
 12 C       -3.3020     3.6840    -0.9050 C.3   1 <1>  -0.1600 
 13 C        2.3110     3.2570     1.4000 C.ar  1 <1>  -0.1500 
 14 C        2.3880     0.8810     1.7010 C.ar  1 <1>  -0.1500 
 15 C       -5.4450     1.7850    -1.6350 C.ar  1 <1>  -0.1500 
 16 C       -5.2330     0.8610     0.5510 C.ar  1 <1>  -0.1500 
 17 C       -1.3720     2.9980     1.2020 C.3   1 <1>   0.1200 
 18 C       -2.3680     4.6390    -0.1470 C.3   1 <1>   0.1200 
 19 C        2.5230     2.1640     2.2240 C.ar  1 <1>   0.0830 
 20 C       -6.7230     1.2640    -1.7340 C.ar  1 <1>  -0.1500 
 21 C       -6.5120     0.3380     0.4570 C.ar  1 <1>  -0.1500 
 22 O       -1.2080     3.9610     0.2000 O.3   1 <1>  -0.5600 
 23 O        2.8510     2.4240     3.5140 O.3   1 <1>  -0.3630 
 24 C       -7.2690     0.5400    -0.6910 C.ar  1 <1>   0.0830 
 25 C        3.1580     1.3830     4.4140 C.3   1 <1>   0.0400 
 26 O       -8.5280     0.0660    -0.8640 O.3   1 <1>  -0.3630 
 27 C       -9.1680    -0.6930     0.1370 C.3   1 <1>   0.0400 
 28 H       -0.7990     2.6610    -1.0290 H     1 <1>   0.3700 
 29 H        1.4900     2.5160    -2.4510 H     1 <1>   0.0800 
 30 H        2.1170     0.9000    -2.3650 H     1 <1>   0.0800 
 31 H       -2.3910     0.3110    -1.0390 H     1 <1>   0.0800 
 32 H       -2.8520     1.3160    -2.3730 H     1 <1>   0.0800 
 33 H        1.8000     3.9460    -0.5470 H     1 <1>   0.1500 
 34 H        1.9360    -0.2890    -0.0240 H     1 <1>   0.1500 
 35 H       -2.4690     1.1640     1.3120 H     1 <1>   0.0800 
 36 H       -3.3940     2.5810     1.6800 H     1 <1>   0.0800 
 37 H       -4.2970     4.0720    -0.7800 H     1 <1>   0.0800 
 38 H       -3.0780     3.7420    -1.9550 H     1 <1>   0.0800 
 39 H        2.4140     4.2460     1.8060 H     1 <1>   0.1500 
 40 H        2.5450     0.0110     2.3090 H     1 <1>   0.1500 
 41 H       -5.0570     2.3350    -2.4740 H     1 <1>   0.1500 
 42 H       -4.6900     0.6660     1.4560 H     1 <1>   0.1500 
 43 H       -0.5120     2.3520     1.1690 H     1 <1>   0.0800 
 44 H       -1.3800     3.4990     2.1560 H     1 <1>   0.0800 
 45 H       -2.8300     5.0070     0.7540 H     1 <1>   0.0800 
 46 H       -2.0960     5.4770    -0.7660 H     1 <1>   0.0800 
 47 H       -7.3060     1.4160    -2.6240 H     1 <1>   0.1500 
 48 H       -6.8990    -0.2240     1.2850 H     1 <1>   0.1500 
 49 H        3.4140     1.8260     5.3600 H     1 <1>   0.0800 
 50 H        3.9950     0.8270     4.0320 H     1 <1>   0.0800 
 51 H        2.2940     0.7530     4.5270 H     1 <1>   0.0800 
 52 H      -10.1470    -0.9580    -0.2200 H     1 <1>   0.0800 
 53 H       -9.2540    -0.0940     1.0270 H     1 <1>   0.0800 
 54 H       -8.5930    -1.5820     0.3230 H     1 <1>   0.0800 
@<TRIPOS>BOND
  1   1   2  2   
  2   2   3  am  
  3   2   4  1   
  4   3   5  1   
  5   3  28  1   
  6   4   6  1   
  7   4  29  1   
  8   4  30  1   
  9   5   7  1   
 10   5  31  1   
 11   5  32  1   
 12   6   8  ar  
 13   6   9  ar  
 14   7  10  1   
 15   7  11  1   
 16   7  12  1   
 17   8  13  ar  
 18   8  33  1   
 19   9  14  ar  
 20   9  34  1   
 21  10  15  ar  
 22  10  16  ar  
 23  11  17  1   
 24  11  35  1   
 25  11  36  1   
 26  12  18  1   
 27  12  37  1   
 28  12  38  1   
 29  13  19  ar  
 30  13  39  1   
 31  14  19  ar  
 32  14  40  1   
 33  15  20  ar  
 34  15  41  1   
 35  16  21  ar  
 36  16  42  1   
 37  17  22  1   
 38  17  43  1   
 39  17  44  1   
 40  18  22  1   
 41  18  45  1   
 42  18  46  1   
 43  19  23  1   
 44  20  24  ar  
 45  20  47  1   
 46  21  24  ar  
 47  21  48  1   
 48  23  25  1   
 49  24  26  1   
 50  25  49  1   
 51  25  50  1   
 52  25  51  1   
 53  26  27  1   
 54  27  52  1   
 55  27  53  1   
 56  27  54  1   
@<TRIPOS>SUBSTRUCTURE
  1 ****  11 GROUP 4 **** **** 0

# MOE 2024.06 (io_trps.svl 2023.06)
