@<TRIPOS>MOLECULE
NONAME
46 48 1 0 0 
SMALL
USER_CHARGES


@<TRIPOS>ATOM
  1 CL      -0.4070    -1.7340     2.4980 Cl    1 <1>  -0.1770 
  2 C       -1.4760    -1.6970     1.1060 C.ar  1 <1>   0.1770 
  3 C       -1.1220    -2.3450    -0.0850 C.ar  1 <1>   0.1000 
  4 C       -2.6680    -1.0090     1.2340 C.ar  1 <1>  -0.1500 
  5 N        0.0690    -3.0570    -0.2780 N.pl3 1 <1>  -0.8380 
  6 C       -2.0180    -2.2720    -1.1440 C.ar  1 <1>  -0.1500 
  7 C       -3.5430    -0.9520     0.1620 C.ar  1 <1>  -0.1500 
  8 C        0.1980    -4.3400     0.4770 C.3   1 <1>   0.2090 
  9 C        1.3200    -2.2410    -0.3390 C.3   1 <1>   0.2090 
 10 C       -3.2140    -1.5850    -1.0250 C.ar  1 <1>  -0.1500 
 11 C        1.4010    -5.1640    -0.0290 C.3   1 <1>   0.3430 
 12 C        2.5090    -3.0870    -0.8360 C.3   1 <1>   0.3430 
 13 N        2.6790    -4.3650    -0.0470 N.4   1 <1>  -0.9590 
 14 C        3.8320    -5.1650    -0.5370 C.3   1 <1>   0.4860 
 15 C        5.0910    -4.3390    -0.3640 C.ar  1 <1>  -0.1430 
 16 C        5.6320    -4.1390     0.8980 C.ar  1 <1>  -0.1500 
 17 C        5.7070    -3.7680    -1.4680 C.ar  1 <1>  -0.1500 
 18 C        6.7650    -3.3620     1.0530 C.ar  1 <1>  -0.1500 
 19 C        6.8410    -2.9910    -1.3070 C.ar  1 <1>  -0.1500 
 20 C        7.3740    -2.7800    -0.0470 C.ar  1 <1>  -0.1430 
 21 C        8.6210    -1.9280     0.1260 C.3   1 <1>  -0.0170 
 22 C        9.8790    -2.7930     0.0320 C.3   1 <1>  -0.2400 
 23 H       -2.9090    -0.5230     2.1620 H     1 <1>   0.1500 
 24 H       -1.7710    -2.7590    -2.0690 H     1 <1>   0.1500 
 25 H       -4.4740    -0.4190     0.2510 H     1 <1>   0.1500 
 26 H       -0.7050    -4.9130     0.3540 H     1 <1>   0.0800 
 27 H        0.3180    -4.1380     1.5270 H     1 <1>   0.0800 
 28 H        1.5460    -1.8390     0.6330 H     1 <1>   0.0800 
 29 H        1.1680    -1.4110    -1.0100 H     1 <1>   0.0800 
 30 H       -3.8940    -1.5420    -1.8600 H     1 <1>   0.1500 
 31 H        1.1740    -5.5020    -1.0270 H     1 <1>   0.0800 
 32 H        1.5170    -6.0320     0.5970 H     1 <1>   0.0800 
 33 H        3.4070    -2.4930    -0.7720 H     1 <1>   0.0800 
 34 H        2.3420    -3.3220    -1.8740 H     1 <1>   0.0800 
 35 H        2.9000    -4.0810     0.9160 H     1 <1>   0.4500 
 36 H        3.6980    -5.4190    -1.5760 H     1 <1>   0.0800 
 37 H        3.9240    -6.0760     0.0310 H     1 <1>   0.0800 
 38 H        5.1890    -4.5830     1.7730 H     1 <1>   0.1500 
 39 H        5.3200    -3.9170    -2.4620 H     1 <1>   0.1500 
 40 H        7.1820    -3.2120     2.0350 H     1 <1>   0.1500 
 41 H        7.3150    -2.5520    -2.1690 H     1 <1>   0.1500 
 42 H        8.5950    -1.4340     1.0820 H     1 <1>   0.0800 
 43 H        8.6510    -1.1660    -0.6330 H     1 <1>   0.0800 
 44 H        9.8710    -3.5470     0.7990 H     1 <1>   0.0800 
 45 H       10.7570    -2.1850     0.1560 H     1 <1>   0.0800 
 46 H        9.9270    -3.2780    -0.9270 H     1 <1>   0.0800 
@<TRIPOS>BOND
  1   1   2  1   
  2   2   3  ar  
  3   2   4  ar  
  4   3   5  1   
  5   3   6  ar  
  6   4   7  ar  
  7   4  23  1   
  8   5   8  1   
  9   5   9  1   
 10   6  10  ar  
 11   6  24  1   
 12   7  10  ar  
 13   7  25  1   
 14   8  11  1   
 15   8  26  1   
 16   8  27  1   
 17   9  12  1   
 18   9  28  1   
 19   9  29  1   
 20  10  30  1   
 21  11  13  1   
 22  11  31  1   
 23  11  32  1   
 24  12  13  1   
 25  12  33  1   
 26  12  34  1   
 27  13  14  1   
 28  13  35  1   
 29  14  15  1   
 30  14  36  1   
 31  14  37  1   
 32  15  16  ar  
 33  15  17  ar  
 34  16  18  ar  
 35  16  38  1   
 36  17  19  ar  
 37  17  39  1   
 38  18  20  ar  
 39  18  40  1   
 40  19  20  ar  
 41  19  41  1   
 42  20  21  1   
 43  21  22  1   
 44  21  42  1   
 45  21  43  1   
 46  22  44  1   
 47  22  45  1   
 48  22  46  1   
@<TRIPOS>SUBSTRUCTURE
  1 ****  12 GROUP 4 **** **** 0

# MOE 2024.06 (io_trps.svl 2023.06)
