@<TRIPOS>MOLECULE
NONAME
48 51 1 0 0 
SMALL
USER_CHARGES


@<TRIPOS>ATOM
  1 O        1.0070     0.7690    -1.9390 O.2   1 <1>  -0.5700 
  2 C        1.4230     0.8410    -0.7970 C.2   1 <1>   0.5440 
  3 N        0.8730     1.7470     0.0560 N.am  1 <1>  -0.7300 
  4 C        2.4910    -0.0290    -0.3340 C.ar  1 <1>   0.0860 
  5 C        0.3050     3.0880    -0.3220 C.3   1 <1>   0.1140 
  6 C        2.6820    -1.2940    -0.8890 C.ar  1 <1>  -0.1500 
  7 C        3.3690     0.3620     0.6790 C.ar  1 <1>  -0.1500 
  8 C        1.0840     4.1830     0.4440 C.2   1 <1>   0.9060 
  9 C       -1.2360     3.1270    -0.0860 C.3   1 <1>   0.0000 
 10 C        3.6900    -2.1340    -0.4490 C.ar  1 <1>  -0.1500 
 11 C        4.3780    -0.4740     1.1230 C.ar  1 <1>  -0.1500 
 12 O        1.1770     5.3290    -0.0150 O.co2 1 <1>  -0.9000 
 13 O        1.6550     3.8570     1.5030 O.co2 1 <1>  -0.9000 
 14 C       -1.6000     2.9200     1.4070 C.3   1 <1>  -0.1600 
 15 C       -1.9370     2.0170    -0.9130 C.3   1 <1>  -0.1600 
 16 C       -1.8250     4.4880    -0.5380 C.3   1 <1>  -0.1600 
 17 C        4.5450    -1.7290     0.5620 C.ar  1 <1>  -0.1430 
 18 C       -3.1270     2.9570     1.6150 C.3   1 <1>  -0.0800 
 19 C       -3.4640     2.0480    -0.7140 C.3   1 <1>  -0.0800 
 20 C       -3.3510     4.5350    -0.3400 C.3   1 <1>  -0.0800 
 21 C        5.6490    -2.6510     1.0470 C.3   1 <1>  -0.0970 
 22 C       -3.7810     1.8420     0.7790 C.3   1 <1>  -0.1600 
 23 C       -3.6690     4.3220     1.1520 C.3   1 <1>  -0.1600 
 24 C       -4.0050     3.4150    -1.1680 C.3   1 <1>  -0.1600 
 25 H        1.3130     1.8710     0.9790 H     1 <1>   0.3700 
 26 H        0.4930     3.2550    -1.3660 H     1 <1>   0.0800 
 27 H        2.0240    -1.6140    -1.6770 H     1 <1>   0.1500 
 28 H        3.2660     1.3410     1.1220 H     1 <1>   0.1500 
 29 H        3.8050    -3.1040    -0.8990 H     1 <1>   0.1500 
 30 H        5.0320    -0.1380     1.9080 H     1 <1>   0.1500 
 31 H       -1.2160     1.9760     1.7480 H     1 <1>   0.0800 
 32 H       -1.1380     3.6880     2.0040 H     1 <1>   0.0800 
 33 H       -1.5690     1.0510    -0.6170 H     1 <1>   0.0800 
 34 H       -1.7000     2.1410    -1.9550 H     1 <1>   0.0800 
 35 H       -1.5850     4.6600    -1.5720 H     1 <1>   0.0800 
 36 H       -1.3810     5.2880     0.0290 H     1 <1>   0.0800 
 37 H       -3.3510     2.8110     2.6570 H     1 <1>   0.0800 
 38 H       -3.9180     1.2650    -1.2960 H     1 <1>   0.0800 
 39 H       -3.7260     5.4920    -0.6590 H     1 <1>   0.0800 
 40 H        5.2610    -3.3230     1.7910 H     1 <1>   0.0800 
 41 H        6.4540    -2.0830     1.4780 H     1 <1>   0.0800 
 42 H        6.0420    -3.2260     0.2280 H     1 <1>   0.0800 
 43 H       -4.8460     1.8480     0.9300 H     1 <1>   0.0800 
 44 H       -3.4080     0.8840     1.0980 H     1 <1>   0.0800 
 45 H       -3.2160     5.1060     1.7330 H     1 <1>   0.0800 
 46 H       -4.7320     4.3660     1.3090 H     1 <1>   0.0800 
 47 H       -3.7890     3.5630    -2.2110 H     1 <1>   0.0800 
 48 H       -5.0730     3.4450    -1.0440 H     1 <1>   0.0800 
@<TRIPOS>BOND
  1   1   2  2   
  2   2   3  am  
  3   2   4  1   
  4   3   5  1   
  5   3  25  1   
  6   4   6  ar  
  7   4   7  ar  
  8   5   8  1   
  9   5   9  1   
 10   5  26  1   
 11   6  10  ar  
 12   6  27  1   
 13   7  11  ar  
 14   7  28  1   
 15   8  12  ar  
 16   8  13  ar  
 17   9  14  1   
 18   9  15  1   
 19   9  16  1   
 20  10  17  ar  
 21  10  29  1   
 22  11  17  ar  
 23  11  30  1   
 24  14  18  1   
 25  14  31  1   
 26  14  32  1   
 27  15  19  1   
 28  15  33  1   
 29  15  34  1   
 30  16  20  1   
 31  16  35  1   
 32  16  36  1   
 33  17  21  1   
 34  18  22  1   
 35  18  23  1   
 36  18  37  1   
 37  19  22  1   
 38  19  24  1   
 39  19  38  1   
 40  20  23  1   
 41  20  24  1   
 42  20  39  1   
 43  21  40  1   
 44  21  41  1   
 45  21  42  1   
 46  22  43  1   
 47  22  44  1   
 48  23  45  1   
 49  23  46  1   
 50  24  47  1   
 51  24  48  1   
@<TRIPOS>SUBSTRUCTURE
  1 ****   3 GROUP 4 **** **** 0

# MOE 2024.06 (io_trps.svl 2023.06)
