@<TRIPOS>MOLECULE
NONAME
39 43 1 0 0 
SMALL
USER_CHARGES


@<TRIPOS>ATOM
  1 O        0.5400     1.4470    -1.7020 O.2   1 <1>  -0.5700 
  2 C        0.4470     2.1330    -0.7160 C.2   1 <1>   0.5690 
  3 N        1.4630     2.6400     0.0810 N.am  1 <1>  -0.2370 
  4 C       -0.8570     2.5620    -0.1110 C.3   1 <1>  -0.0190 
  5 C        2.8260     2.2670     0.0150 C.ar  1 <1>   0.1170 
  6 C        0.9240     3.5940     0.9320 C.2   1 <1>   0.5690 
  7 C       -2.3260     2.6330    -0.6050 C.3   1 <1>   0.1530 
  8 C       -0.4400     3.9430     0.4090 C.3   1 <1>  -0.0190 
  9 C        3.8330     3.2140     0.1600 C.ar  1 <1>  -0.1500 
 10 C        3.1930     0.9420    -0.2020 C.ar  1 <1>  -0.1500 
 11 O        1.4260     4.1050     1.8990 O.2   1 <1>  -0.5700 
 12 C       -3.0420     2.6590     0.7540 C.2   1 <1>  -0.2880 
 13 C       -2.6180     4.0240    -1.2510 C.3   1 <1>  -0.1950 
 14 C       -1.6810     4.6730     1.0010 C.3   1 <1>   0.1530 
 15 C        5.1690     2.8590     0.0890 C.ar  1 <1>   0.0830 
 16 C        4.5250     0.5760    -0.2730 C.ar  1 <1>  -0.1500 
 17 C       -2.6800     3.6580     1.5750 C.2   1 <1>  -0.2880 
 18 C       -2.3700     5.1890    -0.3040 C.3   1 <1>  -0.1950 
 19 C       -3.7490     4.9260    -0.8530 C.3   1 <1>  -0.2000 
 20 O        6.0740     3.8590     0.2390 O.3   1 <1>  -0.3630 
 21 C        5.5160     1.5290    -0.1280 C.ar  1 <1>  -0.1500 
 22 C        7.4600     3.6020     0.2230 C.3   1 <1>   0.0400 
 23 H       -0.8950     1.8830     0.7290 H     1 <1>   0.0800 
 24 H       -2.6210     1.7930    -1.2100 H     1 <1>   0.0800 
 25 H       -0.1500     4.5470    -0.4380 H     1 <1>   0.0800 
 26 H        3.5890     4.2460     0.3350 H     1 <1>   0.1500 
 27 H        2.4350     0.1880    -0.3220 H     1 <1>   0.1500 
 28 H       -3.7550     1.8770     0.9500 H     1 <1>   0.1500 
 29 H       -2.2280     4.1090    -2.2520 H     1 <1>   0.1000 
 30 H       -1.4320     5.4720     1.6790 H     1 <1>   0.0800 
 31 H        4.7890    -0.4540    -0.4430 H     1 <1>   0.1500 
 32 H       -3.0400     3.8420     2.5730 H     1 <1>   0.1500 
 33 H       -1.8850     6.0690    -0.6950 H     1 <1>   0.1000 
 34 H       -4.5240     4.5820    -0.1910 H     1 <1>   0.1000 
 35 H       -4.1390     5.6040    -1.5920 H     1 <1>   0.1000 
 36 H        6.5430     1.2210    -0.1880 H     1 <1>   0.1500 
 37 H        7.9740     4.5340     0.3750 H     1 <1>   0.0800 
 38 H        7.7280     3.1890    -0.7330 H     1 <1>   0.0800 
 39 H        7.6980     2.9200     1.0200 H     1 <1>   0.0800 
@<TRIPOS>BOND
  1   1   2  2   
  2   2   3  am  
  3   2   4  1   
  4   3   5  1   
  5   3   6  am  
  6   4   7  1   
  7   4   8  1   
  8   4  23  1   
  9   5   9  ar  
 10   5  10  ar  
 11   6   8  1   
 12   6  11  2   
 13   7  12  1   
 14   7  13  1   
 15   7  24  1   
 16   8  14  1   
 17   8  25  1   
 18   9  15  ar  
 19   9  26  1   
 20  10  16  ar  
 21  10  27  1   
 22  12  17  2   
 23  12  28  1   
 24  13  18  1   
 25  13  19  1   
 26  13  29  1   
 27  14  17  1   
 28  14  18  1   
 29  14  30  1   
 30  15  20  1   
 31  15  21  ar  
 32  16  21  ar  
 33  16  31  1   
 34  17  32  1   
 35  18  19  1   
 36  18  33  1   
 37  19  34  1   
 38  19  35  1   
 39  20  22  1   
 40  21  36  1   
 41  22  37  1   
 42  22  38  1   
 43  22  39  1   
@<TRIPOS>SUBSTRUCTURE
  1 ****   3 GROUP 4 **** **** 0

# MOE 2024.06 (io_trps.svl 2023.06)
