@<TRIPOS>MOLECULE
NONAME
30 31 1 0 0 
SMALL
USER_CHARGES


@<TRIPOS>ATOM
  1 F        0.4730     0.0180     0.1420 F     1 <1>  -0.1900 
  2 C        1.7800    -0.0200     0.1640 C.ar  1 <1>   0.1900 
  3 C        2.4190    -1.2040    -0.1460 C.ar  1 <1>  -0.1500 
  4 C        2.4750     1.1260     0.4980 C.ar  1 <1>  -0.1500 
  5 C        3.8030    -1.2340    -0.1230 C.ar  1 <1>  -0.1500 
  6 C        3.8590     1.0780     0.5180 C.ar  1 <1>  -0.1500 
  7 C        4.5430    -0.0980     0.2060 C.ar  1 <1>   0.1170 
  8 N        5.9520    -0.1310     0.2130 N.am  1 <1>  -0.4770 
  9 C        6.7760    -1.1580     0.5770 C.2   1 <1>   0.5690 
 10 C        6.7490     1.0320    -0.2320 C.3   1 <1>   0.1400 
 11 O        6.4500    -2.2440     0.9850 O.2   1 <1>  -0.5700 
 12 C        8.2230    -0.7890     0.4020 C.3   1 <1>  -0.0990 
 13 C        8.1570     0.4690    -0.4760 C.3   1 <1>  -0.0190 
 14 C        9.2680     1.4750    -0.2140 C.2   1 <1>   0.5690 
 15 O        8.9910     2.6400    -0.0680 O.2   1 <1>  -0.5700 
 16 N       10.5520     1.0300    -0.1670 N.am  1 <1>  -0.7300 
 17 C       11.7430     1.8860     0.0730 C.3   1 <1>   0.0600 
 18 H        1.8470    -2.0790    -0.3970 H     1 <1>   0.1500 
 19 H        1.9430     2.0280     0.7370 H     1 <1>   0.1500 
 20 H        4.3140    -2.1500    -0.3620 H     1 <1>   0.1500 
 21 H        4.4060     1.9630     0.7860 H     1 <1>   0.1500 
 22 H        6.7570     1.7670     0.5550 H     1 <1>   0.0800 
 23 H        6.3380     1.4630    -1.1290 H     1 <1>   0.0800 
 24 H        8.7670    -1.5860    -0.0700 H     1 <1>   0.0800 
 25 H        8.6380    -0.5740     1.3700 H     1 <1>   0.0800 
 26 H        8.2130     0.1770    -1.5090 H     1 <1>   0.0800 
 27 H       10.7480     0.0370    -0.3100 H     1 <1>   0.3700 
 28 H       11.4470     2.9120     0.2130 H     1 <1>   0.0800 
 29 H       12.4080     1.8300    -0.7710 H     1 <1>   0.0800 
 30 H       12.2600     1.5520     0.9560 H     1 <1>   0.0800 
@<TRIPOS>BOND
  1   1   2  1   
  2   2   3  ar  
  3   2   4  ar  
  4   3   5  ar  
  5   3  18  1   
  6   4   6  ar  
  7   4  19  1   
  8   5   7  ar  
  9   5  20  1   
 10   6   7  ar  
 11   6  21  1   
 12   7   8  1   
 13   8   9  am  
 14   8  10  1   
 15   9  11  2   
 16   9  12  1   
 17  10  13  1   
 18  10  22  1   
 19  10  23  1   
 20  12  13  1   
 21  12  24  1   
 22  12  25  1   
 23  13  14  1   
 24  13  26  1   
 25  14  15  2   
 26  14  16  am  
 27  16  17  1   
 28  16  27  1   
 29  17  28  1   
 30  17  29  1   
 31  17  30  1   
@<TRIPOS>SUBSTRUCTURE
  1 ****   8 GROUP 4 **** **** 0

# MOE 2024.06 (io_trps.svl 2023.06)
