@<TRIPOS>MOLECULE
NONAME
43 44 1 0 0 
SMALL
USER_CHARGES


@<TRIPOS>ATOM
  1 S        0.3470    -0.5100    -0.2060 S.o2  1 <1>   1.3330 
  2 O        0.3130    -0.2750    -1.6310 O.2   1 <1>  -0.6500 
  3 O        0.8090    -1.7790     0.3040 O.2   1 <1>  -0.6500 
  4 N        1.3820     0.6770     0.4340 N.am  1 <1>  -0.8490 
  5 C       -1.2510    -0.1310     0.5300 C.3   1 <1>  -0.0550 
  6 C        1.3260     1.9440    -0.3230 C.3   1 <1>   0.1960 
  7 C        2.7670     0.1730     0.5180 C.3   1 <1>   0.1960 
  8 C       -2.3850    -1.0790     0.1040 C.3   1 <1>  -0.2400 
  9 C        2.2670     3.0170     0.2670 C.3   1 <1>   0.3430 
 10 C        3.7380     1.2180     1.1070 C.3   1 <1>   0.3430 
 11 N        3.6910     2.5320     0.3690 N.4   1 <1>  -0.9590 
 12 C        4.6130     3.5220     1.0090 C.3   1 <1>   0.3430 
 13 C        4.7980     4.7870     0.1540 C.3   1 <1>  -0.0800 
 14 C        6.2740     5.2340     0.2100 C.3   1 <1>  -0.0220 
 15 C        3.8820     5.9450     0.6080 C.3   1 <1>  -0.1600 
 16 C        6.4560     6.5940    -0.4350 C.2   1 <1>  -0.2880 
 17 C        4.0010     7.1560    -0.3330 C.3   1 <1>  -0.0220 
 18 C        5.4510     7.4370    -0.6840 C.2   1 <1>  -0.2880 
 19 H       -1.5320     0.8700     0.2680 H     1 <1>   0.0800 
 20 H       -1.1570    -0.1740     1.5990 H     1 <1>   0.0800 
 21 H        0.3180     2.3230    -0.3130 H     1 <1>   0.0800 
 22 H        1.5990     1.7760    -1.3530 H     1 <1>   0.0800 
 23 H        3.1060    -0.1310    -0.4590 H     1 <1>   0.0800 
 24 H        2.7950    -0.6970     1.1550 H     1 <1>   0.0800 
 25 H       -2.5210    -1.0410    -0.9630 H     1 <1>   0.0800 
 26 H       -3.3070    -0.7980     0.5810 H     1 <1>   0.0800 
 27 H       -2.1460    -2.0910     0.3830 H     1 <1>   0.0800 
 28 H        1.9050     3.2870     1.2450 H     1 <1>   0.0800 
 29 H        2.2250     3.8930    -0.3580 H     1 <1>   0.0800 
 30 H        4.7380     0.8180     1.0820 H     1 <1>   0.0800 
 31 H        3.4720     1.3750     2.1400 H     1 <1>   0.0800 
 32 H        4.0280     2.3590    -0.5880 H     1 <1>   0.4500 
 33 H        5.5780     3.0580     1.1360 H     1 <1>   0.0800 
 34 H        4.2520     3.7960     1.9870 H     1 <1>   0.0800 
 35 H        4.5830     4.5590    -0.8760 H     1 <1>   0.0800 
 36 H        6.8870     4.5170    -0.3090 H     1 <1>   0.0800 
 37 H        6.6170     5.2960     1.2290 H     1 <1>   0.0800 
 38 H        4.1760     6.2580     1.5960 H     1 <1>   0.0800 
 39 H        2.8520     5.6500     0.6540 H     1 <1>   0.0800 
 40 H        7.4820     6.8250    -0.6730 H     1 <1>   0.1500 
 41 H        3.5740     8.0210     0.1460 H     1 <1>   0.0800 
 42 H        3.4550     6.9770    -1.2430 H     1 <1>   0.0800 
 43 H        5.5960     8.3950    -1.1570 H     1 <1>   0.1500 
@<TRIPOS>BOND
  1   1   2  2   
  2   1   3  2   
  3   1   4  am  
  4   1   5  1   
  5   4   6  1   
  6   4   7  1   
  7   5   8  1   
  8   5  19  1   
  9   5  20  1   
 10   6   9  1   
 11   6  21  1   
 12   6  22  1   
 13   7  10  1   
 14   7  23  1   
 15   7  24  1   
 16   8  25  1   
 17   8  26  1   
 18   8  27  1   
 19   9  11  1   
 20   9  28  1   
 21   9  29  1   
 22  10  11  1   
 23  10  30  1   
 24  10  31  1   
 25  11  12  1   
 26  11  32  1   
 27  12  13  1   
 28  12  33  1   
 29  12  34  1   
 30  13  14  1   
 31  13  15  1   
 32  13  35  1   
 33  14  16  1   
 34  14  36  1   
 35  14  37  1   
 36  15  17  1   
 37  15  38  1   
 38  15  39  1   
 39  16  18  2   
 40  16  40  1   
 41  17  18  1   
 42  17  41  1   
 43  17  42  1   
 44  18  43  1   
@<TRIPOS>SUBSTRUCTURE
  1 ****   9 GROUP 4 **** **** 0

# MOE 2024.06 (io_trps.svl 2023.06)
