@<TRIPOS>MOLECULE
NONAME
40 42 1 0 0 
SMALL
USER_CHARGES


@<TRIPOS>ATOM
  1 CL      -1.8770     1.9610    -2.3300 Cl    1 <1>  -0.1770 
  2 C       -0.9640     2.6720    -1.0190 C.ar  1 <1>   0.1770 
  3 C       -1.4130     2.5330     0.2860 C.ar  1 <1>  -0.1440 
  4 C        0.1870     3.3750    -1.3180 C.ar  1 <1>  -0.1500 
  5 C       -0.6770     3.1160     1.3090 C.ar  1 <1>  -0.1500 
  6 C       -2.6820     1.7600     0.5860 C.3   1 <1>   0.4870 
  7 C        0.9110     3.9550    -0.2910 C.ar  1 <1>  -0.1500 
  8 C        0.4780     3.8240     1.0180 C.ar  1 <1>  -0.1500 
  9 N       -3.8490     2.5050     0.0410 N.4   1 <1>  -0.9590 
 10 C       -3.9980     3.8720     0.6690 C.3   1 <1>   0.3430 
 11 C       -5.1240     1.7070     0.1510 C.3   1 <1>   0.3430 
 12 C       -5.2140     4.6460     0.1200 C.3   1 <1>   0.2090 
 13 C       -6.3470     2.4680    -0.4040 C.3   1 <1>   0.2090 
 14 N       -6.4530     3.8200     0.2190 N.pl3 1 <1>  -0.8380 
 15 C       -7.6570     4.4880     0.0400 C.ar  1 <1>   0.1000 
 16 C       -8.5140     4.6550     1.1180 C.ar  1 <1>  -0.1500 
 17 C       -8.0300     4.9990    -1.2010 C.ar  1 <1>  -0.1500 
 18 C       -9.7120     5.3170     0.9460 C.ar  1 <1>   0.1770 
 19 C       -9.2340     5.6630    -1.3650 C.ar  1 <1>  -0.1500 
 20 CL     -10.7810     5.5200     2.3110 Cl    1 <1>  -0.1770 
 21 C      -10.0850     5.8260    -0.2840 C.ar  1 <1>  -0.1500 
 22 H        0.5160     3.4660    -2.3390 H     1 <1>   0.1500 
 23 H       -0.9840     3.0250     2.3380 H     1 <1>   0.1500 
 24 H       -2.7890     1.6280     1.6500 H     1 <1>   0.0800 
 25 H       -2.6170     0.7870     0.1260 H     1 <1>   0.0800 
 26 H        1.8120     4.5050    -0.5090 H     1 <1>   0.1500 
 27 H        1.0500     4.2740     1.8140 H     1 <1>   0.1500 
 28 H       -3.6540     2.6490    -0.9600 H     1 <1>   0.4500 
 29 H       -3.1080     4.4550     0.4990 H     1 <1>   0.0800 
 30 H       -4.1250     3.7670     1.7340 H     1 <1>   0.0800 
 31 H       -5.3190     1.4790     1.1860 H     1 <1>   0.0800 
 32 H       -5.0230     0.7750    -0.3810 H     1 <1>   0.0800 
 33 H       -5.0410     4.9200    -0.9070 H     1 <1>   0.0800 
 34 H       -5.3470     5.5520     0.6860 H     1 <1>   0.0800 
 35 H       -7.2430     1.9100    -0.1910 H     1 <1>   0.0800 
 36 H       -6.2650     2.5670    -1.4730 H     1 <1>   0.0800 
 37 H       -8.2460     4.2690     2.0830 H     1 <1>   0.1500 
 38 H       -7.3750     4.8770    -2.0430 H     1 <1>   0.1500 
 39 H       -9.5120     6.0540    -2.3300 H     1 <1>   0.1500 
 40 H      -11.0250     6.3380    -0.3900 H     1 <1>   0.1500 
@<TRIPOS>BOND
  1   1   2  1   
  2   2   3  ar  
  3   2   4  ar  
  4   3   5  ar  
  5   3   6  1   
  6   4   7  ar  
  7   4  22  1   
  8   5   8  ar  
  9   5  23  1   
 10   6   9  1   
 11   6  24  1   
 12   6  25  1   
 13   7   8  ar  
 14   7  26  1   
 15   8  27  1   
 16   9  10  1   
 17   9  11  1   
 18   9  28  1   
 19  10  12  1   
 20  10  29  1   
 21  10  30  1   
 22  11  13  1   
 23  11  31  1   
 24  11  32  1   
 25  12  14  1   
 26  12  33  1   
 27  12  34  1   
 28  13  14  1   
 29  13  35  1   
 30  13  36  1   
 31  14  15  1   
 32  15  16  ar  
 33  15  17  ar  
 34  16  18  ar  
 35  16  37  1   
 36  17  19  ar  
 37  17  38  1   
 38  18  20  1   
 39  18  21  ar  
 40  19  21  ar  
 41  19  39  1   
 42  21  40  1   
@<TRIPOS>SUBSTRUCTURE
  1 ****  12 GROUP 4 **** **** 0

# MOE 2024.06 (io_trps.svl 2023.06)
