@<TRIPOS>MOLECULE
NONAME
42 43 1 0 0 
SMALL
USER_CHARGES


@<TRIPOS>ATOM
  1 O        0.7790     1.6240    -2.4590 O.2   1 <1>  -0.5700 
  2 C        0.6540     2.7100    -1.9420 C.2   1 <1>   0.5690 
  3 N       -0.4610     2.9720    -1.1660 N.am  1 <1>  -0.6600 
  4 C        1.8170     3.7050    -2.1620 C.3   1 <1>   0.2610 
  5 C       -1.3880     1.8620    -0.7940 C.3   1 <1>   0.1400 
  6 C       -0.6660     4.1770    -0.3100 C.3   1 <1>   0.1400 
  7 O        2.2510     4.3360    -0.9610 O.3   1 <1>  -0.3630 
  8 C        1.4640     4.8130    -3.1610 C.3   1 <1>  -0.2400 
  9 C       -1.1210     1.4540     0.6660 C.3   1 <1>   0.3430 
 10 C       -0.4330     3.8090     1.1720 C.3   1 <1>   0.3430 
 11 C        2.7040     3.6460     0.1160 C.ar  1 <1>   0.0820 
 12 N       -1.2510     2.6200     1.6200 N.4   1 <1>  -0.9590 
 13 C        2.9040     2.2680     0.1380 C.ar  1 <1>  -0.1500 
 14 C        2.9400     4.3870     1.2630 C.ar  1 <1>  -0.1500 
 15 C       -0.8350     2.2110     2.9950 C.3   1 <1>   0.2630 
 16 C        3.2920     1.6370     1.3090 C.ar  1 <1>  -0.1440 
 17 C        3.3340     3.7600     2.4310 C.ar  1 <1>  -0.1500 
 18 C        3.5030     2.3870     2.4550 C.ar  1 <1>  -0.1500 
 19 C        3.5150     0.1350     1.3310 C.3   1 <1>  -0.0970 
 20 H        2.6590     3.1590    -2.5480 H     1 <1>   0.0800 
 21 H       -1.2460     1.0080    -1.4340 H     1 <1>   0.0800 
 22 H       -2.4080     2.1850    -0.9120 H     1 <1>   0.0800 
 23 H       -1.6720     4.5370    -0.4390 H     1 <1>   0.0800 
 24 H       -0.0100     4.9780    -0.5940 H     1 <1>   0.0800 
 25 H        0.6330     5.3960    -2.8110 H     1 <1>   0.0800 
 26 H        1.1960     4.3730    -4.1050 H     1 <1>   0.0800 
 27 H        2.3140     5.4530    -3.3150 H     1 <1>   0.0800 
 28 H       -0.1210     1.0530     0.7200 H     1 <1>   0.0800 
 29 H       -1.8060     0.6720     0.9460 H     1 <1>   0.0800 
 30 H       -0.6590     4.6630     1.7880 H     1 <1>   0.0800 
 31 H        0.6100     3.5820     1.3020 H     1 <1>   0.0800 
 32 H       -2.2400     2.9040     1.6360 H     1 <1>   0.4500 
 33 H        2.7740     1.6710    -0.7460 H     1 <1>   0.1500 
 34 H        2.8200     5.4560     1.2360 H     1 <1>   0.1500 
 35 H        0.2040     1.9220     2.9990 H     1 <1>   0.0800 
 36 H       -1.4280     1.3760     3.3340 H     1 <1>   0.0800 
 37 H       -0.9670     3.0280     3.6860 H     1 <1>   0.0800 
 38 H        3.5220     4.3410     3.3190 H     1 <1>   0.1500 
 39 H        3.8190     1.9060     3.3650 H     1 <1>   0.1500 
 40 H        2.9400    -0.3490     0.5610 H     1 <1>   0.0800 
 41 H        3.2280    -0.2770     2.2820 H     1 <1>   0.0800 
 42 H        4.5560    -0.0780     1.1640 H     1 <1>   0.0800 
@<TRIPOS>BOND
  1   1   2  2   
  2   2   3  am  
  3   2   4  1   
  4   3   5  1   
  5   3   6  1   
  6   4   7  1   
  7   4   8  1   
  8   4  20  1   
  9   5   9  1   
 10   5  21  1   
 11   5  22  1   
 12   6  10  1   
 13   6  23  1   
 14   6  24  1   
 15   7  11  1   
 16   8  25  1   
 17   8  26  1   
 18   8  27  1   
 19   9  12  1   
 20   9  28  1   
 21   9  29  1   
 22  10  12  1   
 23  10  30  1   
 24  10  31  1   
 25  11  13  ar  
 26  11  14  ar  
 27  12  15  1   
 28  12  32  1   
 29  13  16  ar  
 30  13  33  1   
 31  14  17  ar  
 32  14  34  1   
 33  15  35  1   
 34  15  36  1   
 35  15  37  1   
 36  16  18  ar  
 37  16  19  1   
 38  17  18  ar  
 39  17  38  1   
 40  18  39  1   
 41  19  40  1   
 42  19  41  1   
 43  19  42  1   
@<TRIPOS>SUBSTRUCTURE
  1 ****  11 GROUP 4 **** **** 0

# MOE 2024.06 (io_trps.svl 2023.06)
