@<TRIPOS>MOLECULE
NONAME
43 45 1 0 0 
SMALL
USER_CHARGES


@<TRIPOS>ATOM
  1 CL      -1.3430     1.1320    -1.2080 Cl    1 <1>  -0.1770 
  2 C        0.0010     2.0010    -0.5070 C.ar  1 <1>   0.1770 
  3 C        0.6860     2.9490    -1.2470 C.ar  1 <1>  -0.1440 
  4 C        0.3580     1.7210     0.7960 C.ar  1 <1>  -0.1500 
  5 C        1.7480     3.6060    -0.6460 C.ar  1 <1>  -0.1500 
  6 C        0.2880     3.2720    -2.6800 C.3   1 <1>  -0.0960 
  7 C        1.4210     2.3870     1.3880 C.ar  1 <1>  -0.1430 
  8 C        2.1510     3.3360     0.6620 C.ar  1 <1>  -0.0090 
  9 C        1.7520     2.0520     2.8380 C.3   1 <1>  -0.0960 
 10 S        3.5670     4.2540     1.3610 S.o2  1 <1>   1.4470 
 11 O        4.3550     3.4210     2.2450 O.2   1 <1>  -0.6500 
 12 O        3.0980     5.5340     1.8440 O.2   1 <1>  -0.6500 
 13 N        4.5510     4.5690     0.0170 N.am  1 <1>  -0.8490 
 14 C        5.5310     5.6360     0.3060 C.3   1 <1>   0.1960 
 15 C        5.2650     3.3600    -0.4520 C.3   1 <1>   0.1960 
 16 C        6.4090     5.9790    -0.9140 C.3   1 <1>   0.2090 
 17 C        6.1020     3.6420    -1.7130 C.3   1 <1>   0.2090 
 18 N        7.0720     4.7520    -1.4590 N.pl3 1 <1>  -0.8380 
 19 C        8.4360     4.5610    -1.3980 C.ar  1 <1>   0.7200 
 20 N        8.8790     3.3040    -1.4310 N.ar  1 <1>  -0.6200 
 21 N        9.1960     5.6510    -1.3060 N.ar  1 <1>  -0.6200 
 22 C       10.1780     3.1410    -1.3750 C.ar  1 <1>   0.1600 
 23 C       10.4910     5.4580    -1.2530 C.ar  1 <1>   0.1600 
 24 C       11.0430     4.2020    -1.2840 C.ar  1 <1>  -0.1500 
 25 H       -0.2060     0.9840     1.3380 H     1 <1>   0.1500 
 26 H        2.2800     4.3550    -1.2070 H     1 <1>   0.1500 
 27 H        0.3430     2.3850    -3.2860 H     1 <1>   0.0800 
 28 H        0.9370     4.0160    -3.1050 H     1 <1>   0.0800 
 29 H       -0.7210     3.6450    -2.7040 H     1 <1>   0.0800 
 30 H        0.9710     1.4660     3.2880 H     1 <1>   0.0800 
 31 H        1.8630     2.9510     3.4180 H     1 <1>   0.0800 
 32 H        2.6670     1.4890     2.8890 H     1 <1>   0.0800 
 33 H        6.1690     5.3350     1.1200 H     1 <1>   0.0800 
 34 H        5.0130     6.5300     0.6080 H     1 <1>   0.0800 
 35 H        4.5550     2.5840    -0.6770 H     1 <1>   0.0800 
 36 H        5.9250     2.9940     0.3180 H     1 <1>   0.0800 
 37 H        7.1320     6.7190    -0.6210 H     1 <1>   0.0800 
 38 H        5.7940     6.4140    -1.6810 H     1 <1>   0.0800 
 39 H        5.4450     3.9290    -2.5150 H     1 <1>   0.0800 
 40 H        6.6040     2.7400    -2.0170 H     1 <1>   0.0800 
 41 H       10.5610     2.1350    -1.4010 H     1 <1>   0.1500 
 42 H       11.1270     6.3240    -1.1820 H     1 <1>   0.1500 
 43 H       12.1060     4.0560    -1.2400 H     1 <1>   0.1500 
@<TRIPOS>BOND
  1   1   2  1   
  2   2   3  ar  
  3   2   4  ar  
  4   3   5  ar  
  5   3   6  1   
  6   4   7  ar  
  7   4  25  1   
  8   5   8  ar  
  9   5  26  1   
 10   6  27  1   
 11   6  28  1   
 12   6  29  1   
 13   7   8  ar  
 14   7   9  1   
 15   8  10  1   
 16   9  30  1   
 17   9  31  1   
 18   9  32  1   
 19  10  11  2   
 20  10  12  2   
 21  10  13  am  
 22  13  14  1   
 23  13  15  1   
 24  14  16  1   
 25  14  33  1   
 26  14  34  1   
 27  15  17  1   
 28  15  35  1   
 29  15  36  1   
 30  16  18  1   
 31  16  37  1   
 32  16  38  1   
 33  17  18  1   
 34  17  39  1   
 35  17  40  1   
 36  18  19  1   
 37  19  20  ar  
 38  19  21  ar  
 39  20  22  ar  
 40  21  23  ar  
 41  22  24  ar  
 42  22  41  1   
 43  23  24  ar  
 44  23  42  1   
 45  24  43  1   
@<TRIPOS>SUBSTRUCTURE
  1 ****  15 GROUP 4 **** **** 0

# MOE 2024.06 (io_trps.svl 2023.06)
