@<TRIPOS>MOLECULE
NONAME
54 57 1 0 0 
SMALL
USER_CHARGES


@<TRIPOS>ATOM
  1 O        0.1860    -0.3030     1.4890 O.3   1 <1>  -0.5600 
  2 C        1.3690    -1.0760     1.5410 C.3   1 <1>   0.3440 
  3 C       -0.9560    -1.1060     1.6820 C.3   1 <1>   0.1200 
  4 C        2.3250    -0.7180     0.4080 C.ar  1 <1>  -0.1440 
  5 C        0.8480    -2.4960     1.4450 C.3   1 <1>  -0.0800 
  6 C       -0.3850    -2.3840     2.2660 C.3   1 <1>  -0.0800 
  7 C        3.6920    -0.8550     0.6000 C.ar  1 <1>  -0.1500 
  8 C        1.8580    -0.2710    -0.8210 C.ar  1 <1>  -0.1500 
  9 C        1.4280    -3.7770     2.0030 C.3   1 <1>   0.1200 
 10 C       -0.9010    -3.8130     2.2150 C.3   1 <1>   0.3440 
 11 C        4.5860    -0.5570    -0.4140 C.ar  1 <1>   0.0830 
 12 C        2.7430     0.0460    -1.8370 C.ar  1 <1>  -0.1500 
 13 O        0.2890    -4.5810     2.2130 O.3   1 <1>  -0.5600 
 14 C       -1.7600    -4.1040     0.9820 C.ar  1 <1>  -0.1440 
 15 O        5.9040    -0.7560    -0.1590 O.3   1 <1>  -0.3630 
 16 C        4.1080    -0.0770    -1.6390 C.ar  1 <1>   0.0830 
 17 C       -3.0730    -3.6520     0.9650 C.ar  1 <1>  -0.1500 
 18 C       -1.2770    -4.7950    -0.1220 C.ar  1 <1>  -0.1500 
 19 C        6.5650    -1.7160    -0.9550 C.3   1 <1>   0.0400 
 20 O        4.9250     0.2900    -2.6560 O.3   1 <1>  -0.3630 
 21 C       -3.8890    -3.8670    -0.1320 C.ar  1 <1>   0.0830 
 22 C       -2.0890    -5.0330    -1.2180 C.ar  1 <1>  -0.1500 
 23 C        5.7070     1.4420    -2.4340 C.3   1 <1>   0.0400 
 24 O       -5.1430    -3.3510    -0.0830 O.3   1 <1>  -0.3630 
 25 C       -3.3990    -4.5880    -1.2270 C.ar  1 <1>   0.0830 
 26 C       -5.4620    -2.3730    -1.0490 C.3   1 <1>   0.0400 
 27 O       -4.1560    -4.8870    -2.3110 O.3   1 <1>  -0.3630 
 28 C       -5.2110    -5.7970    -2.0960 C.3   1 <1>   0.0400 
 29 H        1.8270    -0.8970     2.4990 H     1 <1>   0.0800 
 30 H       -1.4160    -1.2730     0.7230 H     1 <1>   0.0800 
 31 H       -1.6390    -0.6070     2.3480 H     1 <1>   0.0800 
 32 H        0.6080    -2.6800     0.4100 H     1 <1>   0.0800 
 33 H       -0.1400    -2.1800     3.2960 H     1 <1>   0.0800 
 34 H        4.0820    -1.2020     1.5400 H     1 <1>   0.1500 
 35 H        0.8000    -0.1630    -0.9870 H     1 <1>   0.1500 
 36 H        1.9120    -3.6200     2.9520 H     1 <1>   0.0800 
 37 H        2.0920    -4.2670     1.3130 H     1 <1>   0.0800 
 38 H       -1.4510    -4.0570     3.1080 H     1 <1>   0.0800 
 39 H        2.3790     0.3980    -2.7850 H     1 <1>   0.1500 
 40 H       -3.4790    -3.1170     1.8040 H     1 <1>   0.1500 
 41 H       -0.2640    -5.1590    -0.1350 H     1 <1>   0.1500 
 42 H        7.5410    -1.8840    -0.5370 H     1 <1>   0.0800 
 43 H        6.6570    -1.3450    -1.9590 H     1 <1>   0.0800 
 44 H        5.9960    -2.6280    -0.9440 H     1 <1>   0.0800 
 45 H       -1.7110    -5.5720    -2.0670 H     1 <1>   0.1500 
 46 H        6.2460     1.6620    -3.3380 H     1 <1>   0.0800 
 47 H        6.3960     1.2560    -1.6310 H     1 <1>   0.0800 
 48 H        5.0550     2.2610    -2.1840 H     1 <1>   0.0800 
 49 H       -6.4140    -1.9450    -0.7910 H     1 <1>   0.0800 
 50 H       -5.5200    -2.8320    -2.0180 H     1 <1>   0.0800 
 51 H       -4.7010    -1.6130    -1.0400 H     1 <1>   0.0800 
 52 H       -5.6750    -6.0050    -3.0430 H     1 <1>   0.0800 
 53 H       -5.9270    -5.3600    -1.4230 H     1 <1>   0.0800 
 54 H       -4.8080    -6.7020    -1.6750 H     1 <1>   0.0800 
@<TRIPOS>BOND
  1   1   2  1   
  2   1   3  1   
  3   2   4  1   
  4   2   5  1   
  5   2  29  1   
  6   3   6  1   
  7   3  30  1   
  8   3  31  1   
  9   4   7  ar  
 10   4   8  ar  
 11   5   6  1   
 12   5   9  1   
 13   5  32  1   
 14   6  10  1   
 15   6  33  1   
 16   7  11  ar  
 17   7  34  1   
 18   8  12  ar  
 19   8  35  1   
 20   9  13  1   
 21   9  36  1   
 22   9  37  1   
 23  10  13  1   
 24  10  14  1   
 25  10  38  1   
 26  11  15  1   
 27  11  16  ar  
 28  12  16  ar  
 29  12  39  1   
 30  14  17  ar  
 31  14  18  ar  
 32  15  19  1   
 33  16  20  1   
 34  17  21  ar  
 35  17  40  1   
 36  18  22  ar  
 37  18  41  1   
 38  19  42  1   
 39  19  43  1   
 40  19  44  1   
 41  20  23  1   
 42  21  24  1   
 43  21  25  ar  
 44  22  25  ar  
 45  22  45  1   
 46  23  46  1   
 47  23  47  1   
 48  23  48  1   
 49  24  26  1   
 50  25  27  1   
 51  26  49  1   
 52  26  50  1   
 53  26  51  1   
 54  27  28  1   
 55  28  52  1   
 56  28  53  1   
 57  28  54  1   
@<TRIPOS>SUBSTRUCTURE
  1 ****   5 GROUP 4 **** **** 0

# MOE 2024.06 (io_trps.svl 2023.06)
