@<TRIPOS>MOLECULE
NONAME
34 35 1 0 0 
SMALL
USER_CHARGES


@<TRIPOS>ATOM
  1 F       -1.2240     0.3200     1.7500 F     1 <1>  -0.1900 
  2 C       -1.8710    -0.5640     1.0370 C.ar  1 <1>   0.1900 
  3 C       -2.5830    -0.1510    -0.0790 C.ar  1 <1>  -0.1440 
  4 C       -1.8090    -1.8860     1.4340 C.ar  1 <1>  -0.1500 
  5 C       -3.2530    -1.1190    -0.8100 C.ar  1 <1>  -0.1500 
  6 C       -2.6330     1.3130    -0.4900 C.3   1 <1>  -0.0960 
  7 C       -2.4770    -2.8460     0.6890 C.ar  1 <1>  -0.1430 
  8 C       -3.2000    -2.4510    -0.4280 C.ar  1 <1>  -0.1500 
  9 C       -2.4160    -4.3130     1.0870 C.3   1 <1>  -0.0160 
 10 C       -1.4550    -5.1080     0.1800 C.3   1 <1>  -0.0800 
 11 C       -1.4440    -6.5960     0.5680 C.3   1 <1>  -0.1600 
 12 C       -0.0220    -4.5440     0.2230 C.3   1 <1>  -0.1600 
 13 C       -0.4510    -7.3980    -0.2760 C.3   1 <1>   0.3430 
 14 C        0.9470    -5.3800    -0.6130 C.3   1 <1>   0.3430 
 15 N        0.9040    -6.7950    -0.1570 N.4   1 <1>  -0.9060 
 16 H       -1.2450    -2.1440     2.3110 H     1 <1>   0.1500 
 17 H       -3.8220    -0.8400    -1.6810 H     1 <1>   0.1500 
 18 H       -1.6390     1.6730    -0.6860 H     1 <1>   0.0800 
 19 H       -3.0630     1.9000     0.3020 H     1 <1>   0.0800 
 20 H       -3.2270     1.4460    -1.3770 H     1 <1>   0.0800 
 21 H       -3.7330    -3.1810    -1.0120 H     1 <1>   0.1500 
 22 H       -3.4070    -4.7280     1.0180 H     1 <1>   0.0800 
 23 H       -2.1070    -4.3950     2.1150 H     1 <1>   0.0800 
 24 H       -1.8190    -5.0250    -0.8320 H     1 <1>   0.0800 
 25 H       -2.4290    -7.0090     0.4270 H     1 <1>   0.0800 
 26 H       -1.1970    -6.7090     1.6100 H     1 <1>   0.0800 
 27 H        0.3300    -4.4930     1.2380 H     1 <1>   0.0800 
 28 H       -0.0160    -3.5400    -0.1670 H     1 <1>   0.0800 
 29 H       -0.7660    -7.3850    -1.3080 H     1 <1>   0.0800 
 30 H       -0.4340    -8.4230     0.0600 H     1 <1>   0.0800 
 31 H        1.9460    -4.9850    -0.5130 H     1 <1>   0.0800 
 32 H        0.6630    -5.3220    -1.6530 H     1 <1>   0.0800 
 33 H        1.5810    -7.3530    -0.6930 H     1 <1>   0.4500 
 34 H        1.1970    -6.8310     0.8270 H     1 <1>   0.4500 
@<TRIPOS>BOND
  1   1   2  1   
  2   2   3  ar  
  3   2   4  ar  
  4   3   5  ar  
  5   3   6  1   
  6   4   7  ar  
  7   4  16  1   
  8   5   8  ar  
  9   5  17  1   
 10   6  18  1   
 11   6  19  1   
 12   6  20  1   
 13   7   8  ar  
 14   7   9  1   
 15   8  21  1   
 16   9  10  1   
 17   9  22  1   
 18   9  23  1   
 19  10  11  1   
 20  10  12  1   
 21  10  24  1   
 22  11  13  1   
 23  11  25  1   
 24  11  26  1   
 25  12  14  1   
 26  12  27  1   
 27  12  28  1   
 28  13  15  1   
 29  13  29  1   
 30  13  30  1   
 31  14  15  1   
 32  14  31  1   
 33  14  32  1   
 34  15  33  1   
 35  15  34  1   
@<TRIPOS>SUBSTRUCTURE
  1 ****   7 GROUP 4 **** **** 0

# MOE 2024.06 (io_trps.svl 2023.06)
