@<TRIPOS>MOLECULE
NONAME
47 49 1 0 0 
SMALL
USER_CHARGES


@<TRIPOS>ATOM
  1 O       -2.9000     3.4950     1.7910 O.2   1 <1>  -0.5700 
  2 C       -2.6660     2.9780     0.7180 C.2   1 <1>   0.5690 
  3 N       -3.4440     1.9330     0.2690 N.am  1 <1>  -0.6600 
  4 C       -1.4950     3.5330    -0.1370 C.3   1 <1>   0.2610 
  5 C       -3.2340     1.1940    -1.0160 C.3   1 <1>   0.1400 
  6 C       -4.5720     1.3880     1.0830 C.3   1 <1>   0.1400 
  7 O       -0.5240     2.5480    -0.3750 O.3   1 <1>  -0.5600 
  8 C       -0.6820     4.6620     0.4980 C.3   1 <1>  -0.1600 
  9 C       -4.5300     1.1380    -1.8390 C.3   1 <1>   0.1400 
 10 C       -5.8720     1.3300     0.2670 C.3   1 <1>   0.1400 
 11 C        0.3820     2.5150     0.6810 C.3   1 <1>   0.1200 
 12 C        0.4020     3.9240     1.2680 C.3   1 <1>  -0.1600 
 13 N       -5.6730     0.6070    -1.0310 N.am  1 <1>  -0.6600 
 14 C       -6.4930    -0.3790    -1.5250 C.2   1 <1>   0.5690 
 15 O       -6.2740    -0.9000    -2.5950 O.2   1 <1>  -0.5700 
 16 C       -7.7130    -0.8750    -0.7550 C.3   1 <1>   0.0440 
 17 C       -8.7620     0.2050    -0.5000 C.ar  1 <1>  -0.1440 
 18 C       -9.3470     0.3330     0.7520 C.ar  1 <1>  -0.1500 
 19 C       -9.1390     1.0720    -1.5150 C.ar  1 <1>  -0.1500 
 20 C      -10.2860     1.3210     0.9970 C.ar  1 <1>  -0.1440 
 21 C      -10.0780     2.0580    -1.2770 C.ar  1 <1>  -0.1500 
 22 C      -10.6490     2.1840    -0.0230 C.ar  1 <1>  -0.1500 
 23 C      -10.9180     1.4540     2.3710 C.3   1 <1>  -0.0970 
 24 H       -1.8890     3.8500    -1.0850 H     1 <1>   0.0800 
 25 H       -2.9140     0.1910    -0.7950 H     1 <1>   0.0800 
 26 H       -2.4690     1.6540    -1.6130 H     1 <1>   0.0800 
 27 H       -4.7370     1.9930     1.9580 H     1 <1>   0.0800 
 28 H       -4.3170     0.3970     1.4150 H     1 <1>   0.0800 
 29 H       -1.2750     5.3070     1.1230 H     1 <1>   0.0800 
 30 H       -0.2400     5.2520    -0.2850 H     1 <1>   0.0800 
 31 H       -4.3630     0.5260    -2.7080 H     1 <1>   0.0800 
 32 H       -4.7760     2.1290    -2.1800 H     1 <1>   0.0800 
 33 H       -6.2060     2.3330     0.0620 H     1 <1>   0.0800 
 34 H       -6.6230     0.8520     0.8660 H     1 <1>   0.0800 
 35 H        1.3440     2.2160     0.3010 H     1 <1>   0.0800 
 36 H        0.0300     1.7980     1.4040 H     1 <1>   0.0800 
 37 H        0.1660     3.8800     2.3180 H     1 <1>   0.0800 
 38 H        1.3650     4.3870     1.1430 H     1 <1>   0.0800 
 39 H       -7.3760    -1.2980     0.1710 H     1 <1>   0.0800 
 40 H       -8.1740    -1.6660    -1.3180 H     1 <1>   0.0800 
 41 H       -9.0730    -0.3410     1.5440 H     1 <1>   0.1500 
 42 H       -8.7020     0.9830    -2.4960 H     1 <1>   0.1500 
 43 H      -10.3660     2.7280    -2.0680 H     1 <1>   0.1500 
 44 H      -11.3800     2.9540     0.1520 H     1 <1>   0.1500 
 45 H      -10.2360     1.1270     3.1340 H     1 <1>   0.0800 
 46 H      -11.8090     0.8540     2.4200 H     1 <1>   0.0800 
 47 H      -11.1790     2.4790     2.5670 H     1 <1>   0.0800 
@<TRIPOS>BOND
  1   1   2  2   
  2   2   3  am  
  3   2   4  1   
  4   3   5  1   
  5   3   6  1   
  6   4   7  1   
  7   4   8  1   
  8   4  24  1   
  9   5   9  1   
 10   5  25  1   
 11   5  26  1   
 12   6  10  1   
 13   6  27  1   
 14   6  28  1   
 15   7  11  1   
 16   8  12  1   
 17   8  29  1   
 18   8  30  1   
 19   9  13  1   
 20   9  31  1   
 21   9  32  1   
 22  10  13  1   
 23  10  33  1   
 24  10  34  1   
 25  11  12  1   
 26  11  35  1   
 27  11  36  1   
 28  12  37  1   
 29  12  38  1   
 30  13  14  am  
 31  14  15  2   
 32  14  16  1   
 33  16  17  1   
 34  16  39  1   
 35  16  40  1   
 36  17  18  ar  
 37  17  19  ar  
 38  18  20  ar  
 39  18  41  1   
 40  19  21  ar  
 41  19  42  1   
 42  20  22  ar  
 43  20  23  1   
 44  21  22  ar  
 45  21  43  1   
 46  22  44  1   
 47  23  45  1   
 48  23  46  1   
 49  23  47  1   
@<TRIPOS>SUBSTRUCTURE
  1 ****  10 GROUP 4 **** **** 0

# MOE 2024.06 (io_trps.svl 2023.06)
