@<TRIPOS>MOLECULE
NONAME
42 43 1 0 0 
SMALL
USER_CHARGES


@<TRIPOS>ATOM
  1 O        4.0730    -1.4560     1.9750 O.2   1 <1>  -0.5700 
  2 C        3.2360    -1.2220     1.1450 C.2   1 <1>   0.5690 
  3 N        2.0730    -1.8980     1.1510 N.am  1 <1>  -0.8000 
  4 C        3.5090    -0.1700     0.0810 C.3   1 <1>  -0.0190 
  5 C        4.9100     0.4170     0.2980 C.3   1 <1>   0.3430 
  6 C        2.4440     0.9520     0.0740 C.3   1 <1>  -0.1600 
  7 N        5.2900     1.4230    -0.7630 N.4   1 <1>  -0.9590 
  8 C        2.9690     2.2690    -0.5330 C.3   1 <1>  -0.1600 
  9 C        4.1400     2.0440    -1.4920 C.3   1 <1>   0.3430 
 10 C        6.2930     0.8650    -1.7090 C.3   1 <1>   0.4860 
 11 C        7.6080     0.7260    -0.9720 C.ar  1 <1>  -0.1430 
 12 C        8.0170    -0.5090    -0.4920 C.ar  1 <1>  -0.1500 
 13 C        8.4150     1.8370    -0.7680 C.ar  1 <1>  -0.1500 
 14 C        9.2080    -0.6400     0.2020 C.ar  1 <1>  -0.1430 
 15 C        9.6080     1.7140    -0.0800 C.ar  1 <1>  -0.1500 
 16 C       10.0110     0.4760     0.4120 C.ar  1 <1>   0.0830 
 17 C        9.6320    -2.0050     0.7290 C.3   1 <1>  -0.0970 
 18 O       11.1700     0.2970     1.0980 O.3   1 <1>  -0.3630 
 19 C       12.0700     1.3570     1.3360 C.3   1 <1>   0.0400 
 20 H        1.9120    -2.6000     1.8780 H     1 <1>   0.3700 
 21 H        1.3030    -1.7600     0.4960 H     1 <1>   0.3700 
 22 H        3.5050    -0.6760    -0.8670 H     1 <1>   0.0800 
 23 H        5.6320    -0.3820     0.3400 H     1 <1>   0.0800 
 24 H        4.9200     0.8980     1.2630 H     1 <1>   0.0800 
 25 H        2.1140     1.1500     1.0810 H     1 <1>   0.0800 
 26 H        1.5860     0.6130    -0.4810 H     1 <1>   0.0800 
 27 H        5.7920     2.1670    -0.2600 H     1 <1>   0.4500 
 28 H        3.2860     2.9330     0.2520 H     1 <1>   0.0800 
 29 H        2.1680     2.7620    -1.0580 H     1 <1>   0.0800 
 30 H        3.8150     1.3900    -2.2860 H     1 <1>   0.0800 
 31 H        4.4430     2.9820    -1.9290 H     1 <1>   0.0800 
 32 H        6.4290     1.5320    -2.5450 H     1 <1>   0.0800 
 33 H        5.9690    -0.0930    -2.0820 H     1 <1>   0.0800 
 34 H        7.4110    -1.3850    -0.6520 H     1 <1>   0.1500 
 35 H        8.1320     2.8060    -1.1420 H     1 <1>   0.1500 
 36 H       10.2130     2.5890     0.0640 H     1 <1>   0.1500 
 37 H        8.9020    -2.7610     0.5030 H     1 <1>   0.0800 
 38 H        9.7580    -1.9590     1.7960 H     1 <1>   0.0800 
 39 H       10.5700    -2.2890     0.2860 H     1 <1>   0.0800 
 40 H       12.9090     0.9650     1.8830 H     1 <1>   0.0800 
 41 H       11.5750     2.1120     1.9210 H     1 <1>   0.0800 
 42 H       12.4020     1.7520     0.3930 H     1 <1>   0.0800 
@<TRIPOS>BOND
  1   1   2  2   
  2   2   3  am  
  3   2   4  1   
  4   3  20  1   
  5   3  21  1   
  6   4   5  1   
  7   4   6  1   
  8   4  22  1   
  9   5   7  1   
 10   5  23  1   
 11   5  24  1   
 12   6   8  1   
 13   6  25  1   
 14   6  26  1   
 15   7   9  1   
 16   7  10  1   
 17   7  27  1   
 18   8   9  1   
 19   8  28  1   
 20   8  29  1   
 21   9  30  1   
 22   9  31  1   
 23  10  11  1   
 24  10  32  1   
 25  10  33  1   
 26  11  12  ar  
 27  11  13  ar  
 28  12  14  ar  
 29  12  34  1   
 30  13  15  ar  
 31  13  35  1   
 32  14  16  ar  
 33  14  17  1   
 34  15  16  ar  
 35  15  36  1   
 36  16  18  1   
 37  17  37  1   
 38  17  38  1   
 39  17  39  1   
 40  18  19  1   
 41  19  40  1   
 42  19  41  1   
 43  19  42  1   
@<TRIPOS>SUBSTRUCTURE
  1 ****  11 GROUP 4 **** **** 0

# MOE 2024.06 (io_trps.svl 2023.06)
