@<TRIPOS>MOLECULE
NONAME
24 25 1 0 0 
SMALL
USER_CHARGES


@<TRIPOS>ATOM
  1 F        1.2680     0.0430     1.1710 F     1 <1>  -0.3400 
  2 C        1.3640     0.8070     0.0900 C.3   1 <1>   1.1580 
  3 F        0.2760     1.5670     0.0680 F     1 <1>  -0.3400 
  4 F        1.2710    -0.0120    -0.9500 F     1 <1>  -0.3400 
  5 C        2.6870     1.6180     0.0710 C.2   1 <1>  -0.0380 
  6 N        3.9100     0.9420     0.0910 N.pl3 1 <1>  -0.5840 
  7 C        2.6970     2.9860     0.0350 C.2   1 <1>  -0.1360 
  8 C        5.1040     1.6550     0.0740 C.2   1 <1>  -0.0680 
  9 C        3.8970     3.7500     0.0170 C.2   1 <1>   0.6420 
 10 N        6.3940     1.2460     0.0870 N.pl3 1 <1>   0.3140 
 11 C        5.1160     3.0170     0.0380 C.2   1 <1>  -0.0860 
 12 O        3.8610     4.9750    -0.0160 O.2   1 <1>  -0.5700 
 13 N        7.2400     2.3020     0.0610 N.2   1 <1>  -0.7070 
 14 C        6.8970    -0.1320     0.1240 C.3   1 <1>   0.0160 
 15 C        6.4760     3.3450     0.0320 C.2   1 <1>   0.1080 
 16 C        7.0170     4.7570    -0.0040 C.3   1 <1>  -0.0590 
 17 H        3.9350    -0.0880     0.1180 H     1 <1>   0.4000 
 18 H        1.7940     3.5680     0.0180 H     1 <1>   0.1500 
 19 H        6.5450    -0.6130     1.0170 H     1 <1>   0.0800 
 20 H        7.9720    -0.1130     0.1260 H     1 <1>   0.0800 
 21 H        6.5490    -0.6590    -0.7440 H     1 <1>   0.0800 
 22 H        6.6760     5.2540    -0.8930 H     1 <1>   0.0800 
 23 H        8.0920     4.7400    -0.0020 H     1 <1>   0.0800 
 24 H        6.6730     5.3000     0.8560 H     1 <1>   0.0800 
@<TRIPOS>BOND
  1   1   2  1   
  2   2   3  1   
  3   2   4  1   
  4   2   5  1   
  5   5   6  1   
  6   5   7  2   
  7   6   8  1   
  8   6  17  1   
  9   7   9  1   
 10   7  18  1   
 11   8  10  1   
 12   8  11  2   
 13   9  11  1   
 14   9  12  2   
 15  10  13  1   
 16  10  14  1   
 17  11  15  1   
 18  13  15  2   
 19  14  19  1   
 20  14  20  1   
 21  14  21  1   
 22  15  16  1   
 23  16  22  1   
 24  16  23  1   
 25  16  24  1   
@<TRIPOS>SUBSTRUCTURE
  1 ****   8 GROUP 4 **** **** 0

# MOE 2024.06 (io_trps.svl 2023.06)
