@<TRIPOS>MOLECULE
NONAME
44 46 1 0 0 
SMALL
USER_CHARGES


@<TRIPOS>ATOM
  1 O       -1.9790     1.0820     0.0380 O.2   1 <1>  -0.5700 
  2 C       -1.0380     1.7740     0.3390 C.2   1 <1>   0.5690 
  3 N       -1.1220     3.0280     0.8600 N.am  1 <1>  -0.4200 
  4 C        0.4060     1.3320     0.2110 C.3   1 <1>  -0.0190 
  5 C        0.1100     3.5320     1.1400 C.2   1 <1>   0.5690 
  6 C       -2.3880     3.7820     1.0550 C.3   1 <1>   0.1400 
  7 C        1.1990     2.5440     0.7720 C.3   1 <1>  -0.0190 
  8 C        0.7520     0.8900    -1.2240 C.3   1 <1>  -0.0220 
  9 O        0.3300     4.6120     1.6250 O.2   1 <1>  -0.5700 
 10 C       -3.2410     3.1620     2.1690 C.3   1 <1>  -0.0990 
 11 C        2.2560     3.1650    -0.1630 C.3   1 <1>  -0.0220 
 12 C        2.2310     1.0660    -1.5020 C.2   1 <1>  -0.2880 
 13 C       -4.5940     2.7410     1.6420 C.2   1 <1>   0.5690 
 14 C        2.9160     2.1020    -1.0180 C.2   1 <1>  -0.2880 
 15 O       -5.5490     3.4120     1.9400 O.2   1 <1>  -0.5700 
 16 N       -4.6460     1.6380     0.8370 N.am  1 <1>  -0.5470 
 17 C       -5.7160     0.9860     0.2070 C.ar  1 <1>   0.1170 
 18 C       -7.0480     1.1740     0.5590 C.ar  1 <1>  -0.1500 
 19 C       -5.4230     0.0930    -0.8160 C.ar  1 <1>  -0.1500 
 20 C       -8.0640     0.4960    -0.0930 C.ar  1 <1>   0.0820 
 21 C       -6.4290    -0.5910    -1.4750 C.ar  1 <1>  -0.1500 
 22 O       -9.3330     0.7460     0.3220 O.3   1 <1>  -0.3630 
 23 C       -7.7500    -0.3920    -1.1180 C.ar  1 <1>  -0.1500 
 24 C      -10.4410     0.1300    -0.2940 C.3   1 <1>   0.0400 
 25 H        0.5600     0.4940     0.8670 H     1 <1>   0.0800 
 26 H       -2.9310     3.7920     0.1240 H     1 <1>   0.0800 
 27 H       -2.1620     4.8040     1.3070 H     1 <1>   0.0800 
 28 H        1.6910     2.2370     1.6770 H     1 <1>   0.0800 
 29 H        0.2000     1.4710    -1.9440 H     1 <1>   0.0800 
 30 H        0.4730    -0.1420    -1.3510 H     1 <1>   0.0800 
 31 H       -3.3950     3.8980     2.9390 H     1 <1>   0.0800 
 32 H       -2.7580     2.3150     2.6190 H     1 <1>   0.0800 
 33 H        2.9950     3.6720     0.4340 H     1 <1>   0.0800 
 34 H        1.8040     3.8940    -0.8140 H     1 <1>   0.0800 
 35 H        2.6610     0.3040    -2.1330 H     1 <1>   0.1500 
 36 H        3.9630     2.2750    -1.2130 H     1 <1>   0.1500 
 37 H       -3.7260     1.2540     0.5840 H     1 <1>   0.3700 
 38 H       -7.3130     1.8510     1.3490 H     1 <1>   0.1500 
 39 H       -4.3980    -0.0680    -1.1010 H     1 <1>   0.1500 
 40 H       -6.1830    -1.2780    -2.2660 H     1 <1>   0.1500 
 41 H       -8.5140    -0.9330    -1.6430 H     1 <1>   0.1500 
 42 H      -11.3320     0.4870     0.1900 H     1 <1>   0.0800 
 43 H      -10.3590    -0.9360    -0.1720 H     1 <1>   0.0800 
 44 H      -10.4560     0.4010    -1.3350 H     1 <1>   0.0800 
@<TRIPOS>BOND
  1   1   2  2   
  2   2   3  am  
  3   2   4  1   
  4   3   5  am  
  5   3   6  1   
  6   4   7  1   
  7   4   8  1   
  8   4  25  1   
  9   5   7  1   
 10   5   9  2   
 11   6  10  1   
 12   6  26  1   
 13   6  27  1   
 14   7  11  1   
 15   7  28  1   
 16   8  12  1   
 17   8  29  1   
 18   8  30  1   
 19  10  13  1   
 20  10  31  1   
 21  10  32  1   
 22  11  14  1   
 23  11  33  1   
 24  11  34  1   
 25  12  14  2   
 26  12  35  1   
 27  13  15  2   
 28  13  16  am  
 29  14  36  1   
 30  16  17  1   
 31  16  37  1   
 32  17  18  ar  
 33  17  19  ar  
 34  18  20  ar  
 35  18  38  1   
 36  19  21  ar  
 37  19  39  1   
 38  20  22  1   
 39  20  23  ar  
 40  21  23  ar  
 41  21  40  1   
 42  22  24  1   
 43  23  41  1   
 44  24  42  1   
 45  24  43  1   
 46  24  44  1   
@<TRIPOS>SUBSTRUCTURE
  1 ****   1 GROUP 4 **** **** 0

# MOE 2024.06 (io_trps.svl 2023.06)
