@<TRIPOS>MOLECULE
NONAME
53 54 1 0 0 
SMALL
USER_CHARGES


@<TRIPOS>ATOM
  1 O        3.6070    -2.4690     0.2810 O.2   1 <1>  -0.5700 
  2 C        4.2700    -3.4130    -0.0620 C.2   1 <1>   0.6590 
  3 O        5.5690    -3.3290    -0.2970 O.3   1 <1>  -0.4300 
  4 C        3.6510    -4.7870    -0.2480 C.3   1 <1>  -0.0190 
  5 C        6.2730    -2.1160    -0.1500 C.3   1 <1>   0.1200 
  6 C        2.1220    -4.6460    -0.3920 C.3   1 <1>   0.3430 
  7 C        4.0390    -5.7500     0.8920 C.3   1 <1>  -0.1600 
  8 C        7.7370    -2.3750    -0.4880 C.3   1 <1>  -0.2400 
  9 N        1.3590    -5.7780     0.2450 N.4   1 <1>  -0.9590 
 10 C        3.3750    -7.1300     0.7050 C.3   1 <1>  -0.1600 
 11 C        2.0180    -7.0880    -0.0120 C.3   1 <1>   0.3430 
 12 C       -0.0730    -5.8150    -0.1850 C.3   1 <1>   0.3430 
 13 C       -0.8620    -4.6070     0.3290 C.3   1 <1>  -0.0990 
 14 C       -2.3160    -4.7460    -0.0670 C.2   1 <1>   0.5690 
 15 O       -2.6320    -5.7100    -0.7190 O.2   1 <1>  -0.5700 
 16 N       -3.1810    -3.7670     0.3320 N.am  1 <1>  -0.5470 
 17 C       -4.5650    -3.6270     0.1370 C.ar  1 <1>   0.1170 
 18 C       -5.1310    -2.3670     0.2820 C.ar  1 <1>  -0.1500 
 19 C       -5.4040    -4.6890    -0.1780 C.ar  1 <1>  -0.1500 
 20 C       -6.4910    -2.1560     0.1160 C.ar  1 <1>  -0.1430 
 21 C       -6.7610    -4.4910    -0.3470 C.ar  1 <1>  -0.1500 
 22 C       -7.3160    -3.2290    -0.2030 C.ar  1 <1>  -0.1430 
 23 C       -7.0520    -0.7510     0.2850 C.3   1 <1>  -0.0970 
 24 C       -8.8150    -3.0540    -0.3980 C.3   1 <1>  -0.0970 
 25 H        4.0350    -5.1790    -1.1730 H     1 <1>   0.0800 
 26 H        6.1670    -1.7780     0.8680 H     1 <1>   0.0800 
 27 H        5.8460    -1.3870    -0.8190 H     1 <1>   0.0800 
 28 H        1.8820    -4.5850    -1.4410 H     1 <1>   0.0800 
 29 H        1.8020    -3.7230     0.0640 H     1 <1>   0.0800 
 30 H        3.7250    -5.3260     1.8310 H     1 <1>   0.0800 
 31 H        5.1100    -5.8650     0.9350 H     1 <1>   0.0800 
 32 H        8.1500    -3.1090     0.1810 H     1 <1>   0.0800 
 33 H        8.2990    -1.4650    -0.3840 H     1 <1>   0.0800 
 34 H        7.8300    -2.7190    -1.5030 H     1 <1>   0.0800 
 35 H        1.3890    -5.6390     1.2650 H     1 <1>   0.4500 
 36 H        3.2570    -7.5990     1.6670 H     1 <1>   0.0800 
 37 H        4.0290    -7.7660     0.1320 H     1 <1>   0.0800 
 38 H        2.1670    -7.2110    -1.0730 H     1 <1>   0.0800 
 39 H        1.4010    -7.9010     0.3380 H     1 <1>   0.0800 
 40 H       -0.5410    -6.7100     0.1960 H     1 <1>   0.0800 
 41 H       -0.1370    -5.8520    -1.2610 H     1 <1>   0.0800 
 42 H       -0.4840    -3.6980    -0.1000 H     1 <1>   0.0800 
 43 H       -0.8040    -4.5580     1.4000 H     1 <1>   0.0800 
 44 H       -2.7680    -2.9780     0.8250 H     1 <1>   0.3700 
 45 H       -4.4980    -1.5350     0.5250 H     1 <1>   0.1500 
 46 H       -5.0100    -5.6810    -0.2910 H     1 <1>   0.1500 
 47 H       -7.3840    -5.3330    -0.5920 H     1 <1>   0.1500 
 48 H       -6.2750    -0.0490     0.5290 H     1 <1>   0.0800 
 49 H       -7.7790    -0.7380     1.0760 H     1 <1>   0.0800 
 50 H       -7.5200    -0.4300    -0.6280 H     1 <1>   0.0800 
 51 H       -9.0040    -2.3670    -1.2020 H     1 <1>   0.0800 
 52 H       -9.2620    -2.6750     0.5030 H     1 <1>   0.0800 
 53 H       -9.2840    -3.9910    -0.6380 H     1 <1>   0.0800 
@<TRIPOS>BOND
  1   1   2  2   
  2   2   3  1   
  3   2   4  1   
  4   3   5  1   
  5   4   6  1   
  6   4   7  1   
  7   4  25  1   
  8   5   8  1   
  9   5  26  1   
 10   5  27  1   
 11   6   9  1   
 12   6  28  1   
 13   6  29  1   
 14   7  10  1   
 15   7  30  1   
 16   7  31  1   
 17   8  32  1   
 18   8  33  1   
 19   8  34  1   
 20   9  11  1   
 21   9  12  1   
 22   9  35  1   
 23  10  11  1   
 24  10  36  1   
 25  10  37  1   
 26  11  38  1   
 27  11  39  1   
 28  12  13  1   
 29  12  40  1   
 30  12  41  1   
 31  13  14  1   
 32  13  42  1   
 33  13  43  1   
 34  14  15  2   
 35  14  16  am  
 36  16  17  1   
 37  16  44  1   
 38  17  18  ar  
 39  17  19  ar  
 40  18  20  ar  
 41  18  45  1   
 42  19  21  ar  
 43  19  46  1   
 44  20  22  ar  
 45  20  23  1   
 46  21  22  ar  
 47  21  47  1   
 48  22  24  1   
 49  23  48  1   
 50  23  49  1   
 51  23  50  1   
 52  24  51  1   
 53  24  52  1   
 54  24  53  1   
@<TRIPOS>SUBSTRUCTURE
  1 ****  13 GROUP 4 **** **** 0

# MOE 2024.06 (io_trps.svl 2023.06)
