@<TRIPOS>MOLECULE
NONAME
32 33 1 0 0 
SMALL
USER_CHARGES


@<TRIPOS>ATOM
  1 F        1.2700     1.7870     2.1880 F     1 <1>  -0.3400 
  2 C        1.6000     1.7560     0.8920 C.3   1 <1>   0.8180 
  3 F        2.8010     2.3370     0.8810 F     1 <1>  -0.3400 
  4 C        0.5770     2.6470     0.1380 C.2   1 <1>  -0.0380 
  5 C        1.7070     0.2740     0.4240 C.3   1 <1>   0.6800 
  6 N       -0.7600     2.4530     0.4980 N.pl3 1 <1>  -0.6000 
  7 C        0.9970     3.5360    -0.7980 C.2   1 <1>  -0.1360 
  8 F        2.6020    -0.3810     1.1750 F     1 <1>  -0.3400 
  9 F        0.5660    -0.3800     0.6910 F     1 <1>  -0.3400 
 10 C        2.0350     0.0940    -1.0690 C.3   1 <1>   0.6800 
 11 C       -1.9720     2.7990    -0.1360 C.ar  1 <1>   0.1000 
 12 C        0.2750     4.4570    -1.6100 C.2   1 <1>   0.6160 
 13 F        1.0530     0.6080    -1.8150 F     1 <1>  -0.3400 
 14 F        3.1010     0.8220    -1.4180 F     1 <1>  -0.3400 
 15 C        2.2300    -1.3930    -1.4540 C.3   1 <1>   0.6000 
 16 C       -2.1220     3.7670    -1.1460 C.ar  1 <1>   0.1170 
 17 C       -3.0970     2.1160     0.3040 C.ar  1 <1>  -0.1500 
 18 O        0.8820     5.2330    -2.3180 O.2   1 <1>  -0.5700 
 19 N       -1.0780     4.5470    -1.6760 N.am  1 <1>  -0.5470 
 20 F        3.3920    -1.8740    -1.0190 F     1 <1>  -0.3400 
 21 F        2.2830    -1.5640    -2.7750 F     1 <1>  -0.3400 
 22 C       -3.3850     4.0030    -1.6700 C.ar  1 <1>  -0.1500 
 23 C       -4.3510     2.3630    -0.2280 C.ar  1 <1>  -0.1500 
 24 C       -4.4960     3.3100    -1.2200 C.ar  1 <1>  -0.1500 
 25 H       -0.9170     1.9510     1.3830 H     1 <1>   0.4000 
 26 H        2.0480     3.6160    -1.0070 H     1 <1>   0.1500 
 27 H        1.4520    -2.0290    -1.0730 H     1 <1>   0.0800 
 28 H       -3.0060     1.3720     1.0750 H     1 <1>   0.1500 
 29 H       -1.3560     5.2840    -2.3200 H     1 <1>   0.3700 
 30 H       -3.5140     4.7390    -2.4420 H     1 <1>   0.1500 
 31 H       -5.2080     1.8190     0.1290 H     1 <1>   0.1500 
 32 H       -5.4660     3.5100    -1.6410 H     1 <1>   0.1500 
@<TRIPOS>BOND
  1   1   2  1   
  2   2   3  1   
  3   2   4  1   
  4   2   5  1   
  5   4   6  1   
  6   4   7  2   
  7   5   8  1   
  8   5   9  1   
  9   5  10  1   
 10   6  11  1   
 11   6  25  1   
 12   7  12  1   
 13   7  26  1   
 14  10  13  1   
 15  10  14  1   
 16  10  15  1   
 17  11  16  ar  
 18  11  17  ar  
 19  12  18  2   
 20  12  19  am  
 21  15  20  1   
 22  15  21  1   
 23  15  27  1   
 24  16  19  1   
 25  16  22  ar  
 26  17  23  ar  
 27  17  28  1   
 28  19  29  1   
 29  22  24  ar  
 30  22  30  1   
 31  23  24  ar  
 32  23  31  1   
 33  24  32  1   
@<TRIPOS>SUBSTRUCTURE
  1 ****   4 GROUP 4 **** **** 0

# MOE 2024.06 (io_trps.svl 2023.06)
