@<TRIPOS>MOLECULE
NONAME
55 58 1 0 0 
SMALL
USER_CHARGES


@<TRIPOS>ATOM
  1 O       -0.2420     0.4010     0.7290 O.3   1 <1>  -0.3630 
  2 C       -1.0480     1.3350     0.1640 C.ar  1 <1>   0.0830 
  3 C        1.1560     0.4370     0.5450 C.3   1 <1>   0.0400 
  4 C       -2.4040     1.2100     0.4070 C.ar  1 <1>  -0.1500 
  5 C       -0.5860     2.3840    -0.6260 C.ar  1 <1>  -0.1500 
  6 C       -3.3130     2.1140    -0.1260 C.ar  1 <1>   0.1000 
  7 C       -1.4850     3.2910    -1.1620 C.ar  1 <1>  -0.1500 
  8 N       -4.6780     1.9980     0.1110 N.pl3 1 <1>  -0.8380 
  9 C       -2.8380     3.1550    -0.9120 C.ar  1 <1>  -0.1500 
 10 C       -5.1100     2.2600     1.5140 C.3   1 <1>   0.2090 
 11 C       -5.3420     0.8240    -0.5250 C.3   1 <1>   0.2090 
 12 C       -6.6450     2.3800     1.6100 C.3   1 <1>   0.3430 
 13 C       -6.8780     0.9390    -0.4370 C.3   1 <1>   0.3430 
 14 N       -7.3650     1.2150     0.9680 N.4   1 <1>  -0.9590 
 15 C       -8.8460     1.3810     1.0210 C.3   1 <1>   0.4810 
 16 C       -9.3940     2.5750     0.2410 C.2   1 <1>  -0.2540 
 17 C       -8.6660     3.5390    -0.5220 C.2   1 <1>  -0.2880 
 18 C      -11.1050     2.5860     0.4300 C.3   1 <1>   0.1160 
 19 C       -9.6710     4.7180    -1.2490 C.3   1 <1>  -0.0220 
 20 C      -12.4270     3.5290    -0.1350 C.3   1 <1>   0.0000 
 21 C      -10.8890     3.6160    -0.3220 C.3   1 <1>   0.0000 
 22 C      -11.3860     4.5790    -1.0090 C.3   1 <1>   0.0000 
 23 C      -13.2340     4.2580     0.9720 C.3   1 <1>  -0.2400 
 24 C      -13.4190     2.7250    -1.0150 C.3   1 <1>  -0.2400 
 25 H        1.5850    -0.3920     1.0790 H     1 <1>   0.0800 
 26 H        1.5370     1.3620     0.9400 H     1 <1>   0.0800 
 27 H        1.3730     0.3460    -0.5050 H     1 <1>   0.0800 
 28 H       -2.7440     0.3970     1.0170 H     1 <1>   0.1500 
 29 H        0.4600     2.5100    -0.8340 H     1 <1>   0.1500 
 30 H       -1.1300     4.1020    -1.7730 H     1 <1>   0.1500 
 31 H       -3.5380     3.8570    -1.3260 H     1 <1>   0.1500 
 32 H       -4.6590     3.1780     1.8550 H     1 <1>   0.0800 
 33 H       -4.7630     1.4670     2.1540 H     1 <1>   0.0800 
 34 H       -5.0140    -0.0820    -0.0450 H     1 <1>   0.0800 
 35 H       -5.0480     0.7720    -1.5600 H     1 <1>   0.0800 
 36 H       -6.9310     3.3000     1.1320 H     1 <1>   0.0800 
 37 H       -6.9250     2.4580     2.6470 H     1 <1>   0.0800 
 38 H       -7.3180     0.0270    -0.8040 H     1 <1>   0.0800 
 39 H       -7.1850     1.7300    -1.0970 H     1 <1>   0.0800 
 40 H       -7.1290     0.3870     1.5250 H     1 <1>   0.4500 
 41 H       -9.1510     1.4840     2.0490 H     1 <1>   0.0800 
 42 H       -9.3120     0.4880     0.6370 H     1 <1>   0.0800 
 43 H       -7.6120     3.6460    -0.7150 H     1 <1>   0.1500 
 44 H      -11.2180     2.6910     1.4990 H     1 <1>   0.0000 
 45 H       -9.4810     4.7140    -2.3100 H     1 <1>   0.0800 
 46 H       -9.3630     5.6890    -0.8960 H     1 <1>   0.0800 
 47 H      -10.7630     2.9310    -1.2620 H     1 <1>   0.0000 
 48 H      -10.5790     4.2920     0.5710 H     1 <1>   0.0000 
 49 H      -11.7460     4.4350    -2.0170 H     1 <1>   0.0000 
 50 H      -12.5890     4.8380     1.6070 H     1 <1>   0.0800 
 51 H      -13.7600     3.5450     1.5820 H     1 <1>   0.0800 
 52 H      -13.9520     4.9230     0.5270 H     1 <1>   0.0800 
 53 H      -12.9050     2.1990    -1.7990 H     1 <1>   0.0800 
 54 H      -14.1340     3.3880    -1.4670 H     1 <1>   0.0800 
 55 H      -13.9490     2.0060    -0.4160 H     1 <1>   0.0800 
@<TRIPOS>BOND
  1   1   2  1   
  2   1   3  1   
  3   2   4  ar  
  4   2   5  ar  
  5   3  25  1   
  6   3  26  1   
  7   3  27  1   
  8   4   6  ar  
  9   4  28  1   
 10   5   7  ar  
 11   5  29  1   
 12   6   8  1   
 13   6   9  ar  
 14   7   9  ar  
 15   7  30  1   
 16   8  10  1   
 17   8  11  1   
 18   9  31  1   
 19  10  12  1   
 20  10  32  1   
 21  10  33  1   
 22  11  13  1   
 23  11  34  1   
 24  11  35  1   
 25  12  14  1   
 26  12  36  1   
 27  12  37  1   
 28  13  14  1   
 29  13  38  1   
 30  13  39  1   
 31  14  15  1   
 32  14  40  1   
 33  15  16  1   
 34  15  41  1   
 35  15  42  1   
 36  16  17  2   
 37  16  18  1   
 38  17  19  1   
 39  17  43  1   
 40  18  20  1   
 41  18  21  1   
 42  18  44  1   
 43  19  22  1   
 44  19  45  1   
 45  19  46  1   
 46  20  22  1   
 47  20  23  1   
 48  20  24  1   
 49  21  22  1   
 50  21  47  1   
 51  21  48  1   
 52  22  49  1   
 53  23  50  1   
 54  23  51  1   
 55  23  52  1   
 56  24  53  1   
 57  24  54  1   
 58  24  55  1   
@<TRIPOS>SUBSTRUCTURE
  1 ****  13 GROUP 4 **** **** 0

# MOE 2024.06 (io_trps.svl 2023.06)
