@<TRIPOS>MOLECULE
NONAME
47 49 1 0 0 
SMALL
USER_CHARGES


@<TRIPOS>ATOM
  1 O       -1.8120     1.1910     2.1750 O.2   1 <1>  -0.5700 
  2 C       -2.5340     0.7340     1.3270 C.2   1 <1>   0.5690 
  3 N       -3.7840     1.2490     1.2170 N.am  1 <1>  -0.4930 
  4 C       -1.9890    -0.4040     0.4530 C.3   1 <1>  -0.0190 
  5 C       -4.8360     0.9710     0.3360 C.2   1 <1>   0.3520 
  6 C       -1.8450    -0.0340    -1.0360 C.3   1 <1>  -0.1600 
  7 C       -2.7700    -1.7240     0.6160 C.3   1 <1>  -0.1600 
  8 N       -5.7890     0.1710     0.6080 N.2   1 <1>  -0.4100 
  9 C       -5.0650     1.5150    -0.9330 C.2   1 <1>   0.3520 
 10 C       -1.1780    -1.1690    -1.8250 C.3   1 <1>  -0.1600 
 11 C       -2.1130    -2.8590    -0.1830 C.3   1 <1>  -0.1600 
 12 O       -6.5360     0.2060    -0.4570 O.3   1 <1>   0.2420 
 13 N       -6.1280     0.9970    -1.4070 N.2   1 <1>  -0.4100 
 14 N       -4.2780     2.4390    -1.6310 N.am  1 <1>  -0.4930 
 15 C       -1.9550    -2.4830    -1.6620 C.3   1 <1>  -0.1600 
 16 C       -4.2420     3.7950    -1.6130 C.2   1 <1>   0.5690 
 17 O       -3.4270     4.3440    -2.3080 O.2   1 <1>  -0.5700 
 18 C       -5.1860     4.6720    -0.7780 C.3   1 <1>  -0.0190 
 19 C       -4.9990     4.5200     0.7440 C.3   1 <1>  -0.1600 
 20 C       -6.6690     4.5120    -1.1670 C.3   1 <1>  -0.1600 
 21 C       -5.8800     5.5150     1.5110 C.3   1 <1>  -0.1600 
 22 C       -7.5560     5.4970    -0.3910 C.3   1 <1>  -0.1600 
 23 C       -7.3560     5.3550     1.1240 C.3   1 <1>  -0.1600 
 24 H       -4.0100     1.8820     1.9830 H     1 <1>   0.3700 
 25 H       -0.9940    -0.5940     0.8170 H     1 <1>   0.0800 
 26 H       -1.2590     0.8640    -1.1320 H     1 <1>   0.0800 
 27 H       -2.8110     0.1410    -1.4650 H     1 <1>   0.0800 
 28 H       -3.7810    -1.6040     0.2720 H     1 <1>   0.0800 
 29 H       -2.8060    -1.9950     1.6570 H     1 <1>   0.0800 
 30 H       -0.1680    -1.3060    -1.4740 H     1 <1>   0.0800 
 31 H       -1.1300    -0.9070    -2.8680 H     1 <1>   0.0800 
 32 H       -2.7120    -3.7500    -0.1000 H     1 <1>   0.0800 
 33 H       -1.1440    -3.0760     0.2350 H     1 <1>   0.0800 
 34 H       -3.6850     2.0470    -2.3600 H     1 <1>   0.3700 
 35 H       -1.4390    -3.2730    -2.1800 H     1 <1>   0.0800 
 36 H       -2.9290    -2.3800    -2.1090 H     1 <1>   0.0800 
 37 H       -4.9180     5.6880    -1.0160 H     1 <1>   0.0800 
 38 H       -3.9650     4.6800     1.0010 H     1 <1>   0.0800 
 39 H       -5.2770     3.5310     1.0480 H     1 <1>   0.0800 
 40 H       -7.0040     3.5130    -0.9570 H     1 <1>   0.0800 
 41 H       -6.7860     4.6840    -2.2230 H     1 <1>   0.0800 
 42 H       -5.5600     6.5200     1.2930 H     1 <1>   0.0800 
 43 H       -5.7670     5.3580     2.5700 H     1 <1>   0.0800 
 44 H       -8.5890     5.3210    -0.6360 H     1 <1>   0.0800 
 45 H       -7.3160     6.5040    -0.6880 H     1 <1>   0.0800 
 46 H       -7.9450     6.0980     1.6350 H     1 <1>   0.0800 
 47 H       -7.7060     4.3860     1.4390 H     1 <1>   0.0800 
@<TRIPOS>BOND
  1   1   2  2   
  2   2   3  am  
  3   2   4  1   
  4   3   5  1   
  5   3  24  1   
  6   4   6  1   
  7   4   7  1   
  8   4  25  1   
  9   5   8  2   
 10   5   9  1   
 11   6  10  1   
 12   6  26  1   
 13   6  27  1   
 14   7  11  1   
 15   7  28  1   
 16   7  29  1   
 17   8  12  1   
 18   9  13  2   
 19   9  14  1   
 20  10  15  1   
 21  10  30  1   
 22  10  31  1   
 23  11  15  1   
 24  11  32  1   
 25  11  33  1   
 26  12  13  1   
 27  14  16  am  
 28  14  34  1   
 29  15  35  1   
 30  15  36  1   
 31  16  17  2   
 32  16  18  1   
 33  18  19  1   
 34  18  20  1   
 35  18  37  1   
 36  19  21  1   
 37  19  38  1   
 38  19  39  1   
 39  20  22  1   
 40  20  40  1   
 41  20  41  1   
 42  21  23  1   
 43  21  42  1   
 44  21  43  1   
 45  22  23  1   
 46  22  44  1   
 47  22  45  1   
 48  23  46  1   
 49  23  47  1   
@<TRIPOS>SUBSTRUCTURE
  1 ****   9 GROUP 4 **** **** 0

# MOE 2024.06 (io_trps.svl 2023.06)
