@<TRIPOS>MOLECULE
NONAME
28 28 1 0 0 
SMALL
USER_CHARGES


@<TRIPOS>ATOM
  1 O        0.2850     0.0090     0.0490 O.3   1 <1>  -0.3630 
  2 C        1.6410     0.0850     0.0220 C.ar  1 <1>   0.0830 
  3 C       -0.3760    -1.2370     0.0000 C.3   1 <1>   0.1200 
  4 C        2.1920     1.3560     0.0240 C.ar  1 <1>  -0.1500 
  5 C        2.4810    -1.0250    -0.0070 C.ar  1 <1>  -0.1500 
  6 C       -1.8830    -0.9840     0.0340 C.3   1 <1>   0.1200 
  7 C        3.5640     1.5240    -0.0040 C.ar  1 <1>  -0.1500 
  8 C        3.8560    -0.8570    -0.0350 C.ar  1 <1>  -0.1500 
  9 O       -2.5560    -2.1900    -0.1090 O.3   1 <1>  -0.6800 
 10 C        4.4050     0.4230    -0.0330 C.ar  1 <1>   0.0830 
 11 O        5.7400     0.6760    -0.0570 O.3   1 <1>  -0.3630 
 12 C        6.6810    -0.3750    -0.0400 C.3   1 <1>   0.1200 
 13 C        8.0820     0.2330    -0.0620 C.3   1 <1>   0.1200 
 14 O        9.0260    -0.7790     0.0510 O.3   1 <1>  -0.6800 
 15 H       -0.0770    -1.8130     0.8580 H     1 <1>   0.0800 
 16 H       -0.0940    -1.7290    -0.9130 H     1 <1>   0.0800 
 17 H        1.5400     2.2110     0.0470 H     1 <1>   0.1500 
 18 H        2.0870    -2.0230    -0.0080 H     1 <1>   0.1500 
 19 H       -2.1830    -0.3320    -0.7680 H     1 <1>   0.0800 
 20 H       -2.1670    -0.5570     0.9800 H     1 <1>   0.0800 
 21 H        3.9910     2.5110    -0.0030 H     1 <1>   0.1500 
 22 H        4.4790    -1.7310    -0.0590 H     1 <1>   0.1500 
 23 H       -2.4710    -2.5310    -1.0210 H     1 <1>   0.4000 
 24 H        6.5260    -0.9840    -0.9130 H     1 <1>   0.0800 
 25 H        6.5290    -0.9440     0.8600 H     1 <1>   0.0800 
 26 H        8.2190     0.9180     0.7570 H     1 <1>   0.0800 
 27 H        8.2520     0.7410    -0.9960 H     1 <1>   0.0800 
 28 H        9.0290    -1.1540     0.9530 H     1 <1>   0.4000 
@<TRIPOS>BOND
  1   1   2  1   
  2   1   3  1   
  3   2   4  ar  
  4   2   5  ar  
  5   3   6  1   
  6   3  15  1   
  7   3  16  1   
  8   4   7  ar  
  9   4  17  1   
 10   5   8  ar  
 11   5  18  1   
 12   6   9  1   
 13   6  19  1   
 14   6  20  1   
 15   7  10  ar  
 16   7  21  1   
 17   8  10  ar  
 18   8  22  1   
 19   9  23  1   
 20  10  11  1   
 21  11  12  1   
 22  12  13  1   
 23  12  24  1   
 24  12  25  1   
 25  13  14  1   
 26  13  26  1   
 27  13  27  1   
 28  14  28  1   
@<TRIPOS>SUBSTRUCTURE
  1 ****   8 GROUP 4 **** **** 0

# MOE 2024.06 (io_trps.svl 2023.06)
