@<TRIPOS>MOLECULE
NONAME
40 41 1 0 0 
SMALL
USER_CHARGES


@<TRIPOS>ATOM
  1 F       -0.5650    -0.6810     1.3150 F     1 <1>  -0.1900 
  2 C       -1.6780    -1.1200     0.7940 C.ar  1 <1>   0.1900 
  3 C       -2.3090    -2.2000     1.3800 C.ar  1 <1>  -0.1500 
  4 C       -2.1850    -0.4900    -0.3250 C.ar  1 <1>  -0.1500 
  5 C       -3.4920    -2.6600     0.8270 C.ar  1 <1>  -0.1500 
  6 C       -3.3690    -0.9560    -0.8720 C.ar  1 <1>  -0.1500 
  7 C       -4.0300    -2.0360    -0.2950 C.ar  1 <1>  -0.1430 
  8 C       -5.3350    -2.5320    -0.8930 C.3   1 <1>   0.4870 
  9 N       -6.4680    -2.1430     0.0150 N.4   1 <1>  -0.9590 
 10 C       -7.7710    -2.8190    -0.3110 C.3   1 <1>   0.4230 
 11 C       -6.5570    -0.6380     0.0450 C.3   1 <1>   0.2630 
 12 C       -8.8730    -2.3630     0.6600 C.3   1 <1>  -0.1600 
 13 C       -7.6240    -4.3480    -0.2350 C.3   1 <1>  -0.1600 
 14 C      -10.1890    -3.1070     0.4290 C.3   1 <1>   0.3430 
 15 C       -8.9580    -5.0660    -0.4540 C.3   1 <1>   0.3430 
 16 N       -9.9690    -4.5760     0.5220 N.4   1 <1>  -0.9590 
 17 C      -11.2670    -5.3060     0.3340 C.3   1 <1>   0.2630 
 18 H       -1.8730    -2.6650     2.2470 H     1 <1>   0.1500 
 19 H       -1.6560     0.3440    -0.7540 H     1 <1>   0.1500 
 20 H       -3.9720    -3.5100     1.2820 H     1 <1>   0.1500 
 21 H       -3.7570    -0.4660    -1.7500 H     1 <1>   0.1500 
 22 H       -5.2710    -3.6020    -0.9920 H     1 <1>   0.0800 
 23 H       -5.4750    -2.1070    -1.8730 H     1 <1>   0.0800 
 24 H       -6.1630    -2.4320     0.9550 H     1 <1>   0.4500 
 25 H       -8.0650    -2.5490    -1.3140 H     1 <1>   0.0800 
 26 H       -6.8610    -0.2570    -0.9170 H     1 <1>   0.0800 
 27 H       -5.6000    -0.2080     0.2960 H     1 <1>   0.0800 
 28 H       -7.2650    -0.3110     0.7880 H     1 <1>   0.0800 
 29 H       -9.0820    -1.3180     0.5230 H     1 <1>   0.0800 
 30 H       -8.5640    -2.5140     1.6800 H     1 <1>   0.0800 
 31 H       -7.2250    -4.6430     0.7200 H     1 <1>   0.0800 
 32 H       -6.9570    -4.7000    -1.0010 H     1 <1>   0.0800 
 33 H      -10.5820    -2.8590    -0.5450 H     1 <1>   0.0800 
 34 H      -10.9130    -2.7970     1.1670 H     1 <1>   0.0800 
 35 H       -8.8190    -6.1300    -0.3340 H     1 <1>   0.0800 
 36 H       -9.3080    -4.8890    -1.4590 H     1 <1>   0.0800 
 37 H       -9.6430    -4.8000     1.4770 H     1 <1>   0.4500 
 38 H      -11.6700    -5.1170    -0.6480 H     1 <1>   0.0800 
 39 H      -11.9900    -4.9850     1.0680 H     1 <1>   0.0800 
 40 H      -11.1210    -6.3690     0.4460 H     1 <1>   0.0800 
@<TRIPOS>BOND
  1   1   2  1   
  2   2   3  ar  
  3   2   4  ar  
  4   3   5  ar  
  5   3  18  1   
  6   4   6  ar  
  7   4  19  1   
  8   5   7  ar  
  9   5  20  1   
 10   6   7  ar  
 11   6  21  1   
 12   7   8  1   
 13   8   9  1   
 14   8  22  1   
 15   8  23  1   
 16   9  10  1   
 17   9  11  1   
 18   9  24  1   
 19  10  12  1   
 20  10  13  1   
 21  10  25  1   
 22  11  26  1   
 23  11  27  1   
 24  11  28  1   
 25  12  14  1   
 26  12  29  1   
 27  12  30  1   
 28  13  15  1   
 29  13  31  1   
 30  13  32  1   
 31  14  16  1   
 32  14  33  1   
 33  14  34  1   
 34  15  16  1   
 35  15  35  1   
 36  15  36  1   
 37  16  17  1   
 38  16  37  1   
 39  17  38  1   
 40  17  39  1   
 41  17  40  1   
@<TRIPOS>SUBSTRUCTURE
  1 ****   9 GROUP 4 **** **** 0

# MOE 2024.06 (io_trps.svl 2023.06)
