@<TRIPOS>MOLECULE
NONAME
37 38 1 0 0 
SMALL
USER_CHARGES


@<TRIPOS>ATOM
  1 O       -0.3310     0.9210     2.0570 O.3   1 <1>  -0.5600 
  2 C       -1.6210     1.2940     2.4520 C.3   1 <1>   0.1200 
  3 C       -0.2530     0.5610     0.7070 C.3   1 <1>   0.1200 
  4 C       -2.1240     2.4810     1.6110 C.3   1 <1>   0.1100 
  5 C       -0.7030     1.7290    -0.1880 C.3   1 <1>   0.1100 
  6 N       -2.0640     2.1750     0.1640 N.3   1 <1>  -0.8100 
  7 C       -2.4710     3.3240    -0.6590 C.3   1 <1>   0.3100 
  8 C       -3.9100     3.6460    -0.4420 C.1   1 <1>  -0.2000 
  9 C       -5.0540     3.9030    -0.2370 C.1   1 <1>  -0.2000 
 10 C       -6.4900     4.1940     0.0380 C.3   1 <1>   0.4800 
 11 O       -6.5450     5.3600     0.7640 O.3   1 <1>  -0.6800 
 12 C       -7.1270     3.0850     0.8880 C.3   1 <1>  -0.1600 
 13 C       -7.2760     4.4160    -1.2620 C.3   1 <1>  -0.1600 
 14 C       -8.6350     3.2940     1.1280 C.3   1 <1>  -0.1600 
 15 C       -8.7840     4.6300    -1.0310 C.3   1 <1>  -0.1600 
 16 C       -9.3850     3.4900    -0.1970 C.3   1 <1>  -0.1600 
 17 H       -1.5820     1.5640     3.4920 H     1 <1>   0.0800 
 18 H       -2.2770     0.4490     2.3350 H     1 <1>   0.0800 
 19 H       -0.8770    -0.3010     0.5430 H     1 <1>   0.0800 
 20 H        0.7680     0.2990     0.4950 H     1 <1>   0.0800 
 21 H       -1.5220     3.3460     1.8320 H     1 <1>   0.0800 
 22 H       -3.1390     2.6980     1.8960 H     1 <1>   0.0800 
 23 H       -0.6870     1.4090    -1.2150 H     1 <1>   0.0800 
 24 H       -0.0060     2.5420    -0.0760 H     1 <1>   0.0800 
 25 H       -2.3300     3.0860    -1.6990 H     1 <1>   0.0800 
 26 H       -1.8680     4.1840    -0.4190 H     1 <1>   0.0800 
 27 H       -7.4820     5.5450     0.9440 H     1 <1>   0.4000 
 28 H       -6.6070     3.0130     1.8270 H     1 <1>   0.0800 
 29 H       -6.9890     2.1500     0.3760 H     1 <1>   0.0800 
 30 H       -7.1450     3.5480    -1.8840 H     1 <1>   0.0800 
 31 H       -6.8570     5.2530    -1.7930 H     1 <1>   0.0800 
 32 H       -8.7880     4.1520     1.7600 H     1 <1>   0.0800 
 33 H       -9.0350     2.4380     1.6430 H     1 <1>   0.0800 
 34 H       -9.2860     4.6810    -1.9820 H     1 <1>   0.0800 
 35 H       -8.9460     5.5690    -0.5300 H     1 <1>   0.0800 
 36 H      -10.4220     3.6990     0.0040 H     1 <1>   0.0800 
 37 H       -9.3410     2.5760    -0.7660 H     1 <1>   0.0800 
@<TRIPOS>BOND
  1   1   2  1   
  2   1   3  1   
  3   2   4  1   
  4   2  17  1   
  5   2  18  1   
  6   3   5  1   
  7   3  19  1   
  8   3  20  1   
  9   4   6  1   
 10   4  21  1   
 11   4  22  1   
 12   5   6  1   
 13   5  23  1   
 14   5  24  1   
 15   6   7  1   
 16   7   8  1   
 17   7  25  1   
 18   7  26  1   
 19   8   9  3   
 20   9  10  1   
 21  10  11  1   
 22  10  12  1   
 23  10  13  1   
 24  11  27  1   
 25  12  14  1   
 26  12  28  1   
 27  12  29  1   
 28  13  15  1   
 29  13  30  1   
 30  13  31  1   
 31  14  16  1   
 32  14  32  1   
 33  14  33  1   
 34  15  16  1   
 35  15  34  1   
 36  15  35  1   
 37  16  36  1   
 38  16  37  1   
@<TRIPOS>SUBSTRUCTURE
  1 ****   9 GROUP 4 **** **** 0

# MOE 2024.06 (io_trps.svl 2023.06)
