@<TRIPOS>MOLECULE
NONAME
40 42 1 0 0 
SMALL
USER_CHARGES


@<TRIPOS>ATOM
  1 CL      -1.8100     0.1340    -2.4260 Cl    1 <1>  -0.1770 
  2 C       -2.6680     0.8450    -1.0780 C.ar  1 <1>   0.1770 
  3 C       -2.2080     2.0080    -0.4810 C.ar  1 <1>   0.1770 
  4 C       -3.8150     0.2270    -0.6210 C.ar  1 <1>  -0.1500 
  5 CL      -0.7540     2.8000    -1.0530 Cl    1 <1>  -0.1770 
  6 C       -2.8970     2.5630     0.5830 C.ar  1 <1>  -0.1500 
  7 C       -4.5190     0.7720     0.4480 C.ar  1 <1>   0.1000 
  8 C       -4.0470     1.9410     1.0390 C.ar  1 <1>  -0.1500 
  9 N       -5.6820     0.1860     0.9370 N.pl3 1 <1>  -0.8380 
 10 C       -5.7770    -1.2940     1.1360 C.3   1 <1>   0.2090 
 11 C       -6.9890     0.8340     0.6200 C.3   1 <1>   0.2090 
 12 C       -6.5960    -1.9850     0.0250 C.3   1 <1>   0.1100 
 13 C       -7.7390     0.0810    -0.4960 C.3   1 <1>   0.1100 
 14 N       -7.9210    -1.3580    -0.1790 N.3   1 <1>  -0.8100 
 15 C       -8.6690    -2.0510    -1.2710 C.3   1 <1>   0.1710 
 16 C      -10.1550    -1.6900    -1.3390 C.2   1 <1>   0.5690 
 17 O      -10.7370    -1.7700    -2.3950 O.2   1 <1>  -0.5700 
 18 N      -10.7550    -1.2880    -0.1890 N.am  1 <1>  -0.5790 
 19 C      -12.1540    -0.8800    -0.0200 C.3   1 <1>   0.0490 
 20 C      -12.4460     0.2510     0.9080 C.3   1 <1>  -0.2000 
 21 C      -12.8100    -1.1520     1.2920 C.3   1 <1>  -0.2000 
 22 H       -4.1590    -0.6670    -1.1000 H     1 <1>   0.1500 
 23 H       -2.5360     3.4650     1.0440 H     1 <1>   0.1500 
 24 H       -4.5940     2.3530     1.8690 H     1 <1>   0.1500 
 25 H       -6.2480    -1.4830     2.0840 H     1 <1>   0.0800 
 26 H       -4.7890    -1.7180     1.1740 H     1 <1>   0.0800 
 27 H       -6.8250     1.8520     0.3130 H     1 <1>   0.0800 
 28 H       -7.5970     0.8490     1.5070 H     1 <1>   0.0800 
 29 H       -6.7300    -3.0180     0.2950 H     1 <1>   0.0800 
 30 H       -6.0360    -1.9540    -0.8920 H     1 <1>   0.0800 
 31 H       -7.1840     0.1880    -1.4120 H     1 <1>   0.0800 
 32 H       -8.6980     0.5480    -0.6350 H     1 <1>   0.0800 
 33 H       -8.6140    -3.1130    -1.1190 H     1 <1>   0.0800 
 34 H       -8.2170    -1.8310    -2.2230 H     1 <1>   0.0800 
 35 H      -10.1460    -1.2100     0.6300 H     1 <1>   0.3700 
 36 H      -12.7380    -0.9760    -0.9230 H     1 <1>   0.1000 
 37 H      -13.2400     0.9320     0.6560 H     1 <1>   0.1000 
 38 H      -11.6280     0.7360     1.4100 H     1 <1>   0.1000 
 39 H      -12.2460    -1.6500     2.0600 H     1 <1>   0.1000 
 40 H      -13.8510    -1.4240     1.3000 H     1 <1>   0.1000 
@<TRIPOS>BOND
  1   1   2  1   
  2   2   3  ar  
  3   2   4  ar  
  4   3   5  1   
  5   3   6  ar  
  6   4   7  ar  
  7   4  22  1   
  8   6   8  ar  
  9   6  23  1   
 10   7   8  ar  
 11   7   9  1   
 12   8  24  1   
 13   9  10  1   
 14   9  11  1   
 15  10  12  1   
 16  10  25  1   
 17  10  26  1   
 18  11  13  1   
 19  11  27  1   
 20  11  28  1   
 21  12  14  1   
 22  12  29  1   
 23  12  30  1   
 24  13  14  1   
 25  13  31  1   
 26  13  32  1   
 27  14  15  1   
 28  15  16  1   
 29  15  33  1   
 30  15  34  1   
 31  16  17  2   
 32  16  18  am  
 33  18  19  1   
 34  18  35  1   
 35  19  20  1   
 36  19  21  1   
 37  19  36  1   
 38  20  21  1   
 39  20  37  1   
 40  20  38  1   
 41  21  39  1   
 42  21  40  1   
@<TRIPOS>SUBSTRUCTURE
  1 ****  13 GROUP 4 **** **** 0

# MOE 2024.06 (io_trps.svl 2023.06)
