@<TRIPOS>MOLECULE
NONAME
53 54 1 0 0 
SMALL
USER_CHARGES


@<TRIPOS>ATOM
  1 O       -0.3970    -0.3040    -0.9130 O.2   1 <1>  -0.5700 
  2 C       -1.3610    -0.4620    -0.1960 C.2   1 <1>   0.6900 
  3 N       -2.5990    -0.6430    -0.7430 N.am  1 <1>  -0.3680 
  4 N       -1.2120    -0.4590     1.1360 N.am  1 <1>  -0.8000 
  5 N       -3.8130    -0.8160    -0.0810 N.2   1 <1>  -0.5120 
  6 C       -4.9070    -0.9750    -0.7040 C.2   1 <1>   0.3280 
  7 C       -6.2100    -1.1380     0.0670 C.3   1 <1>  -0.0990 
  8 C       -5.0490    -1.0520    -2.2210 C.3   1 <1>  -0.1790 
  9 C       -7.3310    -0.1100    -0.2470 C.3   1 <1>  -0.0800 
 10 C       -7.1520     1.3300     0.3220 C.3   1 <1>   0.0000 
 11 C       -8.6780    -0.7130     0.1960 C.3   1 <1>  -0.0220 
 12 C       -8.3020     2.2130    -0.2190 C.3   1 <1>  -0.0220 
 13 C       -7.1780     1.3610     1.8660 C.3   1 <1>  -0.2400 
 14 C       -5.8290     1.9790    -0.1250 C.3   1 <1>  -0.2400 
 15 C       -9.8440     0.2600     0.0740 C.2   1 <1>  -0.2760 
 16 C       -9.6970     1.5830    -0.1010 C.2   1 <1>  -0.2760 
 17 C      -11.1940    -0.4410     0.1770 C.3   1 <1>  -0.0220 
 18 C      -10.8920     2.5520    -0.2340 C.3   1 <1>   0.1380 
 19 C      -12.3310     0.4290    -0.3590 C.3   1 <1>  -0.1600 
 20 C      -12.2060     1.8540     0.1860 C.3   1 <1>  -0.1600 
 21 C      -10.9920     3.0150    -1.6950 C.3   1 <1>  -0.2400 
 22 C      -10.7510     3.7930     0.6660 C.3   1 <1>  -0.2400 
 23 H       -2.5800    -0.6180    -1.7630 H     1 <1>   0.3700 
 24 H       -0.2980    -0.3280     1.5620 H     1 <1>   0.3700 
 25 H       -2.0320    -0.5880     1.7270 H     1 <1>   0.3700 
 26 H       -6.5700    -2.1260    -0.1570 H     1 <1>   0.0800 
 27 H       -5.9970    -1.1290     1.1200 H     1 <1>   0.0800 
 28 H       -5.7830    -1.7920    -2.4820 H     1 <1>   0.0800 
 29 H       -4.1280    -1.3290    -2.6960 H     1 <1>   0.0800 
 30 H       -5.3640    -0.1000    -2.6060 H     1 <1>   0.0800 
 31 H       -7.3990    -0.0130    -1.3160 H     1 <1>   0.0800 
 32 H       -8.6190    -1.0490     1.2160 H     1 <1>   0.0800 
 33 H       -8.8760    -1.5740    -0.4180 H     1 <1>   0.0800 
 34 H       -8.1280     2.4230    -1.2590 H     1 <1>   0.0800 
 35 H       -8.2560     3.1470     0.3040 H     1 <1>   0.0800 
 36 H       -8.1180     1.0050     2.2480 H     1 <1>   0.0800 
 37 H       -7.0460     2.3670     2.2220 H     1 <1>   0.0800 
 38 H       -6.3900     0.7610     2.2810 H     1 <1>   0.0800 
 39 H       -5.8140     3.0220     0.1390 H     1 <1>   0.0800 
 40 H       -5.7030     1.9020    -1.1890 H     1 <1>   0.0800 
 41 H       -4.9890     1.5190     0.3600 H     1 <1>   0.0800 
 42 H      -11.1830    -1.3590    -0.3840 H     1 <1>   0.0800 
 43 H      -11.3780    -0.6840     1.2090 H     1 <1>   0.0800 
 44 H      -12.2910     0.4450    -1.4330 H     1 <1>   0.0800 
 45 H      -13.2760     0.0060    -0.0690 H     1 <1>   0.0800 
 46 H      -12.2430     1.7970     1.2600 H     1 <1>   0.0800 
 47 H      -13.0520     2.4370    -0.1330 H     1 <1>   0.0800 
 48 H      -10.1290     3.5910    -1.9690 H     1 <1>   0.0800 
 49 H      -11.8650     3.6240    -1.8430 H     1 <1>   0.0800 
 50 H      -11.0470     2.1660    -2.3520 H     1 <1>   0.0800 
 51 H      -11.6720     4.3470     0.6900 H     1 <1>   0.0800 
 52 H       -9.9870     4.4570     0.3060 H     1 <1>   0.0800 
 53 H      -10.5060     3.4930     1.6690 H     1 <1>   0.0800 
@<TRIPOS>BOND
  1   1   2  2   
  2   2   3  am  
  3   2   4  am  
  4   3   5  1   
  5   3  23  1   
  6   4  24  1   
  7   4  25  1   
  8   5   6  2   
  9   6   7  1   
 10   6   8  1   
 11   7   9  1   
 12   7  26  1   
 13   7  27  1   
 14   8  28  1   
 15   8  29  1   
 16   8  30  1   
 17   9  10  1   
 18   9  11  1   
 19   9  31  1   
 20  10  12  1   
 21  10  13  1   
 22  10  14  1   
 23  11  15  1   
 24  11  32  1   
 25  11  33  1   
 26  12  16  1   
 27  12  34  1   
 28  12  35  1   
 29  13  36  1   
 30  13  37  1   
 31  13  38  1   
 32  14  39  1   
 33  14  40  1   
 34  14  41  1   
 35  15  16  2   
 36  15  17  1   
 37  16  18  1   
 38  17  19  1   
 39  17  42  1   
 40  17  43  1   
 41  18  20  1   
 42  18  21  1   
 43  18  22  1   
 44  19  20  1   
 45  19  44  1   
 46  19  45  1   
 47  20  46  1   
 48  20  47  1   
 49  21  48  1   
 50  21  49  1   
 51  21  50  1   
 52  22  51  1   
 53  22  52  1   
 54  22  53  1   
@<TRIPOS>SUBSTRUCTURE
  1 ****   9 GROUP 4 **** **** 0

# MOE 2024.06 (io_trps.svl 2023.06)
