@<TRIPOS>MOLECULE
NONAME
45 47 1 0 0 
SMALL
USER_CHARGES


@<TRIPOS>ATOM
  1 S        0.0740    -0.2730    -0.5290 S.3   1 <1>  -0.0800 
  2 C        1.0050     1.1810    -0.2040 C.2   1 <1>   0.1660 
  3 C       -1.4250     0.5930    -0.2270 C.2   1 <1>  -0.1400 
  4 N        2.3540     1.1950    -0.2620 N.2   1 <1>  -0.5760 
  5 C        0.1990     2.2320     0.1050 C.2   1 <1>  -0.0860 
  6 C       -1.1940     1.8750     0.0790 C.2   1 <1>  -0.1810 
  7 C       -2.7770    -0.0800    -0.3230 C.3   1 <1>   0.3000 
  8 C        2.8920     2.3390    -0.0010 C.2   1 <1>   0.6510 
  9 C        0.8430     3.4680     0.3950 C.2   1 <1>   0.7160 
 10 C       -2.3740     2.7830     0.3690 C.3   1 <1>   0.0210 
 11 O       -3.7670     0.7850     0.1870 O.3   1 <1>  -0.5600 
 12 S        4.6810     2.4140    -0.0430 S.3   1 <1>  -0.3710 
 13 N        2.2190     3.5000     0.3140 N.am  1 <1>  -0.4200 
 14 O        0.2100     4.4660     0.7160 O.2   1 <1>  -0.5700 
 15 C       -3.7020     2.1520    -0.1390 C.3   1 <1>   0.2800 
 16 C        5.2550     0.7070    -0.4640 C.3   1 <1>   0.0700 
 17 C        2.9230     4.7970     0.5010 C.3   1 <1>   0.2780 
 18 C       -4.8960     2.7960     0.5660 C.3   1 <1>  -0.2400 
 19 C       -3.8720     2.3100    -1.6580 C.3   1 <1>  -0.2400 
 20 C        5.3110    -0.1110     0.8250 C.3   1 <1>  -0.2400 
 21 C        3.2310     5.4840    -0.8330 C.2   1 <1>  -0.2760 
 22 C        2.8700     5.0520    -2.0480 C.2   1 <1>  -0.3000 
 23 C        4.0240     6.7690    -0.6550 C.3   1 <1>  -0.1020 
 24 H       -2.7940    -0.9800     0.2660 H     1 <1>   0.0800 
 25 H       -3.0160    -0.3180    -1.3440 H     1 <1>   0.0800 
 26 H       -2.2310     3.7390    -0.1020 H     1 <1>   0.0800 
 27 H       -2.4270     2.9470     1.4300 H     1 <1>   0.0800 
 28 H        6.2310     0.8060    -0.9050 H     1 <1>   0.0800 
 29 H        4.5730     0.2890    -1.1840 H     1 <1>   0.0800 
 30 H        3.8350     4.6400     1.0490 H     1 <1>   0.0800 
 31 H        2.3230     5.4590     1.1020 H     1 <1>   0.0800 
 32 H       -4.8260     2.6450     1.6280 H     1 <1>   0.0800 
 33 H       -5.8140     2.3620     0.2130 H     1 <1>   0.0800 
 34 H       -4.9210     3.8530     0.3710 H     1 <1>   0.0800 
 35 H       -3.0160     1.9360    -2.1890 H     1 <1>   0.0800 
 36 H       -3.9780     3.3500    -1.9080 H     1 <1>   0.0800 
 37 H       -4.7540     1.7920    -1.9900 H     1 <1>   0.0800 
 38 H        5.9750     0.3530     1.5320 H     1 <1>   0.0800 
 39 H        5.6690    -1.1020     0.6120 H     1 <1>   0.0800 
 40 H        4.3300    -0.1890     1.2600 H     1 <1>   0.0800 
 41 H        3.1080     5.5670    -2.9620 H     1 <1>   0.1500 
 42 H        2.3080     4.1570    -2.2480 H     1 <1>   0.1500 
 43 H        3.4730     7.4680    -0.0510 H     1 <1>   0.0800 
 44 H        4.2220     7.2300    -1.6070 H     1 <1>   0.0800 
 45 H        4.9670     6.5630    -0.1790 H     1 <1>   0.0800 
@<TRIPOS>BOND
  1   1   2  1   
  2   1   3  1   
  3   2   4  1   
  4   2   5  2   
  5   3   6  2   
  6   3   7  1   
  7   4   8  2   
  8   5   6  1   
  9   5   9  1   
 10   6  10  1   
 11   7  11  1   
 12   7  24  1   
 13   7  25  1   
 14   8  12  1   
 15   8  13  1   
 16   9  13  am  
 17   9  14  2   
 18  10  15  1   
 19  10  26  1   
 20  10  27  1   
 21  11  15  1   
 22  12  16  1   
 23  13  17  1   
 24  15  18  1   
 25  15  19  1   
 26  16  20  1   
 27  16  28  1   
 28  16  29  1   
 29  17  21  1   
 30  17  30  1   
 31  17  31  1   
 32  18  32  1   
 33  18  33  1   
 34  18  34  1   
 35  19  35  1   
 36  19  36  1   
 37  19  37  1   
 38  20  38  1   
 39  20  39  1   
 40  20  40  1   
 41  21  22  2   
 42  21  23  1   
 43  22  41  1   
 44  22  42  1   
 45  23  43  1   
 46  23  44  1   
 47  23  45  1   
@<TRIPOS>SUBSTRUCTURE
  1 ****   5 GROUP 4 **** **** 0

# MOE 2024.06 (io_trps.svl 2023.06)
