@<TRIPOS>MOLECULE
NONAME
45 47 1 0 0 
SMALL
USER_CHARGES


@<TRIPOS>ATOM
  1 O        0.7600    -0.0210     0.2850 O.3   1 <1>  -0.5600 
  2 C        0.2470     1.1300    -0.3290 C.3   1 <1>   0.1200 
  3 C        1.4530     0.2280     1.4780 C.3   1 <1>   0.1200 
  4 C        1.3810     2.1300    -0.6550 C.3   1 <1>   0.3430 
  5 C        2.6520     1.1720     1.2280 C.3   1 <1>   0.3430 
  6 N        2.7210     1.5890    -0.2220 N.4   1 <1>  -0.9590 
  7 C        3.8840     2.4170    -0.6550 C.3   1 <1>   0.4230 
  8 C        5.1790     1.6100    -0.5400 C.3   1 <1>  -0.1600 
  9 C        3.9970     3.7250     0.1380 C.3   1 <1>  -0.1600 
 10 C        6.3760     2.4380    -1.0080 C.3   1 <1>   0.3430 
 11 C        5.2050     4.5400    -0.3310 C.3   1 <1>   0.3430 
 12 N        6.4420     3.7160    -0.2370 N.4   1 <1>  -0.9590 
 13 C        7.6490     4.5090    -0.6280 C.3   1 <1>   0.4860 
 14 C        8.8760     3.7130    -0.2340 C.ar  1 <1>  -0.1430 
 15 C        9.2500     3.6200     1.1000 C.ar  1 <1>  -0.1500 
 16 C        9.6280     3.0620    -1.2020 C.ar  1 <1>  -0.1500 
 17 C       10.3530     2.8670     1.4610 C.ar  1 <1>  -0.1500 
 18 C       10.7300     2.3100    -0.8370 C.ar  1 <1>  -0.1500 
 19 C       11.0910     2.2090     0.4940 C.ar  1 <1>  -0.1500 
 20 H       -0.4850     1.5750     0.3250 H     1 <1>   0.0800 
 21 H       -0.2530     0.8250    -1.2320 H     1 <1>   0.0800 
 22 H        1.7950    -0.7180     1.8630 H     1 <1>   0.0800 
 23 H        0.7690     0.6520     2.1940 H     1 <1>   0.0800 
 24 H        1.1750     3.0640    -0.1580 H     1 <1>   0.0800 
 25 H        1.3790     2.3180    -1.7170 H     1 <1>   0.0800 
 26 H        3.5560     0.6590     1.5140 H     1 <1>   0.0800 
 27 H        2.5510     2.0360     1.8630 H     1 <1>   0.0800 
 28 H        2.7620     0.6820    -0.7190 H     1 <1>   0.4500 
 29 H        3.7470     2.6680    -1.6960 H     1 <1>   0.0800 
 30 H        5.1150     0.7320    -1.1590 H     1 <1>   0.0800 
 31 H        5.3560     1.2960     0.4730 H     1 <1>   0.0800 
 32 H        4.1030     3.5330     1.1910 H     1 <1>   0.0800 
 33 H        3.1150     4.3220    -0.0080 H     1 <1>   0.0800 
 34 H        6.2860     2.6500    -2.0620 H     1 <1>   0.0800 
 35 H        7.2820     1.8690    -0.8590 H     1 <1>   0.0800 
 36 H        5.3030     5.4240     0.2810 H     1 <1>   0.0800 
 37 H        5.0560     4.8570    -1.3520 H     1 <1>   0.0800 
 38 H        6.6210     3.4700     0.7480 H     1 <1>   0.4500 
 39 H        7.6630     5.4550    -0.1110 H     1 <1>   0.0800 
 40 H        7.6550     4.6980    -1.6900 H     1 <1>   0.0800 
 41 H        8.7040     4.1310     1.8740 H     1 <1>   0.1500 
 42 H        9.3760     3.1300    -2.2470 H     1 <1>   0.1500 
 43 H       10.6470     2.7930     2.4960 H     1 <1>   0.1500 
 44 H       11.3150     1.8030    -1.5870 H     1 <1>   0.1500 
 45 H       11.9510     1.6250     0.7770 H     1 <1>   0.1500 
@<TRIPOS>BOND
  1   1   2  1   
  2   1   3  1   
  3   2   4  1   
  4   2  20  1   
  5   2  21  1   
  6   3   5  1   
  7   3  22  1   
  8   3  23  1   
  9   4   6  1   
 10   4  24  1   
 11   4  25  1   
 12   5   6  1   
 13   5  26  1   
 14   5  27  1   
 15   6   7  1   
 16   6  28  1   
 17   7   8  1   
 18   7   9  1   
 19   7  29  1   
 20   8  10  1   
 21   8  30  1   
 22   8  31  1   
 23   9  11  1   
 24   9  32  1   
 25   9  33  1   
 26  10  12  1   
 27  10  34  1   
 28  10  35  1   
 29  11  12  1   
 30  11  36  1   
 31  11  37  1   
 32  12  13  1   
 33  12  38  1   
 34  13  14  1   
 35  13  39  1   
 36  13  40  1   
 37  14  15  ar  
 38  14  16  ar  
 39  15  17  ar  
 40  15  41  1   
 41  16  18  ar  
 42  16  42  1   
 43  17  19  ar  
 44  17  43  1   
 45  18  19  ar  
 46  18  44  1   
 47  19  45  1   
@<TRIPOS>SUBSTRUCTURE
  1 ****   8 GROUP 4 **** **** 0

# MOE 2024.06 (io_trps.svl 2023.06)
