@<TRIPOS>MOLECULE
NONAME
55 57 1 0 0 
SMALL
USER_CHARGES


@<TRIPOS>ATOM
  1 O       -0.1310    -0.2690     0.0440 O.2   1 <1>  -0.5700 
  2 C       -0.0940     0.9110     0.3260 C.2   1 <1>   0.6900 
  3 N        1.0490     1.6450     0.2070 N.am  1 <1>  -0.5470 
  4 N       -1.2050     1.5660     0.7820 N.am  1 <1>  -0.5470 
  5 C        2.3770     1.2950    -0.0980 C.ar  1 <1>   0.1170 
  6 C       -2.5330     1.1300     0.9010 C.ar  1 <1>   0.1170 
  7 C        3.2460     2.3110    -0.5120 C.ar  1 <1>   0.0830 
  8 C        2.8660    -0.0010     0.0120 C.ar  1 <1>  -0.1500 
  9 C       -3.0750     0.1360     0.0920 C.ar  1 <1>  -0.1500 
 10 C       -3.3540     1.7160     1.8560 C.ar  1 <1>  -0.1500 
 11 O        2.7320     3.5780    -0.5940 O.3   1 <1>  -0.3630 
 12 C        4.5710     2.0130    -0.8180 C.ar  1 <1>  -0.1500 
 13 C        4.1830    -0.2990    -0.2900 C.ar  1 <1>   0.0830 
 14 C       -4.3890    -0.2670     0.2380 C.ar  1 <1>  -0.1500 
 15 C       -4.6720     1.3210     2.0050 C.ar  1 <1>  -0.1500 
 16 C        3.5030     4.6430    -1.1070 C.3   1 <1>   0.0400 
 17 C        5.0380     0.7150    -0.7090 C.ar  1 <1>  -0.1500 
 18 O        4.5650    -1.5960    -0.1510 O.3   1 <1>  -0.3620 
 19 C       -5.2000     0.3260     1.1950 C.ar  1 <1>  -0.1430 
 20 C        5.8740    -2.0120    -0.4720 C.3   1 <1>   0.0400 
 21 C       -6.6440    -0.1110     1.3520 C.3   1 <1>   0.4860 
 22 N       -7.4250     0.3810     0.1850 N.4   1 <1>  -0.9590 
 23 C       -7.4600     1.8740     0.1340 C.3   1 <1>   0.3430 
 24 C       -8.7900    -0.2170     0.1490 C.3   1 <1>   0.3430 
 25 C       -8.1500     2.3290    -1.1530 C.3   1 <1>  -0.1600 
 26 C       -9.5010     0.2010    -1.1400 C.3   1 <1>  -0.1600 
 27 C       -9.5540     1.7260    -1.2920 C.3   1 <1>  -0.1600 
 28 H        0.9150     2.6530     0.1590 H     1 <1>   0.3700 
 29 H       -0.9960     2.4490     1.2360 H     1 <1>   0.3700 
 30 H        2.2260    -0.7990     0.3370 H     1 <1>   0.1500 
 31 H       -2.4610    -0.3310    -0.6580 H     1 <1>   0.1500 
 32 H       -2.9560     2.4840     2.4940 H     1 <1>   0.1500 
 33 H        5.2570     2.7730    -1.1390 H     1 <1>   0.1500 
 34 H       -4.7580    -1.0510    -0.4000 H     1 <1>   0.1500 
 35 H       -5.2720     1.7940     2.7640 H     1 <1>   0.1500 
 36 H        2.8890     5.5260    -1.1210 H     1 <1>   0.0800 
 37 H        3.8140     4.4000    -2.1080 H     1 <1>   0.0800 
 38 H        4.3530     4.8010    -0.4660 H     1 <1>   0.0800 
 39 H        6.0650     0.5150    -0.9500 H     1 <1>   0.1500 
 40 H        5.9370    -3.0720    -0.3000 H     1 <1>   0.0800 
 41 H        6.5700    -1.4970     0.1660 H     1 <1>   0.0800 
 42 H        6.0640    -1.7980    -1.5080 H     1 <1>   0.0800 
 43 H       -7.0530     0.2820     2.2680 H     1 <1>   0.0800 
 44 H       -6.6820    -1.1880     1.3950 H     1 <1>   0.0800 
 45 H       -6.9200     0.0760    -0.6550 H     1 <1>   0.4500 
 46 H       -6.4560     2.2700     0.1590 H     1 <1>   0.0800 
 47 H       -7.9980     2.2570     0.9860 H     1 <1>   0.0800 
 48 H       -9.3610     0.1230     0.9980 H     1 <1>   0.0800 
 49 H       -8.7260    -1.2930     0.1890 H     1 <1>   0.0800 
 50 H       -7.5450     2.0510    -1.9990 H     1 <1>   0.0800 
 51 H       -8.2230     3.4030    -1.1510 H     1 <1>   0.0800 
 52 H      -10.5040    -0.1900    -1.1310 H     1 <1>   0.0800 
 53 H       -8.9950    -0.2350    -1.9850 H     1 <1>   0.0800 
 54 H       -9.9690     1.9850    -2.2520 H     1 <1>   0.0800 
 55 H      -10.2000     2.1410    -0.5350 H     1 <1>   0.0800 
@<TRIPOS>BOND
  1   1   2  2   
  2   2   3  am  
  3   2   4  am  
  4   3   5  1   
  5   3  28  1   
  6   4   6  1   
  7   4  29  1   
  8   5   7  ar  
  9   5   8  ar  
 10   6   9  ar  
 11   6  10  ar  
 12   7  11  1   
 13   7  12  ar  
 14   8  13  ar  
 15   8  30  1   
 16   9  14  ar  
 17   9  31  1   
 18  10  15  ar  
 19  10  32  1   
 20  11  16  1   
 21  12  17  ar  
 22  12  33  1   
 23  13  17  ar  
 24  13  18  1   
 25  14  19  ar  
 26  14  34  1   
 27  15  19  ar  
 28  15  35  1   
 29  16  36  1   
 30  16  37  1   
 31  16  38  1   
 32  17  39  1   
 33  18  20  1   
 34  19  21  1   
 35  20  40  1   
 36  20  41  1   
 37  20  42  1   
 38  21  22  1   
 39  21  43  1   
 40  21  44  1   
 41  22  23  1   
 42  22  24  1   
 43  22  45  1   
 44  23  25  1   
 45  23  46  1   
 46  23  47  1   
 47  24  26  1   
 48  24  48  1   
 49  24  49  1   
 50  25  27  1   
 51  25  50  1   
 52  25  51  1   
 53  26  27  1   
 54  26  52  1   
 55  26  53  1   
 56  27  54  1   
 57  27  55  1   
@<TRIPOS>SUBSTRUCTURE
  1 ****   4 GROUP 4 **** **** 0

# MOE 2024.06 (io_trps.svl 2023.06)
