@<TRIPOS>MOLECULE
NONAME
26 27 1 0 0 
SMALL
USER_CHARGES


@<TRIPOS>ATOM
  1 CL      -1.0770    -0.7050    -0.1090 Cl    1 <1>  -0.1770 
  2 C       -2.1630     0.6640    -0.1120 C.ar  1 <1>   0.1770 
  3 C       -2.9690     0.9170     0.9830 C.ar  1 <1>   0.1600 
  4 C       -2.2130     1.4920    -1.2110 C.ar  1 <1>  -0.1500 
  5 N       -3.8210     1.9310     1.0660 N.ar  1 <1>  -0.6200 
  6 C       -3.0950     2.5490    -1.1340 C.ar  1 <1>  -0.1500 
  7 C       -3.8750     2.7340     0.0100 C.ar  1 <1>   0.4270 
  8 N       -4.7790     3.7620     0.1650 N.am  1 <1>  -0.5470 
  9 C       -5.1760     4.8030    -0.6210 C.2   1 <1>   0.5690 
 10 O       -4.7240     5.0210    -1.7200 O.2   1 <1>  -0.5700 
 11 C       -6.2610     5.7350    -0.0630 C.3   1 <1>   0.2610 
 12 O       -6.5830     5.4370     1.2710 O.3   1 <1>  -0.5600 
 13 C       -7.5980     5.6330    -0.7890 C.3   1 <1>  -0.1600 
 14 C       -7.8380     5.9490     1.5870 C.3   1 <1>   0.1200 
 15 C       -8.6060     6.0500     0.2700 C.3   1 <1>  -0.1600 
 16 H       -2.9070     0.2520     1.8260 H     1 <1>   0.1500 
 17 H       -1.5960     1.3170    -2.0740 H     1 <1>   0.1500 
 18 H       -3.1760     3.2270    -1.9620 H     1 <1>   0.1500 
 19 H       -5.2440     3.7400     1.0750 H     1 <1>   0.3700 
 20 H       -5.9030     6.7490    -0.0890 H     1 <1>   0.0800 
 21 H       -7.7680     4.6120    -1.0850 H     1 <1>   0.0800 
 22 H       -7.6220     6.2610    -1.6620 H     1 <1>   0.0800 
 23 H       -7.7030     6.9190     2.0360 H     1 <1>   0.0800 
 24 H       -8.3140     5.2830     2.2850 H     1 <1>   0.0800 
 25 H       -9.4660     5.4040     0.2720 H     1 <1>   0.0800 
 26 H       -8.9320     7.0650     0.1180 H     1 <1>   0.0800 
@<TRIPOS>BOND
  1   1   2  1   
  2   2   3  ar  
  3   2   4  ar  
  4   3   5  ar  
  5   3  16  1   
  6   4   6  ar  
  7   4  17  1   
  8   5   7  ar  
  9   6   7  ar  
 10   6  18  1   
 11   7   8  1   
 12   8   9  am  
 13   8  19  1   
 14   9  10  2   
 15   9  11  1   
 16  11  12  1   
 17  11  13  1   
 18  11  20  1   
 19  12  14  1   
 20  13  15  1   
 21  13  21  1   
 22  13  22  1   
 23  14  15  1   
 24  14  23  1   
 25  14  24  1   
 26  15  25  1   
 27  15  26  1   
@<TRIPOS>SUBSTRUCTURE
  1 ****   8 GROUP 4 **** **** 0

# MOE 2024.06 (io_trps.svl 2023.06)
