@<TRIPOS>MOLECULE
NONAME
53 54 1 0 0 
SMALL
USER_CHARGES


@<TRIPOS>ATOM
  1 S       -0.4660     1.8880    -2.1980 S.o2  1 <1>   1.4470 
  2 O        0.8780     1.9640    -2.7260 O.2   1 <1>  -0.6500 
  3 O       -1.5740     2.2840    -3.0370 O.2   1 <1>  -0.6500 
  4 N       -0.4680     2.9030    -0.7880 N.am  1 <1>  -0.6930 
  5 C       -0.7670     0.2220    -1.5460 C.ar  1 <1>  -0.0090 
  6 C       -1.6020     3.5770    -0.3370 C.ar  1 <1>   0.1990 
  7 C        0.7750     2.8960     0.0470 C.3   1 <1>   0.2570 
  8 C       -1.7880    -0.0270    -0.6330 C.ar  1 <1>  -0.1500 
  9 C        0.0210    -0.8510    -1.9510 C.ar  1 <1>  -0.1500 
 10 C       -2.1160     3.3560     0.9370 C.ar  1 <1>  -0.1500 
 11 C       -2.2440     4.5060    -1.1480 C.ar  1 <1>  -0.1500 
 12 C        1.0890     1.5370     0.6970 C.2   1 <1>   0.5690 
 13 C       -2.0020    -1.2940    -0.1160 C.ar  1 <1>  -0.1500 
 14 C       -0.1840    -2.1240    -1.4480 C.ar  1 <1>  -0.1500 
 15 C       -3.2340     4.0370     1.3840 C.ar  1 <1>  -0.1500 
 16 C       -3.3640     5.1880    -0.7060 C.ar  1 <1>  -0.1500 
 17 O        0.3280     1.1590     1.5600 O.2   1 <1>  -0.5700 
 18 N        2.1720     0.7690     0.3270 N.am  1 <1>  -0.6600 
 19 C       -1.1900    -2.3380    -0.5260 C.ar  1 <1>   0.1010 
 20 C       -3.8670     4.9560     0.5640 C.ar  1 <1>  -0.1430 
 21 C        2.2490    -0.6560     0.7610 C.3   1 <1>   0.1400 
 22 C        3.2820     1.2250    -0.5560 C.3   1 <1>   0.1400 
 23 S       -1.3830    -4.0120     0.1050 S.3   1 <1>  -0.3320 
 24 C       -5.0940     5.7060     1.0480 C.3   1 <1>  -0.0970 
 25 C        3.1950    -0.7980     1.9490 C.3   1 <1>  -0.2400 
 26 C        4.2100     2.1660     0.2110 C.3   1 <1>  -0.2400 
 27 C       -2.7110    -3.9430     1.3870 C.3   1 <1>  -0.0100 
 28 H        0.6660     3.6150     0.8380 H     1 <1>   0.0800 
 29 H        1.5950     3.2230    -0.5610 H     1 <1>   0.0800 
 30 H       -2.4210     0.7840    -0.3150 H     1 <1>   0.1500 
 31 H        0.8100    -0.6880    -2.6660 H     1 <1>   0.1500 
 32 H       -1.6450     2.6430     1.5870 H     1 <1>   0.1500 
 33 H       -1.8630     4.6960    -2.1350 H     1 <1>   0.1500 
 34 H       -2.7910    -1.4440     0.5940 H     1 <1>   0.1500 
 35 H        0.4310    -2.9480    -1.7640 H     1 <1>   0.1500 
 36 H       -3.6100     3.8460     2.3740 H     1 <1>   0.1500 
 37 H       -3.8410     5.8990    -1.3560 H     1 <1>   0.1500 
 38 H        2.5840    -1.2700    -0.0580 H     1 <1>   0.0800 
 39 H        1.2700    -1.0060     1.0440 H     1 <1>   0.0800 
 40 H        2.8920     1.7250    -1.4240 H     1 <1>   0.0800 
 41 H        3.8440     0.3750    -0.9040 H     1 <1>   0.0800 
 42 H       -5.7700     5.8850     0.2310 H     1 <1>   0.0800 
 43 H       -4.8010     6.6500     1.4700 H     1 <1>   0.0800 
 44 H       -5.6130     5.1360     1.7980 H     1 <1>   0.0800 
 45 H        4.2040    -0.5640     1.6640 H     1 <1>   0.0800 
 46 H        3.1710    -1.8110     2.3060 H     1 <1>   0.0800 
 47 H        2.8820    -0.1490     2.7470 H     1 <1>   0.0800 
 48 H        3.6860     3.0420     0.5420 H     1 <1>   0.0800 
 49 H        5.0150     2.4770    -0.4310 H     1 <1>   0.0800 
 50 H        4.6340     1.6670     1.0630 H     1 <1>   0.0800 
 51 H       -2.8090    -4.9280     1.8050 H     1 <1>   0.0800 
 52 H       -3.6230    -3.6400     0.9050 H     1 <1>   0.0800 
 53 H       -2.4090    -3.2370     2.1400 H     1 <1>   0.0800 
@<TRIPOS>BOND
  1   1   2  2   
  2   1   3  2   
  3   1   4  am  
  4   1   5  1   
  5   4   6  1   
  6   4   7  1   
  7   5   8  ar  
  8   5   9  ar  
  9   6  10  ar  
 10   6  11  ar  
 11   7  12  1   
 12   7  28  1   
 13   7  29  1   
 14   8  13  ar  
 15   8  30  1   
 16   9  14  ar  
 17   9  31  1   
 18  10  15  ar  
 19  10  32  1   
 20  11  16  ar  
 21  11  33  1   
 22  12  17  2   
 23  12  18  am  
 24  13  19  ar  
 25  13  34  1   
 26  14  19  ar  
 27  14  35  1   
 28  15  20  ar  
 29  15  36  1   
 30  16  20  ar  
 31  16  37  1   
 32  18  21  1   
 33  18  22  1   
 34  19  23  1   
 35  20  24  1   
 36  21  25  1   
 37  21  38  1   
 38  21  39  1   
 39  22  26  1   
 40  22  40  1   
 41  22  41  1   
 42  23  27  1   
 43  24  42  1   
 44  24  43  1   
 45  24  44  1   
 46  25  45  1   
 47  25  46  1   
 48  25  47  1   
 49  26  48  1   
 50  26  49  1   
 51  26  50  1   
 52  27  51  1   
 53  27  52  1   
 54  27  53  1   
@<TRIPOS>SUBSTRUCTURE
  1 ****   5 GROUP 4 **** **** 0

# MOE 2024.06 (io_trps.svl 2023.06)
