@<TRIPOS>MOLECULE
NONAME
32 32 1 0 0 
SMALL
USER_CHARGES


@<TRIPOS>ATOM
  1 BR       0.1480     0.8640    -2.2080 Br    1 <1>  -0.1110 
  2 C        1.6690     1.4600    -1.1920 C.ar  1 <1>   0.1110 
  3 C        1.6120     2.6870    -0.5620 C.ar  1 <1>  -0.1500 
  4 C        2.7810     0.6470    -1.1160 C.ar  1 <1>  -0.1500 
  5 C        2.7130     3.1080     0.1660 C.ar  1 <1>  -0.1500 
  6 C        3.8710     1.0860    -0.3830 C.ar  1 <1>  -0.1500 
  7 C        3.8570     2.3180     0.2680 C.ar  1 <1>  -0.0090 
  8 S        5.3050     2.8840     1.2030 S.o2  1 <1>   1.4470 
  9 O        5.0760     4.1690     1.8160 O.2   1 <1>  -0.6500 
 10 O        5.8960     1.8040     1.9590 O.2   1 <1>  -0.6500 
 11 N        6.4250     3.2620     0.0100 N.am  1 <1>  -0.9140 
 12 C        7.7640     3.4500     0.5660 C.3   1 <1>   0.1960 
 13 C        8.8090     3.6120    -0.5540 C.3   1 <1>   0.3430 
 14 N       10.2200     3.7190    -0.0390 N.4   1 <1>  -0.9590 
 15 C       11.1480     4.0920    -1.1530 C.3   1 <1>   0.2630 
 16 C       10.6850     2.4480     0.6080 C.3   1 <1>   0.2630 
 17 H        0.7280     3.2950    -0.6400 H     1 <1>   0.1500 
 18 H        2.7920    -0.3050    -1.6180 H     1 <1>   0.1500 
 19 H        2.6780     4.0630     0.6640 H     1 <1>   0.1500 
 20 H        4.7460     0.4600    -0.3110 H     1 <1>   0.1500 
 21 H        6.0840     4.1660    -0.3220 H     1 <1>   0.4200 
 22 H        8.0230     2.5840     1.1500 H     1 <1>   0.0800 
 23 H        7.7670     4.3150     1.2100 H     1 <1>   0.0800 
 24 H        8.5670     4.4980    -1.1170 H     1 <1>   0.0800 
 25 H        8.7340     2.7630    -1.2150 H     1 <1>   0.0800 
 26 H       10.2560     4.4740     0.6650 H     1 <1>   0.4500 
 27 H       11.1460     3.3290    -1.9150 H     1 <1>   0.0800 
 28 H       12.1540     4.2030    -0.7810 H     1 <1>   0.0800 
 29 H       10.8450     5.0260    -1.5990 H     1 <1>   0.0800 
 30 H       10.6400     1.6300    -0.0940 H     1 <1>   0.0800 
 31 H       10.0680     2.2050     1.4580 H     1 <1>   0.0800 
 32 H       11.7030     2.5520     0.9480 H     1 <1>   0.0800 
@<TRIPOS>BOND
  1   1   2  1   
  2   2   3  ar  
  3   2   4  ar  
  4   3   5  ar  
  5   3  17  1   
  6   4   6  ar  
  7   4  18  1   
  8   5   7  ar  
  9   5  19  1   
 10   6   7  ar  
 11   6  20  1   
 12   7   8  1   
 13   8   9  2   
 14   8  10  2   
 15   8  11  am  
 16  11  12  1   
 17  11  21  1   
 18  12  13  1   
 19  12  22  1   
 20  12  23  1   
 21  13  14  1   
 22  13  24  1   
 23  13  25  1   
 24  14  15  1   
 25  14  16  1   
 26  14  26  1   
 27  15  27  1   
 28  15  28  1   
 29  15  29  1   
 30  16  30  1   
 31  16  31  1   
 32  16  32  1   
@<TRIPOS>SUBSTRUCTURE
  1 ****  11 GROUP 4 **** **** 0

# MOE 2024.06 (io_trps.svl 2023.06)
