@<TRIPOS>MOLECULE
NONAME
49 51 1 0 0 
SMALL
USER_CHARGES


@<TRIPOS>ATOM
  1 S        1.0950    -1.4100     1.5790 S.o2  1 <1>   1.4470 
  2 O        1.5820    -2.5120     2.3810 O.2   1 <1>  -0.6500 
  3 O        1.0470    -0.0820     2.1500 O.2   1 <1>  -0.6500 
  4 N        2.0970    -1.3200     0.2160 N.am  1 <1>  -0.8490 
  5 C       -0.5260    -1.8150     0.8680 C.ar  1 <1>  -0.0090 
  6 C        2.3530    -2.6430    -0.3810 C.3   1 <1>   0.1960 
  7 C        3.3760    -0.6690     0.5430 C.3   1 <1>   0.1960 
  8 C       -1.2180    -2.9610     1.2570 C.ar  1 <1>  -0.1500 
  9 C       -1.1050    -0.9840    -0.0900 C.ar  1 <1>  -0.1500 
 10 C        3.2580    -2.5360    -1.6240 C.3   1 <1>   0.1100 
 11 C        4.2970    -0.5710    -0.6880 C.3   1 <1>   0.1100 
 12 C       -2.4500    -3.2760     0.7070 C.ar  1 <1>  -0.1500 
 13 C       -2.3370    -1.2820    -0.6510 C.ar  1 <1>  -0.1500 
 14 N        4.5480    -1.9010    -1.2920 N.3   1 <1>  -0.8100 
 15 C       -2.9880    -2.4280    -0.2400 C.ar  1 <1>   0.1900 
 16 C        5.4180    -1.7840    -2.5040 C.3   1 <1>   0.1710 
 17 F       -4.1470    -2.7180    -0.7630 F     1 <1>  -0.1900 
 18 C        6.8880    -1.5090    -2.1790 C.2   1 <1>   0.5690 
 19 O        7.5840    -0.9740    -3.0070 O.2   1 <1>  -0.5700 
 20 N        7.3040    -1.8940    -0.9370 N.am  1 <1>  -0.5470 
 21 C        8.5180    -1.8100    -0.2390 C.ar  1 <1>   0.1170 
 22 C        8.5370    -2.0950     1.1290 C.ar  1 <1>  -0.1430 
 23 C        9.7090    -1.4570    -0.8660 C.ar  1 <1>  -0.1500 
 24 C        9.7290    -2.0200     1.8340 C.ar  1 <1>  -0.1500 
 25 C        7.2650    -2.4890     1.8730 C.3   1 <1>  -0.0970 
 26 C       10.8930    -1.3840    -0.1570 C.ar  1 <1>  -0.1500 
 27 C       10.9040    -1.6660     1.1960 C.ar  1 <1>  -0.1500 
 28 H        1.4200    -3.0960    -0.6700 H     1 <1>   0.0800 
 29 H        2.8300    -3.2910     0.3360 H     1 <1>   0.0800 
 30 H        3.8800    -1.2190     1.3200 H     1 <1>   0.0800 
 31 H        3.1890     0.3270     0.9100 H     1 <1>   0.0800 
 32 H       -0.7880    -3.6130     1.9990 H     1 <1>   0.1500 
 33 H       -0.5820    -0.0930    -0.3960 H     1 <1>   0.1500 
 34 H        2.7470    -1.9650    -2.3820 H     1 <1>   0.0800 
 35 H        3.4350    -3.5250    -2.0100 H     1 <1>   0.0800 
 36 H        5.2290    -0.1230    -0.3880 H     1 <1>   0.0800 
 37 H        3.8350     0.0810    -1.4110 H     1 <1>   0.0800 
 38 H       -2.9860    -4.1600     1.0060 H     1 <1>   0.1500 
 39 H       -2.7850    -0.6410    -1.3890 H     1 <1>   0.1500 
 40 H        5.0520    -1.0050    -3.1500 H     1 <1>   0.0800 
 41 H        5.3890    -2.7080    -3.0530 H     1 <1>   0.0800 
 42 H        6.5190    -2.2630    -0.3940 H     1 <1>   0.3700 
 43 H        9.7200    -1.2380    -1.9170 H     1 <1>   0.1500 
 44 H        9.7530    -2.2380     2.8870 H     1 <1>   0.1500 
 45 H        6.5330    -1.7060     1.7910 H     1 <1>   0.0800 
 46 H        7.4640    -2.6550     2.9160 H     1 <1>   0.0800 
 47 H        6.8620    -3.3960     1.4590 H     1 <1>   0.0800 
 48 H       11.8040    -1.1090    -0.6590 H     1 <1>   0.1500 
 49 H       11.8250    -1.6100     1.7510 H     1 <1>   0.1500 
@<TRIPOS>BOND
  1   1   2  2   
  2   1   3  2   
  3   1   4  am  
  4   1   5  1   
  5   4   6  1   
  6   4   7  1   
  7   5   8  ar  
  8   5   9  ar  
  9   6  10  1   
 10   6  28  1   
 11   6  29  1   
 12   7  11  1   
 13   7  30  1   
 14   7  31  1   
 15   8  12  ar  
 16   8  32  1   
 17   9  13  ar  
 18   9  33  1   
 19  10  14  1   
 20  10  34  1   
 21  10  35  1   
 22  11  14  1   
 23  11  36  1   
 24  11  37  1   
 25  12  15  ar  
 26  12  38  1   
 27  13  15  ar  
 28  13  39  1   
 29  14  16  1   
 30  15  17  1   
 31  16  18  1   
 32  16  40  1   
 33  16  41  1   
 34  18  19  2   
 35  18  20  am  
 36  20  21  1   
 37  20  42  1   
 38  21  22  ar  
 39  21  23  ar  
 40  22  24  ar  
 41  22  25  1   
 42  23  26  ar  
 43  23  43  1   
 44  24  27  ar  
 45  24  44  1   
 46  25  45  1   
 47  25  46  1   
 48  25  47  1   
 49  26  27  ar  
 50  26  48  1   
 51  27  49  1   
@<TRIPOS>SUBSTRUCTURE
  1 ****   7 GROUP 4 **** **** 0

# MOE 2024.06 (io_trps.svl 2023.06)
