@<TRIPOS>MOLECULE
NONAME
41 43 1 0 0 
SMALL
USER_CHARGES


@<TRIPOS>ATOM
  1 O        3.1050     1.6140    -2.3150 O.co2 1 <1>  -0.9000 
  2 C        3.5610     0.5940    -1.7930 C.2   1 <1>   0.9060 
  3 O        4.6250     0.0890    -2.1770 O.co2 1 <1>  -0.9000 
  4 C        2.7990    -0.0250    -0.6270 C.3   1 <1>  -0.1860 
  5 C        3.1840     0.4820     0.8050 C.3   1 <1>  -0.0190 
  6 C        2.7340    -1.5770    -0.6440 C.3   1 <1>  -0.0800 
  7 C        4.5040     1.2450     1.0030 C.2   1 <1>   0.5690 
  8 C        3.0950    -0.7030     1.8070 C.3   1 <1>  -0.0800 
  9 C        4.0200    -2.1750    -0.0310 C.3   1 <1>  -0.1600 
 10 C        1.5540    -1.9980     0.2580 C.3   1 <1>  -0.1600 
 11 O        4.5590     2.0600     1.8980 O.2   1 <1>  -0.5700 
 12 N        5.5860     0.9870     0.2360 N.am  1 <1>  -0.7300 
 13 C        4.1660    -1.7560     1.4480 C.3   1 <1>  -0.1600 
 14 C        1.7130    -1.3800     1.6680 C.3   1 <1>  -0.1600 
 15 C        6.8410     1.7420     0.2330 C.3   1 <1>   0.2840 
 16 C        7.9960     0.7990    -0.0690 C.ar  1 <1>  -0.1440 
 17 C        9.0290     0.6290     0.8410 C.ar  1 <1>  -0.1500 
 18 C        8.0260     0.0990    -1.2670 C.ar  1 <1>  -0.1500 
 19 C       10.0810    -0.2250     0.5550 C.ar  1 <1>  -0.1500 
 20 C        9.0760    -0.7550    -1.5530 C.ar  1 <1>  -0.1500 
 21 C       10.1060    -0.9170    -0.6430 C.ar  1 <1>  -0.1500 
 22 H        1.7930     0.3090    -0.7990 H     1 <1>   0.0800 
 23 H        2.4220     1.1890     1.0820 H     1 <1>   0.0800 
 24 H        2.5920    -1.9340    -1.6500 H     1 <1>   0.0800 
 25 H        3.2390    -0.3480     2.8130 H     1 <1>   0.0800 
 26 H        4.8770    -1.8390    -0.5880 H     1 <1>   0.0800 
 27 H        3.9940    -3.2480    -0.1030 H     1 <1>   0.0800 
 28 H        1.5280    -3.0710     0.3310 H     1 <1>   0.0800 
 29 H        0.6250    -1.6770    -0.1790 H     1 <1>   0.0800 
 30 H        5.4300     0.4440    -0.6370 H     1 <1>   0.3700 
 31 H        4.0480    -2.6170     2.0820 H     1 <1>   0.0800 
 32 H        5.1540    -1.3640     1.6180 H     1 <1>   0.0800 
 33 H        0.9410    -0.6500     1.8330 H     1 <1>   0.0800 
 34 H        1.6050    -2.1470     2.4140 H     1 <1>   0.0800 
 35 H        6.9800     2.2210     1.1860 H     1 <1>   0.0800 
 36 H        6.7850     2.4990    -0.5290 H     1 <1>   0.0800 
 37 H        9.0130     1.1590     1.7770 H     1 <1>   0.1500 
 38 H        7.2200     0.2160    -1.9770 H     1 <1>   0.1500 
 39 H       10.8780    -0.3510     1.2660 H     1 <1>   0.1500 
 40 H        9.0810    -1.2920    -2.4850 H     1 <1>   0.1500 
 41 H       10.9210    -1.5810    -0.8670 H     1 <1>   0.1500 
@<TRIPOS>BOND
  1   1   2  ar  
  2   2   3  ar  
  3   2   4  1   
  4   4   5  1   
  5   4   6  1   
  6   4  22  1   
  7   5   7  1   
  8   5   8  1   
  9   5  23  1   
 10   6   9  1   
 11   6  10  1   
 12   6  24  1   
 13   7  11  2   
 14   7  12  am  
 15   8  13  1   
 16   8  14  1   
 17   8  25  1   
 18   9  13  1   
 19   9  26  1   
 20   9  27  1   
 21  10  14  1   
 22  10  28  1   
 23  10  29  1   
 24  12  15  1   
 25  12  30  1   
 26  13  31  1   
 27  13  32  1   
 28  14  33  1   
 29  14  34  1   
 30  15  16  1   
 31  15  35  1   
 32  15  36  1   
 33  16  17  ar  
 34  16  18  ar  
 35  17  19  ar  
 36  17  37  1   
 37  18  20  ar  
 38  18  38  1   
 39  19  21  ar  
 40  19  39  1   
 41  20  21  ar  
 42  20  40  1   
 43  21  41  1   
@<TRIPOS>SUBSTRUCTURE
  1 ****  12 GROUP 4 **** **** 0

# MOE 2024.06 (io_trps.svl 2023.06)
