@<TRIPOS>MOLECULE
NONAME
28 29 1 0 0 
SMALL
USER_CHARGES


@<TRIPOS>ATOM
  1 S       -0.1660    -0.6620     0.4780 S.o2  1 <1>   1.4470 
  2 O        0.0160    -1.2520    -0.8300 O.2   1 <1>  -0.6500 
  3 O       -0.2850    -1.5030     1.6480 O.2   1 <1>  -0.6500 
  4 N        1.1670     0.3020     0.8090 N.am  1 <1>  -0.7890 
  5 C       -1.5240     0.5380     0.4230 C.ar  1 <1>  -0.0090 
  6 C        2.4200    -0.2930     0.4180 C.3   1 <1>   0.1310 
  7 C       -2.5460     0.5220     1.3660 C.ar  1 <1>  -0.1500 
  8 C       -1.5690     1.5150    -0.5660 C.ar  1 <1>  -0.1500 
  9 C        3.6200     0.5900     0.3810 C.3   1 <1>  -0.2000 
 10 C        3.0040     0.0960    -0.8960 C.3   1 <1>  -0.2000 
 11 C       -3.5740     1.4480     1.3230 C.ar  1 <1>  -0.1500 
 12 C       -2.5930     2.4460    -0.6180 C.ar  1 <1>  -0.1500 
 13 C       -3.6060     2.4160     0.3340 C.ar  1 <1>   0.0830 
 14 O       -4.6440     3.2860     0.3610 O.3   1 <1>  -0.3630 
 15 C       -4.7790     4.3020    -0.6070 C.3   1 <1>   0.0400 
 16 H        1.1730     0.3500     1.8250 H     1 <1>   0.4200 
 17 H        2.5390    -1.3130     0.7530 H     1 <1>   0.1000 
 18 H       -2.5420    -0.2230     2.1440 H     1 <1>   0.1500 
 19 H       -0.7880     1.5440    -1.3070 H     1 <1>   0.1500 
 20 H        4.5750     0.1870     0.6690 H     1 <1>   0.1000 
 21 H        3.5110     1.6300     0.6340 H     1 <1>   0.1000 
 22 H        2.4470     0.7780    -1.5150 H     1 <1>   0.1000 
 23 H        3.5240    -0.6530    -1.4660 H     1 <1>   0.1000 
 24 H       -4.3600     1.4270     2.0570 H     1 <1>   0.1500 
 25 H       -2.5840     3.1810    -1.4010 H     1 <1>   0.1500 
 26 H       -5.6710     4.8580    -0.3860 H     1 <1>   0.0800 
 27 H       -4.8630     3.8490    -1.5790 H     1 <1>   0.0800 
 28 H       -3.9220     4.9500    -0.5550 H     1 <1>   0.0800 
@<TRIPOS>BOND
  1   1   2  2   
  2   1   3  2   
  3   1   4  am  
  4   1   5  1   
  5   4   6  1   
  6   4  16  1   
  7   5   7  ar  
  8   5   8  ar  
  9   6   9  1   
 10   6  10  1   
 11   6  17  1   
 12   7  11  ar  
 13   7  18  1   
 14   8  12  ar  
 15   8  19  1   
 16   9  10  1   
 17   9  20  1   
 18   9  21  1   
 19  10  22  1   
 20  10  23  1   
 21  11  13  ar  
 22  11  24  1   
 23  12  13  ar  
 24  12  25  1   
 25  13  14  1   
 26  14  15  1   
 27  15  26  1   
 28  15  27  1   
 29  15  28  1   
@<TRIPOS>SUBSTRUCTURE
  1 ****   5 GROUP 4 **** **** 0

# MOE 2024.06 (io_trps.svl 2023.06)
