@<TRIPOS>MOLECULE
NONAME
33 33 1 0 0 
SMALL
USER_CHARGES


@<TRIPOS>ATOM
  1 S       -0.3940    -0.5260     0.1810 S.3   1 <1>  -0.3320 
  2 C       -2.1130     0.0120     0.0710 C.ar  1 <1>   0.1020 
  3 C        0.6490     0.9970     0.1140 C.3   1 <1>  -0.0100 
  4 C       -2.4630     1.3510    -0.0130 C.ar  1 <1>  -0.1500 
  5 C       -3.0780    -0.9770     0.0700 C.ar  1 <1>  -0.1500 
  6 C       -3.8010     1.7070    -0.0930 C.ar  1 <1>  -0.1430 
  7 C       -4.4190    -0.6390    -0.0100 C.ar  1 <1>  -0.1430 
  8 C       -4.7730     0.7080    -0.0750 C.ar  1 <1>   0.0830 
  9 C       -4.1780     3.1780    -0.2020 C.3   1 <1>  -0.0960 
 10 C       -5.4660    -1.7440    -0.0290 C.3   1 <1>  -0.0970 
 11 O       -6.0790     1.0500    -0.1330 O.3   1 <1>  -0.3630 
 12 C       -6.7180     1.2420     1.1230 C.3   1 <1>   0.1810 
 13 C       -8.1920     1.5900     0.9530 C.2   1 <1>   0.5690 
 14 O       -8.8550     1.7890     1.9430 O.2   1 <1>  -0.5700 
 15 N       -8.7230     1.6690    -0.2980 N.am  1 <1>  -0.7300 
 16 C      -10.1310     1.9960    -0.6310 C.3   1 <1>   0.0600 
 17 H        1.6770     0.6870     0.1660 H     1 <1>   0.0800 
 18 H        0.3930     1.6130     0.9570 H     1 <1>   0.0800 
 19 H        0.4480     1.4960    -0.8170 H     1 <1>   0.0800 
 20 H       -1.7110     2.1130    -0.0190 H     1 <1>   0.1500 
 21 H       -2.7700    -2.0050     0.1290 H     1 <1>   0.1500 
 22 H       -3.3380     3.7660    -0.5250 H     1 <1>   0.0800 
 23 H       -4.5080     3.5450     0.7530 H     1 <1>   0.0800 
 24 H       -4.9700     3.3070    -0.9170 H     1 <1>   0.0800 
 25 H       -5.0260    -2.6800    -0.3230 H     1 <1>   0.0800 
 26 H       -6.2470    -1.5070    -0.7300 H     1 <1>   0.0800 
 27 H       -5.8980    -1.8590     0.9480 H     1 <1>   0.0800 
 28 H       -6.2200     2.0390     1.6410 H     1 <1>   0.0800 
 29 H       -6.6290     0.3370     1.6940 H     1 <1>   0.0800 
 30 H       -8.0890     1.4870    -1.0830 H     1 <1>   0.3700 
 31 H      -10.6970     2.1660     0.2700 H     1 <1>   0.0800 
 32 H      -10.5770     1.1790    -1.1710 H     1 <1>   0.0800 
 33 H      -10.1650     2.8840    -1.2360 H     1 <1>   0.0800 
@<TRIPOS>BOND
  1   1   2  1   
  2   1   3  1   
  3   2   4  ar  
  4   2   5  ar  
  5   3  17  1   
  6   3  18  1   
  7   3  19  1   
  8   4   6  ar  
  9   4  20  1   
 10   5   7  ar  
 11   5  21  1   
 12   6   8  ar  
 13   6   9  1   
 14   7   8  ar  
 15   7  10  1   
 16   8  11  1   
 17   9  22  1   
 18   9  23  1   
 19   9  24  1   
 20  10  25  1   
 21  10  26  1   
 22  10  27  1   
 23  11  12  1   
 24  12  13  1   
 25  12  28  1   
 26  12  29  1   
 27  13  14  2   
 28  13  15  am  
 29  15  16  1   
 30  15  30  1   
 31  16  31  1   
 32  16  32  1   
 33  16  33  1   
@<TRIPOS>SUBSTRUCTURE
  1 ****   8 GROUP 4 **** **** 0

# MOE 2024.06 (io_trps.svl 2023.06)
