@<TRIPOS>MOLECULE
NONAME
41 42 1 0 0 
SMALL
USER_CHARGES


@<TRIPOS>ATOM
  1 O        0.1120     0.3470    -0.8700 O.2   1 <1>  -0.5700 
  2 C        0.0110     1.4300    -0.3240 C.2   1 <1>   0.6900 
  3 N        1.1240     2.2120    -0.1380 N.am  1 <1>  -0.6600 
  4 N       -1.1990     1.8920     0.1160 N.am  1 <1>  -0.5470 
  5 C        1.0660     3.6650     0.2110 C.3   1 <1>   0.1400 
  6 C        2.4790     1.6290    -0.3850 C.3   1 <1>   0.1400 
  7 C       -2.4930     1.3500     0.0680 C.ar  1 <1>   0.1170 
  8 C        2.2720     4.4200    -0.3700 C.3   1 <1>  -0.0800 
  9 C        3.5420     2.3430     0.4640 C.3   1 <1>  -0.0800 
 10 C       -2.7490    -0.0110    -0.0710 C.ar  1 <1>  -0.1500 
 11 C       -3.5770     2.2140     0.1830 C.ar  1 <1>  -0.1500 
 12 C        3.6090     3.8520     0.1500 C.3   1 <1>  -0.1600 
 13 C        2.1760     5.9240    -0.0840 C.3   1 <1>  -0.2400 
 14 C        4.9200     1.6910     0.2910 C.3   1 <1>  -0.2400 
 15 C       -4.0460    -0.4900    -0.0980 C.ar  1 <1>  -0.1500 
 16 C       -4.8780     1.7410     0.1570 C.ar  1 <1>  -0.1500 
 17 C       -5.1190     0.3780     0.0150 C.ar  1 <1>   0.0830 
 18 O       -6.3610    -0.1740    -0.0210 O.3   1 <1>  -0.3630 
 19 C       -7.5160     0.6310     0.0600 C.3   1 <1>   0.0400 
 20 H       -1.1290     2.8010     0.5530 H     1 <1>   0.3700 
 21 H        1.0580     3.7680     1.2820 H     1 <1>   0.0800 
 22 H        0.1650     4.0980    -0.1870 H     1 <1>   0.0800 
 23 H        2.7160     1.7240    -1.4310 H     1 <1>   0.0800 
 24 H        2.4690     0.5810    -0.1380 H     1 <1>   0.0800 
 25 H        2.2410     4.2890    -1.4390 H     1 <1>   0.0800 
 26 H        3.2530     2.2220     1.4950 H     1 <1>   0.0800 
 27 H       -1.9340    -0.7060    -0.1550 H     1 <1>   0.1500 
 28 H       -3.4040     3.2680     0.2900 H     1 <1>   0.1500 
 29 H        3.9080     4.3650     1.0470 H     1 <1>   0.0800 
 30 H        4.3620     4.0440    -0.5950 H     1 <1>   0.0800 
 31 H        2.1740     6.1120     0.9760 H     1 <1>   0.0800 
 32 H        1.2740     6.3290    -0.5070 H     1 <1>   0.0800 
 33 H        3.0140     6.4390    -0.5220 H     1 <1>   0.0800 
 34 H        5.2440     1.7550    -0.7330 H     1 <1>   0.0800 
 35 H        4.8790     0.6540     0.5730 H     1 <1>   0.0800 
 36 H        5.6460     2.1830     0.9140 H     1 <1>   0.0800 
 37 H       -4.2330    -1.5420    -0.2080 H     1 <1>   0.1500 
 38 H       -5.6850     2.4430     0.2480 H     1 <1>   0.1500 
 39 H       -8.3760    -0.0110     0.0010 H     1 <1>   0.0800 
 40 H       -7.5180     1.3210    -0.7660 H     1 <1>   0.0800 
 41 H       -7.5130     1.1520     1.0010 H     1 <1>   0.0800 
@<TRIPOS>BOND
  1   1   2  2   
  2   2   3  am  
  3   2   4  am  
  4   3   5  1   
  5   3   6  1   
  6   4   7  1   
  7   4  20  1   
  8   5   8  1   
  9   5  21  1   
 10   5  22  1   
 11   6   9  1   
 12   6  23  1   
 13   6  24  1   
 14   7  10  ar  
 15   7  11  ar  
 16   8  12  1   
 17   8  13  1   
 18   8  25  1   
 19   9  12  1   
 20   9  14  1   
 21   9  26  1   
 22  10  15  ar  
 23  10  27  1   
 24  11  16  ar  
 25  11  28  1   
 26  12  29  1   
 27  12  30  1   
 28  13  31  1   
 29  13  32  1   
 30  13  33  1   
 31  14  34  1   
 32  14  35  1   
 33  14  36  1   
 34  15  17  ar  
 35  15  37  1   
 36  16  17  ar  
 37  16  38  1   
 38  17  18  1   
 39  18  19  1   
 40  19  39  1   
 41  19  40  1   
 42  19  41  1   
@<TRIPOS>SUBSTRUCTURE
  1 ****   4 GROUP 4 **** **** 0

# MOE 2024.06 (io_trps.svl 2023.06)
