@<TRIPOS>MOLECULE
NONAME
39 40 1 0 0 
SMALL
USER_CHARGES


@<TRIPOS>ATOM
  1 F        0.4860     1.1310     1.0610 F     1 <1>  -0.3400 
  2 C        1.2400     0.0440     0.9520 C.3   1 <1>   1.1640 
  3 F        0.4680    -0.8950     0.4220 F     1 <1>  -0.3400 
  4 F        1.5050    -0.3480     2.1940 F     1 <1>  -0.3400 
  5 C        2.5100     0.2810     0.1200 C.ar  1 <1>  -0.1440 
  6 C        3.6980    -0.3790     0.4200 C.ar  1 <1>  -0.1500 
  7 C        2.4920     1.1570    -0.9600 C.ar  1 <1>  -0.1500 
  8 C        4.8540    -0.1800    -0.3260 C.ar  1 <1>   0.1170 
  9 C        3.6340     1.3690    -1.7120 C.ar  1 <1>  -0.1500 
 10 N        6.0200    -0.8670     0.0440 N.am  1 <1>  -0.5470 
 11 C        4.8050     0.7070    -1.3950 C.ar  1 <1>  -0.1500 
 12 C        7.1270    -1.2070    -0.6870 C.2   1 <1>   0.5690 
 13 O        7.2440    -0.9640    -1.8630 O.2   1 <1>  -0.5700 
 14 C        8.2550    -1.9330     0.0480 C.3   1 <1>  -0.0190 
 15 C        9.2140    -0.9270     0.7130 C.3   1 <1>  -0.1600 
 16 C        9.0500    -2.8860    -0.8690 C.3   1 <1>  -0.1600 
 17 C       10.3550    -1.6340     1.4500 C.3   1 <1>   0.1400 
 18 C       10.1880    -3.5770    -0.1150 C.3   1 <1>   0.1400 
 19 N       11.0640    -2.5490     0.5130 N.am  1 <1>  -0.6600 
 20 C       12.4050    -2.3970     0.2650 C.2   1 <1>   0.5690 
 21 O       13.0740    -1.5630     0.8260 O.2   1 <1>  -0.5700 
 22 C       13.1100    -3.2810    -0.7380 C.3   1 <1>  -0.1790 
 23 H        3.7310    -1.0680     1.2450 H     1 <1>   0.1500 
 24 H        1.5880     1.6820    -1.2260 H     1 <1>   0.1500 
 25 H        3.6130     2.0490    -2.5460 H     1 <1>   0.1500 
 26 H        6.0320    -1.1850     1.0100 H     1 <1>   0.3700 
 27 H        5.6840     0.8890    -1.9870 H     1 <1>   0.1500 
 28 H        7.8080    -2.5300     0.8220 H     1 <1>   0.0800 
 29 H        8.6760    -0.3080     1.4080 H     1 <1>   0.0800 
 30 H        9.6370    -0.2810    -0.0380 H     1 <1>   0.0800 
 31 H        9.4680    -2.3360    -1.6940 H     1 <1>   0.0800 
 32 H        8.3880    -3.6290    -1.2770 H     1 <1>   0.0800 
 33 H        9.9680    -2.2070     2.2740 H     1 <1>   0.0800 
 34 H       11.0320    -0.8970     1.8500 H     1 <1>   0.0800 
 35 H       10.7390    -4.2000    -0.7960 H     1 <1>   0.0800 
 36 H        9.7850    -4.2090     0.6580 H     1 <1>   0.0800 
 37 H       13.0630    -4.3040    -0.4180 H     1 <1>   0.0800 
 38 H       14.1420    -2.9900    -0.8130 H     1 <1>   0.0800 
 39 H       12.6520    -3.1740    -1.7030 H     1 <1>   0.0800 
@<TRIPOS>BOND
  1   1   2  1   
  2   2   3  1   
  3   2   4  1   
  4   2   5  1   
  5   5   6  ar  
  6   5   7  ar  
  7   6   8  ar  
  8   6  23  1   
  9   7   9  ar  
 10   7  24  1   
 11   8  10  1   
 12   8  11  ar  
 13   9  11  ar  
 14   9  25  1   
 15  10  12  am  
 16  10  26  1   
 17  11  27  1   
 18  12  13  2   
 19  12  14  1   
 20  14  15  1   
 21  14  16  1   
 22  14  28  1   
 23  15  17  1   
 24  15  29  1   
 25  15  30  1   
 26  16  18  1   
 27  16  31  1   
 28  16  32  1   
 29  17  19  1   
 30  17  33  1   
 31  17  34  1   
 32  18  19  1   
 33  18  35  1   
 34  18  36  1   
 35  19  20  am  
 36  20  21  2   
 37  20  22  1   
 38  22  37  1   
 39  22  38  1   
 40  22  39  1   
@<TRIPOS>SUBSTRUCTURE
  1 ****  10 GROUP 4 **** **** 0

# MOE 2024.06 (io_trps.svl 2023.06)
