@<TRIPOS>MOLECULE
NONAME
47 48 1 0 0 
SMALL
USER_CHARGES


@<TRIPOS>ATOM
  1 F       -0.9980     0.4610    -1.4500 F     1 <1>  -0.1900 
  2 C       -1.9410    -0.3190    -0.9960 C.ar  1 <1>   0.1900 
  3 C       -2.2470    -0.2810     0.3500 C.ar  1 <1>  -0.1500 
  4 C       -2.5980    -1.1530    -1.8780 C.ar  1 <1>  -0.1500 
  5 C       -3.2510    -1.1080     0.8270 C.ar  1 <1>  -0.1500 
  6 C       -3.6010    -1.9770    -1.3930 C.ar  1 <1>  -0.1500 
  7 C       -3.9340    -1.9540    -0.0420 C.ar  1 <1>  -0.1430 
  8 C       -5.0410    -2.8490     0.4850 C.3   1 <1>   0.4870 
  9 N       -6.3560    -2.3110     0.0380 N.4   1 <1>  -0.9590 
 10 C       -6.6230    -0.9520     0.5930 C.3   1 <1>   0.3430 
 11 C       -7.4630    -3.2620     0.3260 C.3   1 <1>   0.3430 
 12 C       -7.8910    -0.3860    -0.0420 C.3   1 <1>  -0.1600 
 13 C       -8.7510    -2.7510    -0.3160 C.3   1 <1>  -0.1600 
 14 C       -9.1050    -1.3200     0.1350 C.3   1 <1>  -0.0190 
 15 C      -10.3060    -0.7940    -0.6470 C.2   1 <1>   0.5690 
 16 O      -10.2080    -0.6990    -1.8450 O.2   1 <1>  -0.5700 
 17 N      -11.4360    -0.4530     0.0220 N.am  1 <1>  -0.7300 
 18 C      -12.6790     0.0460    -0.6150 C.3   1 <1>   0.1400 
 19 C      -13.8810    -0.8170    -0.2010 C.3   1 <1>  -0.0800 
 20 C      -15.1450    -0.3310    -0.9230 C.3   1 <1>  -0.2400 
 21 C      -14.1210    -0.7990     1.3180 C.3   1 <1>  -0.2400 
 22 H       -1.7050     0.3800     1.0030 H     1 <1>   0.1500 
 23 H       -2.3230    -1.1540    -2.9190 H     1 <1>   0.1500 
 24 H       -3.4850    -1.0830     1.8780 H     1 <1>   0.1500 
 25 H       -4.1060    -2.6330    -2.0820 H     1 <1>   0.1500 
 26 H       -5.0010    -2.8890     1.5620 H     1 <1>   0.0800 
 27 H       -4.8990    -3.8460     0.1020 H     1 <1>   0.0800 
 28 H       -6.2940    -2.1960    -0.9830 H     1 <1>   0.4500 
 29 H       -5.7960    -0.2920     0.3770 H     1 <1>   0.0800 
 30 H       -6.7430    -1.0080     1.6620 H     1 <1>   0.0800 
 31 H       -7.6010    -3.3530     1.3920 H     1 <1>   0.0800 
 32 H       -7.2300    -4.2370    -0.0730 H     1 <1>   0.0800 
 33 H       -7.7090    -0.2150    -1.0900 H     1 <1>   0.0800 
 34 H       -8.1100     0.5700     0.4000 H     1 <1>   0.0800 
 35 H       -9.5600    -3.4130    -0.0610 H     1 <1>   0.0800 
 36 H       -8.6430    -2.7810    -1.3870 H     1 <1>   0.0800 
 37 H       -9.3640    -1.3460     1.1790 H     1 <1>   0.0800 
 38 H      -11.4960    -0.5430     1.0360 H     1 <1>   0.3700 
 39 H      -12.5720     0.0230    -1.6870 H     1 <1>   0.0800 
 40 H      -12.8410     1.0690    -0.3190 H     1 <1>   0.0800 
 41 H      -13.6920    -1.8310    -0.5140 H     1 <1>   0.0800 
 42 H      -15.3790     0.6810    -0.6420 H     1 <1>   0.0800 
 43 H      -15.9820    -0.9590    -0.6740 H     1 <1>   0.0800 
 44 H      -15.0040    -0.3680    -1.9890 H     1 <1>   0.0800 
 45 H      -14.2650     0.2090     1.6670 H     1 <1>   0.0800 
 46 H      -13.2920    -1.2340     1.8440 H     1 <1>   0.0800 
 47 H      -14.9990    -1.3710     1.5610 H     1 <1>   0.0800 
@<TRIPOS>BOND
  1   1   2  1   
  2   2   3  ar  
  3   2   4  ar  
  4   3   5  ar  
  5   3  22  1   
  6   4   6  ar  
  7   4  23  1   
  8   5   7  ar  
  9   5  24  1   
 10   6   7  ar  
 11   6  25  1   
 12   7   8  1   
 13   8   9  1   
 14   8  26  1   
 15   8  27  1   
 16   9  10  1   
 17   9  11  1   
 18   9  28  1   
 19  10  12  1   
 20  10  29  1   
 21  10  30  1   
 22  11  13  1   
 23  11  31  1   
 24  11  32  1   
 25  12  14  1   
 26  12  33  1   
 27  12  34  1   
 28  13  14  1   
 29  13  35  1   
 30  13  36  1   
 31  14  15  1   
 32  14  37  1   
 33  15  16  2   
 34  15  17  am  
 35  17  18  1   
 36  17  38  1   
 37  18  19  1   
 38  18  39  1   
 39  18  40  1   
 40  19  20  1   
 41  19  21  1   
 42  19  41  1   
 43  20  42  1   
 44  20  43  1   
 45  20  44  1   
 46  21  45  1   
 47  21  46  1   
 48  21  47  1   
@<TRIPOS>SUBSTRUCTURE
  1 ****  12 GROUP 4 **** **** 0

# MOE 2024.06 (io_trps.svl 2023.06)
