@<TRIPOS>MOLECULE
NONAME
51 52 1 0 0 
SMALL
USER_CHARGES


@<TRIPOS>ATOM
  1 O       -0.3160    -0.4380     0.3650 O.3   1 <1>  -0.5600 
  2 C       -0.5680    -1.3170    -0.6920 C.3   1 <1>   0.1200 
  3 C       -1.2640     0.5770     0.5270 C.3   1 <1>   0.1200 
  4 C       -1.9290    -2.0130    -0.4940 C.3   1 <1>   0.3430 
  5 C       -2.6580    -0.0290     0.7790 C.3   1 <1>   0.3430 
  6 N       -3.0380    -1.0150    -0.2960 N.4   1 <1>  -0.9590 
  7 C       -4.3250    -1.7080    -0.0060 C.3   1 <1>   0.3430 
  8 C       -5.5010    -0.7380    -0.1470 C.3   1 <1>  -0.1600 
  9 C       -6.8350    -1.4730     0.0400 C.3   1 <1>  -0.1600 
 10 C       -8.0250    -0.5150    -0.1040 C.3   1 <1>  -0.1600 
 11 C       -9.3550    -1.2580     0.0830 C.3   1 <1>  -0.1600 
 12 C      -10.5510    -0.3150    -0.0600 C.3   1 <1>   0.1200 
 13 O      -11.7260    -1.0690     0.1240 O.3   1 <1>  -0.3630 
 14 C      -12.9530    -0.4930     0.0520 C.ar  1 <1>   0.0820 
 15 C      -13.1660     0.8580    -0.2020 C.ar  1 <1>  -0.1500 
 16 C      -14.0410    -1.3240     0.2480 C.ar  1 <1>  -0.1500 
 17 C      -14.4530     1.3730    -0.2590 C.ar  1 <1>  -0.1430 
 18 C      -15.3260    -0.8170     0.1920 C.ar  1 <1>  -0.1500 
 19 C      -15.5420     0.5300    -0.0610 C.ar  1 <1>  -0.1430 
 20 C      -14.6440     2.8570    -0.5400 C.3   1 <1>  -0.0970 
 21 C      -16.9720     1.0490    -0.1150 C.3   1 <1>  -0.0970 
 22 H        0.2230    -2.0470    -0.7040 H     1 <1>   0.0800 
 23 H       -0.5400    -0.7670    -1.6170 H     1 <1>   0.0800 
 24 H       -1.2610     1.1990    -0.3520 H     1 <1>   0.0800 
 25 H       -0.9620     1.1740     1.3700 H     1 <1>   0.0800 
 26 H       -1.8560    -2.6540     0.3690 H     1 <1>   0.0800 
 27 H       -2.1380    -2.6330    -1.3500 H     1 <1>   0.0800 
 28 H       -3.3840     0.7660     0.8280 H     1 <1>   0.0800 
 29 H       -2.6430    -0.5230     1.7370 H     1 <1>   0.0800 
 30 H       -3.1460    -0.4940    -1.1760 H     1 <1>   0.4500 
 31 H       -4.3080    -2.1220     0.9890 H     1 <1>   0.0800 
 32 H       -4.4620    -2.5180    -0.7040 H     1 <1>   0.0800 
 33 H       -5.4870    -0.2920    -1.1270 H     1 <1>   0.0800 
 34 H       -5.4330     0.0390     0.5930 H     1 <1>   0.0800 
 35 H       -6.8670    -1.9270     1.0180 H     1 <1>   0.0800 
 36 H       -6.9260    -2.2570    -0.6940 H     1 <1>   0.0800 
 37 H       -8.0080    -0.0610    -1.0810 H     1 <1>   0.0800 
 38 H       -7.9510     0.2690     0.6320 H     1 <1>   0.0800 
 39 H       -9.3850    -1.7060     1.0610 H     1 <1>   0.0800 
 40 H       -9.4410    -2.0370    -0.6550 H     1 <1>   0.0800 
 41 H      -10.5800     0.1210    -1.0440 H     1 <1>   0.0800 
 42 H      -10.5230     0.4560     0.6910 H     1 <1>   0.0800 
 43 H      -12.3370     1.5200    -0.3560 H     1 <1>   0.1500 
 44 H      -13.8750    -2.3670     0.4440 H     1 <1>   0.1500 
 45 H      -16.1570    -1.4810     0.3470 H     1 <1>   0.1500 
 46 H      -13.6980     3.3530    -0.6660 H     1 <1>   0.0800 
 47 H      -15.1610     3.3230     0.2790 H     1 <1>   0.0800 
 48 H      -15.2170     2.9910    -1.4390 H     1 <1>   0.0800 
 49 H      -17.1740     1.4710    -1.0820 H     1 <1>   0.0800 
 50 H      -17.1180     1.8030     0.6370 H     1 <1>   0.0800 
 51 H      -17.6770     0.2570     0.0600 H     1 <1>   0.0800 
@<TRIPOS>BOND
  1   1   2  1   
  2   1   3  1   
  3   2   4  1   
  4   2  22  1   
  5   2  23  1   
  6   3   5  1   
  7   3  24  1   
  8   3  25  1   
  9   4   6  1   
 10   4  26  1   
 11   4  27  1   
 12   5   6  1   
 13   5  28  1   
 14   5  29  1   
 15   6   7  1   
 16   6  30  1   
 17   7   8  1   
 18   7  31  1   
 19   7  32  1   
 20   8   9  1   
 21   8  33  1   
 22   8  34  1   
 23   9  10  1   
 24   9  35  1   
 25   9  36  1   
 26  10  11  1   
 27  10  37  1   
 28  10  38  1   
 29  11  12  1   
 30  11  39  1   
 31  11  40  1   
 32  12  13  1   
 33  12  41  1   
 34  12  42  1   
 35  13  14  1   
 36  14  15  ar  
 37  14  16  ar  
 38  15  17  ar  
 39  15  43  1   
 40  16  18  ar  
 41  16  44  1   
 42  17  19  ar  
 43  17  20  1   
 44  18  19  ar  
 45  18  45  1   
 46  19  21  1   
 47  20  46  1   
 48  20  47  1   
 49  20  48  1   
 50  21  49  1   
 51  21  50  1   
 52  21  51  1   
@<TRIPOS>SUBSTRUCTURE
  1 ****  10 GROUP 4 **** **** 0

# MOE 2024.06 (io_trps.svl 2023.06)
