@<TRIPOS>MOLECULE
NONAME
45 47 1 0 0 
SMALL
USER_CHARGES


@<TRIPOS>ATOM
  1 O        0.3550     0.8470    -0.4000 O.2   1 <1>  -0.5700 
  2 C        1.4350     1.3040    -0.1710 C.2   1 <1>   0.4480 
  3 C        2.5670     1.3340    -1.1740 C.3   1 <1>  -0.0190 
  4 C        1.8330     1.9090     1.1570 C.3   1 <1>  -0.0190 
  5 C        2.9500     2.8060    -1.4520 C.3   1 <1>  -0.1600 
  6 C        3.7210     0.4560    -0.6410 C.3   1 <1>  -0.1600 
  7 C        2.1900     3.3970     0.9390 C.3   1 <1>  -0.1600 
  8 C        2.9660     1.0550     1.7690 C.3   1 <1>  -0.1600 
  9 C        3.2250     3.6540    -0.1860 C.3   1 <1>  -0.0190 
 10 C        4.1420     0.7380     0.8180 C.3   1 <1>  -0.1600 
 11 C        3.3180     5.1460    -0.5350 C.2   1 <1>   0.5690 
 12 O        2.3230     5.7440    -0.8620 O.2   1 <1>  -0.5700 
 13 N        4.5000     5.8150    -0.4740 N.am  1 <1>  -0.5470 
 14 C        5.7820     5.3470    -0.1720 C.ar  1 <1>   0.1170 
 15 C        6.4260     4.4460    -1.0100 C.ar  1 <1>  -0.1500 
 16 C        6.4270     5.7770     0.9790 C.ar  1 <1>  -0.1500 
 17 C        7.6860     3.9670    -0.6980 C.ar  1 <1>  -0.1500 
 18 C        7.6870     5.3020     1.2930 C.ar  1 <1>  -0.1500 
 19 C        8.3250     4.3940     0.4640 C.ar  1 <1>   0.0820 
 20 O        9.5570     3.9760     0.8590 O.3   1 <1>  -0.3630 
 21 C       10.3800     3.1480     0.0640 C.3   1 <1>   0.1200 
 22 C       11.0520     3.9880    -1.0240 C.3   1 <1>  -0.2400 
 23 H        2.2130     0.9020    -2.0940 H     1 <1>   0.0800 
 24 H        0.9830     1.8630     1.8160 H     1 <1>   0.0800 
 25 H        3.8030     2.8420    -2.1060 H     1 <1>   0.0800 
 26 H        2.1260     3.2570    -1.9800 H     1 <1>   0.0800 
 27 H        4.5770     0.5400    -1.2880 H     1 <1>   0.0800 
 28 H        3.3890    -0.5670    -0.6890 H     1 <1>   0.0800 
 29 H        2.5440     3.8270     1.8590 H     1 <1>   0.0800 
 30 H        1.2780     3.9090     0.6800 H     1 <1>   0.0800 
 31 H        3.3380     1.5230     2.6640 H     1 <1>   0.0800 
 32 H        2.5290     0.1160     2.0650 H     1 <1>   0.0800 
 33 H        4.1780     3.3730     0.2000 H     1 <1>   0.0800 
 34 H        4.8600     1.5350     0.8450 H     1 <1>   0.0800 
 35 H        4.6640    -0.1250     1.1970 H     1 <1>   0.0800 
 36 H        4.4030     6.8160    -0.6490 H     1 <1>   0.3700 
 37 H        5.9390     4.1210    -1.9110 H     1 <1>   0.1500 
 38 H        5.9400     6.4790     1.6310 H     1 <1>   0.1500 
 39 H        8.1530     3.2700    -1.3670 H     1 <1>   0.1500 
 40 H        8.1870     5.6320     2.1870 H     1 <1>   0.1500 
 41 H        9.7950     2.3410    -0.3400 H     1 <1>   0.0800 
 42 H       11.1280     2.7310     0.7140 H     1 <1>   0.0800 
 43 H       10.3210     4.4230    -1.6810 H     1 <1>   0.0800 
 44 H       11.7080     3.3680    -1.6070 H     1 <1>   0.0800 
 45 H       11.6340     4.7720    -0.5730 H     1 <1>   0.0800 
@<TRIPOS>BOND
  1   1   2  2   
  2   2   3  1   
  3   2   4  1   
  4   3   5  1   
  5   3   6  1   
  6   3  23  1   
  7   4   7  1   
  8   4   8  1   
  9   4  24  1   
 10   5   9  1   
 11   5  25  1   
 12   5  26  1   
 13   6  10  1   
 14   6  27  1   
 15   6  28  1   
 16   7   9  1   
 17   7  29  1   
 18   7  30  1   
 19   8  10  1   
 20   8  31  1   
 21   8  32  1   
 22   9  11  1   
 23   9  33  1   
 24  10  34  1   
 25  10  35  1   
 26  11  12  2   
 27  11  13  am  
 28  13  14  1   
 29  13  36  1   
 30  14  15  ar  
 31  14  16  ar  
 32  15  17  ar  
 33  15  37  1   
 34  16  18  ar  
 35  16  38  1   
 36  17  19  ar  
 37  17  39  1   
 38  18  19  ar  
 39  18  40  1   
 40  19  20  1   
 41  20  21  1   
 42  21  22  1   
 43  21  41  1   
 44  21  42  1   
 45  22  43  1   
 46  22  44  1   
 47  22  45  1   
@<TRIPOS>SUBSTRUCTURE
  1 ****   9 GROUP 4 **** **** 0

# MOE 2024.06 (io_trps.svl 2023.06)
