@<TRIPOS>MOLECULE
NONAME
59 61 1 0 0 
SMALL
USER_CHARGES


@<TRIPOS>ATOM
  1 N       -0.5740     0.3570    -0.3350 N.4   1 <1>  -0.9590 
  2 C        0.2310    -0.5710     0.5130 C.3   1 <1>   0.3430 
  3 C        0.0880     1.6660    -0.5840 C.3   1 <1>   0.3430 
  4 C       -1.9440     0.5490     0.2390 C.3   1 <1>   0.4860 
  5 C        1.6000    -0.8160    -0.1310 C.3   1 <1>  -0.1600 
  6 C        1.4520     1.4360    -1.2430 C.3   1 <1>  -0.1600 
  7 C       -2.6480    -0.7910     0.2200 C.ar  1 <1>  -0.1440 
  8 C        2.3350     0.5010    -0.4110 C.3   1 <1>   0.4230 
  9 C       -2.8320    -1.5000     1.4000 C.ar  1 <1>  -0.1500 
 10 C       -3.1030    -1.3270    -0.9770 C.ar  1 <1>  -0.1500 
 11 N        3.5970     0.2460    -1.1650 N.4   1 <1>  -0.9060 
 12 C       -3.4450    -2.7400     1.3780 C.ar  1 <1>  -0.1500 
 13 C       -3.7150    -2.5680    -0.9960 C.ar  1 <1>  -0.1500 
 14 C        4.7110    -0.4230    -0.4320 C.3   1 <1>   0.4230 
 15 C       -3.8840    -3.2750     0.1810 C.ar  1 <1>  -0.1500 
 16 C        5.3280     0.5270     0.6020 C.3   1 <1>  -0.1600 
 17 C        5.7700    -0.8540    -1.4490 C.3   1 <1>  -0.1600 
 18 C        6.5630    -0.0920     1.2670 C.3   1 <1>   0.3430 
 19 C        6.9940    -1.4660    -0.7620 C.3   1 <1>   0.3430 
 20 N        7.5540    -0.5030     0.2320 N.4   1 <1>  -0.9590 
 21 C        8.7710    -1.0620     0.9020 C.3   1 <1>   0.3430 
 22 C        9.9520    -1.0980    -0.0710 C.3   1 <1>  -0.1600 
 23 C       11.2290    -1.5540     0.6430 C.3   1 <1>  -0.2400 
 24 H       -0.7550    -0.1190    -1.2310 H     1 <1>   0.4500 
 25 H       -0.2860    -1.5140     0.6200 H     1 <1>   0.0800 
 26 H        0.3550    -0.1490     1.4980 H     1 <1>   0.0800 
 27 H        0.2150     2.1940     0.3490 H     1 <1>   0.0800 
 28 H       -0.5270     2.2740    -1.2300 H     1 <1>   0.0800 
 29 H       -2.5070     1.2510    -0.3560 H     1 <1>   0.0800 
 30 H       -1.8870     0.9240     1.2480 H     1 <1>   0.0800 
 31 H        1.4520    -1.3710    -1.0400 H     1 <1>   0.0800 
 32 H        2.1730    -1.4250     0.5450 H     1 <1>   0.0800 
 33 H        1.9330     2.3930    -1.3490 H     1 <1>   0.0800 
 34 H        1.2900     1.0330    -2.2280 H     1 <1>   0.0800 
 35 H        2.5620     0.9870     0.5260 H     1 <1>   0.0800 
 36 H       -2.5090    -1.1040     2.3480 H     1 <1>   0.1500 
 37 H       -2.9980    -0.7940    -1.9070 H     1 <1>   0.1500 
 38 H        3.9450     1.1410    -1.5370 H     1 <1>   0.4500 
 39 H        3.3690    -0.3160    -1.9960 H     1 <1>   0.4500 
 40 H       -3.5890    -3.2920     2.2920 H     1 <1>   0.1500 
 41 H       -4.0690    -2.9860    -1.9230 H     1 <1>   0.1500 
 42 H        4.3400    -1.3040     0.0700 H     1 <1>   0.0800 
 43 H       -4.3630    -4.2400     0.1650 H     1 <1>   0.1500 
 44 H        4.6140     0.7450     1.3770 H     1 <1>   0.0800 
 45 H        5.6180     1.4550     0.1420 H     1 <1>   0.0800 
 46 H        6.0960    -0.0180    -2.0430 H     1 <1>   0.0800 
 47 H        5.3590    -1.5960    -2.1120 H     1 <1>   0.0800 
 48 H        6.2730    -0.9520     1.8510 H     1 <1>   0.0800 
 49 H        7.0100     0.6270     1.9370 H     1 <1>   0.0800 
 50 H        7.7390    -1.7040    -1.5060 H     1 <1>   0.0800 
 51 H        6.7190    -2.3830    -0.2650 H     1 <1>   0.0800 
 52 H        7.8830     0.3390    -0.2650 H     1 <1>   0.4500 
 53 H        8.5750    -2.0550     1.2760 H     1 <1>   0.0800 
 54 H        9.0430    -0.4390     1.7400 H     1 <1>   0.0800 
 55 H       10.1240    -0.1160    -0.4780 H     1 <1>   0.0800 
 56 H        9.7600    -1.7810    -0.8790 H     1 <1>   0.0800 
 57 H       11.4840    -0.8810     1.4440 H     1 <1>   0.0800 
 58 H       12.0520    -1.5720    -0.0510 H     1 <1>   0.0800 
 59 H       11.1120    -2.5450     1.0470 H     1 <1>   0.0800 
@<TRIPOS>BOND
  1   1   2  1   
  2   1   3  1   
  3   1   4  1   
  4   1  24  1   
  5   2   5  1   
  6   2  25  1   
  7   2  26  1   
  8   3   6  1   
  9   3  27  1   
 10   3  28  1   
 11   4   7  1   
 12   4  29  1   
 13   4  30  1   
 14   5   8  1   
 15   5  31  1   
 16   5  32  1   
 17   6   8  1   
 18   6  33  1   
 19   6  34  1   
 20   7   9  ar  
 21   7  10  ar  
 22   8  11  1   
 23   8  35  1   
 24   9  12  ar  
 25   9  36  1   
 26  10  13  ar  
 27  10  37  1   
 28  11  14  1   
 29  11  38  1   
 30  11  39  1   
 31  12  15  ar  
 32  12  40  1   
 33  13  15  ar  
 34  13  41  1   
 35  14  16  1   
 36  14  17  1   
 37  14  42  1   
 38  15  43  1   
 39  16  18  1   
 40  16  44  1   
 41  16  45  1   
 42  17  19  1   
 43  17  46  1   
 44  17  47  1   
 45  18  20  1   
 46  18  48  1   
 47  18  49  1   
 48  19  20  1   
 49  19  50  1   
 50  19  51  1   
 51  20  21  1   
 52  20  52  1   
 53  21  22  1   
 54  21  53  1   
 55  21  54  1   
 56  22  23  1   
 57  22  55  1   
 58  22  56  1   
 59  23  57  1   
 60  23  58  1   
 61  23  59  1   
@<TRIPOS>SUBSTRUCTURE
  1 ****   5 GROUP 4 **** **** 0

# MOE 2024.06 (io_trps.svl 2023.06)
