@<TRIPOS>MOLECULE
NONAME
44 47 1 0 0 
SMALL
USER_CHARGES


@<TRIPOS>ATOM
  1 O       -0.2350    -2.2160     2.4200 O.2   1 <1>  -0.5700 
  2 C       -0.1540    -2.6820     1.3150 C.2   1 <1>   0.5690 
  3 N        0.9710    -2.6890     0.5370 N.am  1 <1>  -0.4200 
  4 C       -1.3320    -3.3280     0.5990 C.3   1 <1>  -0.0190 
  5 C        0.7860    -3.2330    -0.7010 C.2   1 <1>   0.5690 
  6 C        2.2820    -2.1400     0.9950 C.3   1 <1>   0.2010 
  7 C       -0.6380    -3.7320    -0.8920 C.3   1 <1>  -0.0190 
  8 C       -2.6220    -2.3390     0.2770 C.3   1 <1>   0.0580 
  9 O        1.6430    -3.3250    -1.5420 O.2   1 <1>  -0.5700 
 10 C        3.3060    -3.2230     1.3210 C.2   1 <1>   0.5690 
 11 C       -1.5310    -2.9710    -2.0610 C.3   1 <1>   0.0580 
 12 C       -3.4780    -1.7980    -0.9870 C.2   1 <1>  -0.2880 
 13 C       -1.9980    -2.7020    -0.8420 C.3   1 <1>  -0.1600 
 14 O        3.7920    -3.2240     2.4250 O.2   1 <1>  -0.5700 
 15 N        3.6470    -4.1200     0.3400 N.am  1 <1>  -0.5470 
 16 C       -2.9070    -2.1290    -2.2120 C.2   1 <1>  -0.2880 
 17 C        4.5580    -5.1910     0.3190 C.ar  1 <1>   0.1170 
 18 C        5.0500    -5.6650    -0.9030 C.ar  1 <1>  -0.1430 
 19 C        4.9820    -5.8120     1.4910 C.ar  1 <1>  -0.1500 
 20 C        5.9510    -6.7190    -0.9210 C.ar  1 <1>  -0.1500 
 21 C        4.6320    -5.0600    -2.2420 C.3   1 <1>  -0.0170 
 22 C        5.8780    -6.8630     1.4630 C.ar  1 <1>  -0.1500 
 23 C        6.3660    -7.3180     0.2540 C.ar  1 <1>  -0.1500 
 24 C        5.3720    -3.7470    -2.5120 C.3   1 <1>  -0.2400 
 25 H       -1.6370    -4.2050     1.1480 H     1 <1>   0.0800 
 26 H        2.1310    -1.5380     1.8740 H     1 <1>   0.0800 
 27 H        2.6850    -1.5050     0.2280 H     1 <1>   0.0800 
 28 H       -0.6190    -4.8000    -1.0440 H     1 <1>   0.0800 
 29 H       -2.3680    -1.4220     0.7950 H     1 <1>   0.0800 
 30 H       -0.8100    -2.3250    -2.5450 H     1 <1>   0.0800 
 31 H       -4.3840    -1.2460    -0.7950 H     1 <1>   0.1500 
 32 H       -2.7010    -3.6940    -0.9010 H     1 <1>   0.0800 
 33 H       -1.3680    -1.7140    -0.8150 H     1 <1>   0.0800 
 34 H        3.1950    -3.9480    -0.5660 H     1 <1>   0.3700 
 35 H       -3.2620    -1.8970    -3.2030 H     1 <1>   0.1500 
 36 H        4.6120    -5.4790     2.4430 H     1 <1>   0.1500 
 37 H        6.3400    -7.0850    -1.8550 H     1 <1>   0.1500 
 38 H        3.5700    -4.8980    -2.2620 H     1 <1>   0.0800 
 39 H        4.8520    -5.7500    -3.0370 H     1 <1>   0.0800 
 40 H        6.1940    -7.3250     2.3820 H     1 <1>   0.1500 
 41 H        7.0660    -8.1350     0.2270 H     1 <1>   0.1500 
 42 H        5.1510    -3.0220    -1.7500 H     1 <1>   0.0800 
 43 H        5.0770    -3.3460    -3.4650 H     1 <1>   0.0800 
 44 H        6.4340    -3.9190    -2.5220 H     1 <1>   0.0800 
@<TRIPOS>BOND
  1   1   2  2   
  2   2   3  am  
  3   2   4  1   
  4   3   5  am  
  5   3   6  1   
  6   4   7  1   
  7   4   8  1   
  8   4  25  1   
  9   5   7  1   
 10   5   9  2   
 11   6  10  1   
 12   6  26  1   
 13   6  27  1   
 14   7  11  1   
 15   7  28  1   
 16   8  12  1   
 17   8  13  1   
 18   8  29  1   
 19  10  14  2   
 20  10  15  am  
 21  11  13  1   
 22  11  16  1   
 23  11  30  1   
 24  12  16  2   
 25  12  31  1   
 26  13  32  1   
 27  13  33  1   
 28  15  17  1   
 29  15  34  1   
 30  16  35  1   
 31  17  18  ar  
 32  17  19  ar  
 33  18  20  ar  
 34  18  21  1   
 35  19  22  ar  
 36  19  36  1   
 37  20  23  ar  
 38  20  37  1   
 39  21  24  1   
 40  21  38  1   
 41  21  39  1   
 42  22  23  ar  
 43  22  40  1   
 44  23  41  1   
 45  24  42  1   
 46  24  43  1   
 47  24  44  1   
@<TRIPOS>SUBSTRUCTURE
  1 ****   5 GROUP 4 **** **** 0

# MOE 2024.06 (io_trps.svl 2023.06)
