@<TRIPOS>MOLECULE
NONAME
45 47 1 0 0 
SMALL
USER_CHARGES


@<TRIPOS>ATOM
  1 F       -0.8160     0.0580     0.6470 F     1 <1>  -0.1900 
  2 C       -1.7600     0.9350     0.4280 C.ar  1 <1>   0.1900 
  3 C       -2.6030     0.7510    -0.6520 C.ar  1 <1>  -0.1500 
  4 C       -1.8780     2.0140     1.2840 C.ar  1 <1>  -0.1500 
  5 C       -3.6010     1.6840    -0.8750 C.ar  1 <1>  -0.1500 
  6 C       -2.8800     2.9430     1.0530 C.ar  1 <1>  -0.1500 
  7 C       -3.7470     2.7750    -0.0280 C.ar  1 <1>   0.0830 
  8 O       -4.7570     3.6310    -0.3160 O.3   1 <1>  -0.3630 
  9 C       -5.1850     4.6070     0.6200 C.3   1 <1>   0.1810 
 10 C       -6.4930     5.2780     0.1960 C.2   1 <1>   0.5690 
 11 O       -6.4590     6.4850     0.1270 O.2   1 <1>  -0.5700 
 12 N       -7.6590     4.5660    -0.0350 N.am  1 <1>  -0.4770 
 13 C       -8.8270     5.2360    -0.4160 C.ar  1 <1>   0.4270 
 14 C       -7.7210     3.0780     0.1560 C.3   1 <1>   0.2200 
 15 N       -9.3610     4.9200    -1.5930 N.ar  1 <1>  -0.6200 
 16 C       -9.3950     6.1820     0.4370 C.ar  1 <1>  -0.1500 
 17 C       -7.5910     2.3130    -1.1720 C.3   1 <1>  -0.1600 
 18 C       -8.9880     2.6390     0.9110 C.3   1 <1>  -0.1600 
 19 C      -10.4700     5.5590    -1.9240 C.ar  1 <1>   0.1600 
 20 C      -10.5520     6.8370     0.0830 C.ar  1 <1>  -0.1500 
 21 C       -7.5520     0.7990    -0.9200 C.3   1 <1>  -0.1600 
 22 C       -8.9680     1.1230     1.1670 C.3   1 <1>  -0.1600 
 23 C      -11.0980     6.5080    -1.1390 C.ar  1 <1>  -0.1500 
 24 C       -8.7940     0.3400    -0.1420 C.3   1 <1>  -0.1600 
 25 H       -2.4780    -0.0990    -1.2970 H     1 <1>   0.1500 
 26 H       -1.1970     2.1190     2.1100 H     1 <1>   0.1500 
 27 H       -4.2730     1.5730    -1.7080 H     1 <1>   0.1500 
 28 H       -2.9630     3.7840     1.7140 H     1 <1>   0.1500 
 29 H       -4.4130     5.3510     0.6930 H     1 <1>   0.0800 
 30 H       -5.3190     4.1350     1.5750 H     1 <1>   0.0800 
 31 H       -6.8970     2.7750     0.7730 H     1 <1>   0.0800 
 32 H       -8.9140     6.3980     1.3710 H     1 <1>   0.1500 
 33 H       -6.6980     2.6170    -1.6870 H     1 <1>   0.0800 
 34 H       -8.4310     2.5310    -1.8070 H     1 <1>   0.0800 
 35 H       -9.8620     2.8750     0.3290 H     1 <1>   0.0800 
 36 H       -9.0490     3.1580     1.8500 H     1 <1>   0.0800 
 37 H      -10.9020     5.3120    -2.8780 H     1 <1>   0.1500 
 38 H      -11.0050     7.5730     0.7250 H     1 <1>   0.1500 
 39 H       -6.6650     0.5510    -0.3620 H     1 <1>   0.0800 
 40 H       -7.5050     0.2800    -1.8620 H     1 <1>   0.0800 
 41 H       -9.8870     0.8270     1.6440 H     1 <1>   0.0800 
 42 H       -8.1580     0.8830     1.8350 H     1 <1>   0.0800 
 43 H      -12.0000     6.9840    -1.4810 H     1 <1>   0.1500 
 44 H       -8.7150    -0.7120     0.0740 H     1 <1>   0.0800 
 45 H       -9.6670     0.4830    -0.7570 H     1 <1>   0.0800 
@<TRIPOS>BOND
  1   1   2  1   
  2   2   3  ar  
  3   2   4  ar  
  4   3   5  ar  
  5   3  25  1   
  6   4   6  ar  
  7   4  26  1   
  8   5   7  ar  
  9   5  27  1   
 10   6   7  ar  
 11   6  28  1   
 12   7   8  1   
 13   8   9  1   
 14   9  10  1   
 15   9  29  1   
 16   9  30  1   
 17  10  11  2   
 18  10  12  am  
 19  12  13  1   
 20  12  14  1   
 21  13  15  ar  
 22  13  16  ar  
 23  14  17  1   
 24  14  18  1   
 25  14  31  1   
 26  15  19  ar  
 27  16  20  ar  
 28  16  32  1   
 29  17  21  1   
 30  17  33  1   
 31  17  34  1   
 32  18  22  1   
 33  18  35  1   
 34  18  36  1   
 35  19  23  ar  
 36  19  37  1   
 37  20  23  ar  
 38  20  38  1   
 39  21  24  1   
 40  21  39  1   
 41  21  40  1   
 42  22  24  1   
 43  22  41  1   
 44  22  42  1   
 45  23  43  1   
 46  24  44  1   
 47  24  45  1   
@<TRIPOS>SUBSTRUCTURE
  1 ****  14 GROUP 4 **** **** 0

# MOE 2024.06 (io_trps.svl 2023.06)
