@<TRIPOS>MOLECULE
NONAME
50 53 1 0 0 
SMALL
USER_CHARGES


@<TRIPOS>ATOM
  1 S        0.2770    -0.6220     0.1360 S.o2  1 <1>   1.4470 
  2 O        0.9430    -1.6180     0.9430 O.2   1 <1>  -0.6500 
  3 O        1.0500     0.1950    -0.7740 O.2   1 <1>  -0.6500 
  4 N       -0.3800     0.4060     1.2900 N.am  1 <1>  -0.9140 
  5 C       -1.1800    -1.3350    -0.6920 C.ar  1 <1>  -0.0090 
  6 C        0.5510     1.4360     1.7450 C.3   1 <1>   0.1160 
  7 C       -2.0560    -0.5910    -1.4880 C.ar  1 <1>  -0.1430 
  8 C       -1.4490    -2.6870    -0.5230 C.ar  1 <1>  -0.1500 
  9 C       -3.1480    -1.2060    -2.0820 C.ar  1 <1>  -0.1500 
 10 C       -1.8450     0.8970    -1.7390 C.3   1 <1>  -0.0970 
 11 C       -2.5440    -3.3200    -1.1020 C.ar  1 <1>   0.0000 
 12 C       -3.3890    -2.5520    -1.8940 C.ar  1 <1>  -0.1500 
 13 C       -2.7800    -4.7240    -0.8800 C.ar  1 <1>   0.3100 
 14 N       -1.9590    -5.5690    -1.4660 N.ar  1 <1>  -0.3100 
 15 C       -3.8490    -5.1430    -0.0560 C.ar  1 <1>   0.0000 
 16 N       -2.0850    -6.8720    -1.2850 N.ar  1 <1>  -0.3100 
 17 C       -4.0070    -6.5250     0.1100 C.ar  1 <1>   0.0000 
 18 C       -4.7530    -4.2750     0.5990 C.ar  1 <1>  -0.1500 
 19 C       -3.0420    -7.3540    -0.5120 C.ar  1 <1>   0.4100 
 20 C       -5.1030    -6.9940     0.8670 C.ar  1 <1>  -0.1500 
 21 C       -5.7920    -4.7560     1.3470 C.ar  1 <1>  -0.1500 
 22 N       -3.0510    -8.7190    -0.2990 N.pl3 1 <1>  -0.8380 
 23 C       -5.9750    -6.1340     1.4760 C.ar  1 <1>  -0.1500 
 24 C       -2.6850    -9.6600    -1.4020 C.3   1 <1>   0.2090 
 25 C       -2.6780    -9.2440     1.0490 C.3   1 <1>   0.2090 
 26 C       -1.2350   -10.1560    -1.2500 C.3   1 <1>   0.1200 
 27 C       -1.2260    -9.7580     1.0560 C.3   1 <1>   0.1200 
 28 O       -1.0190   -10.6890     0.0290 O.3   1 <1>  -0.5600 
 29 H       -0.5520    -0.2180     2.0770 H     1 <1>   0.4200 
 30 H        0.7880     2.1040     0.9320 H     1 <1>   0.0800 
 31 H        1.4620     0.9860     2.1030 H     1 <1>   0.0800 
 32 H        0.1030     2.0080     2.5400 H     1 <1>   0.0800 
 33 H       -0.7850    -3.2850     0.0790 H     1 <1>   0.1500 
 34 H       -3.8200    -0.6380    -2.7020 H     1 <1>   0.1500 
 35 H       -1.7970     1.4340    -0.8080 H     1 <1>   0.0800 
 36 H       -2.6500     1.3120    -2.3170 H     1 <1>   0.0800 
 37 H       -0.9300     1.0570    -2.2810 H     1 <1>   0.0800 
 38 H       -4.2370    -3.0170    -2.3660 H     1 <1>   0.1500 
 39 H       -4.6220    -3.2110     0.5060 H     1 <1>   0.1500 
 40 H       -5.2480    -8.0560     0.9550 H     1 <1>   0.1500 
 41 H       -6.4780    -4.0880     1.8390 H     1 <1>   0.1500 
 42 H       -6.8040    -6.5040     2.0540 H     1 <1>   0.1500 
 43 H       -2.7990    -9.1720    -2.3550 H     1 <1>   0.0800 
 44 H       -3.3510   -10.5040    -1.3830 H     1 <1>   0.0800 
 45 H       -3.3410   -10.0480     1.3140 H     1 <1>   0.0800 
 46 H       -2.7810    -8.4690     1.7880 H     1 <1>   0.0800 
 47 H       -0.5450    -9.3450    -1.4080 H     1 <1>   0.0800 
 48 H       -1.0300   -10.9290    -1.9680 H     1 <1>   0.0800 
 49 H       -1.0090   -10.2450     1.9890 H     1 <1>   0.0800 
 50 H       -0.5390    -8.9410     0.9220 H     1 <1>   0.0800 
@<TRIPOS>BOND
  1   1   2  2   
  2   1   3  2   
  3   1   4  am  
  4   1   5  1   
  5   4   6  1   
  6   4  29  1   
  7   5   7  ar  
  8   5   8  ar  
  9   6  30  1   
 10   6  31  1   
 11   6  32  1   
 12   7   9  ar  
 13   7  10  1   
 14   8  11  ar  
 15   8  33  1   
 16   9  12  ar  
 17   9  34  1   
 18  10  35  1   
 19  10  36  1   
 20  10  37  1   
 21  11  12  ar  
 22  11  13  1   
 23  12  38  1   
 24  13  14  ar  
 25  13  15  ar  
 26  14  16  ar  
 27  15  17  ar  
 28  15  18  ar  
 29  16  19  ar  
 30  17  19  ar  
 31  17  20  ar  
 32  18  21  ar  
 33  18  39  1   
 34  19  22  1   
 35  20  23  ar  
 36  20  40  1   
 37  21  23  ar  
 38  21  41  1   
 39  22  24  1   
 40  22  25  1   
 41  23  42  1   
 42  24  26  1   
 43  24  43  1   
 44  24  44  1   
 45  25  27  1   
 46  25  45  1   
 47  25  46  1   
 48  26  28  1   
 49  26  47  1   
 50  26  48  1   
 51  27  28  1   
 52  27  49  1   
 53  27  50  1   
@<TRIPOS>SUBSTRUCTURE
  1 ****  13 GROUP 4 **** **** 0

# MOE 2024.06 (io_trps.svl 2023.06)
