@<TRIPOS>MOLECULE
Structure2177
42 41 1 0 0 
SMALL
USER_CHARGES


@<TRIPOS>ATOM
  1 O       -0.0850     0.9130     1.2480 O.2   1 <1>  -0.5700 
  2 C       -0.6790     1.6970     0.5430 C.2   1 <1>   0.7800 
  3 O       -0.0680     2.3960    -0.4150 O.3   1 <1>  -0.4300 
  4 N       -1.9980     1.9020     0.7120 N.am  1 <1>  -0.7300 
  5 C        1.2950     2.3330    -0.7750 C.3   1 <1>   0.2800 
  6 C       -2.8200     2.9750     0.0840 C.3   1 <1>   0.2810 
  7 C        1.4490     3.3160    -1.9360 C.3   1 <1>  -0.2400 
  8 C        2.1720     2.7920     0.3960 C.3   1 <1>  -0.2400 
  9 C        1.6530     0.9230    -1.2580 C.3   1 <1>  -0.2400 
 10 C       -3.2420     4.0380     1.1230 C.2   1 <1>   0.5690 
 11 C       -4.0040     2.3340    -0.6830 C.3   1 <1>  -0.0800 
 12 O       -3.7400     3.6640     2.1700 O.2   1 <1>  -0.5700 
 13 N       -3.0360     5.3720     0.8660 N.am  1 <1>  -0.3250 
 14 C       -4.8210     3.3930    -1.4400 C.3   1 <1>  -0.2400 
 15 C       -4.9500     1.4930     0.1940 C.3   1 <1>  -0.2400 
 16 O       -2.4080     5.8240    -0.3000 O.3   1 <1>  -0.3150 
 17 C       -3.5280     6.4710     1.7300 C.3   1 <1>   0.0600 
 18 C       -1.0150     5.9800    -0.1310 C.3   1 <1>   0.0400 
 19 H       -2.4170     1.4770     1.5390 H     1 <1>   0.3700 
 20 H       -2.2140     3.4620    -0.6560 H     1 <1>   0.0800 
 21 H        2.4650     3.3260    -2.2850 H     1 <1>   0.0800 
 22 H        1.1900     4.3110    -1.6230 H     1 <1>   0.0800 
 23 H        0.8130     3.0280    -2.7540 H     1 <1>   0.0800 
 24 H        2.1390     2.0850     1.2050 H     1 <1>   0.0800 
 25 H        1.8500     3.7520     0.7540 H     1 <1>   0.0800 
 26 H        3.1960     2.8720     0.0780 H     1 <1>   0.0800 
 27 H        2.6500     0.9140    -1.6600 H     1 <1>   0.0800 
 28 H        0.9720     0.6060    -2.0270 H     1 <1>   0.0800 
 29 H        1.6260     0.2160    -0.4490 H     1 <1>   0.0800 
 30 H       -3.5750     1.6780    -1.4220 H     1 <1>   0.0800 
 31 H       -5.3240     4.0540    -0.7560 H     1 <1>   0.0800 
 32 H       -5.5620     2.9200    -2.0600 H     1 <1>   0.0800 
 33 H       -4.1790     3.9820    -2.0730 H     1 <1>   0.0800 
 34 H       -5.4350     2.1030     0.9350 H     1 <1>   0.0800 
 35 H       -4.4120     0.7080     0.6950 H     1 <1>   0.0800 
 36 H       -5.7100     1.0350    -0.4140 H     1 <1>   0.0800 
 37 H       -2.6930     6.9990     2.1530 H     1 <1>   0.0800 
 38 H       -4.1170     7.1500     1.1400 H     1 <1>   0.0800 
 39 H       -4.1360     6.0790     2.5260 H     1 <1>   0.0800 
 40 H       -0.5950     6.2800    -1.0740 H     1 <1>   0.0800 
 41 H       -0.5880     5.0430     0.1810 H     1 <1>   0.0800 
 42 H       -0.8350     6.7380     0.6090 H     1 <1>   0.0800 
@<TRIPOS>BOND
  1   1   2  2   
  2   2   3  1   
  3   2   4  am  
  4   3   5  1   
  5   4   6  1   
  6   4  19  1   
  7   5   7  1   
  8   5   8  1   
  9   5   9  1   
 10   6  10  1   
 11   6  11  1   
 12   6  20  1   
 13   7  21  1   
 14   7  22  1   
 15   7  23  1   
 16   8  24  1   
 17   8  25  1   
 18   8  26  1   
 19   9  27  1   
 20   9  28  1   
 21   9  29  1   
 22  10  12  2   
 23  10  13  am  
 24  11  14  1   
 25  11  15  1   
 26  11  30  1   
 27  13  16  1   
 28  13  17  1   
 29  14  31  1   
 30  14  32  1   
 31  14  33  1   
 32  15  34  1   
 33  15  35  1   
 34  15  36  1   
 35  16  18  1   
 36  17  37  1   
 37  17  38  1   
 38  17  39  1   
 39  18  40  1   
 40  18  41  1   
 41  18  42  1   
@<TRIPOS>SUBSTRUCTURE
  1 ****   6 GROUP 4 **** **** 0

# MOE 2024.06 (io_trps.svl 2023.06)
