@<TRIPOS>MOLECULE
NONAME
40 42 1 0 0 
SMALL
USER_CHARGES


@<TRIPOS>ATOM
  1 S       -0.1930    -0.0520     0.5360 S.3   1 <1>  -0.0800 
  2 C       -0.0400     1.6870     0.4770 C.2   1 <1>  -0.1400 
  3 C       -1.8830     0.0590     0.1010 C.2   1 <1>  -0.1100 
  4 C       -1.2070     2.2700     0.1640 C.2   1 <1>  -0.1810 
  5 C        1.2910     2.3470     0.7620 C.3   1 <1>   0.0200 
  6 C       -2.2950     1.3440    -0.0650 C.2   1 <1>  -0.0860 
  7 C       -1.3220     3.7870     0.0670 C.3   1 <1>   0.0210 
  8 C        1.2280     3.8210     0.3220 C.3   1 <1>  -0.1600 
  9 C       -3.6430     1.7440    -0.4220 C.2   1 <1>   0.7160 
 10 C       -0.1080     4.4820     0.7170 C.3   1 <1>  -0.1600 
 11 O       -3.8580     2.7390    -1.0850 O.2   1 <1>  -0.5700 
 12 N       -4.6830     0.9550     0.0040 N.am  1 <1>  -0.5470 
 13 C       -6.0710     1.0570    -0.1790 C.ar  1 <1>   0.1170 
 14 C       -6.7180     2.2610    -0.4300 C.ar  1 <1>  -0.1500 
 15 C       -6.8380    -0.0990    -0.0890 C.ar  1 <1>  -0.1500 
 16 C       -8.0930     2.3230    -0.5960 C.ar  1 <1>   0.1170 
 17 C       -8.2100    -0.0550    -0.2570 C.ar  1 <1>  -0.1500 
 18 N       -8.6990     3.5570    -0.8590 N.am  1 <1>  -0.5470 
 19 C       -8.8350     1.1510    -0.5150 C.ar  1 <1>  -0.1500 
 20 C       -9.7610     4.1710    -0.2770 C.2   1 <1>   0.5690 
 21 O      -10.1360     5.2380    -0.6870 O.2   1 <1>  -0.5700 
 22 C      -10.4770     3.5510     0.9000 C.3   1 <1>  -0.1790 
 23 H       -2.4100    -0.8720     0.0010 H     1 <1>   0.1500 
 24 H        2.0770     1.8400     0.2310 H     1 <1>   0.0800 
 25 H        1.4910     2.2830     1.8170 H     1 <1>   0.0800 
 26 H       -2.2210     4.1210     0.5550 H     1 <1>   0.0800 
 27 H       -1.3860     4.0590    -0.9720 H     1 <1>   0.0800 
 28 H        1.3320     3.8670    -0.7490 H     1 <1>   0.0800 
 29 H        2.0500     4.3610     0.7580 H     1 <1>   0.0800 
 30 H       -0.2140     4.4360     1.7870 H     1 <1>   0.0800 
 31 H       -0.1000     5.5200     0.4320 H     1 <1>   0.0800 
 32 H       -4.3760     0.1440     0.5340 H     1 <1>   0.3700 
 33 H       -6.1540     3.1720    -0.4890 H     1 <1>   0.1500 
 34 H       -6.3620    -1.0430     0.1080 H     1 <1>   0.1500 
 35 H       -8.7920    -0.9590    -0.1930 H     1 <1>   0.1500 
 36 H       -8.2420     4.1440    -1.5580 H     1 <1>   0.3700 
 37 H       -9.8990     1.1810    -0.6630 H     1 <1>   0.1500 
 38 H       -9.7750     3.0630     1.5500 H     1 <1>   0.0800 
 39 H      -11.2000     2.8410     0.5490 H     1 <1>   0.0800 
 40 H      -10.9850     4.3180     1.4540 H     1 <1>   0.0800 
@<TRIPOS>BOND
  1   1   2  1   
  2   1   3  1   
  3   2   4  2   
  4   2   5  1   
  5   3   6  2   
  6   3  23  1   
  7   4   6  1   
  8   4   7  1   
  9   5   8  1   
 10   5  24  1   
 11   5  25  1   
 12   6   9  1   
 13   7  10  1   
 14   7  26  1   
 15   7  27  1   
 16   8  10  1   
 17   8  28  1   
 18   8  29  1   
 19   9  11  2   
 20   9  12  am  
 21  10  30  1   
 22  10  31  1   
 23  12  13  1   
 24  12  32  1   
 25  13  14  ar  
 26  13  15  ar  
 27  14  16  ar  
 28  14  33  1   
 29  15  17  ar  
 30  15  34  1   
 31  16  18  1   
 32  16  19  ar  
 33  17  19  ar  
 34  17  35  1   
 35  18  20  am  
 36  18  36  1   
 37  19  37  1   
 38  20  21  2   
 39  20  22  1   
 40  22  38  1   
 41  22  39  1   
 42  22  40  1   
@<TRIPOS>SUBSTRUCTURE
  1 ****   9 GROUP 4 **** **** 0

# MOE 2024.06 (io_trps.svl 2023.06)
