@<TRIPOS>MOLECULE
NONAME
49 51 1 0 0 
SMALL
USER_CHARGES


@<TRIPOS>ATOM
  1 S        0.8820    -0.6360    -1.7630 S.3   1 <1>  -0.0800 
  2 C       -0.1540     0.2980    -0.6940 C.2   1 <1>   0.1040 
  3 C        2.2040    -0.6230    -0.6080 C.2   1 <1>  -0.1400 
  4 N       -1.4350     0.6430    -1.0910 N.am  1 <1>  -0.4940 
  5 C        0.5000     0.5870     0.4720 C.2   1 <1>  -0.0860 
  6 C        1.8390     0.0530     0.4950 C.2   1 <1>  -0.1500 
  7 C        3.4710    -1.3430    -1.0340 C.3   1 <1>   0.0200 
  8 C       -2.2150     0.3190    -2.1700 C.2   1 <1>   0.5690 
  9 C       -0.0600     1.3290     1.5650 C.2   1 <1>   0.8060 
 10 C        4.5630    -1.2750     0.0380 C.3   1 <1>  -0.2400 
 11 O       -1.8890    -0.4360    -3.0530 O.2   1 <1>  -0.5700 
 12 C       -3.5960     0.9750    -2.2290 C.3   1 <1>   0.1710 
 13 O       -1.2000     1.7570     1.5700 O.2   1 <1>  -0.5700 
 14 O        0.7120     1.5580     2.6360 O.3   1 <1>  -0.4300 
 15 N       -4.0560     1.5340    -0.9230 N.3   1 <1>  -0.8100 
 16 C        0.2370     2.2850     3.7540 C.3   1 <1>   0.0400 
 17 C       -5.1280     2.5210    -1.1270 C.3   1 <1>   0.1100 
 18 C       -4.4950     0.4620    -0.0100 C.3   1 <1>   0.1100 
 19 C       -5.4680     3.1920     0.2040 C.3   1 <1>  -0.1600 
 20 C       -4.8080     1.0520     1.3650 C.3   1 <1>  -0.1600 
 21 C       -5.8640     2.1490     1.2390 C.3   1 <1>   0.5600 
 22 O       -7.0940     1.6000     0.8880 O.3   1 <1>  -0.5600 
 23 O       -6.0790     2.7720     2.4600 O.3   1 <1>  -0.5600 
 24 C       -7.8300     1.3610     2.0330 C.3   1 <1>   0.1200 
 25 C       -7.0950     2.1160     3.1250 C.3   1 <1>   0.1200 
 26 H       -1.9600     1.2440    -0.4360 H     1 <1>   0.3700 
 27 H        2.4720     0.2060     1.3530 H     1 <1>   0.1500 
 28 H        3.8350    -0.8980    -1.9440 H     1 <1>   0.0800 
 29 H        3.2350    -2.3720    -1.2390 H     1 <1>   0.0800 
 30 H        4.8240    -0.2510     0.2390 H     1 <1>   0.0800 
 31 H        5.4420    -1.7950    -0.3000 H     1 <1>   0.0800 
 32 H        4.2190    -1.7350     0.9480 H     1 <1>   0.0800 
 33 H       -4.3100     0.2570    -2.5950 H     1 <1>   0.0800 
 34 H       -3.5290     1.7680    -2.9520 H     1 <1>   0.0800 
 35 H        1.0250     2.3430     4.4830 H     1 <1>   0.0800 
 36 H       -0.6140     1.7720     4.1680 H     1 <1>   0.0800 
 37 H       -0.0450     3.2730     3.4340 H     1 <1>   0.0800 
 38 H       -6.0040     2.0390    -1.5290 H     1 <1>   0.0800 
 39 H       -4.8020     3.2760    -1.8230 H     1 <1>   0.0800 
 40 H       -3.7200    -0.2780     0.0960 H     1 <1>   0.0800 
 41 H       -5.3730    -0.0230    -0.4070 H     1 <1>   0.0800 
 42 H       -6.2730     3.8900     0.0720 H     1 <1>   0.0800 
 43 H       -4.6030     3.7250     0.5520 H     1 <1>   0.0800 
 44 H       -3.9080     1.4760     1.7690 H     1 <1>   0.0800 
 45 H       -5.1470     0.2780     2.0250 H     1 <1>   0.0800 
 46 H       -7.8520     0.3040     2.2260 H     1 <1>   0.0800 
 47 H       -8.8280     1.7360     1.8890 H     1 <1>   0.0800 
 48 H       -7.7220     2.8400     3.6130 H     1 <1>   0.0800 
 49 H       -6.6650     1.4450     3.8470 H     1 <1>   0.0800 
@<TRIPOS>BOND
  1   1   2  1   
  2   1   3  1   
  3   2   4  1   
  4   2   5  2   
  5   3   6  2   
  6   3   7  1   
  7   4   8  am  
  8   4  26  1   
  9   5   6  1   
 10   5   9  1   
 11   6  27  1   
 12   7  10  1   
 13   7  28  1   
 14   7  29  1   
 15   8  11  2   
 16   8  12  1   
 17   9  13  2   
 18   9  14  1   
 19  10  30  1   
 20  10  31  1   
 21  10  32  1   
 22  12  15  1   
 23  12  33  1   
 24  12  34  1   
 25  14  16  1   
 26  15  17  1   
 27  15  18  1   
 28  16  35  1   
 29  16  36  1   
 30  16  37  1   
 31  17  19  1   
 32  17  38  1   
 33  17  39  1   
 34  18  20  1   
 35  18  40  1   
 36  18  41  1   
 37  19  21  1   
 38  19  42  1   
 39  19  43  1   
 40  20  21  1   
 41  20  44  1   
 42  20  45  1   
 43  21  22  1   
 44  21  23  1   
 45  22  24  1   
 46  23  25  1   
 47  24  25  1   
 48  24  46  1   
 49  24  47  1   
 50  25  48  1   
 51  25  49  1   
@<TRIPOS>SUBSTRUCTURE
  1 ****   4 GROUP 4 **** **** 0

# MOE 2024.06 (io_trps.svl 2023.06)
