@<TRIPOS>MOLECULE
NONAME
46 48 1 0 0 
SMALL
USER_CHARGES


@<TRIPOS>ATOM
  1 O        0.1920    -1.9640    -1.9500 O.2   1 <1>  -0.5700 
  2 C       -0.5230    -1.7630    -1.0010 C.2   1 <1>   0.5690 
  3 N       -0.5260    -2.4870     0.1490 N.am  1 <1>  -0.4200 
  4 C       -1.5380    -0.6380    -0.9360 C.3   1 <1>  -0.0190 
  5 C       -1.4270    -2.0030     1.0440 C.2   1 <1>   0.5690 
  6 C        0.3410    -3.6600     0.3900 C.3   1 <1>   0.1400 
  7 C       -2.1590    -0.8010     0.4790 C.3   1 <1>  -0.0190 
  8 C       -2.5190    -0.6720    -2.1240 C.3   1 <1>  -0.0220 
  9 O       -1.6290    -2.4470     2.1450 O.2   1 <1>  -0.5700 
 10 C        1.7480    -3.1960     0.7800 C.3   1 <1>  -0.1600 
 11 C       -3.6900    -0.9700     0.5410 C.3   1 <1>  -0.0220 
 12 C       -3.8370    -0.0210    -1.7560 C.2   1 <1>  -0.2880 
 13 C        2.7060    -4.3890     0.9310 C.3   1 <1>  -0.0990 
 14 C       -4.3700    -0.1560    -0.5420 C.2   1 <1>  -0.2880 
 15 C        4.1110    -3.9470     1.2950 C.2   1 <1>   0.5690 
 16 O        4.4900    -4.1280     2.4240 O.2   1 <1>  -0.5700 
 17 N        4.8580    -3.3580     0.3120 N.am  1 <1>  -0.5470 
 18 C        6.1700    -2.8590     0.3100 C.ar  1 <1>   0.1170 
 19 C        6.5510    -2.0060    -0.7200 C.ar  1 <1>  -0.1500 
 20 C        7.1140    -3.1840     1.2790 C.ar  1 <1>  -0.1500 
 21 C        7.8330    -1.4860    -0.7900 C.ar  1 <1>  -0.1440 
 22 C        8.3960    -2.6680     1.2190 C.ar  1 <1>  -0.1500 
 23 C        8.7550    -1.8200     0.1870 C.ar  1 <1>  -0.1500 
 24 C        8.2300    -0.5530    -1.9200 C.3   1 <1>  -0.0970 
 25 H       -1.0050     0.2950    -0.9660 H     1 <1>   0.0800 
 26 H        0.3820    -4.2500    -0.5100 H     1 <1>   0.0800 
 27 H       -0.0810    -4.2650     1.1750 H     1 <1>   0.0800 
 28 H       -1.8920     0.0580     1.0670 H     1 <1>   0.0800 
 29 H       -2.7130    -1.6880    -2.4240 H     1 <1>   0.0800 
 30 H       -2.0740    -0.1620    -2.9600 H     1 <1>   0.0800 
 31 H        1.7000    -2.6620     1.7140 H     1 <1>   0.0800 
 32 H        2.1260    -2.5310     0.0230 H     1 <1>   0.0800 
 33 H       -4.0370    -0.6590     1.5110 H     1 <1>   0.0800 
 34 H       -3.9620    -2.0040     0.4110 H     1 <1>   0.0800 
 35 H       -4.3010     0.5290    -2.5590 H     1 <1>   0.1500 
 36 H        2.7480    -4.9520     0.0170 H     1 <1>   0.0800 
 37 H        2.3460    -5.0440     1.7050 H     1 <1>   0.0800 
 38 H       -5.3160     0.2710    -0.2500 H     1 <1>   0.1500 
 39 H        4.3640    -3.2210    -0.5670 H     1 <1>   0.3700 
 40 H        5.8340    -1.7430    -1.4760 H     1 <1>   0.1500 
 41 H        6.8570    -3.8450     2.0850 H     1 <1>   0.1500 
 42 H        9.1130    -2.9270     1.9780 H     1 <1>   0.1500 
 43 H        9.7540    -1.4210     0.1500 H     1 <1>   0.1500 
 44 H        7.5630    -0.6600    -2.7560 H     1 <1>   0.0800 
 45 H        9.2280    -0.7760    -2.2520 H     1 <1>   0.0800 
 46 H        8.1970     0.4660    -1.5780 H     1 <1>   0.0800 
@<TRIPOS>BOND
  1   1   2  2   
  2   2   3  am  
  3   2   4  1   
  4   3   5  am  
  5   3   6  1   
  6   4   7  1   
  7   4   8  1   
  8   4  25  1   
  9   5   7  1   
 10   5   9  2   
 11   6  10  1   
 12   6  26  1   
 13   6  27  1   
 14   7  11  1   
 15   7  28  1   
 16   8  12  1   
 17   8  29  1   
 18   8  30  1   
 19  10  13  1   
 20  10  31  1   
 21  10  32  1   
 22  11  14  1   
 23  11  33  1   
 24  11  34  1   
 25  12  14  2   
 26  12  35  1   
 27  13  15  1   
 28  13  36  1   
 29  13  37  1   
 30  14  38  1   
 31  15  16  2   
 32  15  17  am  
 33  17  18  1   
 34  17  39  1   
 35  18  19  ar  
 36  18  20  ar  
 37  19  21  ar  
 38  19  40  1   
 39  20  22  ar  
 40  20  41  1   
 41  21  23  ar  
 42  21  24  1   
 43  22  23  ar  
 44  22  42  1   
 45  23  43  1   
 46  24  44  1   
 47  24  45  1   
 48  24  46  1   
@<TRIPOS>SUBSTRUCTURE
  1 ****  10 GROUP 4 **** **** 0

# MOE 2024.06 (io_trps.svl 2023.06)
