@<TRIPOS>MOLECULE
NONAME
54 56 1 0 0 
SMALL
USER_CHARGES


@<TRIPOS>ATOM
  1 S       -0.1200    -0.1830     1.2240 S.o2  1 <1>   1.4470 
  2 O       -0.2370    -0.0760     2.6610 O.2   1 <1>  -0.6500 
  3 O       -0.4450     0.9620     0.4030 O.2   1 <1>  -0.6500 
  4 N        1.5290    -0.4920     0.9660 N.am  1 <1>  -0.8490 
  5 C       -0.9680    -1.6670     0.6350 C.ar  1 <1>  -0.0090 
  6 C        2.3400     0.7330     1.1010 C.3   1 <1>   0.1960 
  7 C        2.0620    -1.5690     1.8220 C.3   1 <1>   0.1960 
  8 C       -0.7310    -2.1790    -0.6380 C.ar  1 <1>   0.0820 
  9 C       -1.8840    -2.3350     1.4410 C.ar  1 <1>  -0.1500 
 10 C        3.8470     0.4670     0.8550 C.3   1 <1>   0.3430 
 11 C        3.5320    -1.9090     1.4640 C.3   1 <1>   0.3430 
 12 O        0.1480    -1.5700    -1.4610 O.3   1 <1>  -0.3630 
 13 C       -1.3710    -3.3260    -1.0800 C.ar  1 <1>  -0.1500 
 14 C       -2.5340    -3.4770     1.0050 C.ar  1 <1>  -0.1500 
 15 N        4.0960    -0.9580     0.4370 N.4   1 <1>  -0.9590 
 16 C       -0.4120    -0.8330    -2.5270 C.3   1 <1>   0.0400 
 17 C       -2.2760    -3.9810    -0.2650 C.ar  1 <1>   0.0820 
 18 C        5.5220    -1.2080     0.0680 C.3   1 <1>   0.3430 
 19 O       -2.8610    -5.0930    -0.7710 O.3   1 <1>  -0.3620 
 20 C        5.7030    -2.5450    -0.6530 C.3   1 <1>  -0.0170 
 21 C       -3.8280    -5.8140    -0.0400 C.3   1 <1>   0.0400 
 22 C        7.1510    -2.6650    -1.0840 C.ar  1 <1>  -0.1440 
 23 C        7.5530    -2.1880    -2.3230 C.ar  1 <1>  -0.1500 
 24 C        8.0890    -3.2420    -0.2400 C.ar  1 <1>  -0.1500 
 25 C        8.8780    -2.2800    -2.7100 C.ar  1 <1>  -0.1500 
 26 C        9.4140    -3.3340    -0.6280 C.ar  1 <1>  -0.1500 
 27 C        9.8100    -2.8520    -1.8630 C.ar  1 <1>  -0.1500 
 28 H        2.2050     1.1610     2.0810 H     1 <1>   0.0800 
 29 H        2.0030     1.4650     0.3850 H     1 <1>   0.0800 
 30 H        1.4650    -2.4590     1.7050 H     1 <1>   0.0800 
 31 H        2.0070    -1.2790     2.8590 H     1 <1>   0.0800 
 32 H       -2.0970    -1.9550     2.4280 H     1 <1>   0.1500 
 33 H        4.3930     0.6850     1.7580 H     1 <1>   0.0800 
 34 H        4.1980     1.1420     0.0920 H     1 <1>   0.0800 
 35 H        3.5660    -2.9160     1.0840 H     1 <1>   0.0800 
 36 H        4.1270    -1.8790     2.3620 H     1 <1>   0.0800 
 37 H       -1.1690    -3.7170    -2.0600 H     1 <1>   0.1500 
 38 H       -3.2340    -3.9580     1.6630 H     1 <1>   0.1500 
 39 H        3.4890    -1.0850    -0.3920 H     1 <1>   0.4500 
 40 H        0.3880    -0.3810    -3.0850 H     1 <1>   0.0800 
 41 H       -1.0540    -0.0680    -2.1230 H     1 <1>   0.0800 
 42 H       -0.9740    -1.4960    -3.1610 H     1 <1>   0.0800 
 43 H        6.1410    -1.1920     0.9500 H     1 <1>   0.0800 
 44 H        5.8650    -0.4240    -0.5880 H     1 <1>   0.0800 
 45 H        5.0690    -2.5890    -1.5200 H     1 <1>   0.0800 
 46 H        5.4600    -3.3660    -0.0040 H     1 <1>   0.0800 
 47 H       -4.1560    -6.6400    -0.6460 H     1 <1>   0.0800 
 48 H       -4.6600    -5.1660     0.1740 H     1 <1>   0.0800 
 49 H       -3.3810    -6.1820     0.8660 H     1 <1>   0.0800 
 50 H        6.8450    -1.7440    -3.0010 H     1 <1>   0.1500 
 51 H        7.8040    -3.6290     0.7230 H     1 <1>   0.1500 
 52 H        9.1870    -1.9100    -3.6730 H     1 <1>   0.1500 
 53 H       10.1400    -3.7830     0.0280 H     1 <1>   0.1500 
 54 H       10.8400    -2.9240    -2.1650 H     1 <1>   0.1500 
@<TRIPOS>BOND
  1   1   2  2   
  2   1   3  2   
  3   1   4  am  
  4   1   5  1   
  5   4   6  1   
  6   4   7  1   
  7   5   8  ar  
  8   5   9  ar  
  9   6  10  1   
 10   6  28  1   
 11   6  29  1   
 12   7  11  1   
 13   7  30  1   
 14   7  31  1   
 15   8  12  1   
 16   8  13  ar  
 17   9  14  ar  
 18   9  32  1   
 19  10  15  1   
 20  10  33  1   
 21  10  34  1   
 22  11  15  1   
 23  11  35  1   
 24  11  36  1   
 25  12  16  1   
 26  13  17  ar  
 27  13  37  1   
 28  14  17  ar  
 29  14  38  1   
 30  15  18  1   
 31  15  39  1   
 32  16  40  1   
 33  16  41  1   
 34  16  42  1   
 35  17  19  1   
 36  18  20  1   
 37  18  43  1   
 38  18  44  1   
 39  19  21  1   
 40  20  22  1   
 41  20  45  1   
 42  20  46  1   
 43  21  47  1   
 44  21  48  1   
 45  21  49  1   
 46  22  23  ar  
 47  22  24  ar  
 48  23  25  ar  
 49  23  50  1   
 50  24  26  ar  
 51  24  51  1   
 52  25  27  ar  
 53  25  52  1   
 54  26  27  ar  
 55  26  53  1   
 56  27  54  1   
@<TRIPOS>SUBSTRUCTURE
  1 ****   7 GROUP 4 **** **** 0

# MOE 2024.06 (io_trps.svl 2023.06)
