@<TRIPOS>MOLECULE
NONAME
40 41 1 0 0 
SMALL
USER_CHARGES


@<TRIPOS>ATOM
  1 O        0.6440    -0.3640     0.9530 O.3   1 <1>  -0.3630 
  2 C        0.1870    -1.6210     0.7360 C.ar  1 <1>   0.0830 
  3 C        1.8860     0.0680     0.4420 C.3   1 <1>   0.0400 
  4 C        0.8320    -2.5570    -0.0650 C.ar  1 <1>  -0.1500 
  5 C       -1.0010    -1.9550     1.3650 C.ar  1 <1>  -0.1500 
  6 C        0.2800    -3.8230    -0.2270 C.ar  1 <1>   0.0830 
  7 C       -1.5600    -3.2130     1.2010 C.ar  1 <1>  -0.1430 
  8 O        0.8330    -4.8000    -0.9870 O.3   1 <1>  -0.3630 
  9 C       -0.9080    -4.1430     0.4070 C.ar  1 <1>  -0.1500 
 10 C       -2.8730    -3.5620     1.8700 C.3   1 <1>   0.4860 
 11 C        2.0860    -4.6280    -1.6120 C.3   1 <1>   0.0400 
 12 N       -3.9410    -3.5580     0.8330 N.4   1 <1>  -0.9590 
 13 C       -4.1440    -2.1870     0.2670 C.3   1 <1>   0.3430 
 14 C       -5.2010    -4.1650     1.3520 C.3   1 <1>   0.3430 
 15 C       -5.1720    -2.2350    -0.8600 C.3   1 <1>  -0.1600 
 16 C       -6.2390    -4.2410     0.2350 C.3   1 <1>  -0.1600 
 17 C       -6.4730    -2.8560    -0.3600 C.3   1 <1>   0.2000 
 18 O       -7.3420    -2.9730    -1.4160 O.3   1 <1>  -0.6800 
 19 H        2.0500     1.0790     0.7720 H     1 <1>   0.0800 
 20 H        1.8530     0.0370    -0.6330 H     1 <1>   0.0800 
 21 H        2.6630    -0.5700     0.8240 H     1 <1>   0.0800 
 22 H        1.7500    -2.3030    -0.5550 H     1 <1>   0.1500 
 23 H       -1.4690    -1.2080     1.9830 H     1 <1>   0.1500 
 24 H       -1.3000    -5.1360     0.2650 H     1 <1>   0.1500 
 25 H       -3.0960    -2.8470     2.6450 H     1 <1>   0.0800 
 26 H       -2.7900    -4.5400     2.3170 H     1 <1>   0.0800 
 27 H        2.3330    -5.5420    -2.1240 H     1 <1>   0.0800 
 28 H        2.8280    -4.4210    -0.8610 H     1 <1>   0.0800 
 29 H        2.0180    -3.8220    -2.3210 H     1 <1>   0.0800 
 30 H       -3.5860    -4.1430     0.0650 H     1 <1>   0.4500 
 31 H       -3.2120    -1.8020    -0.1190 H     1 <1>   0.0800 
 32 H       -4.4890    -1.5190     1.0400 H     1 <1>   0.0800 
 33 H       -5.5890    -3.5650     2.1600 H     1 <1>   0.0800 
 34 H       -5.0080    -5.1570     1.7290 H     1 <1>   0.0800 
 35 H       -4.7700    -2.7990    -1.6830 H     1 <1>   0.0800 
 36 H       -5.3640    -1.2320    -1.2000 H     1 <1>   0.0800 
 37 H       -7.1640    -4.6120     0.6430 H     1 <1>   0.0800 
 38 H       -5.9020    -4.9290    -0.5200 H     1 <1>   0.0800 
 39 H       -6.9400    -2.2110     0.3670 H     1 <1>   0.0800 
 40 H       -6.9720    -3.5180    -2.1380 H     1 <1>   0.4000 
@<TRIPOS>BOND
  1   1   2  1   
  2   1   3  1   
  3   2   4  ar  
  4   2   5  ar  
  5   3  19  1   
  6   3  20  1   
  7   3  21  1   
  8   4   6  ar  
  9   4  22  1   
 10   5   7  ar  
 11   5  23  1   
 12   6   8  1   
 13   6   9  ar  
 14   7   9  ar  
 15   7  10  1   
 16   8  11  1   
 17   9  24  1   
 18  10  12  1   
 19  10  25  1   
 20  10  26  1   
 21  11  27  1   
 22  11  28  1   
 23  11  29  1   
 24  12  13  1   
 25  12  14  1   
 26  12  30  1   
 27  13  15  1   
 28  13  31  1   
 29  13  32  1   
 30  14  16  1   
 31  14  33  1   
 32  14  34  1   
 33  15  17  1   
 34  15  35  1   
 35  15  36  1   
 36  16  17  1   
 37  16  37  1   
 38  16  38  1   
 39  17  18  1   
 40  17  39  1   
 41  18  40  1   
@<TRIPOS>SUBSTRUCTURE
  1 ****   7 GROUP 4 **** **** 0

# MOE 2024.06 (io_trps.svl 2023.06)
