@<TRIPOS>MOLECULE
NONAME
47 48 1 0 0 
SMALL
USER_CHARGES


@<TRIPOS>ATOM
  1 O        7.1730    -1.8660     0.9310 O.2   1 <1>  -0.5700 
  2 C        7.3550    -2.9090     0.3600 C.2   1 <1>   0.6590 
  3 O        8.5610    -3.4140     0.1590 O.3   1 <1>  -0.4300 
  4 C        6.1970    -3.7280    -0.1830 C.3   1 <1>  -0.0190 
  5 C        9.7220    -2.7580     0.6160 C.3   1 <1>   0.1200 
  6 C        4.9260    -2.8560    -0.2240 C.3   1 <1>   0.3430 
  7 C        5.9760    -5.0240     0.6220 C.3   1 <1>  -0.1600 
  8 C       10.9280    -3.6080     0.2290 C.3   1 <1>  -0.2400 
  9 N        3.6620    -3.6390     0.0100 N.4   1 <1>  -0.9590 
 10 C        4.7940    -5.8350     0.0540 C.3   1 <1>  -0.1600 
 11 C        3.7160    -4.9840    -0.6330 C.3   1 <1>   0.3430 
 12 C        2.4700    -2.8390    -0.3900 C.3   1 <1>   0.3430 
 13 C        1.2030    -3.4330     0.2180 C.3   1 <1>  -0.1600 
 14 C       -0.0080    -2.5510    -0.0810 C.3   1 <1>   0.1200 
 15 O       -1.1250    -3.1740     0.4980 O.3   1 <1>  -0.3630 
 16 C       -2.3650    -2.6310     0.4030 C.ar  1 <1>   0.0820 
 17 C       -3.3990    -3.3310     1.0060 C.ar  1 <1>  -0.1500 
 18 C       -2.6410    -1.4350    -0.2550 C.ar  1 <1>  -0.1500 
 19 C       -4.6950    -2.8490     0.9570 C.ar  1 <1>  -0.1500 
 20 C       -3.9390    -0.9540    -0.3020 C.ar  1 <1>  -0.1500 
 21 C       -4.9650    -1.6600     0.3020 C.ar  1 <1>  -0.1500 
 22 H        6.4520    -3.9920    -1.1930 H     1 <1>   0.0800 
 23 H        9.6560    -2.6480     1.6860 H     1 <1>   0.0800 
 24 H        9.7720    -1.7850     0.1560 H     1 <1>   0.0800 
 25 H        4.8840    -2.3610    -1.1800 H     1 <1>   0.0800 
 26 H        4.9930    -2.0890     0.5320 H     1 <1>   0.0800 
 27 H        5.7770    -4.7680     1.6500 H     1 <1>   0.0800 
 28 H        6.8700    -5.6280     0.6110 H     1 <1>   0.0800 
 29 H       10.8630    -4.5780     0.6880 H     1 <1>   0.0800 
 30 H       11.8300    -3.1310     0.5660 H     1 <1>   0.0800 
 31 H       10.9790    -3.7170    -0.8400 H     1 <1>   0.0800 
 32 H        3.5990    -3.8050     1.0240 H     1 <1>   0.4500 
 33 H        4.3450    -6.4090     0.8470 H     1 <1>   0.0800 
 34 H        5.1620    -6.5440    -0.6680 H     1 <1>   0.0800 
 35 H        3.9570    -4.8720    -1.6780 H     1 <1>   0.0800 
 36 H        2.7650    -5.4870    -0.5580 H     1 <1>   0.0800 
 37 H        2.3860    -2.8090    -1.4650 H     1 <1>   0.0800 
 38 H        2.5830    -1.8270    -0.0320 H     1 <1>   0.0800 
 39 H        1.3110    -3.5060     1.2860 H     1 <1>   0.0800 
 40 H        1.0120    -4.4090    -0.1920 H     1 <1>   0.0800 
 41 H       -0.1810    -2.4670    -1.1400 H     1 <1>   0.0800 
 42 H        0.0990    -1.5740     0.3620 H     1 <1>   0.0800 
 43 H       -3.1840    -4.2530     1.5130 H     1 <1>   0.1500 
 44 H       -1.8700    -0.8640    -0.7330 H     1 <1>   0.1500 
 45 H       -5.4920    -3.3980     1.4280 H     1 <1>   0.1500 
 46 H       -4.1530    -0.0300    -0.8110 H     1 <1>   0.1500 
 47 H       -5.9730    -1.2840     0.2640 H     1 <1>   0.1500 
@<TRIPOS>BOND
  1   1   2  2   
  2   2   3  1   
  3   2   4  1   
  4   3   5  1   
  5   4   6  1   
  6   4   7  1   
  7   4  22  1   
  8   5   8  1   
  9   5  23  1   
 10   5  24  1   
 11   6   9  1   
 12   6  25  1   
 13   6  26  1   
 14   7  10  1   
 15   7  27  1   
 16   7  28  1   
 17   8  29  1   
 18   8  30  1   
 19   8  31  1   
 20   9  11  1   
 21   9  12  1   
 22   9  32  1   
 23  10  11  1   
 24  10  33  1   
 25  10  34  1   
 26  11  35  1   
 27  11  36  1   
 28  12  13  1   
 29  12  37  1   
 30  12  38  1   
 31  13  14  1   
 32  13  39  1   
 33  13  40  1   
 34  14  15  1   
 35  14  41  1   
 36  14  42  1   
 37  15  16  1   
 38  16  17  ar  
 39  16  18  ar  
 40  17  19  ar  
 41  17  43  1   
 42  18  20  ar  
 43  18  44  1   
 44  19  21  ar  
 45  19  45  1   
 46  20  21  ar  
 47  20  46  1   
 48  21  47  1   
@<TRIPOS>SUBSTRUCTURE
  1 ****  12 GROUP 4 **** **** 0

# MOE 2024.06 (io_trps.svl 2023.06)
