@<TRIPOS>MOLECULE
NONAME
42 45 1 0 0 
SMALL
USER_CHARGES


@<TRIPOS>ATOM
  1 O        0.2720     0.7720     0.5560 O.2   1 <1>  -0.5700 
  2 C       -0.0350     1.8950     0.2040 C.2   1 <1>   0.5690 
  3 N        0.8120     2.9610     0.0950 N.am  1 <1>  -0.1680 
  4 C       -1.4470     2.3010    -0.1990 C.3   1 <1>   0.0610 
  5 N        0.1600     4.1480    -0.4640 N.3   1 <1>  -0.6390 
  6 C        2.1760     3.0370     0.4440 C.ar  1 <1>   0.1170 
  7 C       -1.1150     3.5870    -1.0020 C.3   1 <1>   0.3700 
  8 C       -2.1670     1.2660    -1.1030 C.3   1 <1>  -0.1600 
  9 C       -2.3030     2.5930     1.0650 C.3   1 <1>  -0.1600 
 10 C        3.0400     1.9570     0.2690 C.ar  1 <1>  -0.1500 
 11 C        2.7040     4.2170     0.9670 C.ar  1 <1>  -0.1500 
 12 C       -2.2050     4.6520    -1.0280 C.2   1 <1>  -0.0400 
 13 C       -2.6400     0.0080    -0.3530 C.3   1 <1>  -0.1600 
 14 C       -2.7090     1.3150     1.8130 C.3   1 <1>  -0.1600 
 15 C        4.3790     2.0520     0.6020 C.ar  1 <1>  -0.1500 
 16 C        4.0430     4.3170     1.2990 C.ar  1 <1>  -0.1500 
 17 O       -3.3070     4.4180    -1.7170 O.3   1 <1>  -0.2800 
 18 C       -2.2660     5.8720    -0.4470 C.2   1 <1>  -0.1500 
 19 C       -3.4730     0.3650     0.8830 C.3   1 <1>  -0.1600 
 20 C        4.8840     3.2330     1.1170 C.ar  1 <1>  -0.1500 
 21 C       -4.0900     5.4700    -1.5900 C.2   1 <1>  -0.0100 
 22 C       -3.5050     6.4090    -0.8160 C.2   1 <1>  -0.1500 
 23 H        0.6960     4.3650    -1.3140 H     1 <1>   0.3600 
 24 H       -0.9240     3.3060    -2.0240 H     1 <1>   0.0800 
 25 H       -1.5160     0.9680    -1.9070 H     1 <1>   0.0800 
 26 H       -3.0330     1.7330    -1.5420 H     1 <1>   0.0800 
 27 H       -3.2080     3.1020     0.7840 H     1 <1>   0.0800 
 28 H       -1.7590     3.2410     1.7320 H     1 <1>   0.0800 
 29 H        2.6640     1.0330    -0.1300 H     1 <1>   0.1500 
 30 H        2.0560     5.0610     1.1190 H     1 <1>   0.1500 
 31 H       -1.7890    -0.5770    -0.0480 H     1 <1>   0.0800 
 32 H       -3.2280    -0.6040    -1.0150 H     1 <1>   0.0800 
 33 H       -3.3330     1.5730     2.6510 H     1 <1>   0.0800 
 34 H       -1.8350     0.8180     2.1970 H     1 <1>   0.0800 
 35 H        5.0290     1.2060     0.4610 H     1 <1>   0.1500 
 36 H        4.4310     5.2360     1.7030 H     1 <1>   0.1500 
 37 H       -1.5320     6.3530     0.1750 H     1 <1>   0.1500 
 38 H       -3.7240    -0.5350     1.4180 H     1 <1>   0.0800 
 39 H       -4.3930     0.8310     0.5720 H     1 <1>   0.0800 
 40 H        5.9260     3.3080     1.3760 H     1 <1>   0.1500 
 41 H       -5.0460     5.4690    -2.0830 H     1 <1>   0.1500 
 42 H       -3.8810     7.3730    -0.5240 H     1 <1>   0.1500 
@<TRIPOS>BOND
  1   1   2  2   
  2   2   3  am  
  3   2   4  1   
  4   3   5  1   
  5   3   6  1   
  6   4   7  1   
  7   4   8  1   
  8   4   9  1   
  9   5   7  1   
 10   5  23  1   
 11   6  10  ar  
 12   6  11  ar  
 13   7  12  1   
 14   7  24  1   
 15   8  13  1   
 16   8  25  1   
 17   8  26  1   
 18   9  14  1   
 19   9  27  1   
 20   9  28  1   
 21  10  15  ar  
 22  10  29  1   
 23  11  16  ar  
 24  11  30  1   
 25  12  17  1   
 26  12  18  2   
 27  13  19  1   
 28  13  31  1   
 29  13  32  1   
 30  14  19  1   
 31  14  33  1   
 32  14  34  1   
 33  15  20  ar  
 34  15  35  1   
 35  16  20  ar  
 36  16  36  1   
 37  17  21  1   
 38  18  22  1   
 39  18  37  1   
 40  19  38  1   
 41  19  39  1   
 42  20  40  1   
 43  21  22  2   
 44  21  41  1   
 45  22  42  1   
@<TRIPOS>SUBSTRUCTURE
  1 ****   2 GROUP 4 **** **** 0

# MOE 2024.06 (io_trps.svl 2023.06)
