@<TRIPOS>MOLECULE
NONAME
41 42 1 0 0 
SMALL
USER_CHARGES


@<TRIPOS>ATOM
  1 BR       0.3210     0.2400    -1.8000 Br    1 <1>  -0.1110 
  2 C        1.7940     1.2910    -1.1440 C.ar  1 <1>   0.1110 
  3 C        1.5590     2.2250    -0.1540 C.ar  1 <1>  -0.1500 
  4 C        3.0510     1.0880    -1.6810 C.ar  1 <1>  -0.1500 
  5 C        2.6230     2.9770     0.3130 C.ar  1 <1>  -0.1500 
  6 C        4.1050     1.8470    -1.2040 C.ar  1 <1>  -0.1500 
  7 C        3.9070     2.7970    -0.2010 C.ar  1 <1>   0.1170 
  8 N        4.9910     3.5630     0.2860 N.am  1 <1>  -0.2370 
  9 C        6.1970     3.0540     0.6810 C.2   1 <1>   0.5690 
 10 C        4.9870     4.9230     0.4620 C.2   1 <1>   0.5690 
 11 O        6.5180     1.8910     0.7310 O.2   1 <1>  -0.5700 
 12 C        7.1480     4.1560     1.1050 C.3   1 <1>   0.2110 
 13 O        4.0810     5.6730     0.2200 O.2   1 <1>  -0.5700 
 14 C        6.2910     5.4240     1.0390 C.3   1 <1>  -0.0990 
 15 S        8.5600     4.3330    -0.0990 S.3   1 <1>  -0.3610 
 16 C        9.6830     2.9880     0.1070 C.cat 1 <1>   0.8400 
 17 N        9.2670     1.9020     0.7110 N.pl3 1 <1>  -0.7940 
 18 N       10.8920     3.1370    -0.3810 N.pl3 1 <1>  -0.7940 
 19 C        9.9920     0.6610     1.0400 C.3   1 <1>   0.3290 
 20 C       11.4680     4.3100    -1.0740 C.3   1 <1>   0.3290 
 21 C        9.3940    -0.4700     0.2130 C.3   1 <1>  -0.2400 
 22 C       12.9560     4.3670    -0.7530 C.3   1 <1>  -0.2400 
 23 H        0.5670     2.3600     0.2390 H     1 <1>   0.1500 
 24 H        3.1960     0.3520    -2.4520 H     1 <1>   0.1500 
 25 H        2.4510     3.7120     1.0800 H     1 <1>   0.1500 
 26 H        5.0870     1.6950    -1.6140 H     1 <1>   0.1500 
 27 H        7.5570     3.9860     2.0850 H     1 <1>   0.0800 
 28 H        6.1130     5.8240     2.0200 H     1 <1>   0.0800 
 29 H        6.7110     6.1830     0.4040 H     1 <1>   0.0800 
 30 H        8.2600     1.8020     0.9110 H     1 <1>   0.4500 
 31 H       11.5470     2.3610    -0.3180 H     1 <1>   0.4500 
 32 H        9.8770     0.4450     2.0900 H     1 <1>   0.0800 
 33 H       11.0430     0.7580     0.8280 H     1 <1>   0.0800 
 34 H       10.9980     5.2240    -0.7490 H     1 <1>   0.0800 
 35 H       11.3260     4.2080    -2.1380 H     1 <1>   0.0800 
 36 H        8.3500    -0.5960     0.4430 H     1 <1>   0.0800 
 37 H        9.9000    -1.3910     0.4410 H     1 <1>   0.0800 
 38 H        9.5070    -0.2730    -0.8380 H     1 <1>   0.0800 
 39 H       13.1120     4.4710     0.3060 H     1 <1>   0.0800 
 40 H       13.3930     5.2210    -1.2400 H     1 <1>   0.0800 
 41 H       13.4600     3.4870    -1.1110 H     1 <1>   0.0800 
@<TRIPOS>BOND
  1   1   2  1   
  2   2   3  ar  
  3   2   4  ar  
  4   3   5  ar  
  5   3  23  1   
  6   4   6  ar  
  7   4  24  1   
  8   5   7  ar  
  9   5  25  1   
 10   6   7  ar  
 11   6  26  1   
 12   7   8  1   
 13   8   9  am  
 14   8  10  am  
 15   9  11  2   
 16   9  12  1   
 17  10  13  2   
 18  10  14  1   
 19  12  14  1   
 20  12  15  1   
 21  12  27  1   
 22  14  28  1   
 23  14  29  1   
 24  15  16  1   
 25  16  17  ar  
 26  16  18  ar  
 27  17  19  1   
 28  17  30  1   
 29  18  20  1   
 30  18  31  1   
 31  19  21  1   
 32  19  32  1   
 33  19  33  1   
 34  20  22  1   
 35  20  34  1   
 36  20  35  1   
 37  21  36  1   
 38  21  37  1   
 39  21  38  1   
 40  22  39  1   
 41  22  40  1   
 42  22  41  1   
@<TRIPOS>SUBSTRUCTURE
  1 ****   9 GROUP 4 **** **** 0

# MOE 2024.06 (io_trps.svl 2023.06)
