@<TRIPOS>MOLECULE
NONAME
29 30 1 0 0 
SMALL
USER_CHARGES


@<TRIPOS>ATOM
  1 F       -0.4050    -0.3090     1.3300 F     1 <1>  -0.1900 
  2 C       -1.4840    -0.7990     0.7860 C.ar  1 <1>   0.1900 
  3 C       -2.1140    -1.8660     1.3950 C.ar  1 <1>  -0.1500 
  4 C       -1.9580    -0.2320    -0.3810 C.ar  1 <1>  -0.1500 
  5 C       -3.2620    -2.3800     0.8160 C.ar  1 <1>  -0.1500 
  6 C       -3.1070    -0.7520    -0.9540 C.ar  1 <1>  -0.1500 
  7 C       -3.7660    -1.8220    -0.3560 C.ar  1 <1>  -0.1430 
  8 C       -5.0340    -2.3760    -0.9810 C.3   1 <1>   0.4870 
  9 N       -6.1970    -1.9760    -0.1450 N.4   1 <1>  -0.9590 
 10 C       -7.4940    -2.5930    -0.5810 C.3   1 <1>   0.3430 
 11 C       -6.3400    -0.4890     0.0250 C.3   1 <1>   0.3430 
 12 C       -8.6780    -2.0920     0.2800 C.3   1 <1>   0.1200 
 13 C       -7.5320    -0.1440     0.9480 C.3   1 <1>   0.1200 
 14 O       -8.2260    -1.2990     1.3430 O.3   1 <1>  -0.5600 
 15 H       -1.7070    -2.2810     2.3010 H     1 <1>   0.1500 
 16 H       -1.4320     0.5940    -0.8260 H     1 <1>   0.1500 
 17 H       -3.7480    -3.2170     1.2890 H     1 <1>   0.1500 
 18 H       -3.4730    -0.3140    -1.8680 H     1 <1>   0.1500 
 19 H       -4.9650    -3.4510    -1.0300 H     1 <1>   0.0800 
 20 H       -5.1450    -1.9940    -1.9820 H     1 <1>   0.0800 
 21 H       -6.0340    -2.3200     0.8120 H     1 <1>   0.4500 
 22 H       -7.4350    -3.6660    -0.5000 H     1 <1>   0.0800 
 23 H       -7.6910    -2.3560    -1.6130 H     1 <1>   0.0800 
 24 H       -6.4900    -0.0200    -0.9330 H     1 <1>   0.0800 
 25 H       -5.4390    -0.0750     0.4510 H     1 <1>   0.0800 
 26 H       -9.2150    -2.9270     0.6960 H     1 <1>   0.0800 
 27 H       -9.3650    -1.5130    -0.3140 H     1 <1>   0.0800 
 28 H       -8.2200     0.5190     0.4510 H     1 <1>   0.0800 
 29 H       -7.1800     0.3460     1.8390 H     1 <1>   0.0800 
@<TRIPOS>BOND
  1   1   2  1   
  2   2   3  ar  
  3   2   4  ar  
  4   3   5  ar  
  5   3  15  1   
  6   4   6  ar  
  7   4  16  1   
  8   5   7  ar  
  9   5  17  1   
 10   6   7  ar  
 11   6  18  1   
 12   7   8  1   
 13   8   9  1   
 14   8  19  1   
 15   8  20  1   
 16   9  10  1   
 17   9  11  1   
 18   9  21  1   
 19  10  12  1   
 20  10  22  1   
 21  10  23  1   
 22  11  13  1   
 23  11  24  1   
 24  11  25  1   
 25  12  14  1   
 26  12  26  1   
 27  12  27  1   
 28  13  14  1   
 29  13  28  1   
 30  13  29  1   
@<TRIPOS>SUBSTRUCTURE
  1 ****   7 GROUP 4 **** **** 0

# MOE 2024.06 (io_trps.svl 2023.06)
