@<TRIPOS>MOLECULE
NONAME
50 52 1 0 0 
SMALL
USER_CHARGES


@<TRIPOS>ATOM
  1 BR       4.3480     2.5780    -4.5690 Br    1 <1>  -0.1110 
  2 C        3.6770     3.0880    -2.8370 C.ar  1 <1>   0.1110 
  3 C        4.4180     2.7660    -1.7170 C.ar  1 <1>  -0.1500 
  4 C        2.4770     3.7640    -2.7600 C.ar  1 <1>  -0.1500 
  5 C        3.9440     3.1340    -0.4670 C.ar  1 <1>  -0.1440 
  6 C        2.0050     4.1330    -1.5120 C.ar  1 <1>  -0.1500 
  7 C        2.7340     3.8230    -0.3620 C.ar  1 <1>   0.0830 
  8 C        4.7680     2.7780     0.7640 C.3   1 <1>   0.2540 
  9 O        2.3160     4.1780     0.8830 O.3   1 <1>  -0.3630 
 10 N        5.9700     3.6330     0.8430 N.3   1 <1>  -0.8100 
 11 C        1.0170     4.6840     1.1080 C.3   1 <1>   0.0400 
 12 C        5.6000     5.0700     0.9740 C.3   1 <1>   0.1100 
 13 C        6.8570     3.2240     1.9540 C.3   1 <1>   0.1100 
 14 C        6.8250     5.9870     1.1940 C.3   1 <1>   0.3430 
 15 C        8.1590     4.0650     1.9930 C.3   1 <1>   0.3430 
 16 N        8.0970     5.2090     1.0270 N.4   1 <1>  -0.9590 
 17 C        9.3230     6.0430     0.9750 C.3   1 <1>   0.4860 
 18 C        9.1710     7.0650    -0.1340 C.ar  1 <1>  -0.1430 
 19 C        9.1480     6.6620    -1.4620 C.ar  1 <1>  -0.1500 
 20 C        9.0410     8.4120     0.1730 C.ar  1 <1>  -0.1500 
 21 C        8.9840     7.5900    -2.4770 C.ar  1 <1>  -0.1430 
 22 C        8.8770     9.3410    -0.8380 C.ar  1 <1>  -0.1500 
 23 C        8.8460     8.9310    -2.1580 C.ar  1 <1>  -0.1500 
 24 C        8.9520     7.1430    -3.9280 C.3   1 <1>  -0.0970 
 25 H        5.3490     2.2400    -1.8240 H     1 <1>   0.1500 
 26 H        1.9280     3.9960    -3.6550 H     1 <1>   0.1500 
 27 H        1.0730     4.6630    -1.4590 H     1 <1>   0.1500 
 28 H        5.0690     1.7480     0.6830 H     1 <1>   0.0800 
 29 H        4.1830     2.8760     1.6620 H     1 <1>   0.0800 
 30 H        0.8820     4.8040     2.1680 H     1 <1>   0.0800 
 31 H        0.2970     3.9820     0.7260 H     1 <1>   0.0800 
 32 H        0.9220     5.6370     0.6190 H     1 <1>   0.0800 
 33 H        4.9070     5.2020     1.7880 H     1 <1>   0.0800 
 34 H        5.0990     5.3920     0.0760 H     1 <1>   0.0800 
 35 H        7.1170     2.1850     1.8450 H     1 <1>   0.0800 
 36 H        6.3370     3.3310     2.8910 H     1 <1>   0.0800 
 37 H        6.7800     6.4160     2.1810 H     1 <1>   0.0800 
 38 H        6.7830     6.7950     0.4810 H     1 <1>   0.0800 
 39 H        8.9890     3.4250     1.7430 H     1 <1>   0.0800 
 40 H        8.3130     4.4290     2.9950 H     1 <1>   0.0800 
 41 H        7.9620     4.7650     0.1070 H     1 <1>   0.4500 
 42 H       10.1840     5.4260     0.7740 H     1 <1>   0.0800 
 43 H        9.4720     6.5450     1.9160 H     1 <1>   0.0800 
 44 H        9.2570     5.6240    -1.7230 H     1 <1>   0.1500 
 45 H        9.0640     8.7550     1.1940 H     1 <1>   0.1500 
 46 H        8.7760    10.3870    -0.6020 H     1 <1>   0.1500 
 47 H        8.7170     9.6620    -2.9380 H     1 <1>   0.1500 
 48 H        7.9550     6.8460    -4.1970 H     1 <1>   0.0800 
 49 H        9.6160     6.3110    -4.0810 H     1 <1>   0.0800 
 50 H        9.2610     7.9430    -4.5770 H     1 <1>   0.0800 
@<TRIPOS>BOND
  1   1   2  1   
  2   2   3  ar  
  3   2   4  ar  
  4   3   5  ar  
  5   3  25  1   
  6   4   6  ar  
  7   4  26  1   
  8   5   7  ar  
  9   5   8  1   
 10   6   7  ar  
 11   6  27  1   
 12   7   9  1   
 13   8  10  1   
 14   8  28  1   
 15   8  29  1   
 16   9  11  1   
 17  10  12  1   
 18  10  13  1   
 19  11  30  1   
 20  11  31  1   
 21  11  32  1   
 22  12  14  1   
 23  12  33  1   
 24  12  34  1   
 25  13  15  1   
 26  13  35  1   
 27  13  36  1   
 28  14  16  1   
 29  14  37  1   
 30  14  38  1   
 31  15  16  1   
 32  15  39  1   
 33  15  40  1   
 34  16  17  1   
 35  16  41  1   
 36  17  18  1   
 37  17  42  1   
 38  17  43  1   
 39  18  19  ar  
 40  18  20  ar  
 41  19  21  ar  
 42  19  44  1   
 43  20  22  ar  
 44  20  45  1   
 45  21  23  ar  
 46  21  24  1   
 47  22  23  ar  
 48  22  46  1   
 49  23  47  1   
 50  24  48  1   
 51  24  49  1   
 52  24  50  1   
@<TRIPOS>SUBSTRUCTURE
  1 ****  12 GROUP 4 **** **** 0

# MOE 2024.06 (io_trps.svl 2023.06)
