@<TRIPOS>MOLECULE
NONAME
48 50 1 0 0 
SMALL
USER_CHARGES


@<TRIPOS>ATOM
  1 O        0.0060    -1.1630    -2.2430 O.3   1 <1>  -0.0190 
  2 N       -1.1000    -1.8060    -2.0500 N.2   1 <1>  -0.4100 
  3 C        0.2180    -0.5600    -1.1080 C.2   1 <1>   0.2980 
  4 C       -1.5040    -1.5700    -0.8520 C.2   1 <1>   0.4620 
  5 N       -0.6570    -0.7570    -0.2050 N.2   1 <1>  -0.5650 
  6 C        1.4710     0.2960    -0.9660 C.3   1 <1>   0.5230 
  7 C       -2.7120    -2.1030    -0.2420 C.ar  1 <1>   0.0540 
  8 N        1.7230     0.6550     0.4790 N.4   1 <1>  -0.9590 
  9 C       -3.1280    -1.7130     1.0340 C.ar  1 <1>  -0.1500 
 10 C       -3.5080    -3.0330    -0.9130 C.ar  1 <1>  -0.1500 
 11 C        2.4290     1.9500     0.6730 C.3   1 <1>   0.5030 
 12 C        2.1750    -0.5500     1.2720 C.3   1 <1>   0.4860 
 13 C       -4.2760    -2.2250     1.6100 C.ar  1 <1>  -0.1500 
 14 C       -4.6570    -3.5500    -0.3420 C.ar  1 <1>  -0.1500 
 15 C        3.6350     2.1060    -0.2600 C.3   1 <1>  -0.2400 
 16 C        1.4150     3.0540     0.3640 C.3   1 <1>  -0.2400 
 17 C        2.8720     2.1180     2.1300 C.3   1 <1>  -0.2400 
 18 C        3.2350    -1.3860     0.5680 C.ar  1 <1>  -0.1430 
 19 C       -5.0430    -3.1470     0.9220 C.ar  1 <1>  -0.1500 
 20 C        4.5860    -1.1250     0.7480 C.ar  1 <1>  -0.1500 
 21 C        2.8550    -2.4490    -0.2420 C.ar  1 <1>  -0.1500 
 22 C        5.5400    -1.8860     0.0940 C.ar  1 <1>  -0.1500 
 23 C        3.8090    -3.2080    -0.8960 C.ar  1 <1>  -0.1500 
 24 C        5.1520    -2.9230    -0.7320 C.ar  1 <1>  -0.1500 
 25 H        1.3250     1.1870    -1.5500 H     1 <1>   0.0800 
 26 H        2.3180    -0.2280    -1.3740 H     1 <1>   0.0800 
 27 H        0.7760     0.8300     0.8400 H     1 <1>   0.4500 
 28 H       -2.5490    -0.9960     1.5870 H     1 <1>   0.1500 
 29 H       -3.2260    -3.3610    -1.8990 H     1 <1>   0.1500 
 30 H        1.3230    -1.1890     1.4420 H     1 <1>   0.0800 
 31 H        2.5370    -0.2580     2.2420 H     1 <1>   0.0800 
 32 H       -4.5760    -1.9090     2.5950 H     1 <1>   0.1500 
 33 H       -5.2530    -4.2660    -0.8820 H     1 <1>   0.1500 
 34 H        3.3480     2.1530    -1.2940 H     1 <1>   0.0800 
 35 H        4.3460     1.3160    -0.1300 H     1 <1>   0.0800 
 36 H        4.1430     3.0290    -0.0390 H     1 <1>   0.0800 
 37 H        0.5540     2.9800     1.0050 H     1 <1>   0.0800 
 38 H        1.0950     3.0380    -0.6610 H     1 <1>   0.0800 
 39 H        1.8620     4.0190     0.5370 H     1 <1>   0.0800 
 40 H        3.6790     1.4540     2.3790 H     1 <1>   0.0800 
 41 H        2.0510     1.9660     2.8080 H     1 <1>   0.0800 
 42 H        3.2390     3.1180     2.2860 H     1 <1>   0.0800 
 43 H       -5.9380    -3.5470     1.3680 H     1 <1>   0.1500 
 44 H        4.9200    -0.3360     1.3990 H     1 <1>   0.1500 
 45 H        1.8180    -2.7130    -0.3710 H     1 <1>   0.1500 
 46 H        6.5880    -1.6760     0.2310 H     1 <1>   0.1500 
 47 H        3.5100    -4.0280    -1.5280 H     1 <1>   0.1500 
 48 H        5.8950    -3.5150    -1.2410 H     1 <1>   0.1500 
@<TRIPOS>BOND
  1   1   2  1   
  2   1   3  1   
  3   2   4  2   
  4   3   5  2   
  5   3   6  1   
  6   4   5  1   
  7   4   7  1   
  8   6   8  1   
  9   6  25  1   
 10   6  26  1   
 11   7   9  ar  
 12   7  10  ar  
 13   8  11  1   
 14   8  12  1   
 15   8  27  1   
 16   9  13  ar  
 17   9  28  1   
 18  10  14  ar  
 19  10  29  1   
 20  11  15  1   
 21  11  16  1   
 22  11  17  1   
 23  12  18  1   
 24  12  30  1   
 25  12  31  1   
 26  13  19  ar  
 27  13  32  1   
 28  14  19  ar  
 29  14  33  1   
 30  15  34  1   
 31  15  35  1   
 32  15  36  1   
 33  16  37  1   
 34  16  38  1   
 35  16  39  1   
 36  17  40  1   
 37  17  41  1   
 38  17  42  1   
 39  18  20  ar  
 40  18  21  ar  
 41  19  43  1   
 42  20  22  ar  
 43  20  44  1   
 44  21  23  ar  
 45  21  45  1   
 46  22  24  ar  
 47  22  46  1   
 48  23  24  ar  
 49  23  47  1   
 50  24  48  1   
@<TRIPOS>SUBSTRUCTURE
  1 ****   3 GROUP 4 **** **** 0

# MOE 2024.06 (io_trps.svl 2023.06)
