@<TRIPOS>MOLECULE
NONAME
42 42 1 0 0 
SMALL
USER_CHARGES


@<TRIPOS>ATOM
  1 F       -2.2310     0.9910     3.0610 F     1 <1>  -0.1900 
  2 C       -2.6030     1.2620     1.8400 C.ar  1 <1>   0.1900 
  3 C       -3.6960     0.5960     1.3200 C.ar  1 <1>  -0.1500 
  4 C       -1.8940     2.2010     1.1180 C.ar  1 <1>  -0.1500 
  5 C       -4.1050     0.8860     0.0240 C.ar  1 <1>  -0.1440 
  6 C       -2.2980     2.4790    -0.1760 C.ar  1 <1>  -0.1500 
  7 C       -3.3940     1.8240    -0.7190 C.ar  1 <1>  -0.1500 
  8 C       -5.3090     0.1870    -0.5760 C.3   1 <1>   0.4870 
  9 N       -6.5530     0.7630     0.0330 N.4   1 <1>  -0.9590 
 10 C       -7.7570    -0.0900    -0.2920 C.3   1 <1>   0.3430 
 11 C       -6.7000     2.2030    -0.3830 C.3   1 <1>   0.2630 
 12 C       -9.0640     0.3210     0.4510 C.3   1 <1>   0.3430 
 13 N      -10.2770    -0.5130     0.1020 N.4   1 <1>  -0.9590 
 14 C      -11.5280     0.1070     0.6430 C.3   1 <1>   0.3430 
 15 C      -10.1720    -1.9230     0.5890 C.3   1 <1>   0.3430 
 16 C      -11.9040     1.3230    -0.1960 C.3   1 <1>  -0.2400 
 17 C      -11.0770    -2.8140    -0.2530 C.3   1 <1>  -0.2400 
 18 H       -4.1910    -0.1330     1.9360 H     1 <1>   0.1500 
 19 H       -1.0470     2.6970     1.5590 H     1 <1>   0.1500 
 20 H       -1.7540     3.2040    -0.7600 H     1 <1>   0.1500 
 21 H       -3.6760     2.0590    -1.7320 H     1 <1>   0.1500 
 22 H       -5.2400    -0.8680    -0.3630 H     1 <1>   0.0800 
 23 H       -5.3150     0.3180    -1.6470 H     1 <1>   0.0800 
 24 H       -6.3580     0.7590     1.0480 H     1 <1>   0.4500 
 25 H       -7.5310    -1.1130    -0.0380 H     1 <1>   0.0800 
 26 H       -7.9360    -0.0440    -1.3540 H     1 <1>   0.0800 
 27 H       -6.8290     2.2790    -1.4510 H     1 <1>   0.0800 
 28 H       -5.8190     2.7640    -0.1080 H     1 <1>   0.0800 
 29 H       -7.5470     2.6590     0.1030 H     1 <1>   0.0800 
 30 H       -9.2720     1.3490     0.2070 H     1 <1>   0.0800 
 31 H       -8.8960     0.2620     1.5140 H     1 <1>   0.0800 
 32 H      -10.4120    -0.5540    -0.9200 H     1 <1>   0.4500 
 33 H      -11.3960     0.3910     1.6750 H     1 <1>   0.0800 
 34 H      -12.3410    -0.6010     0.5970 H     1 <1>   0.0800 
 35 H      -10.4540    -1.9850     1.6290 H     1 <1>   0.0800 
 36 H       -9.1600    -2.2800     0.4930 H     1 <1>   0.0800 
 37 H      -11.1820     2.1140    -0.1080 H     1 <1>   0.0800 
 38 H      -12.8450     1.7080     0.1550 H     1 <1>   0.0800 
 39 H      -12.0300     1.0540    -1.2300 H     1 <1>   0.0800 
 40 H      -12.1140    -2.5510    -0.1410 H     1 <1>   0.0800 
 41 H      -10.9690    -3.8340     0.0740 H     1 <1>   0.0800 
 42 H      -10.8060    -2.7740    -1.2930 H     1 <1>   0.0800 
@<TRIPOS>BOND
  1   1   2  1   
  2   2   3  ar  
  3   2   4  ar  
  4   3   5  ar  
  5   3  18  1   
  6   4   6  ar  
  7   4  19  1   
  8   5   7  ar  
  9   5   8  1   
 10   6   7  ar  
 11   6  20  1   
 12   7  21  1   
 13   8   9  1   
 14   8  22  1   
 15   8  23  1   
 16   9  10  1   
 17   9  11  1   
 18   9  24  1   
 19  10  12  1   
 20  10  25  1   
 21  10  26  1   
 22  11  27  1   
 23  11  28  1   
 24  11  29  1   
 25  12  13  1   
 26  12  30  1   
 27  12  31  1   
 28  13  14  1   
 29  13  15  1   
 30  13  32  1   
 31  14  16  1   
 32  14  33  1   
 33  14  34  1   
 34  15  17  1   
 35  15  35  1   
 36  15  36  1   
 37  16  37  1   
 38  16  38  1   
 39  16  39  1   
 40  17  40  1   
 41  17  41  1   
 42  17  42  1   
@<TRIPOS>SUBSTRUCTURE
  1 ****   9 GROUP 4 **** **** 0

# MOE 2024.06 (io_trps.svl 2023.06)
