@<TRIPOS>MOLECULE
NONAME
54 57 1 0 0 
SMALL
USER_CHARGES


@<TRIPOS>ATOM
  1 S        1.5170     0.9610     0.8330 S.3   1 <1>  -0.0800 
  2 C        2.1280     1.4090    -0.7560 C.2   1 <1>   0.1040 
  3 C       -0.0060     1.7670     0.5280 C.2   1 <1>  -0.1400 
  4 N        3.4100     0.9470    -1.0360 N.am  1 <1>  -0.4940 
  5 C        1.2070     2.1580    -1.4290 C.2   1 <1>   0.0190 
  6 C       -0.0080     2.3450    -0.6810 C.2   1 <1>  -0.1810 
  7 C       -1.1100     1.7530     1.5620 C.3   1 <1>   0.0200 
  8 C        4.0420     0.6820    -2.2160 C.2   1 <1>   0.5690 
  9 C        1.3750     2.7700    -2.7130 C.1   1 <1>   0.5380 
 10 C       -1.2230     3.1190    -1.1750 C.3   1 <1>   0.0210 
 11 C       -2.4330     2.2150     0.9120 C.3   1 <1>  -0.0800 
 12 O        3.5040     0.7550    -3.2920 O.2   1 <1>  -0.5700 
 13 C        5.5030     0.2390    -2.1270 C.3   1 <1>   0.1710 
 14 N        1.4390     3.3390    -3.7020 N.1   1 <1>  -0.5570 
 15 C       -2.1960     3.4310    -0.0190 C.3   1 <1>  -0.1600 
 16 C       -3.4780     2.5020     2.0080 C.3   1 <1>  -0.1600 
 17 N        6.1470     0.5830    -0.8240 N.3   1 <1>  -0.8100 
 18 C       -4.8920     2.7370     1.4600 C.3   1 <1>  -0.2400 
 19 C        6.4760     2.0210    -0.7730 C.3   1 <1>   0.1100 
 20 C        7.3540    -0.2330    -0.6100 C.3   1 <1>   0.1100 
 21 C        6.9890     2.3800     0.6200 C.3   1 <1>  -0.1600 
 22 C        7.9120     0.0350     0.7870 C.3   1 <1>  -0.1600 
 23 C        8.2010     1.5180     0.9710 C.3   1 <1>   0.5600 
 24 O        9.2900     1.8720     0.1790 O.3   1 <1>  -0.5600 
 25 O        8.6050     1.7480     2.2770 O.3   1 <1>  -0.5600 
 26 C       10.0790     2.7790     0.8630 C.3   1 <1>   0.1200 
 27 C        9.5510     2.7520     2.2840 C.3   1 <1>   0.1200 
 28 H        4.0160     0.7380    -0.2340 H     1 <1>   0.3700 
 29 H       -0.8330     2.4130     2.3650 H     1 <1>   0.0800 
 30 H       -1.2250     0.7600     1.9580 H     1 <1>   0.0800 
 31 H       -1.7260     2.5300    -1.9210 H     1 <1>   0.0800 
 32 H       -0.9160     4.0450    -1.6310 H     1 <1>   0.0800 
 33 H       -2.7950     1.4020     0.3050 H     1 <1>   0.0800 
 34 H        6.0540     0.6770    -2.9410 H     1 <1>   0.0800 
 35 H        5.5120    -0.8280    -2.2600 H     1 <1>   0.0800 
 36 H       -3.1230     3.7670    -0.4450 H     1 <1>   0.0800 
 37 H       -1.7920     4.2400     0.5650 H     1 <1>   0.0800 
 38 H       -3.1750     3.3580     2.5860 H     1 <1>   0.0800 
 39 H       -3.5190     1.6580     2.6760 H     1 <1>   0.0800 
 40 H       -4.9430     3.6480     0.8920 H     1 <1>   0.0800 
 41 H       -5.5890     2.8150     2.2760 H     1 <1>   0.0800 
 42 H       -5.1950     1.9160     0.8330 H     1 <1>   0.0800 
 43 H        5.6020     2.6130    -0.9880 H     1 <1>   0.0800 
 44 H        7.2290     2.2530    -1.5100 H     1 <1>   0.0800 
 45 H        8.0980     0.0040    -1.3540 H     1 <1>   0.0800 
 46 H        7.1070    -1.2780    -0.6930 H     1 <1>   0.0800 
 47 H        6.2080     2.1970     1.3340 H     1 <1>   0.0800 
 48 H        7.2480     3.4210     0.6560 H     1 <1>   0.0800 
 49 H        8.8150    -0.5270     0.9390 H     1 <1>   0.0800 
 50 H        7.1870    -0.2780     1.5150 H     1 <1>   0.0800 
 51 H        9.9710     3.7510     0.4150 H     1 <1>   0.0800 
 52 H       11.1030     2.4550     0.8110 H     1 <1>   0.0800 
 53 H       10.3170     2.5120     3.0000 H     1 <1>   0.0800 
 54 H        9.0740     3.6800     2.5450 H     1 <1>   0.0800 
@<TRIPOS>BOND
  1   1   2  1   
  2   1   3  1   
  3   2   4  1   
  4   2   5  2   
  5   3   6  2   
  6   3   7  1   
  7   4   8  am  
  8   4  28  1   
  9   5   6  1   
 10   5   9  1   
 11   6  10  1   
 12   7  11  1   
 13   7  29  1   
 14   7  30  1   
 15   8  12  2   
 16   8  13  1   
 17   9  14  3   
 18  10  15  1   
 19  10  31  1   
 20  10  32  1   
 21  11  15  1   
 22  11  16  1   
 23  11  33  1   
 24  13  17  1   
 25  13  34  1   
 26  13  35  1   
 27  15  36  1   
 28  15  37  1   
 29  16  18  1   
 30  16  38  1   
 31  16  39  1   
 32  17  19  1   
 33  17  20  1   
 34  18  40  1   
 35  18  41  1   
 36  18  42  1   
 37  19  21  1   
 38  19  43  1   
 39  19  44  1   
 40  20  22  1   
 41  20  45  1   
 42  20  46  1   
 43  21  23  1   
 44  21  47  1   
 45  21  48  1   
 46  22  23  1   
 47  22  49  1   
 48  22  50  1   
 49  23  24  1   
 50  23  25  1   
 51  24  26  1   
 52  25  27  1   
 53  26  27  1   
 54  26  51  1   
 55  26  52  1   
 56  27  53  1   
 57  27  54  1   
@<TRIPOS>SUBSTRUCTURE
  1 ****   4 GROUP 4 **** **** 0

# MOE 2024.06 (io_trps.svl 2023.06)
