@<TRIPOS>MOLECULE
NONAME
41 44 1 0 0 
SMALL
USER_CHARGES


@<TRIPOS>ATOM
  1 O      -12.2690     4.5680     0.6590 O.2   1 <1>  -0.5700 
  2 C      -11.7940     3.5830     0.1440 C.2   1 <1>   0.5950 
  3 C      -12.4840     2.3430    -0.0340 C.2   1 <1>  -0.0860 
  4 C      -10.3570     3.6410    -0.3850 C.3   1 <1>  -0.0190 
  5 C      -13.8290     2.0170     0.2750 C.ar  1 <1>   0.0000 
  6 C      -11.9300     1.2170    -0.5740 C.2   1 <1>  -0.3320 
  7 C       -9.6670     2.2490    -0.3350 C.3   1 <1>  -0.1600 
  8 C       -9.5530     4.7110     0.3810 C.3   1 <1>   0.0960 
  9 C      -14.0230     0.6940    -0.1100 C.ar  1 <1>  -0.1520 
 10 C      -14.8850     2.7340     0.8460 C.ar  1 <1>  -0.1500 
 11 N      -12.8460     0.2160    -0.6390 N.pl3 1 <1>   0.0480 
 12 C      -10.4830     1.1440    -1.0290 C.3   1 <1>   0.0200 
 13 N       -8.1690     4.8240    -0.1270 N.pl3 1 <1>   0.0480 
 14 C      -15.2630     0.0750     0.0700 C.ar  1 <1>  -0.1500 
 15 C      -16.1050     2.1220     1.0210 C.ar  1 <1>  -0.1500 
 16 C      -12.6610    -1.1480    -1.1680 C.3   1 <1>   0.0160 
 17 C       -7.0060     4.4430     0.4590 C.2   1 <1>   0.0060 
 18 C       -7.8020     5.3180    -1.3240 C.2   1 <1>  -0.3020 
 19 C      -16.2950     0.7920     0.6330 C.ar  1 <1>  -0.1500 
 20 N       -5.9630     4.6530    -0.2750 N.2   1 <1>  -0.5650 
 21 C       -6.9160     3.8280     1.8410 C.3   1 <1>  -0.0600 
 22 C       -6.4590     5.2050    -1.3960 C.2   1 <1>   0.0770 
 23 H      -10.4280     3.9500    -1.4120 H     1 <1>   0.0800 
 24 H       -9.5320     1.9670     0.6950 H     1 <1>   0.0800 
 25 H       -8.6940     2.2940    -0.7940 H     1 <1>   0.0800 
 26 H       -9.5300     4.4720     1.4280 H     1 <1>   0.0800 
 27 H      -10.0250     5.6720     0.2710 H     1 <1>   0.0800 
 28 H      -14.7260     3.7560     1.1400 H     1 <1>   0.1500 
 29 H      -10.4410     1.2690    -2.0970 H     1 <1>   0.0800 
 30 H      -10.0590     0.1870    -0.7800 H     1 <1>   0.0800 
 31 H      -15.4060    -0.9480    -0.2280 H     1 <1>   0.1500 
 32 H      -16.9250     2.6650     1.4590 H     1 <1>   0.1500 
 33 H      -11.7500    -1.2040    -1.7330 H     1 <1>   0.0800 
 34 H      -13.4890    -1.3930    -1.8090 H     1 <1>   0.0800 
 35 H      -12.6230    -1.8410    -0.3490 H     1 <1>   0.0800 
 36 H       -8.4950     5.7150    -2.0430 H     1 <1>   0.1500 
 37 H      -17.2570     0.3350     0.7810 H     1 <1>   0.1500 
 38 H       -7.3020     4.5120     2.5750 H     1 <1>   0.0800 
 39 H       -5.8880     3.6180     2.0770 H     1 <1>   0.0800 
 40 H       -7.4710     2.9090     1.8770 H     1 <1>   0.0800 
 41 H       -5.8120     5.4980    -2.2060 H     1 <1>   0.1500 
@<TRIPOS>BOND
  1   1   2  2   
  2   2   3  1   
  3   2   4  1   
  4   3   5  1   
  5   3   6  2   
  6   4   7  1   
  7   4   8  1   
  8   4  23  1   
  9   5   9  ar  
 10   5  10  ar  
 11   6  11  1   
 12   6  12  1   
 13   7  12  1   
 14   7  24  1   
 15   7  25  1   
 16   8  13  1   
 17   8  26  1   
 18   8  27  1   
 19   9  11  1   
 20   9  14  ar  
 21  10  15  ar  
 22  10  28  1   
 23  11  16  1   
 24  12  29  1   
 25  12  30  1   
 26  13  17  1   
 27  13  18  1   
 28  14  19  ar  
 29  14  31  1   
 30  15  19  ar  
 31  15  32  1   
 32  16  33  1   
 33  16  34  1   
 34  16  35  1   
 35  17  20  2   
 36  17  21  1   
 37  18  22  2   
 38  18  36  1   
 39  19  37  1   
 40  20  22  1   
 41  21  38  1   
 42  21  39  1   
 43  21  40  1   
 44  22  41  1   
@<TRIPOS>SUBSTRUCTURE
  1 ****   2 GROUP 4 **** **** 0

# MOE 2024.06 (io_trps.svl 2023.06)
