@<TRIPOS>MOLECULE
Structure2302
29 30 1 0 0 
SMALL
USER_CHARGES


@<TRIPOS>ATOM
  1 O       -0.2500    -0.1960    -0.1140 O.3   1 <1>  -0.3630 
  2 C       -0.8730    -1.3910     0.0360 C.ar  1 <1>   0.0830 
  3 C        1.1320    -0.0550     0.1350 C.3   1 <1>   0.0400 
  4 C       -2.2190    -1.4290    -0.2860 C.ar  1 <1>  -0.1500 
  5 C       -0.2420    -2.5450     0.4840 C.ar  1 <1>  -0.1500 
  6 C       -2.9610    -2.5960    -0.1550 C.ar  1 <1>  -0.1430 
  7 C       -0.9640    -3.7180     0.5980 C.ar  1 <1>  -0.1500 
  8 C       -2.3100    -3.7460     0.2780 C.ar  1 <1>  -0.1500 
  9 C       -4.4490    -2.5900    -0.5110 C.3   1 <1>   0.0630 
 10 C       -5.1550    -1.3050    -0.0570 C.3   1 <1>   0.3430 
 11 C       -5.2760    -3.7080     0.1300 C.3   1 <1>  -0.1600 
 12 N       -6.4720    -1.7090     0.5210 N.4   1 <1>  -0.9060 
 13 C       -6.6820    -3.1420     0.2140 C.3   1 <1>   0.3430 
 14 H        1.4060     0.9640    -0.0680 H     1 <1>   0.0800 
 15 H        1.6740    -0.7160    -0.5190 H     1 <1>   0.0800 
 16 H        1.3280    -0.2880     1.1670 H     1 <1>   0.0800 
 17 H       -2.6530    -0.5150    -0.6470 H     1 <1>   0.1500 
 18 H        0.8000    -2.5510     0.7420 H     1 <1>   0.1500 
 19 H       -0.4740    -4.6160     0.9360 H     1 <1>   0.1500 
 20 H       -2.8270    -4.6840     0.3690 H     1 <1>   0.1500 
 21 H       -4.5370    -2.6570    -1.5820 H     1 <1>   0.0800 
 22 H       -5.2860    -0.6420    -0.8970 H     1 <1>   0.0800 
 23 H       -4.5620    -0.8070     0.6940 H     1 <1>   0.0800 
 24 H       -4.9310    -3.9160     1.1290 H     1 <1>   0.0800 
 25 H       -5.2470    -4.6160    -0.4470 H     1 <1>   0.0800 
 26 H       -7.2410    -1.1250     0.1660 H     1 <1>   0.4500 
 27 H       -6.4330    -1.5860     1.5420 H     1 <1>   0.4500 
 28 H       -7.2710    -3.6360     0.9720 H     1 <1>   0.0800 
 29 H       -7.1690    -3.2440    -0.7430 H     1 <1>   0.0800 
@<TRIPOS>BOND
  1   1   2  1   
  2   1   3  1   
  3   2   4  ar  
  4   2   5  ar  
  5   3  14  1   
  6   3  15  1   
  7   3  16  1   
  8   4   6  ar  
  9   4  17  1   
 10   5   7  ar  
 11   5  18  1   
 12   6   8  ar  
 13   6   9  1   
 14   7   8  ar  
 15   7  19  1   
 16   8  20  1   
 17   9  10  1   
 18   9  11  1   
 19   9  21  1   
 20  10  12  1   
 21  10  22  1   
 22  10  23  1   
 23  11  13  1   
 24  11  24  1   
 25  11  25  1   
 26  12  13  1   
 27  12  26  1   
 28  12  27  1   
 29  13  28  1   
 30  13  29  1   
@<TRIPOS>SUBSTRUCTURE
  1 ****   6 GROUP 4 **** **** 0

# MOE 2024.06 (io_trps.svl 2023.06)
