@<TRIPOS>MOLECULE
NONAME
42 44 1 0 0 
SMALL
USER_CHARGES


@<TRIPOS>ATOM
  1 O        0.3660    -0.3550    -0.6920 O.2   1 <1>  -0.5700 
  2 C        0.1950    -1.3140     0.0360 C.2   1 <1>   0.6900 
  3 N        1.2690    -1.9580     0.5920 N.am  1 <1>  -0.6600 
  4 N       -1.0590    -1.7680     0.3170 N.am  1 <1>  -0.5470 
  5 C        2.6170    -1.3130     0.5960 C.3   1 <1>   0.1400 
  6 C        1.3210    -3.4400     0.7860 C.3   1 <1>   0.1400 
  7 C       -2.2900    -1.2940    -0.1510 C.ar  1 <1>   0.1170 
  8 C        3.5370    -1.9590    -0.4530 C.3   1 <1>   0.1400 
  9 C        2.2360    -4.0850    -0.2670 C.3   1 <1>   0.1400 
 10 C       -2.8110    -0.0550     0.2300 C.ar  1 <1>  -0.1440 
 11 C       -3.0290    -2.1050    -1.0030 C.ar  1 <1>  -0.1500 
 12 N        3.5860    -3.4430    -0.2640 N.am  1 <1>  -0.6600 
 13 C       -4.0480     0.3450    -0.2510 C.ar  1 <1>  -0.1500 
 14 C       -2.0470     0.8760     1.1630 C.3   1 <1>  -0.0970 
 15 C       -4.2630    -1.7010    -1.4760 C.ar  1 <1>  -0.1500 
 16 C        4.6930    -4.0960     0.2420 C.2   1 <1>   0.7150 
 17 C       -4.7740    -0.4730    -1.0990 C.ar  1 <1>  -0.1500 
 18 O        4.5080    -5.0950     0.9170 O.2   1 <1>  -0.5700 
 19 C        6.0370    -3.6210    -0.0180 C.2   1 <1>   0.0550 
 20 O        6.9930    -3.7220     0.9020 O.3   1 <1>  -0.2800 
 21 C        6.5740    -3.0330    -1.1250 C.2   1 <1>  -0.1500 
 22 C        8.1070    -3.2220     0.4190 C.2   1 <1>  -0.0100 
 23 C        7.9150    -2.7740    -0.8400 C.2   1 <1>  -0.1500 
 24 H       -1.0970    -2.4790     1.0370 H     1 <1>   0.3700 
 25 H        3.0570    -1.4230     1.5710 H     1 <1>   0.0800 
 26 H        2.5300    -0.2580     0.3950 H     1 <1>   0.0800 
 27 H        0.3410    -3.8730     0.7070 H     1 <1>   0.0800 
 28 H        1.7050    -3.6580     1.7680 H     1 <1>   0.0800 
 29 H        4.5170    -1.5250    -0.3630 H     1 <1>   0.0800 
 30 H        3.1620    -1.7350    -1.4370 H     1 <1>   0.0800 
 31 H        1.7930    -3.9660    -1.2410 H     1 <1>   0.0800 
 32 H        2.3170    -5.1410    -0.0740 H     1 <1>   0.0800 
 33 H       -2.6300    -3.0560    -1.3020 H     1 <1>   0.1500 
 34 H       -4.4550     1.2990     0.0320 H     1 <1>   0.1500 
 35 H       -1.6500     0.3290     1.9980 H     1 <1>   0.0800 
 36 H       -2.6860     1.6530     1.5410 H     1 <1>   0.0800 
 37 H       -1.2330     1.3340     0.6290 H     1 <1>   0.0800 
 38 H       -4.8240    -2.3370    -2.1390 H     1 <1>   0.1500 
 39 H       -5.7330    -0.1510    -1.4660 H     1 <1>   0.1500 
 40 H        6.0810    -2.8110    -2.0550 H     1 <1>   0.1500 
 41 H        8.9900    -3.2250     1.0340 H     1 <1>   0.1500 
 42 H        8.6270    -2.3160    -1.5040 H     1 <1>   0.1500 
@<TRIPOS>BOND
  1   1   2  2   
  2   2   3  am  
  3   2   4  am  
  4   3   5  1   
  5   3   6  1   
  6   4   7  1   
  7   4  24  1   
  8   5   8  1   
  9   5  25  1   
 10   5  26  1   
 11   6   9  1   
 12   6  27  1   
 13   6  28  1   
 14   7  10  ar  
 15   7  11  ar  
 16   8  12  1   
 17   8  29  1   
 18   8  30  1   
 19   9  12  1   
 20   9  31  1   
 21   9  32  1   
 22  10  13  ar  
 23  10  14  1   
 24  11  15  ar  
 25  11  33  1   
 26  12  16  am  
 27  13  17  ar  
 28  13  34  1   
 29  14  35  1   
 30  14  36  1   
 31  14  37  1   
 32  15  17  ar  
 33  15  38  1   
 34  16  18  2   
 35  16  19  1   
 36  17  39  1   
 37  19  20  1   
 38  19  21  2   
 39  20  22  1   
 40  21  23  1   
 41  21  40  1   
 42  22  23  2   
 43  22  41  1   
 44  23  42  1   
@<TRIPOS>SUBSTRUCTURE
  1 ****   3 GROUP 4 **** **** 0

# MOE 2024.06 (io_trps.svl 2023.06)
