@<TRIPOS>MOLECULE
NONAME
32 32 1 0 0 
SMALL
USER_CHARGES


@<TRIPOS>ATOM
  1 S       -0.0200     0.1090     0.7820 S.o2  1 <1>   1.3330 
  2 O        1.2740    -0.4010     1.1670 O.2   1 <1>  -0.6500 
  3 O       -1.0820    -0.7520     0.3160 O.2   1 <1>  -0.6500 
  4 N        0.1970     1.4410    -0.3010 N.am  1 <1>  -0.6930 
  5 C       -0.6370     0.9560     2.2200 C.3   1 <1>  -0.1350 
  6 C       -0.9100     2.1030    -0.8390 C.ar  1 <1>   0.1990 
  7 C        1.5380     1.5790    -0.9900 C.3   1 <1>   0.0900 
  8 C       -1.4650     3.2560    -0.2560 C.ar  1 <1>   0.0820 
  9 C       -1.5130     1.5970    -1.9830 C.ar  1 <1>  -0.1500 
 10 C        1.9940     0.5040    -1.9890 C.2   1 <1>   0.9060 
 11 O       -0.9580     3.8360     0.8670 O.3   1 <1>  -0.3630 
 12 C       -2.5870     3.8510    -0.8060 C.ar  1 <1>  -0.1500 
 13 C       -2.6280     2.2000    -2.5370 C.ar  1 <1>  -0.1500 
 14 O        1.1760    -0.0990    -2.6940 O.co2 1 <1>  -0.9000 
 15 O        3.2130     0.3390    -2.1270 O.co2 1 <1>  -0.9000 
 16 C        0.3540     4.3450     0.7900 C.3   1 <1>   0.1200 
 17 C       -3.1700     3.3280    -1.9480 C.ar  1 <1>  -0.1500 
 18 C        0.5190     5.3920     1.8860 C.3   1 <1>  -0.2400 
 19 H       -0.7830     0.2580     3.0200 H     1 <1>   0.0800 
 20 H       -1.5740     1.4260     1.9960 H     1 <1>   0.0800 
 21 H        0.0610     1.7050     2.5330 H     1 <1>   0.0800 
 22 H        2.3000     1.6320    -0.2360 H     1 <1>   0.0800 
 23 H        1.5520     2.5070    -1.5270 H     1 <1>   0.0800 
 24 H       -1.1010     0.7100    -2.4350 H     1 <1>   0.1500 
 25 H       -3.0020     4.7240    -0.3370 H     1 <1>   0.1500 
 26 H       -3.0690     1.7810    -3.4250 H     1 <1>   0.1500 
 27 H        0.5000     4.7800    -0.1850 H     1 <1>   0.0800 
 28 H        1.0460     3.5350     0.9350 H     1 <1>   0.0800 
 29 H       -4.0400     3.7950    -2.3750 H     1 <1>   0.1500 
 30 H       -0.1830     6.1930     1.7400 H     1 <1>   0.0800 
 31 H        1.5140     5.7970     1.8530 H     1 <1>   0.0800 
 32 H        0.3610     4.9450     2.8510 H     1 <1>   0.0800 
@<TRIPOS>BOND
  1   1   2  2   
  2   1   3  2   
  3   1   4  am  
  4   1   5  1   
  5   4   6  1   
  6   4   7  1   
  7   5  19  1   
  8   5  20  1   
  9   5  21  1   
 10   6   8  ar  
 11   6   9  ar  
 12   7  10  1   
 13   7  22  1   
 14   7  23  1   
 15   8  11  1   
 16   8  12  ar  
 17   9  13  ar  
 18   9  24  1   
 19  10  14  ar  
 20  10  15  ar  
 21  11  16  1   
 22  12  17  ar  
 23  12  25  1   
 24  13  17  ar  
 25  13  26  1   
 26  16  18  1   
 27  16  27  1   
 28  16  28  1   
 29  17  29  1   
 30  18  30  1   
 31  18  31  1   
 32  18  32  1   
@<TRIPOS>SUBSTRUCTURE
  1 ****   4 GROUP 4 **** **** 0

# MOE 2024.06 (io_trps.svl 2023.06)
