@<TRIPOS>MOLECULE
NONAME
28 28 1 0 0 
SMALL
USER_CHARGES


@<TRIPOS>ATOM
  1 S       -0.6020    -0.1850    -1.3830 S.o2  1 <1>   1.2570 
  2 O       -1.0420    -1.5240    -1.7190 O.2   1 <1>  -0.6500 
  3 O       -0.5090     0.7650    -2.4700 O.2   1 <1>  -0.6500 
  4 C       -1.7510     0.4720    -0.1340 C.2   1 <1>  -0.0220 
  5 C        1.0290    -0.3360    -0.5430 C.3   1 <1>   0.1050 
  6 S       -2.5960    -0.6980     0.8570 S.3   1 <1>  -0.0800 
  7 C       -2.1450     1.7310     0.2070 C.2   1 <1>  -0.0860 
  8 C        2.0810    -0.9130    -1.5150 C.3   1 <1>  -0.2400 
  9 C        0.9730    -1.2860     0.6730 C.3   1 <1>  -0.2400 
 10 C        1.5810     1.0130    -0.0390 C.3   1 <1>  -0.2400 
 11 C       -3.5190     0.5290     1.7120 C.2   1 <1>  -0.0450 
 12 C       -3.1510     1.7410     1.2310 C.2   1 <1>  -0.1500 
 13 C       -1.6610     2.9730    -0.3420 C.2   1 <1>   0.5960 
 14 C       -4.4600     0.1230     2.7170 C.2   1 <1>   0.5950 
 15 O       -0.5430     3.1600    -0.7340 O.2   1 <1>  -0.5700 
 16 O       -4.6660    -1.0100     3.0690 O.2   1 <1>  -0.5700 
 17 H        3.0420    -1.0120    -1.0410 H     1 <1>   0.0800 
 18 H        2.1870    -0.2670    -2.3700 H     1 <1>   0.0800 
 19 H        1.7710    -1.8810    -1.8670 H     1 <1>   0.0800 
 20 H        0.6030    -2.2520     0.3750 H     1 <1>   0.0800 
 21 H        0.3220    -0.8960     1.4350 H     1 <1>   0.0800 
 22 H        1.9500    -1.4180     1.1050 H     1 <1>   0.0800 
 23 H        1.6690     1.7070    -0.8580 H     1 <1>   0.0800 
 24 H        2.5530     0.8930     0.4050 H     1 <1>   0.0800 
 25 H        0.9270     1.4420     0.6990 H     1 <1>   0.0800 
 26 H       -3.5640     2.6730     1.5800 H     1 <1>   0.1500 
 27 H       -2.3480     3.8010    -0.3560 H     1 <1>   0.0600 
 28 H       -5.0220     0.9050     3.1960 H     1 <1>   0.0600 
@<TRIPOS>BOND
  1   1   2  2   
  2   1   3  2   
  3   1   4  1   
  4   1   5  1   
  5   4   6  1   
  6   4   7  2   
  7   5   8  1   
  8   5   9  1   
  9   5  10  1   
 10   6  11  1   
 11   7  12  1   
 12   7  13  1   
 13   8  17  1   
 14   8  18  1   
 15   8  19  1   
 16   9  20  1   
 17   9  21  1   
 18   9  22  1   
 19  10  23  1   
 20  10  24  1   
 21  10  25  1   
 22  11  12  2   
 23  11  14  1   
 24  12  26  1   
 25  13  15  2   
 26  13  27  1   
 27  14  16  2   
 28  14  28  1   
@<TRIPOS>SUBSTRUCTURE
  1 ****   4 GROUP 4 **** **** 0

# MOE 2024.06 (io_trps.svl 2023.06)
