@<TRIPOS>MOLECULE
NONAME
37 38 1 0 0 
SMALL
USER_CHARGES


@<TRIPOS>ATOM
  1 CL      -0.4470    -0.6680    -0.6880 Cl    1 <1>  -0.1770 
  2 C       -1.6990     0.4640    -0.2320 C.ar  1 <1>   0.1770 
  3 C       -1.3850     1.7720     0.0970 C.ar  1 <1>   0.1770 
  4 C       -3.0100     0.0280    -0.2060 C.ar  1 <1>  -0.1500 
  5 CL       0.2720     2.3340     0.0660 Cl    1 <1>  -0.1770 
  6 C       -2.3860     2.6540     0.4580 C.ar  1 <1>  -0.1500 
  7 C       -4.0320     0.9020     0.1510 C.ar  1 <1>   0.1170 
  8 C       -3.7000     2.2160     0.4850 C.ar  1 <1>  -0.1500 
  9 N       -5.3490     0.4190     0.1740 N.am  1 <1>  -0.5470 
 10 C       -6.5440     1.0740     0.0620 C.2   1 <1>   0.5690 
 11 O       -6.6380     2.2660    -0.0990 O.2   1 <1>  -0.5700 
 12 C       -7.8000     0.2250     0.1390 C.3   1 <1>  -0.0990 
 13 C       -9.0990     1.0070    -0.1510 C.3   1 <1>  -0.0990 
 14 C      -10.3570     0.1500    -0.1050 C.2   1 <1>   0.5690 
 15 O      -10.2480    -1.0100     0.2180 O.2   1 <1>  -0.5700 
 16 N      -11.5730     0.6950    -0.4280 N.am  1 <1>  -0.6600 
 17 C      -12.8220    -0.1250    -0.4170 C.3   1 <1>   0.1400 
 18 C      -11.8210     2.1220    -0.8020 C.3   1 <1>   0.1400 
 19 C      -13.9320     0.5840     0.3750 C.3   1 <1>   0.1200 
 20 C      -12.9890     2.7010     0.0140 C.3   1 <1>   0.1200 
 21 O      -14.1230     1.8890    -0.0970 O.3   1 <1>  -0.5600 
 22 H       -3.2290    -0.9900    -0.4680 H     1 <1>   0.1500 
 23 H       -2.1390     3.6700     0.7130 H     1 <1>   0.1500 
 24 H       -4.4720     2.9080     0.7730 H     1 <1>   0.1500 
 25 H       -5.4300    -0.5950     0.2450 H     1 <1>   0.3700 
 26 H       -7.8610    -0.2010     1.1240 H     1 <1>   0.0800 
 27 H       -7.7140    -0.5790    -0.5690 H     1 <1>   0.0800 
 28 H       -9.0250     1.4490    -1.1280 H     1 <1>   0.0800 
 29 H       -9.2000     1.7940     0.5730 H     1 <1>   0.0800 
 30 H      -12.6400    -1.0910     0.0210 H     1 <1>   0.0800 
 31 H      -13.1530    -0.2790    -1.4290 H     1 <1>   0.0800 
 32 H      -12.0670     2.1730    -1.8480 H     1 <1>   0.0800 
 33 H      -10.9490     2.7270    -0.6370 H     1 <1>   0.0800 
 34 H      -13.6810     0.6270     1.4210 H     1 <1>   0.0800 
 35 H      -14.8620     0.0560     0.2650 H     1 <1>   0.0800 
 36 H      -13.2500     3.6780    -0.3520 H     1 <1>   0.0800 
 37 H      -12.7230     2.7820     1.0540 H     1 <1>   0.0800 
@<TRIPOS>BOND
  1   1   2  1   
  2   2   3  ar  
  3   2   4  ar  
  4   3   5  1   
  5   3   6  ar  
  6   4   7  ar  
  7   4  22  1   
  8   6   8  ar  
  9   6  23  1   
 10   7   8  ar  
 11   7   9  1   
 12   8  24  1   
 13   9  10  am  
 14   9  25  1   
 15  10  11  2   
 16  10  12  1   
 17  12  13  1   
 18  12  26  1   
 19  12  27  1   
 20  13  14  1   
 21  13  28  1   
 22  13  29  1   
 23  14  15  2   
 24  14  16  am  
 25  16  17  1   
 26  16  18  1   
 27  17  19  1   
 28  17  30  1   
 29  17  31  1   
 30  18  20  1   
 31  18  32  1   
 32  18  33  1   
 33  19  21  1   
 34  19  34  1   
 35  19  35  1   
 36  20  21  1   
 37  20  36  1   
 38  20  37  1   
@<TRIPOS>SUBSTRUCTURE
  1 ****  10 GROUP 4 **** **** 0

# MOE 2024.06 (io_trps.svl 2023.06)
