@<TRIPOS>MOLECULE
NONAME
37 39 1 0 0 
SMALL
USER_CHARGES


@<TRIPOS>ATOM
  1 S        0.0590     0.7140    -0.0760 S.3   1 <1>  -0.0800 
  2 C       -0.2570    -1.0150    -0.1500 C.2   1 <1>   0.1040 
  3 C       -1.5020     1.0870    -0.7850 C.2   1 <1>  -0.1100 
  4 N        0.6900    -1.9400     0.2550 N.am  1 <1>  -0.4940 
  5 C       -1.4980    -1.2580    -0.6680 C.2   1 <1>  -0.0860 
  6 C       -2.1820    -0.0440    -1.0370 C.2   1 <1>  -0.1500 
  7 C        1.9140    -1.8530     0.8840 C.2   1 <1>   0.7160 
  8 C       -2.0510    -2.5780    -0.8420 C.2   1 <1>   0.7160 
  9 O        2.2670    -0.7970     1.3740 O.2   1 <1>  -0.5700 
 10 C        2.7360    -3.0510     0.9560 C.2   1 <1>   0.2030 
 11 O       -1.2960    -3.5320    -0.9690 O.2   1 <1>  -0.5700 
 12 N       -3.4080    -2.8150    -0.8360 N.am  1 <1>  -0.6600 
 13 N        3.7450    -3.2650     1.7490 N.2   1 <1>  -0.4100 
 14 C        2.5620    -4.1880     0.1730 C.2   1 <1>  -0.1500 
 15 C       -3.9890    -4.0630    -1.4180 C.3   1 <1>   0.1400 
 16 C       -4.3390    -2.1200     0.1030 C.3   1 <1>   0.1400 
 17 O        4.2450    -4.4600     1.5470 O.3   1 <1>  -0.0190 
 18 C        3.5260    -5.0100     0.5950 C.2   1 <1>  -0.0400 
 19 C       -4.5930    -4.9460    -0.3150 C.3   1 <1>   0.1200 
 20 C       -4.9350    -3.1160     1.1140 C.3   1 <1>   0.1200 
 21 C        3.8770    -6.4110     0.1410 C.3   1 <1>  -0.0600 
 22 O       -5.5020    -4.2120     0.4560 O.3   1 <1>  -0.5600 
 23 H       -1.7340     2.1260    -0.9420 H     1 <1>   0.1500 
 24 H        0.4170    -2.9000     0.0240 H     1 <1>   0.3700 
 25 H       -3.1590    -0.0790    -1.4880 H     1 <1>   0.1500 
 26 H        1.8240    -4.3470    -0.5920 H     1 <1>   0.1500 
 27 H       -3.2390    -4.6190    -1.9530 H     1 <1>   0.0800 
 28 H       -4.7620    -3.7990    -2.1180 H     1 <1>   0.0800 
 29 H       -5.1380    -1.6670    -0.4580 H     1 <1>   0.0800 
 30 H       -3.8270    -1.3460     0.6450 H     1 <1>   0.0800 
 31 H       -3.8210    -5.3300     0.3290 H     1 <1>   0.0800 
 32 H       -5.1240    -5.7740    -0.7500 H     1 <1>   0.0800 
 33 H       -5.7110    -2.6420     1.6900 H     1 <1>   0.0800 
 34 H       -4.1760    -3.4740     1.7880 H     1 <1>   0.0800 
 35 H        3.2120    -6.7310    -0.6410 H     1 <1>   0.0800 
 36 H        3.7980    -7.0930     0.9680 H     1 <1>   0.0800 
 37 H        4.8860    -6.4310    -0.2300 H     1 <1>   0.0800 
@<TRIPOS>BOND
  1   1   2  1   
  2   1   3  1   
  3   2   4  1   
  4   2   5  2   
  5   3   6  2   
  6   3  23  1   
  7   4   7  am  
  8   4  24  1   
  9   5   6  1   
 10   5   8  1   
 11   6  25  1   
 12   7   9  2   
 13   7  10  1   
 14   8  11  2   
 15   8  12  am  
 16  10  13  2   
 17  10  14  1   
 18  12  15  1   
 19  12  16  1   
 20  13  17  1   
 21  14  18  2   
 22  14  26  1   
 23  15  19  1   
 24  15  27  1   
 25  15  28  1   
 26  16  20  1   
 27  16  29  1   
 28  16  30  1   
 29  17  18  1   
 30  18  21  1   
 31  19  22  1   
 32  19  31  1   
 33  19  32  1   
 34  20  22  1   
 35  20  33  1   
 36  20  34  1   
 37  21  35  1   
 38  21  36  1   
 39  21  37  1   
@<TRIPOS>SUBSTRUCTURE
  1 ****   4 GROUP 4 **** **** 0

# MOE 2024.06 (io_trps.svl 2023.06)
