@<TRIPOS>MOLECULE
NONAME
40 40 1 0 0 
SMALL
USER_CHARGES


@<TRIPOS>ATOM
  1 O       -0.5350    -0.0650    -0.1690 O.2   1 <1>  -0.5700 
  2 C       -0.3440    -1.2520    -0.3570 C.2   1 <1>   0.6900 
  3 N       -1.3850    -2.0800    -0.7110 N.am  1 <1>  -0.6600 
  4 N        0.8950    -1.8020    -0.2040 N.am  1 <1>  -0.5470 
  5 C       -2.7760    -1.5510    -0.7810 C.3   1 <1>   0.1400 
  6 C       -1.1810    -3.4630    -1.2260 C.3   1 <1>   0.1400 
  7 C        2.1660    -1.3060     0.1300 C.ar  1 <1>   0.1170 
  8 C       -3.4490    -1.6630     0.5900 C.3   1 <1>  -0.1600 
  9 C       -1.1380    -4.4640    -0.0670 C.3   1 <1>  -0.1600 
 10 C        3.1760    -2.2330     0.4120 C.ar  1 <1>   0.0820 
 11 C        2.4660     0.0500     0.1850 C.ar  1 <1>  -0.1500 
 12 C       -4.8770    -1.1070     0.5580 C.3   1 <1>  -0.2400 
 13 C       -0.7380    -5.8600    -0.5540 C.3   1 <1>  -0.2400 
 14 O        2.8450    -3.5600     0.3410 O.3   1 <1>  -0.3630 
 15 C        4.4530    -1.7920     0.7460 C.ar  1 <1>  -0.1500 
 16 C        3.7370     0.4830     0.5190 C.ar  1 <1>  -0.1500 
 17 C        3.7750    -4.5650     0.6800 C.3   1 <1>   0.0400 
 18 C        4.7300    -0.4370     0.8000 C.ar  1 <1>  -0.1500 
 19 H        0.8800    -2.8170    -0.2360 H     1 <1>   0.3700 
 20 H       -3.3440    -2.0940    -1.5150 H     1 <1>   0.0800 
 21 H       -2.7540    -0.5180    -1.0860 H     1 <1>   0.0800 
 22 H       -0.2590    -3.5040    -1.7820 H     1 <1>   0.0800 
 23 H       -1.9740    -3.7250    -1.9050 H     1 <1>   0.0800 
 24 H       -2.8710    -1.1070     1.3090 H     1 <1>   0.0800 
 25 H       -3.4790    -2.6920     0.8970 H     1 <1>   0.0800 
 26 H       -2.1080    -4.5180     0.3930 H     1 <1>   0.0800 
 27 H       -0.4310    -4.1380     0.6750 H     1 <1>   0.0800 
 28 H        1.7070     0.7790    -0.0330 H     1 <1>   0.1500 
 29 H       -4.8670    -0.0680     0.2760 H     1 <1>   0.0800 
 30 H       -5.3240    -1.1900     1.5330 H     1 <1>   0.0800 
 31 H       -5.4800    -1.6540    -0.1440 H     1 <1>   0.0800 
 32 H       -1.4400    -6.2210    -1.2860 H     1 <1>   0.0800 
 33 H       -0.7250    -6.5470     0.2740 H     1 <1>   0.0800 
 34 H        0.2440    -5.8400    -0.9940 H     1 <1>   0.0800 
 35 H        5.2460    -2.4800     0.9670 H     1 <1>   0.1500 
 36 H        3.9490     1.5380     0.5580 H     1 <1>   0.1500 
 37 H        3.2880    -5.5180     0.5800 H     1 <1>   0.0800 
 38 H        4.0890    -4.4200     1.6980 H     1 <1>   0.0800 
 39 H        4.6110    -4.5100     0.0050 H     1 <1>   0.0800 
 40 H        5.7180    -0.0970     1.0590 H     1 <1>   0.1500 
@<TRIPOS>BOND
  1   1   2  2   
  2   2   3  am  
  3   2   4  am  
  4   3   5  1   
  5   3   6  1   
  6   4   7  1   
  7   4  19  1   
  8   5   8  1   
  9   5  20  1   
 10   5  21  1   
 11   6   9  1   
 12   6  22  1   
 13   6  23  1   
 14   7  10  ar  
 15   7  11  ar  
 16   8  12  1   
 17   8  24  1   
 18   8  25  1   
 19   9  13  1   
 20   9  26  1   
 21   9  27  1   
 22  10  14  1   
 23  10  15  ar  
 24  11  16  ar  
 25  11  28  1   
 26  12  29  1   
 27  12  30  1   
 28  12  31  1   
 29  13  32  1   
 30  13  33  1   
 31  13  34  1   
 32  14  17  1   
 33  15  18  ar  
 34  15  35  1   
 35  16  18  ar  
 36  16  36  1   
 37  17  37  1   
 38  17  38  1   
 39  17  39  1   
 40  18  40  1   
@<TRIPOS>SUBSTRUCTURE
  1 ****   4 GROUP 4 **** **** 0

# MOE 2024.06 (io_trps.svl 2023.06)
