@<TRIPOS>MOLECULE
NONAME
34 35 1 0 0 
SMALL
USER_CHARGES


@<TRIPOS>ATOM
  1 S       -0.4010     0.8950    -1.7190 S.3   1 <1>  -0.0800 
  2 C       -1.5600     0.0030    -0.8100 C.2   1 <1>   0.4340 
  3 C        0.8110     0.0530    -0.7950 C.2   1 <1>   0.4420 
  4 S       -3.2790     0.3110    -1.1840 S.3   1 <1>  -0.2860 
  5 N       -1.0630    -0.7960     0.0460 N.2   1 <1>  -0.3380 
  6 N        0.3050    -0.7680     0.0540 N.2   1 <1>  -0.3380 
  7 N        2.1600     0.2660    -0.9870 N.am  1 <1>  -0.4940 
  8 C       -4.1920    -0.7820    -0.0090 C.3   1 <1>   0.1500 
  9 C        2.8460     1.1430    -1.7810 C.2   1 <1>   0.5690 
 10 C       -5.5610    -1.0750    -0.6400 C.3   1 <1>  -0.1600 
 11 C       -4.2740    -0.0420     1.3300 C.3   1 <1>  -0.2400 
 12 O        2.3120     1.9520    -2.4940 O.2   1 <1>  -0.5700 
 13 C        4.3640     1.0730    -1.7680 C.3   1 <1>   0.0810 
 14 C       -6.3950    -2.0780     0.1680 C.3   1 <1>  -0.2400 
 15 C        4.9440     0.9520    -0.3650 C.2   1 <1>  -0.1400 
 16 S        6.5050     0.1580    -0.2260 S.3   1 <1>  -0.0800 
 17 C        4.5060     1.3400     0.8500 C.2   1 <1>  -0.1500 
 18 C        6.5110     0.3710     1.5150 C.2   1 <1>  -0.1100 
 19 C        5.3970     1.0060     1.9190 C.2   1 <1>  -0.1500 
 20 H        2.7430    -0.3120    -0.3830 H     1 <1>   0.3700 
 21 H       -3.6190    -1.6880     0.0860 H     1 <1>   0.0800 
 22 H       -5.4030    -1.4790    -1.6250 H     1 <1>   0.0800 
 23 H       -6.1110    -0.1560    -0.7460 H     1 <1>   0.0800 
 24 H       -4.8380     0.8670     1.2230 H     1 <1>   0.0800 
 25 H       -3.2860     0.1990     1.6800 H     1 <1>   0.0800 
 26 H       -4.7460    -0.6600     2.0710 H     1 <1>   0.0800 
 27 H        4.7660     1.9510    -2.2400 H     1 <1>   0.0800 
 28 H        4.6580     0.2210    -2.3520 H     1 <1>   0.0800 
 29 H       -5.8470    -2.9940     0.3110 H     1 <1>   0.0800 
 30 H       -7.3050    -2.3040    -0.3590 H     1 <1>   0.0800 
 31 H       -6.6560    -1.6750     1.1300 H     1 <1>   0.0800 
 32 H        3.5850     1.8590     1.0550 H     1 <1>   0.1500 
 33 H        7.3610    -0.0050     2.0570 H     1 <1>   0.1500 
 34 H        5.1580     1.2610     2.9370 H     1 <1>   0.1500 
@<TRIPOS>BOND
  1   1   2  1   
  2   1   3  1   
  3   2   4  1   
  4   2   5  2   
  5   3   6  2   
  6   3   7  1   
  7   4   8  1   
  8   5   6  1   
  9   7   9  am  
 10   7  20  1   
 11   8  10  1   
 12   8  11  1   
 13   8  21  1   
 14   9  12  2   
 15   9  13  1   
 16  10  14  1   
 17  10  22  1   
 18  10  23  1   
 19  11  24  1   
 20  11  25  1   
 21  11  26  1   
 22  13  15  1   
 23  13  27  1   
 24  13  28  1   
 25  14  29  1   
 26  14  30  1   
 27  14  31  1   
 28  15  16  1   
 29  15  17  2   
 30  16  18  1   
 31  17  19  1   
 32  17  32  1   
 33  18  19  2   
 34  18  33  1   
 35  19  34  1   
@<TRIPOS>SUBSTRUCTURE
  1 ****   3 GROUP 4 **** **** 0

# MOE 2024.06 (io_trps.svl 2023.06)
