@<TRIPOS>MOLECULE
NONAME
42 44 1 0 0 
SMALL
USER_CHARGES


@<TRIPOS>ATOM
  1 CL       0.8510     0.2390    -1.5940 Cl    1 <1>  -0.1770 
  2 C        2.3740     0.8980    -1.0470 C.ar  1 <1>   0.1770 
  3 C        3.5230     0.7120    -1.7950 C.ar  1 <1>   0.1600 
  4 C        2.4260     1.6070     0.1330 C.ar  1 <1>  -0.1500 
  5 N        4.7190     1.1760    -1.4560 N.ar  1 <1>  -0.6200 
  6 C        3.6640     2.0930     0.4930 C.ar  1 <1>  -0.1500 
  7 C        4.7770     1.8570    -0.3180 C.ar  1 <1>   0.4270 
  8 N        6.0420     2.3110    -0.0260 N.am  1 <1>  -0.5470 
  9 C        6.6200     2.8430     1.0860 C.2   1 <1>   0.5690 
 10 O        6.0290     3.0600     2.1150 O.2   1 <1>  -0.5700 
 11 C        8.1130     3.1680     0.9980 C.3   1 <1>   0.1710 
 12 N        8.8380     2.3930    -0.0520 N.3   1 <1>  -0.8100 
 13 C        9.0170     0.9750     0.3540 C.3   1 <1>   0.1100 
 14 C       10.1620     2.9950    -0.3300 C.3   1 <1>   0.1100 
 15 C        9.7590     0.1430    -0.7110 C.3   1 <1>   0.2090 
 16 C       10.9430     2.2310    -1.4180 C.3   1 <1>   0.2090 
 17 N       11.0480     0.7730    -1.1210 N.pl3 1 <1>  -0.8380 
 18 C       12.2250     0.2980    -0.5530 C.ar  1 <1>   0.1000 
 19 C       12.5560     0.5510     0.7730 C.ar  1 <1>  -0.1500 
 20 C       13.1000    -0.4530    -1.3260 C.ar  1 <1>  -0.1500 
 21 C       13.7330     0.0660     1.3140 C.ar  1 <1>  -0.1500 
 22 C       14.2790    -0.9410    -0.7920 C.ar  1 <1>  -0.1500 
 23 C       14.5970    -0.6820     0.5310 C.ar  1 <1>  -0.1500 
 24 H        3.4480     0.1560    -2.7120 H     1 <1>   0.1500 
 25 H        1.5460     1.7660     0.7310 H     1 <1>   0.1500 
 26 H        3.7680     2.6570     1.4010 H     1 <1>   0.1500 
 27 H        6.7170     2.1230    -0.7720 H     1 <1>   0.3700 
 28 H        8.5640     2.9970     1.9590 H     1 <1>   0.0800 
 29 H        8.1900     4.2180     0.7790 H     1 <1>   0.0800 
 30 H        8.0570     0.5200     0.5260 H     1 <1>   0.0800 
 31 H        9.5710     0.9250     1.2750 H     1 <1>   0.0800 
 32 H       10.7520     3.0150     0.5690 H     1 <1>   0.0800 
 33 H       10.0290     4.0110    -0.6610 H     1 <1>   0.0800 
 34 H        9.1310     0.0420    -1.5790 H     1 <1>   0.0800 
 35 H        9.9500    -0.8430    -0.3260 H     1 <1>   0.0800 
 36 H       11.9310     2.6480    -1.5100 H     1 <1>   0.0800 
 37 H       10.4440     2.3560    -2.3630 H     1 <1>   0.0800 
 38 H       11.8870     1.1290     1.3800 H     1 <1>   0.1500 
 39 H       12.8420    -0.6470    -2.3500 H     1 <1>   0.1500 
 40 H       13.9780     0.2680     2.3410 H     1 <1>   0.1500 
 41 H       14.9470    -1.5200    -1.4030 H     1 <1>   0.1500 
 42 H       15.5130    -1.0600     0.9490 H     1 <1>   0.1500 
@<TRIPOS>BOND
  1   1   2  1   
  2   2   3  ar  
  3   2   4  ar  
  4   3   5  ar  
  5   3  24  1   
  6   4   6  ar  
  7   4  25  1   
  8   5   7  ar  
  9   6   7  ar  
 10   6  26  1   
 11   7   8  1   
 12   8   9  am  
 13   8  27  1   
 14   9  10  2   
 15   9  11  1   
 16  11  12  1   
 17  11  28  1   
 18  11  29  1   
 19  12  13  1   
 20  12  14  1   
 21  13  15  1   
 22  13  30  1   
 23  13  31  1   
 24  14  16  1   
 25  14  32  1   
 26  14  33  1   
 27  15  17  1   
 28  15  34  1   
 29  15  35  1   
 30  16  17  1   
 31  16  36  1   
 32  16  37  1   
 33  17  18  1   
 34  18  19  ar  
 35  18  20  ar  
 36  19  21  ar  
 37  19  38  1   
 38  20  22  ar  
 39  20  39  1   
 40  21  23  ar  
 41  21  40  1   
 42  22  23  ar  
 43  22  41  1   
 44  23  42  1   
@<TRIPOS>SUBSTRUCTURE
  1 ****  13 GROUP 4 **** **** 0

# MOE 2024.06 (io_trps.svl 2023.06)
