@<TRIPOS>MOLECULE
NONAME
47 47 1 0 0 
SMALL
USER_CHARGES


@<TRIPOS>ATOM
  1 O       -4.7620     6.5650    -0.6020 O.3   1 <1>  -0.3630 
  2 C       -5.9200     6.1060    -0.0780 C.ar  1 <1>   0.0830 
  3 C       -3.5870     6.1620     0.0640 C.3   1 <1>   0.1200 
  4 C       -6.4460     4.8950    -0.5250 C.ar  1 <1>  -0.1440 
  5 C       -6.5800     6.8530     0.8960 C.ar  1 <1>  -0.1440 
  6 C       -2.3960     6.7730    -0.6670 C.3   1 <1>   0.1200 
  7 C       -7.6200     4.4220     0.0360 C.ar  1 <1>  -0.1500 
  8 C       -5.7630     4.0860    -1.6190 C.3   1 <1>  -0.0960 
  9 C       -7.7530     6.3600     1.4430 C.ar  1 <1>  -0.1500 
 10 C       -6.0440     8.1980     1.3660 C.3   1 <1>  -0.0960 
 11 O       -1.2200     6.3830    -0.0200 O.3   1 <1>  -0.5600 
 12 C       -8.2690     5.1490     1.0190 C.ar  1 <1>  -0.1500 
 13 C       -0.0590     6.8790    -0.5950 C.3   1 <1>   0.1200 
 14 C        1.1160     6.3550     0.2350 C.3   1 <1>   0.3430 
 15 N        2.4320     6.8320    -0.2990 N.4   1 <1>  -0.9060 
 16 C        3.6260     6.3860     0.4250 C.3   1 <1>   0.5030 
 17 C        4.8180     6.9960    -0.3030 C.3   1 <1>  -0.2400 
 18 C        3.7180     4.8620     0.3850 C.3   1 <1>  -0.2400 
 19 C        3.5800     6.8980     1.8640 C.3   1 <1>  -0.2400 
 20 H       -3.5380     5.0880     0.0450 H     1 <1>   0.0800 
 21 H       -3.6350     6.5130     1.0790 H     1 <1>   0.0800 
 22 H       -2.4670     7.8470    -0.6450 H     1 <1>   0.0800 
 23 H       -2.3700     6.4180    -1.6830 H     1 <1>   0.0800 
 24 H       -8.0380     3.4860    -0.2890 H     1 <1>   0.1500 
 25 H       -5.3910     4.7400    -2.3870 H     1 <1>   0.0800 
 26 H       -6.4550     3.3980    -2.0710 H     1 <1>   0.0800 
 27 H       -4.9430     3.5290    -1.2040 H     1 <1>   0.0800 
 28 H       -8.2730     6.9170     2.2020 H     1 <1>   0.1500 
 29 H       -5.6660     8.7590     0.5310 H     1 <1>   0.0800 
 30 H       -5.2520     8.0480     2.0760 H     1 <1>   0.0800 
 31 H       -6.8220     8.7750     1.8330 H     1 <1>   0.0800 
 32 H       -9.1800     4.7730     1.4510 H     1 <1>   0.1500 
 33 H       -0.1020     7.9550    -0.5700 H     1 <1>   0.0800 
 34 H       -0.0050     6.5220    -1.6100 H     1 <1>   0.0800 
 35 H        1.0860     5.2780     0.2250 H     1 <1>   0.0800 
 36 H        0.9910     6.6910     1.2510 H     1 <1>   0.0800 
 37 H        2.4500     7.8560    -0.3030 H     1 <1>   0.4500 
 38 H        2.5400     6.5240    -1.2710 H     1 <1>   0.4500 
 39 H        4.8710     6.6530    -1.3220 H     1 <1>   0.0800 
 40 H        5.7330     6.7040     0.1840 H     1 <1>   0.0800 
 41 H        4.7760     8.0710    -0.2920 H     1 <1>   0.0800 
 42 H        4.6450     4.5440     0.8290 H     1 <1>   0.0800 
 43 H        2.9250     4.4000     0.9460 H     1 <1>   0.0800 
 44 H        3.6980     4.4970    -0.6260 H     1 <1>   0.0800 
 45 H        3.4640     7.9670     1.8940 H     1 <1>   0.0800 
 46 H        4.5030     6.6550     2.3630 H     1 <1>   0.0800 
 47 H        2.7880     6.4370     2.4260 H     1 <1>   0.0800 
@<TRIPOS>BOND
  1   1   2  1   
  2   1   3  1   
  3   2   4  ar  
  4   2   5  ar  
  5   3   6  1   
  6   3  20  1   
  7   3  21  1   
  8   4   7  ar  
  9   4   8  1   
 10   5   9  ar  
 11   5  10  1   
 12   6  11  1   
 13   6  22  1   
 14   6  23  1   
 15   7  12  ar  
 16   7  24  1   
 17   8  25  1   
 18   8  26  1   
 19   8  27  1   
 20   9  12  ar  
 21   9  28  1   
 22  10  29  1   
 23  10  30  1   
 24  10  31  1   
 25  11  13  1   
 26  12  32  1   
 27  13  14  1   
 28  13  33  1   
 29  13  34  1   
 30  14  15  1   
 31  14  35  1   
 32  14  36  1   
 33  15  16  1   
 34  15  37  1   
 35  15  38  1   
 36  16  17  1   
 37  16  18  1   
 38  16  19  1   
 39  17  39  1   
 40  17  40  1   
 41  17  41  1   
 42  18  42  1   
 43  18  43  1   
 44  18  44  1   
 45  19  45  1   
 46  19  46  1   
 47  19  47  1   
@<TRIPOS>SUBSTRUCTURE
  1 ****   6 GROUP 4 **** **** 0

# MOE 2024.06 (io_trps.svl 2023.06)
