@<TRIPOS>MOLECULE
NONAME
27 27 1 0 0 
SMALL
USER_CHARGES


@<TRIPOS>ATOM
  1 S       -0.1870    -0.2580     0.6190 S.3   1 <1>  -0.0800 
  2 C        1.0810     0.8560     0.2720 C.2   1 <1>   0.4340 
  3 C       -1.2810     1.0360     0.2420 C.2   1 <1>   0.4420 
  4 S        2.7500     0.2430     0.4390 S.3   1 <1>  -0.2860 
  5 N        0.6890     2.0160    -0.0710 N.2   1 <1>  -0.3380 
  6 N       -0.6760     2.1210    -0.0880 N.2   1 <1>  -0.3380 
  7 N       -2.6290     0.7620     0.3370 N.am  1 <1>  -0.4940 
  8 C        3.8030     1.7020     0.0240 C.3   1 <1>   0.1500 
  9 C       -3.7210     1.5370     0.1160 C.2   1 <1>   0.5690 
 10 C        5.1480     1.1570    -0.4760 C.3   1 <1>  -0.1600 
 11 C        3.9140     2.5570     1.2900 C.3   1 <1>  -0.2400 
 12 O       -4.8150     1.0630     0.2670 O.2   1 <1>  -0.5700 
 13 C       -3.6050     2.9810    -0.3160 C.3   1 <1>  -0.1790 
 14 C        6.0930     2.2560    -0.9810 C.3   1 <1>  -0.2400 
 15 H       -2.8790    -0.1820     0.6220 H     1 <1>   0.3700 
 16 H        3.2990     2.2400    -0.7600 H     1 <1>   0.0800 
 17 H        4.9600     0.4730    -1.2860 H     1 <1>   0.0800 
 18 H        5.6290     0.6070     0.3140 H     1 <1>   0.0800 
 19 H        4.4080     2.0080     2.0720 H     1 <1>   0.0800 
 20 H        2.9350     2.8440     1.6300 H     1 <1>   0.0800 
 21 H        4.4720     3.4530     1.0890 H     1 <1>   0.0800 
 22 H       -3.0700     3.5430     0.4260 H     1 <1>   0.0800 
 23 H       -4.5850     3.4060    -0.4320 H     1 <1>   0.0800 
 24 H       -3.0870     3.0420    -1.2540 H     1 <1>   0.0800 
 25 H        5.6170     2.8370    -1.7510 H     1 <1>   0.0800 
 26 H        6.9830     1.8120    -1.3900 H     1 <1>   0.0800 
 27 H        6.3830     2.9110    -0.1790 H     1 <1>   0.0800 
@<TRIPOS>BOND
  1   1   2  1   
  2   1   3  1   
  3   2   4  1   
  4   2   5  2   
  5   3   6  2   
  6   3   7  1   
  7   4   8  1   
  8   5   6  1   
  9   7   9  am  
 10   7  15  1   
 11   8  10  1   
 12   8  11  1   
 13   8  16  1   
 14   9  12  2   
 15   9  13  1   
 16  10  14  1   
 17  10  17  1   
 18  10  18  1   
 19  11  19  1   
 20  11  20  1   
 21  11  21  1   
 22  13  22  1   
 23  13  23  1   
 24  13  24  1   
 25  14  25  1   
 26  14  26  1   
 27  14  27  1   
@<TRIPOS>SUBSTRUCTURE
  1 ****   5 GROUP 4 **** **** 0

# MOE 2024.06 (io_trps.svl 2023.06)
