@<TRIPOS>MOLECULE
NONAME
46 48 1 0 0 
SMALL
USER_CHARGES


@<TRIPOS>ATOM
  1 S        0.6270     0.3700     0.3340 S.3   1 <1>  -0.3320 
  2 C        0.4280    -1.4090     0.0620 C.ar  1 <1>   0.1020 
  3 C       -1.0730     1.1040     0.3090 C.3   1 <1>  -0.0100 
  4 C        1.6030    -2.1680     0.0530 C.ar  1 <1>   0.3610 
  5 C       -0.8020    -1.9940    -0.1270 C.ar  1 <1>  -0.1500 
  6 N        2.8250    -1.5590     0.2520 N.ar  1 <1>  -0.1790 
  7 C        1.5480    -3.5540    -0.1530 C.ar  1 <1>   0.0000 
  8 C       -0.8660    -3.3700    -0.3310 C.ar  1 <1>  -0.1500 
  9 C        4.0070    -2.1840     0.2630 C.ar  1 <1>   0.4610 
 10 C        2.7870    -4.2640    -0.1550 C.ar  1 <1>  -0.1430 
 11 C        0.2800    -4.1320    -0.3440 C.ar  1 <1>  -0.1500 
 12 N        5.1540    -1.4800     0.4830 N.pl3 1 <1>  -0.8380 
 13 C        3.9560    -3.5890     0.0430 C.ar  1 <1>  -0.1500 
 14 C        2.7940    -5.7710    -0.3860 C.3   1 <1>  -0.0970 
 15 C        6.4710    -2.1160     0.8790 C.3   1 <1>   0.2090 
 16 C        5.2740     0.0290     0.4360 C.3   1 <1>   0.2090 
 17 C        7.6450    -1.6450    -0.0110 C.3   1 <1>   0.3430 
 18 C        6.4670     0.4990    -0.4370 C.3   1 <1>   0.3430 
 19 N        7.7740    -0.1420    -0.0480 N.4   1 <1>  -0.9590 
 20 C        8.8650     0.3040    -0.9590 C.3   1 <1>   0.3430 
 21 C       10.2180    -0.0320    -0.3430 C.3   1 <1>  -0.2400 
 22 H       -1.5100     0.9110    -0.6550 H     1 <1>   0.0800 
 23 H       -0.9750     2.1620     0.4730 H     1 <1>   0.0800 
 24 H       -1.6480     0.6510     1.0970 H     1 <1>   0.0800 
 25 H       -1.7160    -1.4280    -0.1230 H     1 <1>   0.1500 
 26 H        2.7660    -0.5630     0.4510 H     1 <1>   0.4570 
 27 H       -1.8280    -3.8360    -0.4790 H     1 <1>   0.1500 
 28 H        0.1940    -5.1930    -0.5050 H     1 <1>   0.1500 
 29 H        4.8720    -4.1430     0.0180 H     1 <1>   0.1500 
 30 H        2.3640    -6.0030    -1.3450 H     1 <1>   0.0800 
 31 H        2.2240    -6.2670     0.3790 H     1 <1>   0.0800 
 32 H        3.7930    -6.1670    -0.3650 H     1 <1>   0.0800 
 33 H        6.4290    -3.1870     0.8470 H     1 <1>   0.0800 
 34 H        6.6880    -1.8530     1.9010 H     1 <1>   0.0800 
 35 H        5.4020     0.4070     1.4370 H     1 <1>   0.0800 
 36 H        4.3810     0.4750     0.0340 H     1 <1>   0.0800 
 37 H        7.4880    -2.0200    -1.0100 H     1 <1>   0.0800 
 38 H        8.5580    -2.0800     0.3610 H     1 <1>   0.0800 
 39 H        6.5540     1.5710    -0.3630 H     1 <1>   0.0800 
 40 H        6.2470     0.2620    -1.4660 H     1 <1>   0.0800 
 41 H        8.0220     0.1810     0.8980 H     1 <1>   0.4500 
 42 H        8.8070     1.3720    -1.1020 H     1 <1>   0.0800 
 43 H        8.7680    -0.1700    -1.9230 H     1 <1>   0.0800 
 44 H       10.3240     0.4180     0.6280 H     1 <1>   0.0800 
 45 H       10.9960     0.3630    -0.9740 H     1 <1>   0.0800 
 46 H       10.3710    -1.0940    -0.2720 H     1 <1>   0.0800 
@<TRIPOS>BOND
  1   1   2  1   
  2   1   3  1   
  3   2   4  ar  
  4   2   5  ar  
  5   3  22  1   
  6   3  23  1   
  7   3  24  1   
  8   4   6  ar  
  9   4   7  ar  
 10   5   8  ar  
 11   5  25  1   
 12   6   9  ar  
 13   6  26  1   
 14   7  10  ar  
 15   7  11  ar  
 16   8  11  ar  
 17   8  27  1   
 18   9  12  1   
 19   9  13  ar  
 20  10  13  ar  
 21  10  14  1   
 22  11  28  1   
 23  12  15  1   
 24  12  16  1   
 25  13  29  1   
 26  14  30  1   
 27  14  31  1   
 28  14  32  1   
 29  15  17  1   
 30  15  33  1   
 31  15  34  1   
 32  16  18  1   
 33  16  35  1   
 34  16  36  1   
 35  17  19  1   
 36  17  37  1   
 37  17  38  1   
 38  18  19  1   
 39  18  39  1   
 40  18  40  1   
 41  19  20  1   
 42  19  41  1   
 43  20  21  1   
 44  20  42  1   
 45  20  43  1   
 46  21  44  1   
 47  21  45  1   
 48  21  46  1   
@<TRIPOS>SUBSTRUCTURE
  1 ****   9 GROUP 4 **** **** 0

# MOE 2024.06 (io_trps.svl 2023.06)
