@<TRIPOS>MOLECULE
NONAME
30 31 1 0 0 
SMALL
USER_CHARGES


@<TRIPOS>ATOM
  1 CL      -0.0640    -0.2660    -0.4930 Cl    1 <1>  -0.1770 
  2 C        1.4560    -1.0940    -0.2580 C.ar  1 <1>   0.1770 
  3 C        1.4980    -2.3630     0.3080 C.ar  1 <1>  -0.0090 
  4 C        2.6000    -0.4360    -0.6590 C.ar  1 <1>  -0.1500 
  5 S       -0.0060    -3.2100     0.8340 S.o2  1 <1>   1.4470 
  6 C        2.7470    -2.9510     0.4540 C.ar  1 <1>  -0.1500 
  7 C        3.8420    -1.0350    -0.5060 C.ar  1 <1>   0.1000 
  8 O       -0.8230    -2.3930     1.6950 O.2   1 <1>  -0.6500 
  9 O        0.2680    -4.5770     1.1990 O.2   1 <1>  -0.6500 
 10 N       -0.9290    -3.3550    -0.5330 N.am  1 <1>  -0.9780 
 11 C        3.9230    -2.3110     0.0590 C.ar  1 <1>   0.0860 
 12 N        4.9900    -0.3720    -0.9100 N.pl3 1 <1>  -0.8690 
 13 C        5.2310    -2.8920     0.2020 C.2   1 <1>   0.5440 
 14 C        6.3640    -0.8860    -0.7900 C.3   1 <1>   0.5890 
 15 O        5.4090    -3.9860     0.6980 O.2   1 <1>  -0.5700 
 16 N        6.3290    -2.2220    -0.2130 N.am  1 <1>  -0.7300 
 17 C        7.1690     0.0540     0.1110 C.3   1 <1>  -0.1600 
 18 C        8.6400    -0.3620     0.2900 C.3   1 <1>  -0.2400 
 19 H        2.5260     0.5430    -1.0920 H     1 <1>   0.1500 
 20 H        2.8240    -3.9360     0.8870 H     1 <1>   0.1500 
 21 H       -1.5850    -2.5790    -0.4640 H     1 <1>   0.4200 
 22 H       -1.4720    -4.1970    -0.3640 H     1 <1>   0.4200 
 23 H        4.9250     0.5760    -1.2890 H     1 <1>   0.4000 
 24 H        6.8120    -0.9360    -1.7690 H     1 <1>   0.0800 
 25 H        7.2280    -2.6670    -0.0470 H     1 <1>   0.3700 
 26 H        6.6920     0.1050     1.0740 H     1 <1>   0.0800 
 27 H        7.1480     1.0370    -0.3220 H     1 <1>   0.0800 
 28 H        8.7140    -1.3040     0.8050 H     1 <1>   0.0800 
 29 H        9.1590     0.3780     0.8740 H     1 <1>   0.0800 
 30 H        9.1310    -0.4460    -0.6650 H     1 <1>   0.0800 
@<TRIPOS>BOND
  1   1   2  1   
  2   2   3  ar  
  3   2   4  ar  
  4   3   5  1   
  5   3   6  ar  
  6   4   7  ar  
  7   4  19  1   
  8   5   8  2   
  9   5   9  2   
 10   5  10  am  
 11   6  11  ar  
 12   6  20  1   
 13   7  11  ar  
 14   7  12  1   
 15  10  21  1   
 16  10  22  1   
 17  11  13  1   
 18  12  14  1   
 19  12  23  1   
 20  13  15  2   
 21  13  16  am  
 22  14  16  1   
 23  14  17  1   
 24  14  24  1   
 25  16  25  1   
 26  17  18  1   
 27  17  26  1   
 28  17  27  1   
 29  18  28  1   
 30  18  29  1   
 31  18  30  1   
@<TRIPOS>SUBSTRUCTURE
  1 ****  11 GROUP 4 **** **** 0

# MOE 2024.06 (io_trps.svl 2023.06)
