@<TRIPOS>MOLECULE
NONAME
36 36 1 0 0 
SMALL
USER_CHARGES


@<TRIPOS>ATOM
  1 S        0.4140     0.0270    -1.1490 S.o2  1 <1>   1.4470 
  2 O        1.2920    -0.2250    -2.2670 O.2   1 <1>  -0.6500 
  3 O       -0.3580     1.2490    -1.1100 O.2   1 <1>  -0.6500 
  4 N        1.4300     0.0700     0.1870 N.am  1 <1>  -0.9140 
  5 C       -0.6470    -1.4120    -0.8390 C.ar  1 <1>  -0.0090 
  6 C        0.8340     0.6200     1.4030 C.3   1 <1>   0.1160 
  7 C       -1.9640    -1.2610    -0.4320 C.ar  1 <1>  -0.1500 
  8 C       -0.1580    -2.7040    -0.9780 C.ar  1 <1>  -0.1500 
  9 C       -2.8010    -2.3440    -0.1650 C.ar  1 <1>   0.0860 
 10 C       -0.9610    -3.8000    -0.7210 C.ar  1 <1>  -0.1500 
 11 C       -2.2740    -3.6310    -0.3180 C.ar  1 <1>  -0.1430 
 12 C       -4.1690    -2.0960     0.2490 C.2   1 <1>   0.5440 
 13 C       -3.1300    -4.8620    -0.0440 C.3   1 <1>  -0.0960 
 14 O       -4.5710    -2.4930     1.3240 O.2   1 <1>  -0.5700 
 15 N       -5.0000    -1.3970    -0.5860 N.am  1 <1>  -0.7300 
 16 C       -6.4140    -1.0260    -0.3890 C.3   1 <1>   0.2200 
 17 C       -6.5590    -0.1110     0.8250 C.3   1 <1>  -0.2400 
 18 C       -7.2780    -2.2790    -0.2750 C.3   1 <1>  -0.2400 
 19 H        2.1920     0.6770    -0.1140 H     1 <1>   0.4200 
 20 H       -0.0160     0.0290     1.7000 H     1 <1>   0.0800 
 21 H        0.5160     1.6380     1.2430 H     1 <1>   0.0800 
 22 H        1.5580     0.6050     2.2000 H     1 <1>   0.0800 
 23 H       -2.3610    -0.2670    -0.3090 H     1 <1>   0.1500 
 24 H        0.8630    -2.8510    -1.2890 H     1 <1>   0.1500 
 25 H       -0.5500    -4.7890    -0.8370 H     1 <1>   0.1500 
 26 H       -4.0540    -4.8030    -0.5910 H     1 <1>   0.0800 
 27 H       -3.3570    -4.9220     1.0060 H     1 <1>   0.0800 
 28 H       -2.6210    -5.7640    -0.3340 H     1 <1>   0.0800 
 29 H       -4.6290    -1.1320    -1.4980 H     1 <1>   0.3700 
 30 H       -6.7340    -0.4770    -1.2590 H     1 <1>   0.0800 
 31 H       -6.3020    -0.6340     1.7290 H     1 <1>   0.0800 
 32 H       -7.5770     0.2240     0.9100 H     1 <1>   0.0800 
 33 H       -5.9240     0.7490     0.7200 H     1 <1>   0.0800 
 34 H       -7.0300    -2.8340     0.6120 H     1 <1>   0.0800 
 35 H       -7.1380    -2.9070    -1.1360 H     1 <1>   0.0800 
 36 H       -8.3150    -2.0040    -0.2190 H     1 <1>   0.0800 
@<TRIPOS>BOND
  1   1   2  2   
  2   1   3  2   
  3   1   4  am  
  4   1   5  1   
  5   4   6  1   
  6   4  19  1   
  7   5   7  ar  
  8   5   8  ar  
  9   6  20  1   
 10   6  21  1   
 11   6  22  1   
 12   7   9  ar  
 13   7  23  1   
 14   8  10  ar  
 15   8  24  1   
 16   9  11  ar  
 17   9  12  1   
 18  10  11  ar  
 19  10  25  1   
 20  11  13  1   
 21  12  14  2   
 22  12  15  am  
 23  13  26  1   
 24  13  27  1   
 25  13  28  1   
 26  15  16  1   
 27  15  29  1   
 28  16  17  1   
 29  16  18  1   
 30  16  30  1   
 31  17  31  1   
 32  17  32  1   
 33  17  33  1   
 34  18  34  1   
 35  18  35  1   
 36  18  36  1   
@<TRIPOS>SUBSTRUCTURE
  1 ****   7 GROUP 4 **** **** 0

# MOE 2024.06 (io_trps.svl 2023.06)
