@<TRIPOS>MOLECULE
Structure1212
17 18 1 0 0 
SMALL
USER_CHARGES


@<TRIPOS>ATOM
  1 CL      -0.1930     0.0380    -0.4320 Cl    1 <1>  -0.1770 
  2 C       -1.0590     1.5420    -0.3590 C.ar  1 <1>   0.7970 
  3 N       -2.2980     1.4610     0.0950 N.ar  1 <1>  -0.6200 
  4 N       -0.3860     2.6060    -0.7650 N.ar  1 <1>  -0.6200 
  5 C       -2.9420     2.6040     0.1410 C.ar  1 <1>   0.2780 
  6 C       -1.0560     3.7340    -0.7010 C.ar  1 <1>   0.1600 
  7 C       -2.3530     3.7850    -0.2490 C.ar  1 <1>  -0.1500 
  8 C       -4.3730     2.5770     0.6530 C.3   1 <1>  -0.0680 
  9 C       -5.4490     1.9400    -0.1730 C.3   1 <1>  -0.2000 
 10 C       -5.4550     3.4220     0.0460 C.3   1 <1>  -0.2000 
 11 H       -0.5590     4.6360    -1.0180 H     1 <1>   0.1500 
 12 H       -2.8860     4.7150    -0.2010 H     1 <1>   0.1500 
 13 H       -4.4120     2.3970     1.7130 H     1 <1>   0.1000 
 14 H       -6.1810     1.3310     0.3270 H     1 <1>   0.1000 
 15 H       -5.1820     1.5520    -1.1410 H     1 <1>   0.1000 
 16 H       -5.2410     4.0510    -0.8010 H     1 <1>   0.1000 
 17 H       -6.2060     3.8430     0.6920 H     1 <1>   0.1000 
@<TRIPOS>BOND
  1   1   2  1   
  2   2   3  ar  
  3   2   4  ar  
  4   3   5  ar  
  5   4   6  ar  
  6   5   7  ar  
  7   5   8  1   
  8   6   7  ar  
  9   6  11  1   
 10   7  12  1   
 11   8   9  1   
 12   8  10  1   
 13   8  13  1   
 14   9  10  1   
 15   9  14  1   
 16   9  15  1   
 17  10  16  1   
 18  10  17  1   
@<TRIPOS>SUBSTRUCTURE
  1 ****   5 GROUP 4 **** **** 0

# MOE 2024.06 (io_trps.svl 2023.06)
