@<TRIPOS>MOLECULE
NONAME
45 46 1 0 0 
SMALL
USER_CHARGES


@<TRIPOS>ATOM
  1 BR       1.5070     0.2740     3.7710 Br    1 <1>  -0.1110 
  2 C        2.9220    -0.3510     2.6240 C.ar  1 <1>   0.1110 
  3 C        2.7230    -1.5050     1.8900 C.ar  1 <1>  -0.1500 
  4 C        4.0990     0.3700     2.5660 C.ar  1 <1>  -0.1500 
  5 C        3.7410    -1.9530     1.0650 C.ar  1 <1>  -0.1500 
  6 C        5.1100    -0.0870     1.7390 C.ar  1 <1>  -0.1500 
  7 C        4.9410    -1.2420     0.9870 C.ar  1 <1>   0.0830 
  8 O        5.9930    -1.6030     0.2080 O.3   1 <1>  -0.3630 
  9 C        6.0110    -2.7700    -0.6050 C.3   1 <1>   0.2610 
 10 C        7.4530    -3.2650    -0.8410 C.2   1 <1>   0.5690 
 11 C        5.2570    -2.4890    -1.9170 C.3   1 <1>  -0.2400 
 12 O        7.6260    -4.4560    -0.7000 O.2   1 <1>  -0.5700 
 13 N        8.5020    -2.4410    -1.2050 N.am  1 <1>  -0.6600 
 14 C        8.4140    -0.9770    -1.4600 C.3   1 <1>   0.1400 
 15 C        9.8970    -2.9590    -1.2580 C.3   1 <1>   0.1400 
 16 C        9.2180    -0.2350    -0.3910 C.3   1 <1>  -0.1600 
 17 C       10.7380    -2.2470    -0.1930 C.3   1 <1>  -0.1600 
 18 C       10.6850    -0.7140    -0.3510 C.3   1 <1>  -0.0190 
 19 C       11.5080    -0.0180     0.7340 C.2   1 <1>   0.6590 
 20 O       11.0130     0.6740     1.5870 O.2   1 <1>  -0.5700 
 21 O       12.8180    -0.2200     0.6700 O.3   1 <1>  -0.4300 
 22 C       13.6960     0.3560     1.6090 C.3   1 <1>   0.1200 
 23 C       15.1150    -0.0800     1.2590 C.3   1 <1>  -0.2400 
 24 H        1.7920    -2.0380     1.9640 H     1 <1>   0.1500 
 25 H        4.2200     1.2630     3.1530 H     1 <1>   0.1500 
 26 H        3.5790    -2.8500     0.4990 H     1 <1>   0.1500 
 27 H        6.0400     0.4500     1.6730 H     1 <1>   0.1500 
 28 H        5.5130    -3.5510    -0.0610 H     1 <1>   0.0800 
 29 H        5.7560    -1.7310    -2.4900 H     1 <1>   0.0800 
 30 H        4.2480    -2.1790    -1.7210 H     1 <1>   0.0800 
 31 H        5.2270    -3.3880    -2.5060 H     1 <1>   0.0800 
 32 H        7.3990    -0.6300    -1.4530 H     1 <1>   0.0800 
 33 H        8.8210    -0.7680    -2.4340 H     1 <1>   0.0800 
 34 H       10.3040    -2.7760    -2.2370 H     1 <1>   0.0800 
 35 H        9.9220    -4.0220    -1.0830 H     1 <1>   0.0800 
 36 H        8.7520    -0.3970     0.5660 H     1 <1>   0.0800 
 37 H        9.1880     0.8210    -0.5920 H     1 <1>   0.0800 
 38 H       11.7560    -2.5870    -0.2670 H     1 <1>   0.0800 
 39 H       10.3690    -2.5260     0.7790 H     1 <1>   0.0800 
 40 H       11.1400    -0.4610    -1.2910 H     1 <1>   0.0800 
 41 H       13.4170     0.0150     2.5910 H     1 <1>   0.0800 
 42 H       13.5950     1.4280     1.5560 H     1 <1>   0.0800 
 43 H       15.1950    -1.1510     1.3040 H     1 <1>   0.0800 
 44 H       15.8080     0.3450     1.9630 H     1 <1>   0.0800 
 45 H       15.3760     0.2610     0.2730 H     1 <1>   0.0800 
@<TRIPOS>BOND
  1   1   2  1   
  2   2   3  ar  
  3   2   4  ar  
  4   3   5  ar  
  5   3  24  1   
  6   4   6  ar  
  7   4  25  1   
  8   5   7  ar  
  9   5  26  1   
 10   6   7  ar  
 11   6  27  1   
 12   7   8  1   
 13   8   9  1   
 14   9  10  1   
 15   9  11  1   
 16   9  28  1   
 17  10  12  2   
 18  10  13  am  
 19  11  29  1   
 20  11  30  1   
 21  11  31  1   
 22  13  14  1   
 23  13  15  1   
 24  14  16  1   
 25  14  32  1   
 26  14  33  1   
 27  15  17  1   
 28  15  34  1   
 29  15  35  1   
 30  16  18  1   
 31  16  36  1   
 32  16  37  1   
 33  17  18  1   
 34  17  38  1   
 35  17  39  1   
 36  18  19  1   
 37  18  40  1   
 38  19  20  2   
 39  19  21  1   
 40  21  22  1   
 41  22  23  1   
 42  22  41  1   
 43  22  42  1   
 44  23  43  1   
 45  23  44  1   
 46  23  45  1   
@<TRIPOS>SUBSTRUCTURE
  1 ****   8 GROUP 4 **** **** 0

# MOE 2024.06 (io_trps.svl 2023.06)
