@<TRIPOS>MOLECULE
NONAME
57 59 1 0 0 
SMALL
USER_CHARGES


@<TRIPOS>ATOM
  1 S        0.7950    -0.3980    -1.2480 S.o2  1 <1>   1.3330 
  2 O        0.0170     0.7960    -1.4800 O.2   1 <1>  -0.6500 
  3 O        1.5930    -0.9760    -2.3050 O.2   1 <1>  -0.6500 
  4 N        1.8350    -0.0950     0.0550 N.am  1 <1>  -0.8490 
  5 C       -0.3110    -1.6590    -0.6440 C.3   1 <1>  -0.1350 
  6 C        2.6820    -1.2290     0.4300 C.3   1 <1>   0.1960 
  7 C        1.2170     0.5650     1.2070 C.3   1 <1>   0.1960 
  8 C        3.8430    -0.7280     1.2950 C.3   1 <1>  -0.0190 
  9 C        2.3070     1.0780     2.1580 C.3   1 <1>  -0.1600 
 10 C        4.7870    -1.8780     1.6420 C.2   1 <1>   0.5690 
 11 C        3.3030    -0.0250     2.5540 C.3   1 <1>  -0.1600 
 12 O        4.3040    -2.9760     1.7800 O.2   1 <1>  -0.5700 
 13 N        6.1470    -1.6970     1.7660 N.am  1 <1>  -0.6600 
 14 C        7.0500    -2.8700     1.9810 C.3   1 <1>   0.1400 
 15 C        6.9060    -0.4330     1.5200 C.3   1 <1>   0.1400 
 16 C        7.9500    -3.0650     0.7480 C.3   1 <1>   0.3430 
 17 C        7.8120    -0.6020     0.2830 C.3   1 <1>   0.3430 
 18 N        8.7110    -1.8110     0.3950 N.4   1 <1>  -0.9590 
 19 C        9.5290    -2.0120    -0.8230 C.3   1 <1>   0.4810 
 20 C       10.5540    -0.9060    -0.8510 C.2   1 <1>  -0.2880 
 21 C       11.8400    -1.0430    -0.4860 C.2   1 <1>  -0.1780 
 22 C       12.8670    -0.0250    -0.4820 C.ar  1 <1>   0.0280 
 23 C       12.7590     1.1480    -1.2260 C.ar  1 <1>  -0.1500 
 24 C       14.0170    -0.2010     0.2840 C.ar  1 <1>  -0.1500 
 25 C       13.7520     2.1110    -1.1960 C.ar  1 <1>  -0.1500 
 26 C       15.0130     0.7580     0.3170 C.ar  1 <1>  -0.1500 
 27 C       14.8810     1.9180    -0.4220 C.ar  1 <1>  -0.1500 
 28 H       -1.0150    -1.9160    -1.4110 H     1 <1>   0.0800 
 29 H        0.2340    -2.5410    -0.3760 H     1 <1>   0.0800 
 30 H       -0.8540    -1.3050     0.2090 H     1 <1>   0.0800 
 31 H        2.1040    -1.9630     0.9680 H     1 <1>   0.0800 
 32 H        3.0850    -1.6950    -0.4540 H     1 <1>   0.0800 
 33 H        0.6250     1.4030     0.8740 H     1 <1>   0.0800 
 34 H        0.5720    -0.1240     1.7250 H     1 <1>   0.0800 
 35 H        4.3600    -0.0140     0.6860 H     1 <1>   0.0800 
 36 H        2.8320     1.8810     1.6680 H     1 <1>   0.0800 
 37 H        1.8450     1.4840     3.0400 H     1 <1>   0.0800 
 38 H        2.8050    -0.7480     3.1790 H     1 <1>   0.0800 
 39 H        4.1130     0.4010     3.1200 H     1 <1>   0.0800 
 40 H        7.6520    -2.7040     2.8580 H     1 <1>   0.0800 
 41 H        6.4830    -3.7700     2.1490 H     1 <1>   0.0800 
 42 H        6.2520     0.4070     1.3780 H     1 <1>   0.0800 
 43 H        7.5120    -0.2130     2.3820 H     1 <1>   0.0800 
 44 H        7.3230    -3.3550    -0.0800 H     1 <1>   0.0800 
 45 H        8.6380    -3.8720     0.9400 H     1 <1>   0.0800 
 46 H        8.4080     0.2880     0.1630 H     1 <1>   0.0800 
 47 H        7.1830    -0.6980    -0.5870 H     1 <1>   0.0800 
 48 H        9.3840    -1.6210     1.1500 H     1 <1>   0.4500 
 49 H       10.0370    -2.9620    -0.7670 H     1 <1>   0.0800 
 50 H        8.9190    -1.9980    -1.7120 H     1 <1>   0.0800 
 51 H       10.1520     0.0280    -1.2000 H     1 <1>   0.1500 
 52 H       12.2020    -1.9980    -0.1420 H     1 <1>   0.1500 
 53 H       11.8990     1.3190    -1.8450 H     1 <1>   0.1500 
 54 H       14.1410    -1.0960     0.8660 H     1 <1>   0.1500 
 55 H       13.6500     3.0120    -1.7770 H     1 <1>   0.1500 
 56 H       15.8940     0.6030     0.9170 H     1 <1>   0.1500 
 57 H       15.6550     2.6670    -0.3980 H     1 <1>   0.1500 
@<TRIPOS>BOND
  1   1   2  2   
  2   1   3  2   
  3   1   4  am  
  4   1   5  1   
  5   4   6  1   
  6   4   7  1   
  7   5  28  1   
  8   5  29  1   
  9   5  30  1   
 10   6   8  1   
 11   6  31  1   
 12   6  32  1   
 13   7   9  1   
 14   7  33  1   
 15   7  34  1   
 16   8  10  1   
 17   8  11  1   
 18   8  35  1   
 19   9  11  1   
 20   9  36  1   
 21   9  37  1   
 22  10  12  2   
 23  10  13  am  
 24  11  38  1   
 25  11  39  1   
 26  13  14  1   
 27  13  15  1   
 28  14  16  1   
 29  14  40  1   
 30  14  41  1   
 31  15  17  1   
 32  15  42  1   
 33  15  43  1   
 34  16  18  1   
 35  16  44  1   
 36  16  45  1   
 37  17  18  1   
 38  17  46  1   
 39  17  47  1   
 40  18  19  1   
 41  18  48  1   
 42  19  20  1   
 43  19  49  1   
 44  19  50  1   
 45  20  21  2   
 46  20  51  1   
 47  21  22  1   
 48  21  52  1   
 49  22  23  ar  
 50  22  24  ar  
 51  23  25  ar  
 52  23  53  1   
 53  24  26  ar  
 54  24  54  1   
 55  25  27  ar  
 56  25  55  1   
 57  26  27  ar  
 58  26  56  1   
 59  27  57  1   
@<TRIPOS>SUBSTRUCTURE
  1 ****  17 GROUP 4 **** **** 0

# MOE 2024.06 (io_trps.svl 2023.06)
