@<TRIPOS>MOLECULE
NONAME
54 57 1 0 0 
SMALL
USER_CHARGES


@<TRIPOS>ATOM
  1 O       -0.7750     0.6570    -0.6040 O.3   1 <1>  -0.3630 
  2 C       -1.8530    -0.0630    -0.2400 C.ar  1 <1>   0.0830 
  3 C       -0.8390     0.8280    -2.0180 C.3   1 <1>   0.4000 
  4 C       -2.2620    -0.5140     1.0150 C.ar  1 <1>   0.0830 
  5 C       -2.6000    -0.3400    -1.3490 C.ar  1 <1>   0.0830 
  6 O       -2.0360     0.1830    -2.4420 O.3   1 <1>  -0.3630 
  7 O       -1.6150    -0.3030     2.1920 O.3   1 <1>  -0.3630 
  8 C       -3.4410    -1.2460     1.0870 C.ar  1 <1>  -0.1500 
  9 C       -3.7730    -1.0650    -1.2910 C.ar  1 <1>  -0.1500 
 10 C       -0.3650     0.3500     2.2280 C.3   1 <1>   0.0400 
 11 C       -4.2020    -1.5190    -0.0480 C.ar  1 <1>  -0.1430 
 12 C       -5.4950    -2.2990     0.0760 C.3   1 <1>   0.4870 
 13 N       -6.6270    -1.3440    -0.0280 N.4   1 <1>  -0.9590 
 14 C       -6.6400    -0.3570     1.1160 C.3   1 <1>   0.3430 
 15 C       -7.9560    -2.0470    -0.1370 C.3   1 <1>   0.3430 
 16 C       -7.8060     0.6460     1.0130 C.3   1 <1>   0.2090 
 17 C       -9.1320    -1.0590    -0.2580 C.3   1 <1>   0.2090 
 18 N       -9.1140    -0.0590     0.8500 N.pl3 1 <1>  -0.8380 
 19 C      -10.2300     0.7900     0.8750 C.ar  1 <1>   0.1000 
 20 C      -10.5110     1.7460    -0.1200 C.ar  1 <1>   0.0830 
 21 C      -11.0990     0.6700     1.9490 C.ar  1 <1>  -0.1500 
 22 O       -9.6440     1.8570    -1.1760 O.3   1 <1>  -0.3620 
 23 C      -11.6460     2.5430    -0.0060 C.ar  1 <1>  -0.1500 
 24 C      -12.2240     1.4660     2.0550 C.ar  1 <1>  -0.1500 
 25 C       -9.8300     2.8310    -2.1770 C.3   1 <1>   0.1200 
 26 C      -12.4980     2.4030     1.0770 C.ar  1 <1>  -0.1500 
 27 C       -8.6790     2.7110    -3.1710 C.3   1 <1>  -0.2400 
 28 H        0.0100     0.3540    -2.4780 H     1 <1>   0.0800 
 29 H       -0.8880     1.8760    -2.2540 H     1 <1>   0.0800 
 30 H       -3.7460    -1.5980     2.0580 H     1 <1>   0.1500 
 31 H       -4.3130    -1.2570    -2.2010 H     1 <1>   0.1500 
 32 H       -0.0230     0.3670     3.2470 H     1 <1>   0.0800 
 33 H       -0.4840     1.3550     1.8660 H     1 <1>   0.0800 
 34 H        0.3330    -0.1960     1.6180 H     1 <1>   0.0800 
 35 H       -5.5260    -2.8170     1.0210 H     1 <1>   0.0800 
 36 H       -5.5480    -3.0280    -0.7170 H     1 <1>   0.0800 
 37 H       -6.4870    -0.7920    -0.8830 H     1 <1>   0.4500 
 38 H       -5.7130     0.1930     1.1400 H     1 <1>   0.0800 
 39 H       -6.7350    -0.8850     2.0500 H     1 <1>   0.0800 
 40 H       -8.1190    -2.6510     0.7410 H     1 <1>   0.0800 
 41 H       -7.9590    -2.6990    -0.9940 H     1 <1>   0.0800 
 42 H       -7.6370     1.3070     0.1810 H     1 <1>   0.0800 
 43 H       -7.8400     1.2460     1.9060 H     1 <1>   0.0800 
 44 H      -10.0610    -1.6020    -0.2230 H     1 <1>   0.0800 
 45 H       -9.0830    -0.5570    -1.2090 H     1 <1>   0.0800 
 46 H      -10.8870    -0.0590     2.7100 H     1 <1>   0.1500 
 47 H      -11.8950     3.2810    -0.7440 H     1 <1>   0.1500 
 48 H      -12.8860     1.3560     2.8970 H     1 <1>   0.1500 
 49 H       -9.8310     3.8030    -1.7140 H     1 <1>   0.0800 
 50 H      -10.7730     2.6470    -2.6630 H     1 <1>   0.0800 
 51 H      -13.3750     3.0230     1.1570 H     1 <1>   0.1500 
 52 H       -7.7410     2.8840    -2.6760 H     1 <1>   0.0800 
 53 H       -8.7960     3.4450    -3.9480 H     1 <1>   0.0800 
 54 H       -8.6790     1.7350    -3.6220 H     1 <1>   0.0800 
@<TRIPOS>BOND
  1   1   2  1   
  2   1   3  1   
  3   2   4  ar  
  4   2   5  ar  
  5   3   6  1   
  6   3  28  1   
  7   3  29  1   
  8   4   7  1   
  9   4   8  ar  
 10   5   6  1   
 11   5   9  ar  
 12   7  10  1   
 13   8  11  ar  
 14   8  30  1   
 15   9  11  ar  
 16   9  31  1   
 17  10  32  1   
 18  10  33  1   
 19  10  34  1   
 20  11  12  1   
 21  12  13  1   
 22  12  35  1   
 23  12  36  1   
 24  13  14  1   
 25  13  15  1   
 26  13  37  1   
 27  14  16  1   
 28  14  38  1   
 29  14  39  1   
 30  15  17  1   
 31  15  40  1   
 32  15  41  1   
 33  16  18  1   
 34  16  42  1   
 35  16  43  1   
 36  17  18  1   
 37  17  44  1   
 38  17  45  1   
 39  18  19  1   
 40  19  20  ar  
 41  19  21  ar  
 42  20  22  1   
 43  20  23  ar  
 44  21  24  ar  
 45  21  46  1   
 46  22  25  1   
 47  23  26  ar  
 48  23  47  1   
 49  24  26  ar  
 50  24  48  1   
 51  25  27  1   
 52  25  49  1   
 53  25  50  1   
 54  26  51  1   
 55  27  52  1   
 56  27  53  1   
 57  27  54  1   
@<TRIPOS>SUBSTRUCTURE
  1 ****  14 GROUP 4 **** **** 0

# MOE 2024.06 (io_trps.svl 2023.06)
