@<TRIPOS>MOLECULE
NONAME
32 32 1 0 0 
SMALL
USER_CHARGES


@<TRIPOS>ATOM
  1 O        0.9240     0.7880     2.0430 O.2   1 <1>  -0.5700 
  2 C        1.3020     1.4430     1.1030 C.2   1 <1>   0.5690 
  3 N        2.0940     0.9260     0.1020 N.am  1 <1>  -0.4200 
  4 C        0.8820     2.9130     1.0110 C.3   1 <1>   0.1810 
  5 C        2.4090     1.6640    -1.0150 C.2   1 <1>   0.5690 
  6 C        2.7400    -0.4100     0.2830 C.3   1 <1>   0.2010 
  7 O        0.7930     3.3610    -0.3210 O.3   1 <1>  -0.5600 
  8 O        3.0350     1.2030    -1.9380 O.2   1 <1>  -0.5700 
  9 C        1.9540     3.1250    -1.0810 C.3   1 <1>   0.1810 
 10 C        4.2330    -0.2730     0.6080 C.2   1 <1>   0.5690 
 11 O        4.5140     0.4130     1.5660 O.2   1 <1>  -0.5700 
 12 N        5.2110    -0.8920    -0.1410 N.am  1 <1>  -0.6600 
 13 C        6.6510    -0.6740     0.1820 C.3   1 <1>   0.1400 
 14 C        4.9550    -1.6170    -1.4180 C.3   1 <1>   0.1400 
 15 C        7.2200    -1.8940     0.9020 C.3   1 <1>  -0.2400 
 16 C        4.5000    -3.0480    -1.1350 C.3   1 <1>  -0.2400 
 17 H        1.5940     3.5270     1.5330 H     1 <1>   0.0800 
 18 H       -0.0850     3.0390     1.4640 H     1 <1>   0.0800 
 19 H        2.5850    -0.9860    -0.6070 H     1 <1>   0.0800 
 20 H        2.2770    -0.9430     1.0930 H     1 <1>   0.0800 
 21 H        1.7380     3.3890    -2.1000 H     1 <1>   0.0800 
 22 H        2.7370     3.7650    -0.7150 H     1 <1>   0.0800 
 23 H        6.7620     0.1900     0.8160 H     1 <1>   0.0800 
 24 H        7.2060    -0.4810    -0.7190 H     1 <1>   0.0800 
 25 H        5.8530    -1.6400    -2.0120 H     1 <1>   0.0800 
 26 H        4.2110    -1.0940    -1.9940 H     1 <1>   0.0800 
 27 H        6.6300    -2.1140     1.7740 H     1 <1>   0.0800 
 28 H        8.2270    -1.6890     1.2150 H     1 <1>   0.0800 
 29 H        7.2370    -2.7470     0.2500 H     1 <1>   0.0800 
 30 H        5.2650    -3.5920    -0.6130 H     1 <1>   0.0800 
 31 H        4.3060    -3.5520    -2.0650 H     1 <1>   0.0800 
 32 H        3.6000    -3.0620    -0.5500 H     1 <1>   0.0800 
@<TRIPOS>BOND
  1   1   2  2   
  2   2   3  am  
  3   2   4  1   
  4   3   5  am  
  5   3   6  1   
  6   4   7  1   
  7   4  17  1   
  8   4  18  1   
  9   5   8  2   
 10   5   9  1   
 11   6  10  1   
 12   6  19  1   
 13   6  20  1   
 14   7   9  1   
 15   9  21  1   
 16   9  22  1   
 17  10  11  2   
 18  10  12  am  
 19  12  13  1   
 20  12  14  1   
 21  13  15  1   
 22  13  23  1   
 23  13  24  1   
 24  14  16  1   
 25  14  25  1   
 26  14  26  1   
 27  15  27  1   
 28  15  28  1   
 29  15  29  1   
 30  16  30  1   
 31  16  31  1   
 32  16  32  1   
@<TRIPOS>SUBSTRUCTURE
  1 ****   6 GROUP 4 **** **** 0

# MOE 2024.06 (io_trps.svl 2023.06)
