@<TRIPOS>MOLECULE
NONAME
40 41 1 0 0 
SMALL
USER_CHARGES


@<TRIPOS>ATOM
  1 CL       1.1470    -4.9730    -0.2750 Cl    1 <1>  -0.1770 
  2 C        2.3440    -3.7060    -0.1780 C.ar  1 <1>   0.1770 
  3 C        3.2430    -3.5420    -1.2160 C.ar  1 <1>  -0.1500 
  4 C        2.3750    -2.8860     0.9340 C.ar  1 <1>  -0.1500 
  5 C        4.1950    -2.5380    -1.1420 C.ar  1 <1>  -0.1500 
  6 C        3.3280    -1.8840     1.0060 C.ar  1 <1>  -0.1500 
  7 C        4.2400    -1.7040    -0.0240 C.ar  1 <1>   0.0830 
  8 O        5.1380    -0.6990     0.1390 O.3   1 <1>  -0.3630 
  9 C        6.0910    -0.3600    -0.8650 C.3   1 <1>   0.2610 
 10 C        7.1940    -1.4240    -0.9640 C.2   1 <1>   0.5690 
 11 C        6.6780     1.0200    -0.5200 C.3   1 <1>  -0.1600 
 12 O        7.7320    -1.6080    -2.0310 O.2   1 <1>  -0.5700 
 13 N        7.5440    -2.1350     0.1430 N.am  1 <1>  -0.7300 
 14 C        5.6180     2.1300    -0.4550 C.3   1 <1>  -0.2400 
 15 C        8.5680    -3.2160     0.1880 C.3   1 <1>   0.1400 
 16 C        9.9850    -2.6810    -0.0660 C.3   1 <1>   0.2000 
 17 O       10.9090    -3.6800     0.2120 O.3   1 <1>  -0.5600 
 18 C       10.4130    -1.5270     0.8330 C.3   1 <1>  -0.1600 
 19 C       12.1660    -3.1180     0.4070 C.3   1 <1>   0.1200 
 20 C       11.9210    -1.7050     0.9320 C.3   1 <1>  -0.1600 
 21 H        3.1970    -4.1950    -2.0690 H     1 <1>   0.1500 
 22 H        1.6640    -3.0320     1.7270 H     1 <1>   0.1500 
 23 H        4.8840    -2.4320    -1.9590 H     1 <1>   0.1500 
 24 H        3.3680    -1.2350     1.8630 H     1 <1>   0.1500 
 25 H        5.5760    -0.2940    -1.8050 H     1 <1>   0.0800 
 26 H        7.4020     1.2780    -1.2730 H     1 <1>   0.0800 
 27 H        7.1990     0.9580     0.4200 H     1 <1>   0.0800 
 28 H        6.9880    -2.0010     0.9910 H     1 <1>   0.3700 
 29 H        4.9030     1.9280     0.3240 H     1 <1>   0.0800 
 30 H        5.0940     2.2070    -1.3920 H     1 <1>   0.0800 
 31 H        6.0870     3.0760    -0.2470 H     1 <1>   0.0800 
 32 H        8.3340    -3.9520    -0.5610 H     1 <1>   0.0800 
 33 H        8.5370    -3.6840     1.1560 H     1 <1>   0.0800 
 34 H       10.1000    -2.4140    -1.1040 H     1 <1>   0.0800 
 35 H        9.9620    -1.6350     1.8040 H     1 <1>   0.0800 
 36 H       10.1330    -0.5780     0.4130 H     1 <1>   0.0800 
 37 H       12.6750    -3.1000    -0.5410 H     1 <1>   0.0800 
 38 H       12.7100    -3.7270     1.1080 H     1 <1>   0.0800 
 39 H       12.2630    -1.6060     1.9470 H     1 <1>   0.0800 
 40 H       12.4400    -0.9930     0.3150 H     1 <1>   0.0800 
@<TRIPOS>BOND
  1   1   2  1   
  2   2   3  ar  
  3   2   4  ar  
  4   3   5  ar  
  5   3  21  1   
  6   4   6  ar  
  7   4  22  1   
  8   5   7  ar  
  9   5  23  1   
 10   6   7  ar  
 11   6  24  1   
 12   7   8  1   
 13   8   9  1   
 14   9  10  1   
 15   9  11  1   
 16   9  25  1   
 17  10  12  2   
 18  10  13  am  
 19  11  14  1   
 20  11  26  1   
 21  11  27  1   
 22  13  15  1   
 23  13  28  1   
 24  14  29  1   
 25  14  30  1   
 26  14  31  1   
 27  15  16  1   
 28  15  32  1   
 29  15  33  1   
 30  16  17  1   
 31  16  18  1   
 32  16  34  1   
 33  17  19  1   
 34  18  20  1   
 35  18  35  1   
 36  18  36  1   
 37  19  20  1   
 38  19  37  1   
 39  19  38  1   
 40  20  39  1   
 41  20  40  1   
@<TRIPOS>SUBSTRUCTURE
  1 ****  13 GROUP 4 **** **** 0

# MOE 2024.06 (io_trps.svl 2023.06)
