@<TRIPOS>MOLECULE
NONAME
36 37 1 0 0 
SMALL
USER_CHARGES


@<TRIPOS>ATOM
  1 BR       0.3960     0.4280     0.4580 Br    1 <1>  -0.1110 
  2 C        2.0750     1.1790    -0.1050 C.ar  1 <1>   0.1110 
  3 C        3.2240     0.8300     0.5790 C.ar  1 <1>  -0.1500 
  4 C        2.0880     2.0490    -1.1790 C.ar  1 <1>  -0.1500 
  5 C        4.4350     1.3710     0.1760 C.ar  1 <1>  -0.1440 
  6 C        3.3010     2.5840    -1.5790 C.ar  1 <1>  -0.1500 
  7 C        4.4650     2.2450    -0.9040 C.ar  1 <1>  -0.1500 
  8 C        5.7150     1.0130     0.9130 C.3   1 <1>   0.2140 
  9 S        6.1460    -0.7040     0.5020 S.3   1 <1>  -0.4600 
 10 C        7.6510    -0.9960     1.4960 C.3   1 <1>   0.1310 
 11 C        8.6930     0.0900     1.2500 C.2   1 <1>   0.5690 
 12 O        8.8030     0.9370     2.1070 O.2   1 <1>  -0.5700 
 13 N        9.4580     0.1120     0.1080 N.am  1 <1>  -0.6600 
 14 C       10.5330     1.1250    -0.0850 C.3   1 <1>   0.1400 
 15 C        9.2830    -0.8080    -1.0540 C.3   1 <1>   0.1400 
 16 C       11.8640     0.4170    -0.3590 C.3   1 <1>  -0.1600 
 17 C       10.6000    -1.5390    -1.3320 C.3   1 <1>  -0.1600 
 18 C       11.7590    -0.5540    -1.5440 C.3   1 <1>  -0.1600 
 19 H        3.1690     0.1450     1.4060 H     1 <1>   0.1500 
 20 H        1.1740     2.2970    -1.6870 H     1 <1>   0.1500 
 21 H        3.3410     3.2620    -2.4140 H     1 <1>   0.1500 
 22 H        5.4010     2.6660    -1.2280 H     1 <1>   0.1500 
 23 H        5.5870     1.0710     1.9790 H     1 <1>   0.0800 
 24 H        6.5360     1.6390     0.6080 H     1 <1>   0.0800 
 25 H        8.0320    -1.9660     1.2380 H     1 <1>   0.0800 
 26 H        7.3510    -0.9930     2.5280 H     1 <1>   0.0800 
 27 H       10.6320     1.7480     0.7870 H     1 <1>   0.0800 
 28 H       10.2740     1.7560    -0.9180 H     1 <1>   0.0800 
 29 H        9.0020    -0.2260    -1.9150 H     1 <1>   0.0800 
 30 H        8.5040    -1.5260    -0.8770 H     1 <1>   0.0800 
 31 H       12.1570    -0.1200     0.5260 H     1 <1>   0.0800 
 32 H       12.6220     1.1530    -0.5610 H     1 <1>   0.0800 
 33 H       10.4860    -2.1550    -2.2070 H     1 <1>   0.0800 
 34 H       10.8220    -2.1870    -0.5020 H     1 <1>   0.0800 
 35 H       12.6830    -1.0950    -1.6550 H     1 <1>   0.0800 
 36 H       11.5900     0.0050    -2.4490 H     1 <1>   0.0800 
@<TRIPOS>BOND
  1   1   2  1   
  2   2   3  ar  
  3   2   4  ar  
  4   3   5  ar  
  5   3  19  1   
  6   4   6  ar  
  7   4  20  1   
  8   5   7  ar  
  9   5   8  1   
 10   6   7  ar  
 11   6  21  1   
 12   7  22  1   
 13   8   9  1   
 14   8  23  1   
 15   8  24  1   
 16   9  10  1   
 17  10  11  1   
 18  10  25  1   
 19  10  26  1   
 20  11  12  2   
 21  11  13  am  
 22  13  14  1   
 23  13  15  1   
 24  14  16  1   
 25  14  27  1   
 26  14  28  1   
 27  15  17  1   
 28  15  29  1   
 29  15  30  1   
 30  16  18  1   
 31  16  31  1   
 32  16  32  1   
 33  17  18  1   
 34  17  33  1   
 35  17  34  1   
 36  18  35  1   
 37  18  36  1   
@<TRIPOS>SUBSTRUCTURE
  1 ****   8 GROUP 4 **** **** 0

# MOE 2024.06 (io_trps.svl 2023.06)
