@<TRIPOS>MOLECULE
NONAME
47 49 1 0 0 
SMALL
USER_CHARGES


@<TRIPOS>ATOM
  1 F       -0.3300     1.4040     0.5870 F     1 <1>  -0.1900 
  2 C       -1.3490     2.1570     0.9060 C.ar  1 <1>   0.1900 
  3 C       -2.3970     2.2650     0.0150 C.ar  1 <1>  -0.1500 
  4 C       -1.3340     2.8130     2.1210 C.ar  1 <1>  -0.1500 
  5 C       -3.4900     3.0600     0.3400 C.ar  1 <1>   0.1170 
  6 C       -2.4180     3.6090     2.4480 C.ar  1 <1>  -0.1500 
  7 N       -4.5410     3.1550    -0.5840 N.am  1 <1>  -0.5470 
  8 C       -3.4790     3.7300     1.5640 C.ar  1 <1>  -0.1500 
  9 C       -5.8310     3.5640    -0.4570 C.2   1 <1>   0.6900 
 10 O       -6.3160     3.9620     0.5840 O.2   1 <1>  -0.5700 
 11 N       -6.6350     3.4800    -1.5520 N.am  1 <1>  -0.6600 
 12 C       -7.5470     2.3040    -1.5980 C.3   1 <1>   0.1400 
 13 C       -7.3020     4.7430    -1.9810 C.3   1 <1>   0.1400 
 14 C       -8.8060     2.5680    -0.7430 C.3   1 <1>   0.3430 
 15 C       -8.5700     5.0070    -1.1400 C.3   1 <1>   0.3430 
 16 N       -9.5220     3.8330    -1.1480 N.4   1 <1>  -0.9590 
 17 C      -10.6860     4.0570    -0.2340 C.3   1 <1>   0.3430 
 18 C      -11.6060     5.1770    -0.7260 C.3   1 <1>  -0.0170 
 19 C      -12.8140     5.2430     0.1880 C.ar  1 <1>  -0.1430 
 20 C      -13.9900     4.5920    -0.1540 C.ar  1 <1>  -0.1500 
 21 C      -12.7480     5.9500     1.3800 C.ar  1 <1>  -0.1500 
 22 C      -15.0850     4.6410     0.6910 C.ar  1 <1>  -0.1500 
 23 C      -13.8440     5.9980     2.2230 C.ar  1 <1>  -0.1500 
 24 C      -15.0120     5.3440     1.8800 C.ar  1 <1>  -0.1500 
 25 H       -2.3540     1.7310    -0.9150 H     1 <1>   0.1500 
 26 H       -0.4980     2.7020     2.7890 H     1 <1>   0.1500 
 27 H       -2.4370     4.1350     3.3870 H     1 <1>   0.1500 
 28 H       -4.3220     2.8420    -1.5260 H     1 <1>   0.3700 
 29 H       -4.3030     4.3610     1.8410 H     1 <1>   0.1500 
 30 H       -7.0350     1.4380    -1.2130 H     1 <1>   0.0800 
 31 H       -7.8240     2.0980    -2.6170 H     1 <1>   0.0800 
 32 H       -7.5540     4.6830    -3.0260 H     1 <1>   0.0800 
 33 H       -6.6190     5.5670    -1.8550 H     1 <1>   0.0800 
 34 H       -8.4990     2.6450     0.2880 H     1 <1>   0.0800 
 35 H       -9.4730     1.7250    -0.8270 H     1 <1>   0.0800 
 36 H       -9.0630     5.8870    -1.5170 H     1 <1>   0.0800 
 37 H       -8.2610     5.2110    -0.1260 H     1 <1>   0.0800 
 38 H       -9.8730     3.7050    -2.1060 H     1 <1>   0.4500 
 39 H      -10.3340     4.2960     0.7570 H     1 <1>   0.0800 
 40 H      -11.2680     3.1530    -0.1650 H     1 <1>   0.0800 
 41 H      -11.9300     4.9800    -1.7320 H     1 <1>   0.0800 
 42 H      -11.1020     6.1260    -0.7040 H     1 <1>   0.0800 
 43 H      -14.0720     4.0430    -1.0760 H     1 <1>   0.1500 
 44 H      -11.8510     6.4710     1.6650 H     1 <1>   0.1500 
 45 H      -15.9980     4.1360     0.4230 H     1 <1>   0.1500 
 46 H      -13.7900     6.5480     3.1480 H     1 <1>   0.1500 
 47 H      -15.8650     5.3830     2.5360 H     1 <1>   0.1500 
@<TRIPOS>BOND
  1   1   2  1   
  2   2   3  ar  
  3   2   4  ar  
  4   3   5  ar  
  5   3  25  1   
  6   4   6  ar  
  7   4  26  1   
  8   5   7  1   
  9   5   8  ar  
 10   6   8  ar  
 11   6  27  1   
 12   7   9  am  
 13   7  28  1   
 14   8  29  1   
 15   9  10  2   
 16   9  11  am  
 17  11  12  1   
 18  11  13  1   
 19  12  14  1   
 20  12  30  1   
 21  12  31  1   
 22  13  15  1   
 23  13  32  1   
 24  13  33  1   
 25  14  16  1   
 26  14  34  1   
 27  14  35  1   
 28  15  16  1   
 29  15  36  1   
 30  15  37  1   
 31  16  17  1   
 32  16  38  1   
 33  17  18  1   
 34  17  39  1   
 35  17  40  1   
 36  18  19  1   
 37  18  41  1   
 38  18  42  1   
 39  19  20  ar  
 40  19  21  ar  
 41  20  22  ar  
 42  20  43  1   
 43  21  23  ar  
 44  21  44  1   
 45  22  24  ar  
 46  22  45  1   
 47  23  24  ar  
 48  23  46  1   
 49  24  47  1   
@<TRIPOS>SUBSTRUCTURE
  1 ****  10 GROUP 4 **** **** 0

# MOE 2024.06 (io_trps.svl 2023.06)
