@<TRIPOS>MOLECULE
NONAME
39 40 1 0 0 
SMALL
USER_CHARGES


@<TRIPOS>ATOM
  1 S       -4.1740     1.2720    -1.2350 S.o2  1 <1>   1.4970 
  2 O       -3.9730     1.5500    -2.6400 O.2   1 <1>  -0.6500 
  3 O       -3.6030     0.1020    -0.6060 O.2   1 <1>  -0.6500 
  4 N       -3.6490     2.6200    -0.3750 N.2   1 <1>  -0.6380 
  5 C       -5.8790     1.4980    -0.7670 C.ar  1 <1>  -0.0090 
  6 C       -4.6270     3.1880     0.2000 C.2   1 <1>   0.4140 
  7 C       -5.9500     2.6160     0.0320 C.ar  1 <1>   0.0860 
  8 C       -7.0120     0.7630    -1.0790 C.ar  1 <1>  -0.1500 
  9 N       -4.4170     4.3190     0.9560 N.pl3 1 <1>  -0.8190 
 10 C       -7.1830     3.0220     0.5330 C.ar  1 <1>  -0.1500 
 11 C       -8.2380     1.1680    -0.5770 C.ar  1 <1>  -0.1500 
 12 C       -3.0650     4.8150     1.3430 C.3   1 <1>   0.2090 
 13 C       -8.3220     2.2950     0.2270 C.ar  1 <1>  -0.1500 
 14 C       -2.2640     5.2810     0.1030 C.3   1 <1>   0.3430 
 15 N       -0.8160     4.8530     0.0950 N.4   1 <1>  -0.9590 
 16 C       -0.0770     5.5430    -0.9990 C.3   1 <1>   0.3430 
 17 C       -0.7120     3.3710    -0.0590 C.3   1 <1>   0.3430 
 18 C        0.1930     6.9900    -0.6030 C.3   1 <1>  -0.2400 
 19 C        0.6790     2.9010     0.3520 C.3   1 <1>  -0.2400 
 20 H       -6.9390    -0.1110    -1.7050 H     1 <1>   0.1500 
 21 H       -5.1930     4.6460     1.5440 H     1 <1>   0.4000 
 22 H       -7.2600     3.8960     1.1550 H     1 <1>   0.1500 
 23 H       -9.1280     0.6070    -0.8110 H     1 <1>   0.1500 
 24 H       -2.5470     4.0230     1.8560 H     1 <1>   0.0800 
 25 H       -3.1750     5.6410     2.0230 H     1 <1>   0.0800 
 26 H       -9.2790     2.6040     0.6120 H     1 <1>   0.1500 
 27 H       -2.3270     6.3540     0.0520 H     1 <1>   0.0800 
 28 H       -2.7440     4.8870    -0.7780 H     1 <1>   0.0800 
 29 H       -0.3750     5.1100     0.9860 H     1 <1>   0.4500 
 30 H       -0.6450     5.5040    -1.9150 H     1 <1>   0.0800 
 31 H        0.8670     5.0530    -1.1710 H     1 <1>   0.0800 
 32 H       -0.9230     3.0820    -1.0770 H     1 <1>   0.0800 
 33 H       -1.4330     2.8820     0.5750 H     1 <1>   0.0800 
 34 H       -0.7160     7.5540    -0.5090 H     1 <1>   0.0800 
 35 H        0.7860     7.4560    -1.3710 H     1 <1>   0.0800 
 36 H        0.7500     7.0380     0.3160 H     1 <1>   0.0800 
 37 H        1.4390     3.2730    -0.3110 H     1 <1>   0.0800 
 38 H        0.7080     1.8270     0.3050 H     1 <1>   0.0800 
 39 H        0.9000     3.1930     1.3620 H     1 <1>   0.0800 
@<TRIPOS>BOND
  1   1   2  2   
  2   1   3  2   
  3   1   4  1   
  4   1   5  1   
  5   4   6  2   
  6   5   7  ar  
  7   5   8  ar  
  8   6   7  1   
  9   6   9  1   
 10   7  10  ar  
 11   8  11  ar  
 12   8  20  1   
 13   9  12  1   
 14   9  21  1   
 15  10  13  ar  
 16  10  22  1   
 17  11  13  ar  
 18  11  23  1   
 19  12  14  1   
 20  12  24  1   
 21  12  25  1   
 22  13  26  1   
 23  14  15  1   
 24  14  27  1   
 25  14  28  1   
 26  15  16  1   
 27  15  17  1   
 28  15  29  1   
 29  16  18  1   
 30  16  30  1   
 31  16  31  1   
 32  17  19  1   
 33  17  32  1   
 34  17  33  1   
 35  18  34  1   
 36  18  35  1   
 37  18  36  1   
 38  19  37  1   
 39  19  38  1   
 40  19  39  1   
@<TRIPOS>SUBSTRUCTURE
  1 ****   4 GROUP 4 **** **** 0

# MOE 2024.06 (io_trps.svl 2023.06)
