@<TRIPOS>MOLECULE
NONAME
30 31 1 0 0 
SMALL
USER_CHARGES


@<TRIPOS>ATOM
  1 O       -0.2310    -0.5010     1.4950 O.3   1 <1>  -0.2800 
  2 C       -1.4170    -1.0730     1.5000 C.2   1 <1>  -0.0100 
  3 C        0.3860    -0.8800     0.3940 C.2   1 <1>  -0.0100 
  4 C       -1.5910    -1.8280     0.3930 C.2   1 <1>  -0.1810 
  5 C       -0.3990    -1.7020    -0.3350 C.2   1 <1>  -0.1500 
  6 C       -2.7990    -2.6480    -0.0160 C.3   1 <1>   0.2910 
  7 N       -4.0290    -1.8390     0.1010 N.3   1 <1>  -0.8100 
  8 C       -4.0150    -0.6690    -0.8180 C.3   1 <1>   0.1100 
  9 C       -5.2450    -2.6560    -0.1170 C.3   1 <1>   0.1100 
 10 C       -5.3070     0.1790    -0.7170 C.3   1 <1>   0.3430 
 11 C       -6.5460    -1.8240     0.0200 C.3   1 <1>   0.3430 
 12 N       -6.2450    -0.3820     0.3120 N.4   1 <1>  -0.9590 
 13 C       -7.4620     0.4520     0.5250 C.3   1 <1>   0.2630 
 14 H       -2.0790    -0.8900     2.3280 H     1 <1>   0.1500 
 15 H        1.3820    -0.5180     0.2080 H     1 <1>   0.1500 
 16 H       -0.1770    -2.1750    -1.2750 H     1 <1>   0.1500 
 17 H       -2.8640    -3.5060     0.6320 H     1 <1>   0.0800 
 18 H       -2.6790    -2.9960    -1.0290 H     1 <1>   0.0800 
 19 H       -3.8900    -1.0010    -1.8350 H     1 <1>   0.0800 
 20 H       -3.1770    -0.0340    -0.5840 H     1 <1>   0.0800 
 21 H       -5.2710    -3.4570     0.6030 H     1 <1>   0.0800 
 22 H       -5.2160    -3.1030    -1.0970 H     1 <1>   0.0800 
 23 H       -5.7890     0.2060    -1.6800 H     1 <1>   0.0800 
 24 H       -5.0380     1.1900    -0.4560 H     1 <1>   0.0800 
 25 H       -7.1420    -2.2400     0.8160 H     1 <1>   0.0800 
 26 H       -7.1150    -1.9050    -0.8910 H     1 <1>   0.0800 
 27 H       -5.6680    -0.4190     1.1700 H     1 <1>   0.4500 
 28 H       -8.0540     0.4870    -0.3750 H     1 <1>   0.0800 
 29 H       -7.1820     1.4570     0.7950 H     1 <1>   0.0800 
 30 H       -8.0620     0.0390     1.3190 H     1 <1>   0.0800 
@<TRIPOS>BOND
  1   1   2  1   
  2   1   3  1   
  3   2   4  2   
  4   2  14  1   
  5   3   5  2   
  6   3  15  1   
  7   4   5  1   
  8   4   6  1   
  9   5  16  1   
 10   6   7  1   
 11   6  17  1   
 12   6  18  1   
 13   7   8  1   
 14   7   9  1   
 15   8  10  1   
 16   8  19  1   
 17   8  20  1   
 18   9  11  1   
 19   9  21  1   
 20   9  22  1   
 21  10  12  1   
 22  10  23  1   
 23  10  24  1   
 24  11  12  1   
 25  11  25  1   
 26  11  26  1   
 27  12  13  1   
 28  12  27  1   
 29  13  28  1   
 30  13  29  1   
 31  13  30  1   
@<TRIPOS>SUBSTRUCTURE
  1 ****   7 GROUP 4 **** **** 0

# MOE 2024.06 (io_trps.svl 2023.06)
