@<TRIPOS>MOLECULE
NONAME
28 28 1 0 0 
SMALL
USER_CHARGES


@<TRIPOS>ATOM
  1 F       -0.0540    -0.6630     0.0830 F     1 <1>  -0.3400 
  2 C        0.7300    -1.6650     0.4620 C.3   1 <1>   1.1640 
  3 F        0.4940    -1.8530     1.7540 F     1 <1>  -0.3400 
  4 F        0.2780    -2.7470    -0.1590 F     1 <1>  -0.3400 
  5 C        2.2050    -1.4170     0.1770 C.ar  1 <1>  -0.1440 
  6 C        3.1250    -2.3700     0.5770 C.ar  1 <1>   0.1600 
  7 C        2.6780    -0.2840    -0.4690 C.ar  1 <1>  -0.1500 
  8 N        4.4300    -2.2900     0.3980 N.ar  1 <1>  -0.6200 
  9 C        4.0360    -0.1910    -0.6580 C.ar  1 <1>  -0.1500 
 10 C        4.8880    -1.2000    -0.2060 C.ar  1 <1>   0.4100 
 11 N        6.2640    -1.1240    -0.3770 N.pl3 1 <1>  -0.8380 
 12 C        6.9650     0.1890    -0.4130 C.3   1 <1>   0.2090 
 13 C        6.9510    -2.2810    -1.0120 C.3   1 <1>   0.2090 
 14 C        8.2320     0.1520     0.4350 C.3   1 <1>  -0.2400 
 15 C        7.5740    -3.1820     0.0530 C.3   1 <1>  -0.2400 
 16 H        2.7730    -3.2590     1.0770 H     1 <1>   0.1500 
 17 H        2.0190     0.4950    -0.8140 H     1 <1>   0.1500 
 18 H        4.4440     0.6590    -1.1660 H     1 <1>   0.1500 
 19 H        6.3220     0.9530    -0.0120 H     1 <1>   0.0800 
 20 H        7.2050     0.4440    -1.4320 H     1 <1>   0.0800 
 21 H        7.7110    -1.9320    -1.6900 H     1 <1>   0.0800 
 22 H        6.2350    -2.8510    -1.5810 H     1 <1>   0.0800 
 23 H        7.9980    -0.1930     1.4260 H     1 <1>   0.0800 
 24 H        8.6490     1.1400     0.5040 H     1 <1>   0.0800 
 25 H        8.9680    -0.4910    -0.0100 H     1 <1>   0.0800 
 26 H        8.3050    -2.6490     0.6290 H     1 <1>   0.0800 
 27 H        8.0500    -4.0210    -0.4170 H     1 <1>   0.0800 
 28 H        6.8090    -3.5510     0.7130 H     1 <1>   0.0800 
@<TRIPOS>BOND
  1   1   2  1   
  2   2   3  1   
  3   2   4  1   
  4   2   5  1   
  5   5   6  ar  
  6   5   7  ar  
  7   6   8  ar  
  8   6  16  1   
  9   7   9  ar  
 10   7  17  1   
 11   8  10  ar  
 12   9  10  ar  
 13   9  18  1   
 14  10  11  1   
 15  11  12  1   
 16  11  13  1   
 17  12  14  1   
 18  12  19  1   
 19  12  20  1   
 20  13  15  1   
 21  13  21  1   
 22  13  22  1   
 23  14  23  1   
 24  14  24  1   
 25  14  25  1   
 26  15  26  1   
 27  15  27  1   
 28  15  28  1   
@<TRIPOS>SUBSTRUCTURE
  1 ****  10 GROUP 4 **** **** 0

# MOE 2024.06 (io_trps.svl 2023.06)
