@<TRIPOS>MOLECULE
NONAME
52 54 1 0 0 
SMALL
USER_CHARGES


@<TRIPOS>ATOM
  1 O        0.0520     0.2060    -0.8330 O.2   1 <1>  -0.5700 
  2 C        0.5340     1.2920    -0.5720 C.2   1 <1>   0.5440 
  3 N       -0.2960     2.3720    -0.6030 N.am  1 <1>  -0.7300 
  4 C        1.9420     1.4310    -0.2270 C.ar  1 <1>   0.0860 
  5 C       -1.7530     2.3200    -0.9140 C.3   1 <1>   0.2010 
  6 C        2.6050     2.6590    -0.2850 C.ar  1 <1>  -0.1500 
  7 C        2.6920     0.3260     0.1780 C.ar  1 <1>  -0.1500 
  8 C       -2.4630     3.6670    -0.7160 C.2   1 <1>   0.5690 
  9 C        3.9410     2.7780     0.0540 C.ar  1 <1>  -0.1500 
 10 C        4.0290     0.4390     0.5160 C.ar  1 <1>  -0.1500 
 11 O       -1.7900     4.6150    -0.3660 O.2   1 <1>  -0.5700 
 12 N       -3.8170     3.7840    -0.9290 N.am  1 <1>  -0.6600 
 13 C        4.6620     1.6680     0.4600 C.ar  1 <1>  -0.1430 
 14 C       -4.7120     2.6780    -1.3690 C.3   1 <1>   0.1400 
 15 C       -4.5310     5.0680    -0.6850 C.3   1 <1>   0.1400 
 16 C        6.1280     1.7960     0.8300 C.3   1 <1>  -0.0970 
 17 C       -5.7840     2.4360    -0.3040 C.3   1 <1>  -0.1600 
 18 C       -5.6050     4.8560     0.3870 C.3   1 <1>  -0.1600 
 19 C       -6.5740     3.7210     0.0110 C.3   1 <1>  -0.0800 
 20 C       -7.6070     3.4990     1.1320 C.3   1 <1>  -0.0170 
 21 C       -8.6290     2.4330     0.7650 C.ar  1 <1>  -0.1430 
 22 C       -8.5710     1.1720     1.3400 C.ar  1 <1>  -0.1500 
 23 C       -9.6290     2.7140    -0.1530 C.ar  1 <1>  -0.1500 
 24 C       -9.4980     0.2030     0.9980 C.ar  1 <1>  -0.1500 
 25 C      -10.5560     1.7450    -0.4980 C.ar  1 <1>  -0.1500 
 26 C      -10.4910     0.4890     0.0780 C.ar  1 <1>  -0.1500 
 27 H        0.0140     3.2990    -0.2930 H     1 <1>   0.3700 
 28 H       -2.2140     1.5870    -0.2760 H     1 <1>   0.0800 
 29 H       -1.8730     2.0090    -1.9350 H     1 <1>   0.0800 
 30 H        2.0750     3.5380    -0.6050 H     1 <1>   0.1500 
 31 H        2.2140    -0.6370     0.2260 H     1 <1>   0.1500 
 32 H        4.4190     3.7400    -0.0020 H     1 <1>   0.1500 
 33 H        4.5740    -0.4370     0.8240 H     1 <1>   0.1500 
 34 H       -4.1650     1.7680    -1.5400 H     1 <1>   0.0800 
 35 H       -5.1820     2.9580    -2.2970 H     1 <1>   0.0800 
 36 H       -4.9870     5.3970    -1.6030 H     1 <1>   0.0800 
 37 H       -3.8460     5.8330    -0.3620 H     1 <1>   0.0800 
 38 H        6.3310     2.7720     1.2340 H     1 <1>   0.0800 
 39 H        6.7380     1.6470    -0.0430 H     1 <1>   0.0800 
 40 H        6.3950     1.0620     1.5690 H     1 <1>   0.0800 
 41 H       -5.3120     2.0650     0.5890 H     1 <1>   0.0800 
 42 H       -6.4540     1.6730    -0.6610 H     1 <1>   0.0800 
 43 H       -6.1510     5.7740     0.5170 H     1 <1>   0.0800 
 44 H       -5.1160     4.6320     1.3190 H     1 <1>   0.0800 
 45 H       -7.1040     4.0150    -0.8790 H     1 <1>   0.0800 
 46 H       -8.1270     4.4200     1.3270 H     1 <1>   0.0800 
 47 H       -7.1010     3.2200     2.0400 H     1 <1>   0.0800 
 48 H       -7.8030     0.9380     2.0560 H     1 <1>   0.1500 
 49 H       -9.6900     3.6880    -0.6050 H     1 <1>   0.1500 
 50 H       -9.4480    -0.7730     1.4480 H     1 <1>   0.1500 
 51 H      -11.3290     1.9690    -1.2120 H     1 <1>   0.1500 
 52 H      -11.2110    -0.2650    -0.1890 H     1 <1>   0.1500 
@<TRIPOS>BOND
  1   1   2  2   
  2   2   3  am  
  3   2   4  1   
  4   3   5  1   
  5   3  27  1   
  6   4   6  ar  
  7   4   7  ar  
  8   5   8  1   
  9   5  28  1   
 10   5  29  1   
 11   6   9  ar  
 12   6  30  1   
 13   7  10  ar  
 14   7  31  1   
 15   8  11  2   
 16   8  12  am  
 17   9  13  ar  
 18   9  32  1   
 19  10  13  ar  
 20  10  33  1   
 21  12  14  1   
 22  12  15  1   
 23  13  16  1   
 24  14  17  1   
 25  14  34  1   
 26  14  35  1   
 27  15  18  1   
 28  15  36  1   
 29  15  37  1   
 30  16  38  1   
 31  16  39  1   
 32  16  40  1   
 33  17  19  1   
 34  17  41  1   
 35  17  42  1   
 36  18  19  1   
 37  18  43  1   
 38  18  44  1   
 39  19  20  1   
 40  19  45  1   
 41  20  21  1   
 42  20  46  1   
 43  20  47  1   
 44  21  22  ar  
 45  21  23  ar  
 46  22  24  ar  
 47  22  48  1   
 48  23  25  ar  
 49  23  49  1   
 50  24  26  ar  
 51  24  50  1   
 52  25  26  ar  
 53  25  51  1   
 54  26  52  1   
@<TRIPOS>SUBSTRUCTURE
  1 ****   5 GROUP 4 **** **** 0

# MOE 2024.06 (io_trps.svl 2023.06)
