@<TRIPOS>MOLECULE
NONAME
52 55 1 0 0 
SMALL
USER_CHARGES


@<TRIPOS>ATOM
  1 CL      -0.1270    -0.9430     1.2010 Cl    1 <1>  -0.1770 
  2 C       -1.8260    -0.5820     1.0730 C.ar  1 <1>   0.1770 
  3 C       -2.7540    -1.5510     1.4020 C.ar  1 <1>  -0.1500 
  4 C       -2.2280     0.6690     0.6470 C.ar  1 <1>  -0.1500 
  5 C       -4.1040    -1.2620     1.2980 C.ar  1 <1>  -0.1500 
  6 C       -3.5790     0.9460     0.5460 C.ar  1 <1>  -0.1500 
  7 C       -4.5510    -0.0090     0.8610 C.ar  1 <1>   0.0860 
  8 C       -5.9650     0.3020     0.7330 C.2   1 <1>   0.5440 
  9 O       -6.3460     1.4540     0.8090 O.2   1 <1>  -0.5700 
 10 N       -6.8600    -0.7100     0.5060 N.am  1 <1>  -0.5470 
 11 C       -8.2580    -0.7880     0.3690 C.ar  1 <1>   0.1170 
 12 C       -8.7750    -2.0450     0.0230 C.ar  1 <1>   0.1000 
 13 C       -9.1230     0.2800     0.5590 C.ar  1 <1>  -0.1500 
 14 N       -7.9000    -3.1360    -0.1670 N.pl3 1 <1>  -0.8380 
 15 C      -10.1470    -2.1900    -0.1320 C.ar  1 <1>  -0.1500 
 16 C      -10.4880     0.1120     0.4030 C.ar  1 <1>  -0.1500 
 17 C       -7.6500    -3.5530    -1.5820 C.3   1 <1>   0.2090 
 18 C       -8.0180    -4.2860     0.7860 C.3   1 <1>   0.2090 
 19 C      -11.0140    -1.1220     0.0560 C.ar  1 <1>   0.1000 
 20 C       -8.5070    -4.7620    -2.0000 C.3   1 <1>   0.1200 
 21 C       -8.8300    -5.4630     0.2090 C.3   1 <1>   0.1200 
 22 N      -12.3930    -1.2580    -0.0970 N.pl3 1 <1>  -0.8380 
 23 O       -8.3900    -5.8050    -1.0740 O.3   1 <1>  -0.5600 
 24 C      -13.0690    -2.1350     0.9040 C.3   1 <1>   0.2090 
 25 C      -12.8630    -1.5420    -1.4850 C.3   1 <1>   0.2090 
 26 C      -14.5960    -2.1160     0.7100 C.3   1 <1>   0.1200 
 27 C      -14.4010    -1.5550    -1.5540 C.3   1 <1>   0.1200 
 28 O      -14.9380    -2.4410    -0.6100 O.3   1 <1>  -0.5600 
 29 H       -2.4180    -2.5160     1.7380 H     1 <1>   0.1500 
 30 H       -1.4900     1.4120     0.4000 H     1 <1>   0.1500 
 31 H       -4.8180    -2.0200     1.5690 H     1 <1>   0.1500 
 32 H       -3.8980     1.9220     0.2160 H     1 <1>   0.1500 
 33 H       -6.4690    -1.6390     0.3300 H     1 <1>   0.3700 
 34 H       -8.7420     1.2470     0.8290 H     1 <1>   0.1500 
 35 H      -10.5530    -3.1400    -0.4030 H     1 <1>   0.1500 
 36 H      -11.1580     0.9390     0.5490 H     1 <1>   0.1500 
 37 H       -6.6110    -3.8090    -1.6920 H     1 <1>   0.0800 
 38 H       -7.8550    -2.7270    -2.2420 H     1 <1>   0.0800 
 39 H       -8.4780    -3.9510     1.6990 H     1 <1>   0.0800 
 40 H       -7.0300    -4.6360     1.0290 H     1 <1>   0.0800 
 41 H       -8.1790    -5.1330    -2.9540 H     1 <1>   0.0800 
 42 H       -9.5420    -4.4830    -2.0780 H     1 <1>   0.0800 
 43 H       -9.8750    -5.2160     0.1600 H     1 <1>   0.0800 
 44 H       -8.7150    -6.3290     0.8360 H     1 <1>   0.0800 
 45 H      -12.8290    -1.7900     1.8940 H     1 <1>   0.0800 
 46 H      -12.7130    -3.1450     0.8040 H     1 <1>   0.0800 
 47 H      -12.4870    -2.4970    -1.8090 H     1 <1>   0.0800 
 48 H      -12.4800    -0.7870    -2.1490 H     1 <1>   0.0800 
 49 H      -14.9880    -1.1410     0.9380 H     1 <1>   0.0800 
 50 H      -15.0610    -2.8370     1.3570 H     1 <1>   0.0800 
 51 H      -14.7250    -1.8740    -2.5280 H     1 <1>   0.0800 
 52 H      -14.7900    -0.5700    -1.3640 H     1 <1>   0.0800 
@<TRIPOS>BOND
  1   1   2  1   
  2   2   3  ar  
  3   2   4  ar  
  4   3   5  ar  
  5   3  29  1   
  6   4   6  ar  
  7   4  30  1   
  8   5   7  ar  
  9   5  31  1   
 10   6   7  ar  
 11   6  32  1   
 12   7   8  1   
 13   8   9  2   
 14   8  10  am  
 15  10  11  1   
 16  10  33  1   
 17  11  12  ar  
 18  11  13  ar  
 19  12  14  1   
 20  12  15  ar  
 21  13  16  ar  
 22  13  34  1   
 23  14  17  1   
 24  14  18  1   
 25  15  19  ar  
 26  15  35  1   
 27  16  19  ar  
 28  16  36  1   
 29  17  20  1   
 30  17  37  1   
 31  17  38  1   
 32  18  21  1   
 33  18  39  1   
 34  18  40  1   
 35  19  22  1   
 36  20  23  1   
 37  20  41  1   
 38  20  42  1   
 39  21  23  1   
 40  21  43  1   
 41  21  44  1   
 42  22  24  1   
 43  22  25  1   
 44  24  26  1   
 45  24  45  1   
 46  24  46  1   
 47  25  27  1   
 48  25  47  1   
 49  25  48  1   
 50  26  28  1   
 51  26  49  1   
 52  26  50  1   
 53  27  28  1   
 54  27  51  1   
 55  27  52  1   
@<TRIPOS>SUBSTRUCTURE
  1 ****  12 GROUP 4 **** **** 0

# MOE 2024.06 (io_trps.svl 2023.06)
