@<TRIPOS>MOLECULE
NONAME
51 52 1 0 0 
SMALL
USER_CHARGES


@<TRIPOS>ATOM
  1 O        3.5850    -2.7370     0.4790 O.3   1 <1>  -0.3630 
  2 C        2.3240    -3.0290     0.0720 C.ar  1 <1>   0.0830 
  3 C        4.7090    -3.3370    -0.1280 C.3   1 <1>   0.1200 
  4 C        1.2920    -2.4060     0.7550 C.ar  1 <1>  -0.1500 
  5 C        2.0270    -3.9010    -0.9720 C.ar  1 <1>  -0.1500 
  6 C        5.9720    -2.7980     0.5550 C.3   1 <1>   0.2000 
  7 C       -0.0280    -2.6410     0.4080 C.ar  1 <1>  -0.1440 
  8 C        0.7090    -4.1440    -1.3230 C.ar  1 <1>  -0.1440 
  9 O        5.9140    -1.4010     0.5800 O.3   1 <1>  -0.6800 
 10 C        7.2690    -3.2480    -0.1540 C.3   1 <1>   0.3430 
 11 C       -0.3110    -3.5110    -0.6310 C.ar  1 <1>  -0.1500 
 12 C       -1.1600    -1.9600     1.1550 C.3   1 <1>  -0.0970 
 13 C        0.3750    -5.0930    -2.4610 C.3   1 <1>  -0.0970 
 14 N        8.3500    -2.2240     0.0280 N.4   1 <1>  -0.9590 
 15 C        8.9260    -1.8080    -1.2790 C.3   1 <1>   0.4230 
 16 C        9.3840    -2.5540     1.0440 C.3   1 <1>   0.4230 
 17 C       10.3400    -2.3770    -1.5130 C.3   1 <1>  -0.1600 
 18 C        8.9270    -0.2850    -1.3190 C.3   1 <1>  -0.2400 
 19 C       10.2070    -3.7740     0.5940 C.3   1 <1>  -0.1600 
 20 C        8.7610    -2.7540     2.4220 C.3   1 <1>  -0.2400 
 21 C       10.5070    -3.7830    -0.9180 C.3   1 <1>  -0.1600 
 22 H        4.7040    -3.0840    -1.1740 H     1 <1>   0.0800 
 23 H        4.6320    -4.4030    -0.0050 H     1 <1>   0.0800 
 24 H        1.5300    -1.7360     1.5610 H     1 <1>   0.1500 
 25 H        2.8010    -4.3970    -1.5220 H     1 <1>   0.1500 
 26 H        5.9820    -3.1390     1.5760 H     1 <1>   0.0800 
 27 H        4.9900    -1.1380     0.8090 H     1 <1>   0.4000 
 28 H        7.0560    -3.3610    -1.2030 H     1 <1>   0.0800 
 29 H        7.5820    -4.2090     0.2200 H     1 <1>   0.0800 
 30 H       -1.3360    -3.6970    -0.9040 H     1 <1>   0.1500 
 31 H       -0.7900    -1.1480     1.7540 H     1 <1>   0.0800 
 32 H       -1.6490    -2.6690     1.7980 H     1 <1>   0.0800 
 33 H       -1.8780    -1.5680     0.4580 H     1 <1>   0.0800 
 34 H        1.1650    -5.8060    -2.6080 H     1 <1>   0.0800 
 35 H        0.2350    -4.5350    -3.3690 H     1 <1>   0.0800 
 36 H       -0.5300    -5.6320    -2.2430 H     1 <1>   0.0800 
 37 H        7.8150    -1.4060     0.3750 H     1 <1>   0.4500 
 38 H        8.2850    -2.1610    -2.0700 H     1 <1>   0.0800 
 39 H       10.0570    -1.7120     1.1080 H     1 <1>   0.0800 
 40 H       11.0770    -1.7230    -1.0780 H     1 <1>   0.0800 
 41 H       10.5340    -2.4040    -2.5710 H     1 <1>   0.0800 
 42 H        9.5410     0.1250    -0.5370 H     1 <1>   0.0800 
 43 H        7.9250     0.0930    -1.2220 H     1 <1>   0.0800 
 44 H        9.3170     0.0520    -2.2630 H     1 <1>   0.0800 
 45 H        9.7110    -4.6890     0.8650 H     1 <1>   0.0800 
 46 H       11.1370    -3.7550     1.1350 H     1 <1>   0.0800 
 47 H        8.1610    -3.6440     2.4650 H     1 <1>   0.0800 
 48 H        8.1650    -1.9000     2.6930 H     1 <1>   0.0800 
 49 H        9.5440    -2.8530     3.1530 H     1 <1>   0.0800 
 50 H       11.5080    -4.1440    -1.0920 H     1 <1>   0.0800 
 51 H        9.8300    -4.4570    -1.4150 H     1 <1>   0.0800 
@<TRIPOS>BOND
  1   1   2  1   
  2   1   3  1   
  3   2   4  ar  
  4   2   5  ar  
  5   3   6  1   
  6   3  22  1   
  7   3  23  1   
  8   4   7  ar  
  9   4  24  1   
 10   5   8  ar  
 11   5  25  1   
 12   6   9  1   
 13   6  10  1   
 14   6  26  1   
 15   7  11  ar  
 16   7  12  1   
 17   8  11  ar  
 18   8  13  1   
 19   9  27  1   
 20  10  14  1   
 21  10  28  1   
 22  10  29  1   
 23  11  30  1   
 24  12  31  1   
 25  12  32  1   
 26  12  33  1   
 27  13  34  1   
 28  13  35  1   
 29  13  36  1   
 30  14  15  1   
 31  14  16  1   
 32  14  37  1   
 33  15  17  1   
 34  15  18  1   
 35  15  38  1   
 36  16  19  1   
 37  16  20  1   
 38  16  39  1   
 39  17  21  1   
 40  17  40  1   
 41  17  41  1   
 42  18  42  1   
 43  18  43  1   
 44  18  44  1   
 45  19  21  1   
 46  19  45  1   
 47  19  46  1   
 48  20  47  1   
 49  20  48  1   
 50  20  49  1   
 51  21  50  1   
 52  21  51  1   
@<TRIPOS>SUBSTRUCTURE
  1 ****   3 GROUP 4 **** **** 0

# MOE 2024.06 (io_trps.svl 2023.06)
