@<TRIPOS>MOLECULE
NONAME
38 39 1 0 0 
SMALL
USER_CHARGES


@<TRIPOS>ATOM
  1 S       -0.4090    -0.2000    -0.2310 S.3   1 <1>  -0.2860 
  2 C        1.2610    -0.8670    -0.2430 C.2   1 <1>   0.2420 
  3 C       -1.4570    -1.7020    -0.5650 C.3   1 <1>   0.1310 
  4 N        1.4920    -2.1170    -0.4290 N.2   1 <1>  -0.3380 
  5 N        2.3690    -0.1370    -0.0620 N.pl3 1 <1>   0.0480 
  6 C       -2.9410    -1.3720    -0.5140 C.2   1 <1>   0.5690 
  7 N        2.8170    -2.2550    -0.3740 N.2   1 <1>  -0.3380 
  8 C        3.3180    -1.0850    -0.1580 C.2   1 <1>   0.0060 
  9 C        2.5660     1.3210     0.1810 C.3   1 <1>   0.1760 
 10 O       -3.7100    -2.1510    -1.0210 O.2   1 <1>  -0.5700 
 11 N       -3.3390    -0.2160     0.1050 N.am  1 <1>  -0.5470 
 12 C        4.8100    -0.8380    -0.0320 C.3   1 <1>  -0.0600 
 13 C        1.9200     1.7610     1.5010 C.3   1 <1>  -0.2400 
 14 C        2.0660     2.1590    -1.0020 C.3   1 <1>  -0.2400 
 15 C       -4.6030     0.3690     0.3300 C.ar  1 <1>   0.1170 
 16 C       -4.6760     1.6650     0.8500 C.ar  1 <1>   0.1900 
 17 C       -5.8100    -0.2810     0.0680 C.ar  1 <1>  -0.1500 
 18 F       -3.5610     2.3020     1.1140 F     1 <1>  -0.1900 
 19 C       -5.8660     2.3170     1.1040 C.ar  1 <1>  -0.1500 
 20 C       -7.0240     0.3450     0.3110 C.ar  1 <1>  -0.1500 
 21 C       -7.0290     1.6300     0.8230 C.ar  1 <1>   0.1900 
 22 F       -8.1760     2.2150     1.0500 F     1 <1>  -0.1900 
 23 H       -1.2120    -2.4360     0.1800 H     1 <1>   0.0800 
 24 H       -1.1860    -2.0680    -1.5370 H     1 <1>   0.0800 
 25 H        3.6230     1.4950     0.2710 H     1 <1>   0.0800 
 26 H       -2.5590     0.3680     0.4210 H     1 <1>   0.3700 
 27 H        5.0390    -0.4330     0.9360 H     1 <1>   0.0800 
 28 H        5.1400    -0.1570    -0.7960 H     1 <1>   0.0800 
 29 H        5.3430    -1.7650    -0.1490 H     1 <1>   0.0800 
 30 H        0.8490     1.6930     1.4550 H     1 <1>   0.0800 
 31 H        2.1780     2.7840     1.7090 H     1 <1>   0.0800 
 32 H        2.2790     1.1520     2.3120 H     1 <1>   0.0800 
 33 H        0.9980     2.0960    -1.1030 H     1 <1>   0.0800 
 34 H        2.5270     1.8250    -1.9150 H     1 <1>   0.0800 
 35 H        2.3250     3.1920    -0.8530 H     1 <1>   0.0800 
 36 H       -5.8160    -1.2810    -0.3270 H     1 <1>   0.1500 
 37 H       -5.8880     3.3140     1.5030 H     1 <1>   0.1500 
 38 H       -7.9540    -0.1550     0.1070 H     1 <1>   0.1500 
@<TRIPOS>BOND
  1   1   2  1   
  2   1   3  1   
  3   2   4  2   
  4   2   5  1   
  5   3   6  1   
  6   3  23  1   
  7   3  24  1   
  8   4   7  1   
  9   5   8  1   
 10   5   9  1   
 11   6  10  2   
 12   6  11  am  
 13   7   8  2   
 14   8  12  1   
 15   9  13  1   
 16   9  14  1   
 17   9  25  1   
 18  11  15  1   
 19  11  26  1   
 20  12  27  1   
 21  12  28  1   
 22  12  29  1   
 23  13  30  1   
 24  13  31  1   
 25  13  32  1   
 26  14  33  1   
 27  14  34  1   
 28  14  35  1   
 29  15  16  ar  
 30  15  17  ar  
 31  16  18  1   
 32  16  19  ar  
 33  17  20  ar  
 34  17  36  1   
 35  19  21  ar  
 36  19  37  1   
 37  20  21  ar  
 38  20  38  1   
 39  21  22  1   
@<TRIPOS>SUBSTRUCTURE
  1 ****   1 GROUP 4 **** **** 0

# MOE 2024.06 (io_trps.svl 2023.06)
