@<TRIPOS>MOLECULE
NONAME
42 44 1 0 0 
SMALL
USER_CHARGES


@<TRIPOS>ATOM
  1 CL      -3.3120    -1.8450    -0.3460 Cl    1 <1>  -0.1770 
  2 C       -1.8930    -2.7130     0.2170 C.ar  1 <1>   0.1770 
  3 C       -1.9790    -3.4190     1.3930 C.ar  1 <1>   0.0830 
  4 C       -0.7150    -2.6860    -0.5600 C.ar  1 <1>   0.0000 
  5 O       -3.1270    -3.4180     2.1070 O.3   1 <1>  -0.3630 
  6 C       -0.8690    -4.1370     1.8570 C.ar  1 <1>  -0.1500 
  7 C        0.3960    -3.4250    -0.0890 C.ar  1 <1>   0.0000 
  8 C       -0.5790    -1.9740    -1.7740 C.ar  1 <1>  -0.1500 
  9 C       -3.7690    -4.6560     2.3450 C.3   1 <1>   0.1200 
 10 C        0.2860    -4.1370     1.1250 C.ar  1 <1>  -0.1500 
 11 C        1.5830    -3.4280    -0.8470 C.ar  1 <1>  -0.1500 
 12 C        0.5870    -1.9960    -2.4870 C.ar  1 <1>  -0.1500 
 13 C       -5.2820    -4.4190     2.2580 C.3   1 <1>   0.3430 
 14 C        1.6810    -2.7320    -2.0190 C.ar  1 <1>  -0.1500 
 15 N       -5.5880    -3.5460     1.0880 N.4   1 <1>  -0.9060 
 16 C       -6.9490    -2.9330     1.1250 C.3   1 <1>   0.3430 
 17 C       -7.1790    -1.9610    -0.0430 C.3   1 <1>   0.2000 
 18 O       -8.5000    -1.5560    -0.0080 O.3   1 <1>  -0.5600 
 19 C       -7.0130    -2.5590    -1.4360 C.3   1 <1>  -0.1600 
 20 C       -8.8970    -1.0760    -1.2560 C.3   1 <1>   0.1200 
 21 C       -7.9550    -1.7120    -2.2760 C.3   1 <1>  -0.1600 
 22 H       -0.9310    -4.6730     2.7870 H     1 <1>   0.1500 
 23 H       -1.4100    -1.4010    -2.1430 H     1 <1>   0.1500 
 24 H       -3.4830    -5.0110     3.3200 H     1 <1>   0.0800 
 25 H       -3.4560    -5.3670     1.5990 H     1 <1>   0.0800 
 26 H        1.1470    -4.6840     1.4720 H     1 <1>   0.1500 
 27 H        2.4240    -3.9930    -0.4850 H     1 <1>   0.1500 
 28 H        0.6820    -1.4510    -3.4100 H     1 <1>   0.1500 
 29 H       -5.6010    -3.9330     3.1660 H     1 <1>   0.0800 
 30 H       -5.8040    -5.3600     2.1810 H     1 <1>   0.0800 
 31 H        2.5910    -2.7380    -2.5940 H     1 <1>   0.1500 
 32 H       -5.4510    -4.0550     0.2070 H     1 <1>   0.4500 
 33 H       -4.8690    -2.8000     1.0870 H     1 <1>   0.4500 
 34 H       -7.0810    -2.3920     2.0480 H     1 <1>   0.0800 
 35 H       -7.6960    -3.7080     1.0730 H     1 <1>   0.0800 
 36 H       -6.5720    -1.0770     0.0680 H     1 <1>   0.0800 
 37 H       -7.3440    -3.5830    -1.4450 H     1 <1>   0.0800 
 38 H       -5.9980    -2.5020    -1.7890 H     1 <1>   0.0800 
 39 H       -8.8060    -0.0020    -1.2520 H     1 <1>   0.0800 
 40 H       -9.9240    -1.3570    -1.4200 H     1 <1>   0.0800 
 41 H       -8.4990    -2.3040    -2.9920 H     1 <1>   0.0800 
 42 H       -7.4210    -0.9390    -2.8010 H     1 <1>   0.0800 
@<TRIPOS>BOND
  1   1   2  1   
  2   2   3  ar  
  3   2   4  ar  
  4   3   5  1   
  5   3   6  ar  
  6   4   7  ar  
  7   4   8  ar  
  8   5   9  1   
  9   6  10  ar  
 10   6  22  1   
 11   7  10  ar  
 12   7  11  ar  
 13   8  12  ar  
 14   8  23  1   
 15   9  13  1   
 16   9  24  1   
 17   9  25  1   
 18  10  26  1   
 19  11  14  ar  
 20  11  27  1   
 21  12  14  ar  
 22  12  28  1   
 23  13  15  1   
 24  13  29  1   
 25  13  30  1   
 26  14  31  1   
 27  15  16  1   
 28  15  32  1   
 29  15  33  1   
 30  16  17  1   
 31  16  34  1   
 32  16  35  1   
 33  17  18  1   
 34  17  19  1   
 35  17  36  1   
 36  18  20  1   
 37  19  21  1   
 38  19  37  1   
 39  19  38  1   
 40  20  21  1   
 41  20  39  1   
 42  20  40  1   
 43  21  41  1   
 44  21  42  1   
@<TRIPOS>SUBSTRUCTURE
  1 ****   1 GROUP 4 **** **** 0

# MOE 2024.06 (io_trps.svl 2023.06)
