@<TRIPOS>MOLECULE
NONAME
35 37 1 0 0 
SMALL
USER_CHARGES


@<TRIPOS>ATOM
  1 S       -0.0140     0.4980    -0.5150 S.3   1 <1>  -0.0800 
  2 C        0.6720    -1.0820    -0.1300 C.2   1 <1>   0.0410 
  3 C       -1.6470    -0.0280    -0.1490 C.2   1 <1>  -0.1400 
  4 C        2.0860    -1.3190    -0.2670 C.2   1 <1>   0.2880 
  5 C       -0.3390    -1.9110     0.2300 C.2   1 <1>  -0.1500 
  6 C       -1.6380    -1.3220     0.2260 C.2   1 <1>  -0.1500 
  7 C       -2.7420     1.0110    -0.3070 C.3   1 <1>   0.0200 
  8 N        2.5600    -2.4760    -0.6210 N.2   1 <1>  -0.4100 
  9 C        3.1480    -0.4190    -0.0640 C.2   1 <1>  -0.0860 
 10 C       -4.1290     0.4510     0.0340 C.3   1 <1>  -0.1600 
 11 O        3.8570    -2.3540    -0.6870 O.3   1 <1>  -0.0190 
 12 C        3.3750     0.9100     0.3720 C.2   1 <1>   0.7160 
 13 C        4.2390    -1.1500    -0.3700 C.2   1 <1>   0.2660 
 14 C       -5.2230     1.5130    -0.1330 C.3   1 <1>  -0.1600 
 15 O        2.5290     1.6900     0.7640 O.2   1 <1>  -0.5700 
 16 N        4.6690     1.3300     0.3760 N.am  1 <1>  -0.4900 
 17 N        5.5360    -0.7130    -0.3430 N.2   1 <1>  -0.5760 
 18 C       -6.6010     0.9420     0.2100 C.3   1 <1>  -0.2400 
 19 C        5.7010     0.5060     0.0230 C.2   1 <1>   0.4490 
 20 C        7.0900     1.0950     0.0850 C.3   1 <1>  -0.1790 
 21 H       -0.2020    -2.9430     0.4990 H     1 <1>   0.1500 
 22 H       -2.5020    -1.8980     0.5050 H     1 <1>   0.1500 
 23 H       -2.7370     1.3650    -1.3240 H     1 <1>   0.0800 
 24 H       -2.5220     1.8450     0.3370 H     1 <1>   0.0800 
 25 H       -4.1250     0.0980     1.0510 H     1 <1>   0.0800 
 26 H       -4.3400    -0.3840    -0.6120 H     1 <1>   0.0800 
 27 H       -5.2310     1.8700    -1.1490 H     1 <1>   0.0800 
 28 H       -5.0170     2.3500     0.5130 H     1 <1>   0.0800 
 29 H        4.8230     2.2860     0.6810 H     1 <1>   0.3700 
 30 H       -6.8390     0.1170    -0.4390 H     1 <1>   0.0800 
 31 H       -7.3550     1.7000     0.0880 H     1 <1>   0.0800 
 32 H       -6.6240     0.5990     1.2300 H     1 <1>   0.0800 
 33 H        7.1620     1.9370    -0.5790 H     1 <1>   0.0800 
 34 H        7.8160     0.3600    -0.2130 H     1 <1>   0.0800 
 35 H        7.3120     1.4100     1.0880 H     1 <1>   0.0800 
@<TRIPOS>BOND
  1   1   2  1   
  2   1   3  1   
  3   2   4  1   
  4   2   5  2   
  5   3   6  2   
  6   3   7  1   
  7   4   8  2   
  8   4   9  1   
  9   5   6  1   
 10   5  21  1   
 11   6  22  1   
 12   7  10  1   
 13   7  23  1   
 14   7  24  1   
 15   8  11  1   
 16   9  12  1   
 17   9  13  2   
 18  10  14  1   
 19  10  25  1   
 20  10  26  1   
 21  11  13  1   
 22  12  15  2   
 23  12  16  am  
 24  13  17  1   
 25  14  18  1   
 26  14  27  1   
 27  14  28  1   
 28  16  19  1   
 29  16  29  1   
 30  17  19  2   
 31  18  30  1   
 32  18  31  1   
 33  18  32  1   
 34  19  20  1   
 35  20  33  1   
 36  20  34  1   
 37  20  35  1   
@<TRIPOS>SUBSTRUCTURE
  1 ****   2 GROUP 4 **** **** 0

# MOE 2024.06 (io_trps.svl 2023.06)
