@<TRIPOS>MOLECULE
NONAME
49 50 1 0 0 
SMALL
USER_CHARGES


@<TRIPOS>ATOM
  1 O        0.8920    -7.3990    -0.0640 O.3   1 <1>  -0.3630 
  2 C       -0.3540    -6.8700     0.0630 C.ar  1 <1>   0.0820 
  3 C        2.0340    -6.7150     0.3960 C.3   1 <1>   0.1200 
  4 C       -1.4130    -7.5610    -0.5140 C.ar  1 <1>  -0.1440 
  5 C       -0.6080    -5.6810     0.7380 C.ar  1 <1>  -0.1500 
  6 C        3.2590    -7.5670     0.0560 C.3   1 <1>   0.1100 
  7 C       -2.6980    -7.0540    -0.4120 C.ar  1 <1>  -0.1500 
  8 C       -1.1720    -8.8670    -1.2570 C.3   1 <1>  -0.0960 
  9 C       -1.8980    -5.1890     0.8300 C.ar  1 <1>  -0.1500 
 10 N        4.5210    -6.9120     0.4700 N.3   1 <1>  -0.8100 
 11 C       -2.9710    -5.8650     0.2560 C.ar  1 <1>  -0.1440 
 12 C        5.6000    -7.9090     0.6160 C.3   1 <1>   0.1100 
 13 C        4.9110    -5.8220    -0.4520 C.3   1 <1>   0.1100 
 14 C       -4.4270    -5.3540     0.3340 C.3   1 <1>   0.1430 
 15 C        6.9100    -7.2540     1.0960 C.3   1 <1>   0.3430 
 16 C        6.2140    -5.1370     0.0090 C.3   1 <1>   0.3430 
 17 C       -4.9660    -5.1210    -1.0850 C.3   1 <1>  -0.2400 
 18 C       -4.5640    -4.0290     1.1040 C.3   1 <1>  -0.2400 
 19 C       -5.3000    -6.3960     1.0480 C.3   1 <1>  -0.2400 
 20 N        7.3240    -6.1290     0.1940 N.4   1 <1>  -0.9060 
 21 H        1.9480    -6.5900     1.4610 H     1 <1>   0.0800 
 22 H        2.0690    -5.7630    -0.1010 H     1 <1>   0.0800 
 23 H        0.1800    -5.1220     1.2010 H     1 <1>   0.1500 
 24 H        3.2750    -7.7720    -1.0010 H     1 <1>   0.0800 
 25 H        3.1510    -8.5010     0.5820 H     1 <1>   0.0800 
 26 H       -3.5020    -7.6020    -0.8660 H     1 <1>   0.1500 
 27 H       -0.5010    -8.6980    -2.0800 H     1 <1>   0.0800 
 28 H       -2.0900    -9.2740    -1.6400 H     1 <1>   0.0800 
 29 H       -0.7280    -9.5860    -0.5920 H     1 <1>   0.0800 
 30 H       -2.0380    -4.2680     1.3620 H     1 <1>   0.1500 
 31 H        5.7650    -8.4160    -0.3200 H     1 <1>   0.0800 
 32 H        5.3010    -8.6480     1.3430 H     1 <1>   0.0800 
 33 H        4.1320    -5.0800    -0.4830 H     1 <1>   0.0800 
 34 H        5.0360    -6.2090    -1.4490 H     1 <1>   0.0800 
 35 H        7.6880    -7.9990     1.1410 H     1 <1>   0.0800 
 36 H        6.7530    -6.8790     2.0950 H     1 <1>   0.0800 
 37 H        6.0170    -4.6350     0.9430 H     1 <1>   0.0800 
 38 H        6.5000    -4.3900    -0.7140 H     1 <1>   0.0800 
 39 H       -4.9850    -6.0360    -1.6480 H     1 <1>   0.0800 
 40 H       -4.3390    -4.4190    -1.6060 H     1 <1>   0.0800 
 41 H       -5.9670    -4.7290    -1.0530 H     1 <1>   0.0800 
 42 H       -3.9900    -3.2540     0.6270 H     1 <1>   0.0800 
 43 H       -4.2250    -4.1440     2.1170 H     1 <1>   0.0800 
 44 H       -5.5920    -3.7120     1.1310 H     1 <1>   0.0800 
 45 H       -4.9080    -6.5910     2.0310 H     1 <1>   0.0800 
 46 H       -5.3220    -7.3220     0.5050 H     1 <1>   0.0800 
 47 H       -6.3110    -6.0430     1.1460 H     1 <1>   0.0800 
 48 H        7.5790    -6.5160    -0.7210 H     1 <1>   0.4500 
 49 H        8.1550    -5.6600     0.5770 H     1 <1>   0.4500 
@<TRIPOS>BOND
  1   1   2  1   
  2   1   3  1   
  3   2   4  ar  
  4   2   5  ar  
  5   3   6  1   
  6   3  21  1   
  7   3  22  1   
  8   4   7  ar  
  9   4   8  1   
 10   5   9  ar  
 11   5  23  1   
 12   6  10  1   
 13   6  24  1   
 14   6  25  1   
 15   7  11  ar  
 16   7  26  1   
 17   8  27  1   
 18   8  28  1   
 19   8  29  1   
 20   9  11  ar  
 21   9  30  1   
 22  10  12  1   
 23  10  13  1   
 24  11  14  1   
 25  12  15  1   
 26  12  31  1   
 27  12  32  1   
 28  13  16  1   
 29  13  33  1   
 30  13  34  1   
 31  14  17  1   
 32  14  18  1   
 33  14  19  1   
 34  15  20  1   
 35  15  35  1   
 36  15  36  1   
 37  16  20  1   
 38  16  37  1   
 39  16  38  1   
 40  17  39  1   
 41  17  40  1   
 42  17  41  1   
 43  18  42  1   
 44  18  43  1   
 45  18  44  1   
 46  19  45  1   
 47  19  46  1   
 48  19  47  1   
 49  20  48  1   
 50  20  49  1   
@<TRIPOS>SUBSTRUCTURE
  1 ****   2 GROUP 4 **** **** 0

# MOE 2024.06 (io_trps.svl 2023.06)
