@<TRIPOS>MOLECULE
NONAME
48 49 1 0 0 
SMALL
USER_CHARGES


@<TRIPOS>ATOM
  1 S       -0.4310     0.3490     0.8700 S.3   1 <1>  -0.2860 
  2 C        0.7970    -0.9620     0.8320 C.2   1 <1>   0.2420 
  3 C       -1.9690    -0.5320     1.4230 C.3   1 <1>   0.1310 
  4 N        0.5310    -2.1910     1.1030 N.2   1 <1>  -0.3380 
  5 N        2.0780    -0.7390     0.5100 N.pl3 1 <1>   0.3260 
  6 C       -3.1880     0.3580     1.2240 C.2   1 <1>   0.5690 
  7 N        1.6860    -2.8490     0.9660 N.2   1 <1>  -0.3380 
  8 C        2.7280     0.4710     0.1480 C.ar  1 <1>  -0.0230 
  9 C        2.5810    -1.9850     0.6210 C.2   1 <1>   0.0060 
 10 O       -3.6370     0.9000     2.2090 O.2   1 <1>  -0.5700 
 11 N       -3.7630     0.5190    -0.0170 N.am  1 <1>  -0.6600 
 12 C        3.2160     0.6530    -1.1410 C.ar  1 <1>  -0.1500 
 13 C        2.8840     1.4930     1.0780 C.ar  1 <1>  -0.1500 
 14 C        4.0400    -2.3270     0.3770 C.3   1 <1>  -0.0600 
 15 C       -3.2660    -0.1250    -1.2620 C.3   1 <1>   0.1400 
 16 C       -4.9410     1.4100    -0.1900 C.3   1 <1>   0.1400 
 17 C        3.8510     1.8310    -1.4890 C.ar  1 <1>  -0.1500 
 18 C        3.5180     2.6730     0.7310 C.ar  1 <1>  -0.1500 
 19 C       -4.0050    -1.4420    -1.4850 C.3   1 <1>  -0.2400 
 20 C       -4.4680     2.8110    -0.5720 C.3   1 <1>  -0.2400 
 21 C        4.0070     2.8470    -0.5600 C.ar  1 <1>   0.0830 
 22 O        4.6400     3.9680    -0.9860 O.3   1 <1>  -0.3620 
 23 C        4.8230     5.0740    -0.1340 C.3   1 <1>   0.1200 
 24 C        5.5480     6.1610    -0.9210 C.3   1 <1>  -0.2400 
 25 H       -1.8400    -0.7670     2.4620 H     1 <1>   0.0800 
 26 H       -2.0540    -1.4380     0.8550 H     1 <1>   0.0800 
 27 H        3.0970    -0.1220    -1.8780 H     1 <1>   0.1500 
 28 H        2.5060     1.3700     2.0790 H     1 <1>   0.1500 
 29 H        4.6730    -1.7150     0.9940 H     1 <1>   0.0800 
 30 H        4.2910    -2.1670    -0.6550 H     1 <1>   0.0800 
 31 H        4.2190    -3.3600     0.6190 H     1 <1>   0.0800 
 32 H       -2.2080    -0.3060    -1.1990 H     1 <1>   0.0800 
 33 H       -3.4310     0.5320    -2.0990 H     1 <1>   0.0800 
 34 H       -5.5020     1.4580     0.7290 H     1 <1>   0.0800 
 35 H       -5.5910     1.0160    -0.9520 H     1 <1>   0.0800 
 36 H        4.2300     1.9750    -2.4850 H     1 <1>   0.1500 
 37 H        3.6200     3.4410     1.4740 H     1 <1>   0.1500 
 38 H       -3.8420    -2.1110    -0.6590 H     1 <1>   0.0800 
 39 H       -3.6420    -1.9130    -2.3800 H     1 <1>   0.0800 
 40 H       -5.0600    -1.2680    -1.5970 H     1 <1>   0.0800 
 41 H       -3.8330     3.2050     0.2020 H     1 <1>   0.0800 
 42 H       -5.3160     3.4620    -0.6790 H     1 <1>   0.0800 
 43 H       -3.9290     2.7920    -1.5010 H     1 <1>   0.0800 
 44 H        5.4100     4.7600     0.7110 H     1 <1>   0.0800 
 45 H        3.8560     5.4200     0.1880 H     1 <1>   0.0800 
 46 H        6.5050     5.8000    -1.2530 H     1 <1>   0.0800 
 47 H        5.7030     7.0220    -0.2960 H     1 <1>   0.0800 
 48 H        4.9610     6.4550    -1.7720 H     1 <1>   0.0800 
@<TRIPOS>BOND
  1   1   2  1   
  2   1   3  1   
  3   2   4  2   
  4   2   5  1   
  5   3   6  1   
  6   3  25  1   
  7   3  26  1   
  8   4   7  1   
  9   5   8  1   
 10   5   9  1   
 11   6  10  2   
 12   6  11  am  
 13   7   9  2   
 14   8  12  ar  
 15   8  13  ar  
 16   9  14  1   
 17  11  15  1   
 18  11  16  1   
 19  12  17  ar  
 20  12  27  1   
 21  13  18  ar  
 22  13  28  1   
 23  14  29  1   
 24  14  30  1   
 25  14  31  1   
 26  15  19  1   
 27  15  32  1   
 28  15  33  1   
 29  16  20  1   
 30  16  34  1   
 31  16  35  1   
 32  17  21  ar  
 33  17  36  1   
 34  18  21  ar  
 35  18  37  1   
 36  19  38  1   
 37  19  39  1   
 38  19  40  1   
 39  20  41  1   
 40  20  42  1   
 41  20  43  1   
 42  21  22  1   
 43  22  23  1   
 44  23  24  1   
 45  23  44  1   
 46  23  45  1   
 47  24  46  1   
 48  24  47  1   
 49  24  48  1   
@<TRIPOS>SUBSTRUCTURE
  1 ****   1 GROUP 4 **** **** 0

# MOE 2024.06 (io_trps.svl 2023.06)
