@<TRIPOS>MOLECULE
NONAME
28 29 1 0 0 
SMALL
USER_CHARGES


@<TRIPOS>ATOM
  1 S       -0.0440    -0.2430    -1.6730 S.o2  1 <1>   1.4470 
  2 O       -0.5820    -1.3770    -2.3920 O.2   1 <1>  -0.6500 
  3 O        0.3050     0.9590    -2.4020 O.2   1 <1>  -0.6500 
  4 N       -1.2120     0.2050    -0.5300 N.am  1 <1>  -0.8490 
  5 C        1.3490    -0.7830    -0.6440 C.ar  1 <1>  -0.0090 
  6 C       -0.8550     1.4370     0.1930 C.3   1 <1>   0.1960 
  7 C       -2.5330     0.3750    -1.1530 C.3   1 <1>   0.1960 
  8 C        2.6000    -0.1830    -0.7450 C.ar  1 <1>  -0.1500 
  9 C        1.1940    -1.8100     0.2800 C.ar  1 <1>  -0.1500 
 10 C       -1.9490     1.8150     1.2090 C.3   1 <1>   0.1200 
 11 C       -3.5890     0.7910    -0.1130 C.3   1 <1>   0.1200 
 12 C        3.6570    -0.5890     0.0510 C.ar  1 <1>  -0.1500 
 13 C        2.2460    -2.2230     1.0800 C.ar  1 <1>  -0.1500 
 14 O       -3.1870     1.9460     0.5690 O.3   1 <1>  -0.5600 
 15 C        3.4800    -1.6110     0.9660 C.ar  1 <1>  -0.1500 
 16 H       -0.7280     2.2540    -0.4970 H     1 <1>   0.0800 
 17 H        0.0740     1.2940     0.7180 H     1 <1>   0.0800 
 18 H       -2.8400    -0.5510    -1.6080 H     1 <1>   0.0800 
 19 H       -2.4830     1.1250    -1.9270 H     1 <1>   0.0800 
 20 H        2.7490     0.6130    -1.4560 H     1 <1>   0.1500 
 21 H        0.2340    -2.2920     0.3710 H     1 <1>   0.1500 
 22 H       -1.7180     2.7570     1.6720 H     1 <1>   0.0800 
 23 H       -2.0330     1.0620     1.9720 H     1 <1>   0.0800 
 24 H       -3.7410     0.0030     0.6040 H     1 <1>   0.0800 
 25 H       -4.5250     1.0050    -0.5980 H     1 <1>   0.0800 
 26 H        4.6180    -0.1120    -0.0430 H     1 <1>   0.1500 
 27 H        2.1040    -3.0210     1.7880 H     1 <1>   0.1500 
 28 H        4.3010    -1.9300     1.5850 H     1 <1>   0.1500 
@<TRIPOS>BOND
  1   1   2  2   
  2   1   3  2   
  3   1   4  am  
  4   1   5  1   
  5   4   6  1   
  6   4   7  1   
  7   5   8  ar  
  8   5   9  ar  
  9   6  10  1   
 10   6  16  1   
 11   6  17  1   
 12   7  11  1   
 13   7  18  1   
 14   7  19  1   
 15   8  12  ar  
 16   8  20  1   
 17   9  13  ar  
 18   9  21  1   
 19  10  14  1   
 20  10  22  1   
 21  10  23  1   
 22  11  14  1   
 23  11  24  1   
 24  11  25  1   
 25  12  15  ar  
 26  12  26  1   
 27  13  15  ar  
 28  13  27  1   
 29  15  28  1   
@<TRIPOS>SUBSTRUCTURE
  1 ****   4 GROUP 4 **** **** 0

# MOE 2024.06 (io_trps.svl 2023.06)
