@<TRIPOS>MOLECULE
NONAME
32 33 1 0 0 
SMALL
USER_CHARGES


@<TRIPOS>ATOM
  1 O       -0.6590    -0.2810    -1.1590 O.2   1 <1>  -0.5770 
  2 C       -1.7750     0.0010    -0.8420 C.2   1 <1>   0.8480 
  3 N       -2.6660    -1.0030    -0.7390 N.pl3 1 <1>  -0.7350 
  4 C       -2.1420     1.4440    -0.5820 C.3   1 <1>  -0.1900 
  5 C       -3.9310    -1.0890    -0.3600 C.cat 1 <1>   1.0680 
  6 N       -4.6390    -0.1410     0.2300 N.pl3 1 <1>  -0.7060 
  7 N       -4.6590    -2.1910    -0.5150 N.pl3 1 <1>  -0.7690 
  8 C       -5.8980    -0.6390     0.4950 C.ar  1 <1>   0.2990 
  9 C       -5.9150    -1.9400     0.0260 C.ar  1 <1>   0.2990 
 10 C       -4.2880    -3.4760    -1.1580 C.3   1 <1>   0.3440 
 11 C       -7.0160    -0.0750     1.0990 C.ar  1 <1>  -0.1210 
 12 C       -7.0610    -2.7190     0.1550 C.ar  1 <1>  -0.1210 
 13 C       -3.7990    -4.4820    -0.1100 C.3   1 <1>  -0.1720 
 14 C       -8.1530    -0.8490     1.2240 C.ar  1 <1>  -0.1620 
 15 C       -8.1750    -2.1640     0.7540 C.ar  1 <1>  -0.1620 
 16 C       -2.5160    -4.0580     0.6230 C.3   1 <1>  -0.2510 
 17 H       -2.2270    -1.8850    -0.9690 H     1 <1>   0.4410 
 18 H       -2.9970     1.7260    -1.1660 H     1 <1>   0.0670 
 19 H       -1.3190     2.0750    -0.8660 H     1 <1>   0.0670 
 20 H       -2.3340     1.5950     0.4640 H     1 <1>   0.0670 
 21 H       -4.3230     0.7890     0.4890 H     1 <1>   0.4410 
 22 H       -3.5210    -3.3150    -1.8960 H     1 <1>   0.0670 
 23 H       -5.1470    -3.8790    -1.6680 H     1 <1>   0.0670 
 24 H       -6.9920     0.9380     1.4590 H     1 <1>   0.1380 
 25 H       -7.0770    -3.7320    -0.2040 H     1 <1>   0.1380 
 26 H       -3.6070    -5.4160    -0.6100 H     1 <1>   0.0670 
 27 H       -4.5810    -4.6630     0.6070 H     1 <1>   0.0670 
 28 H       -9.0380    -0.4410     1.6880 H     1 <1>   0.1380 
 29 H       -9.0760    -2.7460     0.8660 H     1 <1>   0.1380 
 30 H       -1.7180    -3.8690    -0.0730 H     1 <1>   0.0670 
 31 H       -2.2020    -4.8520     1.2790 H     1 <1>   0.0670 
 32 H       -2.6830    -3.1840     1.2270 H     1 <1>   0.0670 
@<TRIPOS>BOND
  1   1   2  2   
  2   2   3  1   
  3   2   4  1   
  4   3   5  ar  
  5   3  17  1   
  6   4  18  1   
  7   4  19  1   
  8   4  20  1   
  9   5   6  ar  
 10   5   7  ar  
 11   6   8  1   
 12   6  21  1   
 13   7   9  1   
 14   7  10  1   
 15   8   9  ar  
 16   8  11  ar  
 17   9  12  ar  
 18  10  13  1   
 19  10  22  1   
 20  10  23  1   
 21  11  14  ar  
 22  11  24  1   
 23  12  15  ar  
 24  12  25  1   
 25  13  16  1   
 26  13  26  1   
 27  13  27  1   
 28  14  15  ar  
 29  14  28  1   
 30  15  29  1   
 31  16  30  1   
 32  16  31  1   
 33  16  32  1   
@<TRIPOS>SUBSTRUCTURE
  1 ****   5 GROUP 4 **** **** 0

# MOE 2024.06 (io_trps.svl 2023.06)
