@<TRIPOS>MOLECULE
NONAME
45 47 1 0 0 
SMALL
USER_CHARGES


@<TRIPOS>ATOM
  1 S       -0.3420     0.0250     0.1620 S.3   1 <1>  -0.2860 
  2 C        1.2010     0.9200     0.3490 C.2   1 <1>   0.2420 
  3 C       -1.5560     1.1130     1.0610 C.3   1 <1>   0.1310 
  4 N        1.2950     2.0530     0.9470 N.2   1 <1>  -0.3380 
  5 N        2.3580     0.4680    -0.1210 N.pl3 1 <1>   0.0480 
  6 C       -2.9700     0.5600     0.9870 C.2   1 <1>   0.5690 
  7 N        2.5820     2.3900     0.8820 N.2   1 <1>  -0.3380 
  8 C        3.2140     1.4460     0.2380 C.2   1 <1>   0.1330 
  9 C        2.6300    -0.8140    -0.8050 C.3   1 <1>   0.0160 
 10 O       -3.7680     0.9110     1.8230 O.2   1 <1>  -0.5700 
 11 N       -3.3080    -0.2980    -0.0120 N.am  1 <1>  -0.7300 
 12 C        4.6290     1.4420    -0.0390 C.ar  1 <1>   0.0530 
 13 C       -4.6290    -0.9110    -0.2080 C.3   1 <1>   0.2200 
 14 C        5.1210     1.2760    -1.3370 C.ar  1 <1>  -0.1500 
 15 C        5.5470     1.6110     1.0000 C.ar  1 <1>  -0.1500 
 16 C       -4.4970    -2.4290    -0.0490 C.3   1 <1>  -0.1600 
 17 C       -5.1450    -0.5400    -1.6020 C.3   1 <1>  -0.1600 
 18 C        6.4810     1.2570    -1.5910 C.ar  1 <1>  -0.1500 
 19 C        6.9110     1.5950     0.7640 C.ar  1 <1>  -0.1500 
 20 C       -5.8270    -3.1370    -0.3510 C.3   1 <1>  -0.1600 
 21 C       -6.4760    -1.2440    -1.9060 C.3   1 <1>  -0.1600 
 22 C        7.3540     1.4140    -0.5310 C.ar  1 <1>   0.1900 
 23 C       -6.3490    -2.7650    -1.7450 C.3   1 <1>  -0.1600 
 24 F        8.6380     1.3940    -0.7630 F     1 <1>  -0.1900 
 25 H       -1.5120     2.0860     0.6080 H     1 <1>   0.0800 
 26 H       -1.2310     1.1740     2.0830 H     1 <1>   0.0800 
 27 H        1.9820    -1.5770    -0.4130 H     1 <1>   0.0800 
 28 H        3.6520    -1.1050    -0.6390 H     1 <1>   0.0800 
 29 H        2.4530    -0.7000    -1.8580 H     1 <1>   0.0800 
 30 H       -2.5830    -0.5970    -0.6670 H     1 <1>   0.3700 
 31 H       -5.3170    -0.5380     0.5340 H     1 <1>   0.0800 
 32 H        4.4300     1.1720    -2.1540 H     1 <1>   0.1500 
 33 H        5.1780     1.7590     2.0010 H     1 <1>   0.1500 
 34 H       -4.1960    -2.6540     0.9590 H     1 <1>   0.0800 
 35 H       -3.7440    -2.7990    -0.7220 H     1 <1>   0.0800 
 36 H       -4.4210    -0.8270    -2.3440 H     1 <1>   0.0800 
 37 H       -5.2870     0.5250    -1.6550 H     1 <1>   0.0800 
 38 H        6.8650     1.1280    -2.5870 H     1 <1>   0.1500 
 39 H        7.6180     1.7230     1.5640 H     1 <1>   0.1500 
 40 H       -6.5560    -2.8530     0.3890 H     1 <1>   0.0800 
 41 H       -5.6910    -4.2030    -0.2880 H     1 <1>   0.0800 
 42 H       -6.7860    -1.0110    -2.9110 H     1 <1>   0.0800 
 43 H       -7.2340    -0.8770    -1.2350 H     1 <1>   0.0800 
 44 H       -7.3090    -3.2250    -1.9040 H     1 <1>   0.0800 
 45 H       -5.6740    -3.1470    -2.4920 H     1 <1>   0.0800 
@<TRIPOS>BOND
  1   1   2  1   
  2   1   3  1   
  3   2   4  2   
  4   2   5  1   
  5   3   6  1   
  6   3  25  1   
  7   3  26  1   
  8   4   7  1   
  9   5   8  1   
 10   5   9  1   
 11   6  10  2   
 12   6  11  am  
 13   7   8  2   
 14   8  12  1   
 15   9  27  1   
 16   9  28  1   
 17   9  29  1   
 18  11  13  1   
 19  11  30  1   
 20  12  14  ar  
 21  12  15  ar  
 22  13  16  1   
 23  13  17  1   
 24  13  31  1   
 25  14  18  ar  
 26  14  32  1   
 27  15  19  ar  
 28  15  33  1   
 29  16  20  1   
 30  16  34  1   
 31  16  35  1   
 32  17  21  1   
 33  17  36  1   
 34  17  37  1   
 35  18  22  ar  
 36  18  38  1   
 37  19  22  ar  
 38  19  39  1   
 39  20  23  1   
 40  20  40  1   
 41  20  41  1   
 42  21  23  1   
 43  21  42  1   
 44  21  43  1   
 45  22  24  1   
 46  23  44  1   
 47  23  45  1   
@<TRIPOS>SUBSTRUCTURE
  1 ****   1 GROUP 4 **** **** 0

# MOE 2024.06 (io_trps.svl 2023.06)
