@<TRIPOS>MOLECULE
NONAME
44 45 1 0 0 
SMALL
USER_CHARGES


@<TRIPOS>ATOM
  1 O       -1.4300    -0.2570     0.0440 O.3   1 <1>  -0.5600 
  2 C       -2.4270     0.1570     0.9320 C.3   1 <1>   0.1200 
  3 C       -1.4110    -1.6290    -0.2250 C.3   1 <1>   0.1200 
  4 C       -3.8190    -0.2030     0.3790 C.3   1 <1>   0.3430 
  5 C       -2.7540    -2.0710    -0.8370 C.3   1 <1>   0.3430 
  6 N       -3.9160    -1.6670     0.0290 N.4   1 <1>  -0.9590 
  7 C       -5.2110    -2.0120    -0.6190 C.3   1 <1>   0.3430 
  8 C       -6.3490    -1.9010     0.3890 C.3   1 <1>  -0.1600 
  9 C       -7.6600    -2.3690    -0.2320 C.3   1 <1>   0.1200 
 10 O       -8.6450    -2.2390     0.7520 O.3   1 <1>  -0.3630 
 11 C       -9.8810    -2.6600     0.3780 C.ar  1 <1>   0.0830 
 12 C      -10.7800    -1.7490    -0.1780 C.ar  1 <1>   0.0830 
 13 C      -10.2430    -3.9930     0.5700 C.ar  1 <1>   0.0830 
 14 O      -10.3620    -0.4620    -0.3610 O.3   1 <1>  -0.3630 
 15 C      -12.0540    -2.1840    -0.5310 C.ar  1 <1>  -0.1500 
 16 O       -9.3150    -4.8430     1.1000 O.3   1 <1>  -0.3630 
 17 C      -11.5220    -4.4070     0.2100 C.ar  1 <1>  -0.1500 
 18 C      -11.2830     0.5660    -0.6520 C.3   1 <1>   0.0400 
 19 C      -12.4200    -3.5050    -0.3350 C.ar  1 <1>  -0.1500 
 20 C       -9.6950    -6.1030     1.6090 C.3   1 <1>   0.0400 
 21 H       -2.3390     1.2230     1.0490 H     1 <1>   0.0800 
 22 H       -2.2560    -0.3070     1.8890 H     1 <1>   0.0800 
 23 H       -1.2030    -2.1590     0.6880 H     1 <1>   0.0800 
 24 H       -0.6090    -1.8140    -0.9180 H     1 <1>   0.0800 
 25 H       -3.9990     0.3940    -0.5000 H     1 <1>   0.0800 
 26 H       -4.5670     0.0540     1.1120 H     1 <1>   0.0800 
 27 H       -2.7480    -3.1400    -0.9720 H     1 <1>   0.0800 
 28 H       -2.8480    -1.6140    -1.8080 H     1 <1>   0.0800 
 29 H       -3.8500    -2.1990     0.9070 H     1 <1>   0.4500 
 30 H       -5.1720    -3.0260    -0.9860 H     1 <1>   0.0800 
 31 H       -5.3950    -1.3570    -1.4560 H     1 <1>   0.0800 
 32 H       -6.4780    -0.8810     0.7030 H     1 <1>   0.0800 
 33 H       -6.1430    -2.5210     1.2450 H     1 <1>   0.0800 
 34 H       -7.6130    -3.4050    -0.5250 H     1 <1>   0.0800 
 35 H       -7.9450    -1.7590    -1.0730 H     1 <1>   0.0800 
 36 H      -12.7730    -1.5140    -0.9630 H     1 <1>   0.1500 
 37 H      -11.8360    -5.4250     0.3400 H     1 <1>   0.1500 
 38 H      -10.7550     1.5020    -0.6380 H     1 <1>   0.0800 
 39 H      -12.0510     0.5690     0.1010 H     1 <1>   0.0800 
 40 H      -11.7000     0.3970    -1.6290 H     1 <1>   0.0800 
 41 H      -13.4070    -3.8330    -0.6100 H     1 <1>   0.1500 
 42 H       -8.8380    -6.5420     2.0880 H     1 <1>   0.0800 
 43 H      -10.0170    -6.7280     0.7950 H     1 <1>   0.0800 
 44 H      -10.4840    -5.9650     2.3270 H     1 <1>   0.0800 
@<TRIPOS>BOND
  1   1   2  1   
  2   1   3  1   
  3   2   4  1   
  4   2  21  1   
  5   2  22  1   
  6   3   5  1   
  7   3  23  1   
  8   3  24  1   
  9   4   6  1   
 10   4  25  1   
 11   4  26  1   
 12   5   6  1   
 13   5  27  1   
 14   5  28  1   
 15   6   7  1   
 16   6  29  1   
 17   7   8  1   
 18   7  30  1   
 19   7  31  1   
 20   8   9  1   
 21   8  32  1   
 22   8  33  1   
 23   9  10  1   
 24   9  34  1   
 25   9  35  1   
 26  10  11  1   
 27  11  12  ar  
 28  11  13  ar  
 29  12  14  1   
 30  12  15  ar  
 31  13  16  1   
 32  13  17  ar  
 33  14  18  1   
 34  15  19  ar  
 35  15  36  1   
 36  16  20  1   
 37  17  19  ar  
 38  17  37  1   
 39  18  38  1   
 40  18  39  1   
 41  18  40  1   
 42  19  41  1   
 43  20  42  1   
 44  20  43  1   
 45  20  44  1   
@<TRIPOS>SUBSTRUCTURE
  1 ****   9 GROUP 4 **** **** 0

# MOE 2024.06 (io_trps.svl 2023.06)
