@<TRIPOS>MOLECULE
NONAME
36 36 1 0 0 
SMALL
USER_CHARGES


@<TRIPOS>ATOM
  1 O        0.5590     1.5180    -2.1440 O.2   1 <1>  -0.5700 
  2 C        0.3660     2.0840    -1.0930 C.2   1 <1>   0.4950 
  3 C        1.3940     2.3040    -0.1200 C.2   1 <1>   0.0290 
  4 C       -1.0640     2.5420    -0.8580 C.3   1 <1>  -0.0990 
  5 C        1.0540     3.0150     1.0820 C.2   1 <1>   0.4950 
  6 C        2.6670     1.8340    -0.3700 C.2   1 <1>  -0.0500 
  7 C       -1.1610     3.7620     0.0670 C.3   1 <1>   0.0000 
  8 O        1.8430     3.3090     1.9540 O.2   1 <1>  -0.5700 
  9 C       -0.3770     3.4540     1.3490 C.3   1 <1>  -0.0990 
 10 N        3.7400     1.9530     0.4480 N.pl3 1 <1>  -0.8690 
 11 C       -2.6340     4.0270     0.4160 C.3   1 <1>  -0.2400 
 12 C       -0.5950     5.0150    -0.6280 C.3   1 <1>  -0.2400 
 13 C        5.1190     1.4570     0.1780 C.3   1 <1>   0.2090 
 14 C        6.0950     2.6290     0.0020 C.3   1 <1>   0.2000 
 15 O        7.3570     2.1320    -0.2830 O.3   1 <1>  -0.6800 
 16 C        5.6860     3.5740    -1.1400 C.3   1 <1>   0.1200 
 17 O        6.7240     4.4630    -1.4320 O.3   1 <1>  -0.6800 
 18 H       -1.5160     2.7700    -1.8070 H     1 <1>   0.0800 
 19 H       -1.6040     1.7140    -0.4360 H     1 <1>   0.0800 
 20 H        2.8440     1.3180    -1.3040 H     1 <1>   0.1500 
 21 H       -0.8610     2.6680     1.9000 H     1 <1>   0.0800 
 22 H       -0.3620     4.3260     1.9800 H     1 <1>   0.0800 
 23 H        3.6080     2.4220     1.3650 H     1 <1>   0.4000 
 24 H       -3.0730     3.1760     0.9060 H     1 <1>   0.0800 
 25 H       -3.2030     4.2320    -0.4750 H     1 <1>   0.0800 
 26 H       -2.7210     4.8750     1.0720 H     1 <1>   0.0800 
 27 H       -1.1530     5.2330    -1.5220 H     1 <1>   0.0800 
 28 H        0.4370     4.8930    -0.9040 H     1 <1>   0.0800 
 29 H       -0.6640     5.8690     0.0230 H     1 <1>   0.0800 
 30 H        5.4390     0.8440     1.0020 H     1 <1>   0.0800 
 31 H        5.1140     0.8580    -0.7160 H     1 <1>   0.0800 
 32 H        6.1620     3.1770     0.9240 H     1 <1>   0.0800 
 33 H        7.8050     2.8030    -0.8460 H     1 <1>   0.4000 
 34 H        4.8080     4.1380    -0.8750 H     1 <1>   0.0800 
 35 H        5.4730     3.0070    -2.0300 H     1 <1>   0.0800 
 36 H        6.8040     5.1380    -0.7290 H     1 <1>   0.4000 
@<TRIPOS>BOND
  1   1   2  2   
  2   2   3  1   
  3   2   4  1   
  4   3   5  1   
  5   3   6  2   
  6   4   7  1   
  7   4  18  1   
  8   4  19  1   
  9   5   8  2   
 10   5   9  1   
 11   6  10  1   
 12   6  20  1   
 13   7   9  1   
 14   7  11  1   
 15   7  12  1   
 16   9  21  1   
 17   9  22  1   
 18  10  13  1   
 19  10  23  1   
 20  11  24  1   
 21  11  25  1   
 22  11  26  1   
 23  12  27  1   
 24  12  28  1   
 25  12  29  1   
 26  13  14  1   
 27  13  30  1   
 28  13  31  1   
 29  14  15  1   
 30  14  16  1   
 31  14  32  1   
 32  15  33  1   
 33  16  17  1   
 34  16  34  1   
 35  16  35  1   
 36  17  36  1   
@<TRIPOS>SUBSTRUCTURE
  1 ****   3 GROUP 4 **** **** 0

# MOE 2024.06 (io_trps.svl 2023.06)
