@<TRIPOS>MOLECULE
NONAME
46 49 1 0 0 
SMALL
USER_CHARGES


@<TRIPOS>ATOM
  1 O       -0.0640    -1.1810    -1.3470 O.2   1 <1>  -0.5700 
  2 C       -1.2020    -1.3350    -0.9820 C.2   1 <1>   0.5690 
  3 N       -1.8100    -0.4340    -0.1440 N.am  1 <1>  -0.6600 
  4 C       -1.9420    -2.5490    -1.4920 C.3   1 <1>  -0.1790 
  5 C       -1.0300     0.6910     0.4540 C.3   1 <1>   0.1400 
  6 C       -3.2680    -0.3950     0.1700 C.3   1 <1>   0.1400 
  7 C       -1.6440     2.0450     0.0610 C.3   1 <1>   0.3430 
  8 C       -3.8670     0.9800    -0.1950 C.3   1 <1>   0.3430 
  9 N       -3.1120     2.1400     0.4200 N.4   1 <1>  -0.9590 
 10 C       -3.7200     3.4820     0.1300 C.3   1 <1>   0.5030 
 11 C       -2.9400     4.5800     0.8930 C.3   1 <1>  -0.1600 
 12 C       -5.1850     3.5070     0.6260 C.3   1 <1>  -0.1600 
 13 C       -3.6970     3.8110    -1.3810 C.3   1 <1>  -0.1600 
 14 C       -3.5650     5.9660     0.6460 C.3   1 <1>  -0.0800 
 15 C       -5.8240     4.8860     0.3780 C.3   1 <1>  -0.0800 
 16 C       -4.3290     5.1950    -1.6340 C.3   1 <1>  -0.0800 
 17 C       -5.0230     5.9590     1.1350 C.3   1 <1>  -0.1600 
 18 C       -3.5370     6.2670    -0.8640 C.3   1 <1>  -0.1600 
 19 C       -5.7850     5.1920    -1.1300 C.3   1 <1>  -0.1600 
 20 H       -2.3880    -3.0820    -0.6730 H     1 <1>   0.0800 
 21 H       -1.2530    -3.2070    -1.9890 H     1 <1>   0.0800 
 22 H       -2.6970    -2.2520    -2.1940 H     1 <1>   0.0800 
 23 H       -0.0060     0.6650     0.1230 H     1 <1>   0.0800 
 24 H       -1.0220     0.5890     1.5250 H     1 <1>   0.0800 
 25 H       -3.4100    -0.5880     1.2190 H     1 <1>   0.0800 
 26 H       -3.7980    -1.1570    -0.3740 H     1 <1>   0.0800 
 27 H       -1.5180     2.1750    -1.0020 H     1 <1>   0.0800 
 28 H       -1.0870     2.8200     0.5560 H     1 <1>   0.0800 
 29 H       -4.8930     0.9930     0.1280 H     1 <1>   0.0800 
 30 H       -3.8590     1.0750    -1.2680 H     1 <1>   0.0800 
 31 H       -3.1740     2.0320     1.4380 H     1 <1>   0.4500 
 32 H       -1.9190     4.6340     0.5640 H     1 <1>   0.0800 
 33 H       -2.9480     4.3780     1.9490 H     1 <1>   0.0800 
 34 H       -5.2260     3.2890     1.6790 H     1 <1>   0.0800 
 35 H       -5.7860     2.7850     0.1060 H     1 <1>   0.0800 
 36 H       -2.6890     3.8280    -1.7530 H     1 <1>   0.0800 
 37 H       -4.2530     3.0800    -1.9390 H     1 <1>   0.0800 
 38 H       -3.0100     6.7220     1.1770 H     1 <1>   0.0800 
 39 H       -6.8450     4.8880     0.7220 H     1 <1>   0.0800 
 40 H       -4.3120     5.4200    -2.6880 H     1 <1>   0.0800 
 41 H       -5.0590     5.7700     2.1940 H     1 <1>   0.0800 
 42 H       -5.4660     6.9270     0.9680 H     1 <1>   0.0800 
 43 H       -2.5200     6.3000    -1.2160 H     1 <1>   0.0800 
 44 H       -3.9680     7.2370    -1.0470 H     1 <1>   0.0800 
 45 H       -6.2330     6.1540    -1.3150 H     1 <1>   0.0800 
 46 H       -6.3620     4.4630    -1.6720 H     1 <1>   0.0800 
@<TRIPOS>BOND
  1   1   2  2   
  2   2   3  am  
  3   2   4  1   
  4   3   5  1   
  5   3   6  1   
  6   4  20  1   
  7   4  21  1   
  8   4  22  1   
  9   5   7  1   
 10   5  23  1   
 11   5  24  1   
 12   6   8  1   
 13   6  25  1   
 14   6  26  1   
 15   7   9  1   
 16   7  27  1   
 17   7  28  1   
 18   8   9  1   
 19   8  29  1   
 20   8  30  1   
 21   9  10  1   
 22   9  31  1   
 23  10  11  1   
 24  10  12  1   
 25  10  13  1   
 26  11  14  1   
 27  11  32  1   
 28  11  33  1   
 29  12  15  1   
 30  12  34  1   
 31  12  35  1   
 32  13  16  1   
 33  13  36  1   
 34  13  37  1   
 35  14  17  1   
 36  14  18  1   
 37  14  38  1   
 38  15  17  1   
 39  15  19  1   
 40  15  39  1   
 41  16  18  1   
 42  16  19  1   
 43  16  40  1   
 44  17  41  1   
 45  17  42  1   
 46  18  43  1   
 47  18  44  1   
 48  19  45  1   
 49  19  46  1   
@<TRIPOS>SUBSTRUCTURE
  1 ****   9 GROUP 4 **** **** 0

# MOE 2024.06 (io_trps.svl 2023.06)
