@<TRIPOS>MOLECULE
NONAME
40 41 1 0 0 
SMALL
USER_CHARGES


@<TRIPOS>ATOM
  1 BR      -2.2030    -1.2250    -2.7340 Br    1 <1>  -0.1110 
  2 C       -1.2500    -2.2960    -1.4440 C.ar  1 <1>   0.1110 
  3 C       -1.8470    -2.6150    -0.2340 C.ar  1 <1>  -0.1440 
  4 C        0.0240    -2.7150    -1.7790 C.ar  1 <1>  -0.1500 
  5 C       -1.1150    -3.3860     0.6530 C.ar  1 <1>  -0.1500 
  6 C       -3.2480    -2.1420     0.1200 C.3   1 <1>  -0.0960 
  7 C        0.7610    -3.4890    -0.8900 C.ar  1 <1>  -0.0090 
  8 C        0.1640    -3.8190     0.3260 C.ar  1 <1>   0.0830 
  9 S        2.4310    -4.0470    -1.3150 S.o2  1 <1>   1.4470 
 10 O        0.8350    -4.5570     1.2320 O.3   1 <1>  -0.3630 
 11 O        2.4940    -5.4930    -1.2560 O.2   1 <1>  -0.6500 
 12 O        2.8450    -3.3990    -2.5430 O.2   1 <1>  -0.6500 
 13 N        3.4360    -3.4250    -0.1000 N.am  1 <1>  -0.8490 
 14 C        0.4960    -5.9230     1.3120 C.3   1 <1>   0.0400 
 15 C        4.7580    -4.0570    -0.1260 C.3   1 <1>   0.1960 
 16 C        3.5450    -1.9660    -0.1600 C.3   1 <1>   0.1960 
 17 C        5.6030    -3.6080     1.0780 C.3   1 <1>  -0.0800 
 18 C        4.3240    -1.4460     1.0510 C.3   1 <1>  -0.1600 
 19 C        5.7190    -2.0770     1.1260 C.3   1 <1>  -0.1600 
 20 C        6.9960    -4.2490     1.0400 C.3   1 <1>  -0.2400 
 21 H        0.4370    -2.4380    -2.7330 H     1 <1>   0.1500 
 22 H       -1.5250    -3.6560     1.6100 H     1 <1>   0.1500 
 23 H       -3.2860    -1.0670     0.1150 H     1 <1>   0.0800 
 24 H       -3.5360    -2.4870     1.0970 H     1 <1>   0.0800 
 25 H       -3.9560    -2.5180    -0.5960 H     1 <1>   0.0800 
 26 H        1.1520    -6.3890     2.0240 H     1 <1>   0.0800 
 27 H        0.6280    -6.3750     0.3440 H     1 <1>   0.0800 
 28 H       -0.5260    -6.0140     1.6340 H     1 <1>   0.0800 
 29 H        5.2610    -3.8100    -1.0470 H     1 <1>   0.0800 
 30 H        4.6450    -5.1280    -0.0830 H     1 <1>   0.0800 
 31 H        2.5610    -1.5280    -0.1550 H     1 <1>   0.0800 
 32 H        4.0420    -1.6700    -1.0700 H     1 <1>   0.0800 
 33 H        5.1020    -3.9450     1.9710 H     1 <1>   0.0800 
 34 H        3.7690    -1.6770     1.9440 H     1 <1>   0.0800 
 35 H        4.4130    -0.3760     0.9860 H     1 <1>   0.0800 
 36 H        6.3090    -1.7320     0.2940 H     1 <1>   0.0800 
 37 H        6.2080    -1.7720     2.0350 H     1 <1>   0.0800 
 38 H        7.5310    -3.9470     0.1560 H     1 <1>   0.0800 
 39 H        6.9130    -5.3210     1.0420 H     1 <1>   0.0800 
 40 H        7.5660    -3.9530     1.9040 H     1 <1>   0.0800 
@<TRIPOS>BOND
  1   1   2  1   
  2   2   3  ar  
  3   2   4  ar  
  4   3   5  ar  
  5   3   6  1   
  6   4   7  ar  
  7   4  21  1   
  8   5   8  ar  
  9   5  22  1   
 10   6  23  1   
 11   6  24  1   
 12   6  25  1   
 13   7   8  ar  
 14   7   9  1   
 15   8  10  1   
 16   9  11  2   
 17   9  12  2   
 18   9  13  am  
 19  10  14  1   
 20  13  15  1   
 21  13  16  1   
 22  14  26  1   
 23  14  27  1   
 24  14  28  1   
 25  15  17  1   
 26  15  29  1   
 27  15  30  1   
 28  16  18  1   
 29  16  31  1   
 30  16  32  1   
 31  17  19  1   
 32  17  20  1   
 33  17  33  1   
 34  18  19  1   
 35  18  34  1   
 36  18  35  1   
 37  19  36  1   
 38  19  37  1   
 39  20  38  1   
 40  20  39  1   
 41  20  40  1   
@<TRIPOS>SUBSTRUCTURE
  1 ****   7 GROUP 4 **** **** 0

# MOE 2024.06 (io_trps.svl 2023.06)
