@<TRIPOS>MOLECULE
NONAME
32 32 1 0 0 
SMALL
USER_CHARGES


@<TRIPOS>ATOM
  1 S        1.4540    -0.1420     1.4180 S.3   1 <1>  -0.4100 
  2 C        2.0430     0.9540     0.1040 C.3   1 <1>   0.0700 
  3 C        2.1760     2.3590     0.6920 C.3   1 <1>  -0.1600 
  4 C        2.6730     3.3560    -0.3640 C.3   1 <1>  -0.1600 
  5 C        2.8070     4.7610     0.2230 C.3   1 <1>   0.1200 
  6 O        3.2640     5.6190    -0.7940 O.3   1 <1>  -0.3630 
  7 C        3.4370     6.9110    -0.4380 C.ar  1 <1>   0.0830 
  8 C        2.3810     7.8100    -0.5740 C.ar  1 <1>  -0.1440 
  9 C        4.6720     7.3320     0.0510 C.ar  1 <1>  -0.1430 
 10 C        2.5620     9.1270    -0.1850 C.ar  1 <1>  -0.1500 
 11 C        1.0390     7.3770    -1.1470 C.3   1 <1>  -0.0970 
 12 C        4.8310     8.6530     0.4350 C.ar  1 <1>  -0.1500 
 13 C        5.8480     6.3730     0.1660 C.3   1 <1>  -0.0970 
 14 C        3.7800     9.5470     0.3210 C.ar  1 <1>  -0.1500 
 15 H        1.3750    -1.3500     0.7840 H     1 <1>   0.1800 
 16 H        1.3190     0.9210    -0.6910 H     1 <1>   0.0800 
 17 H        2.9890     0.5710    -0.2350 H     1 <1>   0.0800 
 18 H        2.8680     2.3310     1.5160 H     1 <1>   0.0800 
 19 H        1.2170     2.6760     1.0650 H     1 <1>   0.0800 
 20 H        1.9790     3.3870    -1.1850 H     1 <1>   0.0800 
 21 H        3.6340     3.0410    -0.7330 H     1 <1>   0.0800 
 22 H        3.5200     4.7780     1.0290 H     1 <1>   0.0800 
 23 H        1.8580     5.1250     0.5750 H     1 <1>   0.0800 
 24 H        1.7580     9.8350    -0.2750 H     1 <1>   0.1500 
 25 H        0.4660     6.8700    -0.3930 H     1 <1>   0.0800 
 26 H        1.1890     6.7120    -1.9790 H     1 <1>   0.0800 
 27 H        0.4800     8.2270    -1.4940 H     1 <1>   0.0800 
 28 H        5.7740     8.9960     0.8220 H     1 <1>   0.1500 
 29 H        5.7420     5.7670     1.0480 H     1 <1>   0.0800 
 30 H        6.7760     6.9120     0.2260 H     1 <1>   0.0800 
 31 H        5.8880     5.7310    -0.6960 H     1 <1>   0.0800 
 32 H        3.9120    10.5710     0.6220 H     1 <1>   0.1500 
@<TRIPOS>BOND
  1   1   2  1   
  2   1  15  1   
  3   2   3  1   
  4   2  16  1   
  5   2  17  1   
  6   3   4  1   
  7   3  18  1   
  8   3  19  1   
  9   4   5  1   
 10   4  20  1   
 11   4  21  1   
 12   5   6  1   
 13   5  22  1   
 14   5  23  1   
 15   6   7  1   
 16   7   8  ar  
 17   7   9  ar  
 18   8  10  ar  
 19   8  11  1   
 20   9  12  ar  
 21   9  13  1   
 22  10  14  ar  
 23  10  24  1   
 24  11  25  1   
 25  11  26  1   
 26  11  27  1   
 27  12  14  ar  
 28  12  28  1   
 29  13  29  1   
 30  13  30  1   
 31  13  31  1   
 32  14  32  1   
@<TRIPOS>SUBSTRUCTURE
  1 ****   6 GROUP 4 **** **** 0

# MOE 2024.06 (io_trps.svl 2023.06)
