@<TRIPOS>MOLECULE
NONAME
36 37 1 0 0 
SMALL
USER_CHARGES


@<TRIPOS>ATOM
  1 O       -1.4990    -0.1140    -1.2310 O.3   1 <1>  -0.3630 
  2 C       -1.9710     0.7890    -0.3240 C.ar  1 <1>   0.0830 
  3 C       -0.1950    -0.0610    -1.7650 C.3   1 <1>   0.0400 
  4 C       -1.3390     1.9640     0.1170 C.ar  1 <1>   0.0830 
  5 C       -3.2170     0.4700     0.1890 C.ar  1 <1>  -0.1500 
  6 O       -0.1300     2.3690    -0.3240 O.3   1 <1>  -0.5330 
  7 C       -1.9670     2.7740     1.0510 C.ar  1 <1>  -0.1500 
  8 C       -3.8510     1.2870     1.1130 C.ar  1 <1>  -0.1440 
  9 C       -3.2150     2.4400     1.5480 C.ar  1 <1>  -0.1500 
 10 C       -5.2280     0.9190     1.6290 C.3   1 <1>   0.4860 
 11 N       -6.2020     1.0510     0.5120 N.4   1 <1>  -0.9590 
 12 C       -6.3050     2.4610     0.0320 C.3   1 <1>   0.3430 
 13 C       -7.5290     0.4740     0.8680 C.3   1 <1>   0.3430 
 14 C       -7.2000     2.5180    -1.2060 C.3   1 <1>  -0.1600 
 15 C       -8.4440     0.4960    -0.3580 C.3   1 <1>  -0.1600 
 16 C       -8.5830     1.9090    -0.9400 C.3   1 <1>  -0.1600 
 17 H       -0.0500    -0.9270    -2.3850 H     1 <1>   0.0800 
 18 H        0.5140    -0.0670    -0.9570 H     1 <1>   0.0800 
 19 H       -0.0960     0.8310    -2.3560 H     1 <1>   0.0800 
 20 H       -3.6750    -0.4400    -0.1550 H     1 <1>   0.1500 
 21 H        0.1790     3.1940     0.0920 H     1 <1>   0.4500 
 22 H       -1.4860     3.6710     1.3980 H     1 <1>   0.1500 
 23 H       -3.6770     3.0890     2.2740 H     1 <1>   0.1500 
 24 H       -5.5040     1.5660     2.4460 H     1 <1>   0.0800 
 25 H       -5.2090    -0.0980     1.9880 H     1 <1>   0.0800 
 26 H       -5.8190     0.5100    -0.2730 H     1 <1>   0.4500 
 27 H       -5.3270     2.8410    -0.2190 H     1 <1>   0.0800 
 28 H       -6.7220     3.0830     0.8080 H     1 <1>   0.0800 
 29 H       -7.9780     1.0520     1.6600 H     1 <1>   0.0800 
 30 H       -7.4140    -0.5420     1.2100 H     1 <1>   0.0800 
 31 H       -6.7190     1.9990    -2.0170 H     1 <1>   0.0800 
 32 H       -7.3160     3.5450    -1.5090 H     1 <1>   0.0800 
 33 H       -9.4170     0.1310    -0.0770 H     1 <1>   0.0800 
 34 H       -8.0550    -0.1720    -1.1060 H     1 <1>   0.0800 
 35 H       -9.1500     1.8740    -1.8560 H     1 <1>   0.0800 
 36 H       -9.1230     2.5330    -0.2460 H     1 <1>   0.0800 
@<TRIPOS>BOND
  1   1   2  1   
  2   1   3  1   
  3   2   4  ar  
  4   2   5  ar  
  5   3  17  1   
  6   3  18  1   
  7   3  19  1   
  8   4   6  1   
  9   4   7  ar  
 10   5   8  ar  
 11   5  20  1   
 12   6  21  1   
 13   7   9  ar  
 14   7  22  1   
 15   8   9  ar  
 16   8  10  1   
 17   9  23  1   
 18  10  11  1   
 19  10  24  1   
 20  10  25  1   
 21  11  12  1   
 22  11  13  1   
 23  11  26  1   
 24  12  14  1   
 25  12  27  1   
 26  12  28  1   
 27  13  15  1   
 28  13  29  1   
 29  13  30  1   
 30  14  16  1   
 31  14  31  1   
 32  14  32  1   
 33  15  16  1   
 34  15  33  1   
 35  15  34  1   
 36  16  35  1   
 37  16  36  1   
@<TRIPOS>SUBSTRUCTURE
  1 ****   8 GROUP 4 **** **** 0

# MOE 2024.06 (io_trps.svl 2023.06)
