@<TRIPOS>MOLECULE
NONAME
48 50 1 0 0 
SMALL
USER_CHARGES


@<TRIPOS>ATOM
  1 O       -0.1640     0.5690     1.1450 O.2   1 <1>  -0.5700 
  2 C       -0.4710     1.7170     1.3730 C.2   1 <1>   0.5440 
  3 N        0.3200     2.3870     2.2410 N.am  1 <1>  -0.8000 
  4 C       -1.6230     2.3330     0.7360 C.ar  1 <1>   0.0860 
  5 C       -2.0760     1.8800    -0.5020 C.ar  1 <1>  -0.1500 
  6 C       -2.3260     3.3860     1.3230 C.ar  1 <1>  -0.1500 
  7 C       -3.1740     2.4430    -1.1260 C.ar  1 <1>  -0.1500 
  8 C       -3.4260     3.9550     0.7080 C.ar  1 <1>  -0.1500 
  9 C       -3.8640     3.4820    -0.5200 C.ar  1 <1>  -0.1430 
 10 C       -5.0870     4.0810    -1.1890 C.3   1 <1>   0.4860 
 11 N       -6.3020     3.5840    -0.4890 N.4   1 <1>  -0.9590 
 12 C       -6.4570     2.1050    -0.6290 C.3   1 <1>   0.3430 
 13 C       -7.5200     4.3190    -0.9300 C.3   1 <1>   0.3430 
 14 C       -7.6390     1.6270     0.2150 C.3   1 <1>  -0.1600 
 15 C       -8.7180     3.8800    -0.0910 C.3   1 <1>  -0.1600 
 16 C       -8.9390     2.3580    -0.1590 C.3   1 <1>  -0.0800 
 17 C      -10.1030     1.9040     0.7430 C.3   1 <1>  -0.0170 
 18 C      -11.4040     2.5960     0.3640 C.ar  1 <1>  -0.1430 
 19 C      -12.0890     2.2140    -0.7800 C.ar  1 <1>  -0.1500 
 20 C      -11.9130     3.6180     1.1510 C.ar  1 <1>  -0.1500 
 21 C      -13.2630     2.8530    -1.1380 C.ar  1 <1>  -0.1500 
 22 C      -13.0870     4.2580     0.7940 C.ar  1 <1>  -0.1500 
 23 C      -13.7620     3.8770    -0.3530 C.ar  1 <1>  -0.1500 
 24 H        1.1320     1.9010     2.6250 H     1 <1>   0.3700 
 25 H        0.2760     3.3920     2.4030 H     1 <1>   0.3700 
 26 H       -1.5490     1.0690    -0.9780 H     1 <1>   0.1500 
 27 H       -2.0080     3.7590     2.2810 H     1 <1>   0.1500 
 28 H       -3.4770     2.0570    -2.0860 H     1 <1>   0.1500 
 29 H       -3.9320     4.7700     1.2000 H     1 <1>   0.1500 
 30 H       -5.1140     3.8020    -2.2300 H     1 <1>   0.0800 
 31 H       -5.0350     5.1560    -1.1240 H     1 <1>   0.0800 
 32 H       -6.1620     3.7680     0.5120 H     1 <1>   0.4500 
 33 H       -5.5610     1.6030    -0.2980 H     1 <1>   0.0800 
 34 H       -6.6270     1.8500    -1.6630 H     1 <1>   0.0800 
 35 H       -7.7180     4.1100    -1.9700 H     1 <1>   0.0800 
 36 H       -7.3760     5.3820    -0.8180 H     1 <1>   0.0800 
 37 H       -7.4130     1.7740     1.2570 H     1 <1>   0.0800 
 38 H       -7.7660     0.5690     0.0610 H     1 <1>   0.0800 
 39 H       -9.5900     4.3890    -0.4640 H     1 <1>   0.0800 
 40 H       -8.5770     4.1930     0.9290 H     1 <1>   0.0800 
 41 H       -9.1920     2.1000    -1.1740 H     1 <1>   0.0800 
 42 H       -9.8740     2.1070     1.7740 H     1 <1>   0.0800 
 43 H      -10.2420     0.8400     0.6500 H     1 <1>   0.0800 
 44 H      -11.7150     1.4170    -1.3970 H     1 <1>   0.1500 
 45 H      -11.4030     3.9230     2.0470 H     1 <1>   0.1500 
 46 H      -13.7910     2.5530    -2.0270 H     1 <1>   0.1500 
 47 H      -13.4790     5.0500     1.4080 H     1 <1>   0.1500 
 48 H      -14.6750     4.3730    -0.6310 H     1 <1>   0.1500 
@<TRIPOS>BOND
  1   1   2  2   
  2   2   3  am  
  3   2   4  1   
  4   3  24  1   
  5   3  25  1   
  6   4   5  ar  
  7   4   6  ar  
  8   5   7  ar  
  9   5  26  1   
 10   6   8  ar  
 11   6  27  1   
 12   7   9  ar  
 13   7  28  1   
 14   8   9  ar  
 15   8  29  1   
 16   9  10  1   
 17  10  11  1   
 18  10  30  1   
 19  10  31  1   
 20  11  12  1   
 21  11  13  1   
 22  11  32  1   
 23  12  14  1   
 24  12  33  1   
 25  12  34  1   
 26  13  15  1   
 27  13  35  1   
 28  13  36  1   
 29  14  16  1   
 30  14  37  1   
 31  14  38  1   
 32  15  16  1   
 33  15  39  1   
 34  15  40  1   
 35  16  17  1   
 36  16  41  1   
 37  17  18  1   
 38  17  42  1   
 39  17  43  1   
 40  18  19  ar  
 41  18  20  ar  
 42  19  21  ar  
 43  19  44  1   
 44  20  22  ar  
 45  20  45  1   
 46  21  23  ar  
 47  21  46  1   
 48  22  23  ar  
 49  22  47  1   
 50  23  48  1   
@<TRIPOS>SUBSTRUCTURE
  1 ****  11 GROUP 4 **** **** 0

# MOE 2024.06 (io_trps.svl 2023.06)
