@<TRIPOS>MOLECULE
NONAME
30 30 1 0 0 
SMALL
USER_CHARGES


@<TRIPOS>ATOM
  1 CL      -0.3480    -0.2540    -0.0370 Cl    1 <1>  -0.1770 
  2 C       -0.0370     1.4630    -0.0220 C.ar  1 <1>   0.1770 
  3 C        1.2710     1.9100    -0.0190 C.ar  1 <1>  -0.1500 
  4 C       -1.1050     2.3420    -0.0140 C.ar  1 <1>  -0.1500 
  5 C        1.5160     3.2800    -0.0070 C.ar  1 <1>   0.0830 
  6 C       -0.8580     3.7040    -0.0020 C.ar  1 <1>  -0.1500 
  7 O        2.7590     3.8220    -0.0020 O.3   1 <1>  -0.3630 
  8 C        0.4480     4.1660     0.0020 C.ar  1 <1>  -0.1500 
  9 C        3.9120     3.0120    -0.0100 C.3   1 <1>   0.1200 
 10 C        5.1360     3.9290    -0.0020 C.3   1 <1>  -0.1600 
 11 C        6.4400     3.1200    -0.0100 C.3   1 <1>  -0.1600 
 12 C        7.6610     4.0480    -0.0020 C.3   1 <1>  -0.1600 
 13 C        8.9650     3.2480    -0.0100 C.3   1 <1>   0.0700 
 14 S       10.3720     4.4400     0.0010 S.3   1 <1>  -0.2660 
 15 C       11.8100     3.3530    -0.0100 C.1   1 <1>   0.5930 
 16 N       12.6970     2.6410    -0.0170 N.1   1 <1>  -0.5570 
 17 H        2.0600     1.1850    -0.0250 H     1 <1>   0.1500 
 18 H       -2.1110     1.9620    -0.0170 H     1 <1>   0.1500 
 19 H       -1.6770     4.4030     0.0050 H     1 <1>   0.1500 
 20 H        0.6490     5.2220     0.0110 H     1 <1>   0.1500 
 21 H        3.8950     2.4060    -0.8990 H     1 <1>   0.0800 
 22 H        3.8960     2.3900     0.8690 H     1 <1>   0.0800 
 23 H        5.1010     4.5480     0.8780 H     1 <1>   0.0800 
 24 H        5.1010     4.5630    -0.8710 H     1 <1>   0.0800 
 25 H        6.4690     2.4970    -0.8880 H     1 <1>   0.0800 
 26 H        6.4690     2.4810     0.8570 H     1 <1>   0.0800 
 27 H        7.6350     4.6710     0.8760 H     1 <1>   0.0800 
 28 H        7.6340     4.6860    -0.8690 H     1 <1>   0.0800 
 29 H        9.0590     2.6480    -0.8980 H     1 <1>   0.0800 
 30 H        9.0600     2.6320     0.8680 H     1 <1>   0.0800 
@<TRIPOS>BOND
  1   1   2  1   
  2   2   3  ar  
  3   2   4  ar  
  4   3   5  ar  
  5   3  17  1   
  6   4   6  ar  
  7   4  18  1   
  8   5   7  1   
  9   5   8  ar  
 10   6   8  ar  
 11   6  19  1   
 12   7   9  1   
 13   8  20  1   
 14   9  10  1   
 15   9  21  1   
 16   9  22  1   
 17  10  11  1   
 18  10  23  1   
 19  10  24  1   
 20  11  12  1   
 21  11  25  1   
 22  11  26  1   
 23  12  13  1   
 24  12  27  1   
 25  12  28  1   
 26  13  14  1   
 27  13  29  1   
 28  13  30  1   
 29  14  15  1   
 30  15  16  3   
@<TRIPOS>SUBSTRUCTURE
  1 ****   9 GROUP 4 **** **** 0

# MOE 2024.06 (io_trps.svl 2023.06)
