@<TRIPOS>MOLECULE
NONAME
46 47 1 0 0 
SMALL
USER_CHARGES


@<TRIPOS>ATOM
  1 F       -3.2490     1.9770     3.3180 F     1 <1>  -0.3400 
  2 C       -3.4860     1.4500     2.1270 C.3   1 <1>   1.1640 
  3 F       -2.7540     0.3480     2.0400 F     1 <1>  -0.3400 
  4 F       -4.7520     1.0400     2.1360 F     1 <1>  -0.3400 
  5 C       -3.2380     2.3930     0.9340 C.ar  1 <1>  -0.1440 
  6 C       -3.3590     1.9610    -0.3950 C.ar  1 <1>  -0.1440 
  7 C       -2.8890     3.7200     1.1730 C.ar  1 <1>  -0.1500 
  8 C       -3.1150     2.8510    -1.4330 C.ar  1 <1>  -0.1500 
  9 C       -3.7520     0.5370    -0.7830 C.3   1 <1>   0.4870 
 10 C       -2.6590     4.5970     0.1310 C.ar  1 <1>  -0.1500 
 11 C       -2.7690     4.1620    -1.1730 C.ar  1 <1>  -0.1500 
 12 N       -5.2120     0.3470    -0.5840 N.4   1 <1>  -0.9060 
 13 C       -6.0640     1.3490    -1.2610 C.3   1 <1>   0.4860 
 14 C       -7.4790     1.0410    -0.8370 C.ar  1 <1>  -0.1430 
 15 C       -8.0270     1.6480     0.2830 C.ar  1 <1>  -0.1500 
 16 C       -8.2320     0.1290    -1.5560 C.ar  1 <1>  -0.1500 
 17 C       -9.3250     1.3460     0.6850 C.ar  1 <1>   0.0830 
 18 C       -9.5200    -0.1990    -1.1700 C.ar  1 <1>   0.0830 
 19 O       -9.8940     1.9160     1.7870 O.3   1 <1>  -0.3630 
 20 C      -10.0820     0.4280    -0.0490 C.ar  1 <1>   0.0830 
 21 O      -10.1230    -1.1330    -1.9570 O.3   1 <1>  -0.3630 
 22 C       -9.1900     2.7880     2.6440 C.3   1 <1>   0.0400 
 23 O      -11.3570     0.1570     0.3420 O.3   1 <1>  -0.3630 
 24 C      -11.1170    -1.9980    -1.4470 C.3   1 <1>   0.0400 
 25 C      -12.3230     1.1250    -0.0020 C.3   1 <1>   0.0400 
 26 H       -2.7850     4.0970     2.1800 H     1 <1>   0.1500 
 27 H       -3.1830     2.5410    -2.4640 H     1 <1>   0.1500 
 28 H       -3.2000    -0.1760    -0.1910 H     1 <1>   0.0800 
 29 H       -3.5010     0.3680    -1.8180 H     1 <1>   0.0800 
 30 H       -2.3870     5.6200     0.3350 H     1 <1>   0.1500 
 31 H       -2.5800     4.8490    -1.9830 H     1 <1>   0.1500 
 32 H       -5.4390     0.3950     0.4190 H     1 <1>   0.4500 
 33 H       -5.5100    -0.5870    -0.8880 H     1 <1>   0.4500 
 34 H       -5.9690     1.2740    -2.3320 H     1 <1>   0.0800 
 35 H       -5.7980     2.3480    -0.9530 H     1 <1>   0.0800 
 36 H       -7.4420     2.3590     0.8370 H     1 <1>   0.1500 
 37 H       -7.8390    -0.3550    -2.4340 H     1 <1>   0.1500 
 38 H       -9.8500     3.0650     3.4470 H     1 <1>   0.0800 
 39 H       -8.9010     3.6650     2.0940 H     1 <1>   0.0800 
 40 H       -8.3330     2.2740     3.0410 H     1 <1>   0.0800 
 41 H      -11.2040    -2.8380    -2.1120 H     1 <1>   0.0800 
 42 H      -12.0520    -1.4690    -1.4080 H     1 <1>   0.0800 
 43 H      -10.8270    -2.3320    -0.4660 H     1 <1>   0.0800 
 44 H      -13.2850     0.7660     0.3150 H     1 <1>   0.0800 
 45 H      -12.3120     1.2630    -1.0690 H     1 <1>   0.0800 
 46 H      -12.0940     2.0480     0.4990 H     1 <1>   0.0800 
@<TRIPOS>BOND
  1   1   2  1   
  2   2   3  1   
  3   2   4  1   
  4   2   5  1   
  5   5   6  ar  
  6   5   7  ar  
  7   6   8  ar  
  8   6   9  1   
  9   7  10  ar  
 10   7  26  1   
 11   8  11  ar  
 12   8  27  1   
 13   9  12  1   
 14   9  28  1   
 15   9  29  1   
 16  10  11  ar  
 17  10  30  1   
 18  11  31  1   
 19  12  13  1   
 20  12  32  1   
 21  12  33  1   
 22  13  14  1   
 23  13  34  1   
 24  13  35  1   
 25  14  15  ar  
 26  14  16  ar  
 27  15  17  ar  
 28  15  36  1   
 29  16  18  ar  
 30  16  37  1   
 31  17  19  1   
 32  17  20  ar  
 33  18  20  ar  
 34  18  21  1   
 35  19  22  1   
 36  20  23  1   
 37  21  24  1   
 38  22  38  1   
 39  22  39  1   
 40  22  40  1   
 41  23  25  1   
 42  24  41  1   
 43  24  42  1   
 44  24  43  1   
 45  25  44  1   
 46  25  45  1   
 47  25  46  1   
@<TRIPOS>SUBSTRUCTURE
  1 ****  14 GROUP 4 **** **** 0

# MOE 2024.06 (io_trps.svl 2023.06)
