@<TRIPOS>MOLECULE
NONAME
38 39 1 0 0 
SMALL
USER_CHARGES


@<TRIPOS>ATOM
  1 CL       0.2640     0.6110     0.6790 Cl    1 <1>  -0.1770 
  2 C        1.8470     1.3540     0.6140 C.ar  1 <1>   0.1770 
  3 C        2.4520     1.6660    -0.5960 C.ar  1 <1>  -0.1440 
  4 C        2.4700     1.6170     1.8190 C.ar  1 <1>  -0.1500 
  5 C        3.7130     2.2590    -0.5590 C.ar  1 <1>  -0.1500 
  6 C        1.7380     1.3610    -1.9150 C.3   1 <1>   1.1640 
  7 C        3.7210     2.2040     1.8310 C.ar  1 <1>  -0.1500 
  8 C        4.3590     2.5380     0.6410 C.ar  1 <1>   0.1170 
  9 F        2.4600     1.7070    -2.9750 F     1 <1>  -0.3400 
 10 F        0.5880     2.0100    -2.0350 F     1 <1>  -0.3400 
 11 F        1.4700     0.0710    -2.0680 F     1 <1>  -0.3400 
 12 N        5.6300     3.1320     0.5910 N.am  1 <1>  -0.5470 
 13 C        6.3590     3.7930     1.5420 C.2   1 <1>   0.5690 
 14 O        5.9750     4.0000     2.6650 O.2   1 <1>  -0.5700 
 15 C        7.7300     4.3050     1.1420 C.3   1 <1>  -0.0990 
 16 C        8.7110     3.1630     0.8300 C.3   1 <1>  -0.1600 
 17 C       10.0620     3.7010     0.3490 C.3   1 <1>   0.1400 
 18 N       10.9080     2.5850    -0.1210 N.am  1 <1>  -0.4200 
 19 C       10.7370     1.9520    -1.3120 C.2   1 <1>   0.5690 
 20 C       11.9620     2.0740     0.5670 C.2   1 <1>   0.5690 
 21 O        9.8740     2.1910    -2.1180 O.2   1 <1>  -0.5700 
 22 C       11.7800     0.8750    -1.5010 C.3   1 <1>  -0.0990 
 23 O       12.3460     2.4420     1.6460 O.2   1 <1>  -0.5700 
 24 C       12.6160     0.9530    -0.2090 C.3   1 <1>  -0.0990 
 25 H        1.9780     1.3630     2.7420 H     1 <1>   0.1500 
 26 H        4.2130     2.5170    -1.4770 H     1 <1>   0.1500 
 27 H        4.1960     2.3970     2.7760 H     1 <1>   0.1500 
 28 H        6.0870     3.0780    -0.3180 H     1 <1>   0.3700 
 29 H        8.1200     4.9040     1.9470 H     1 <1>   0.0800 
 30 H        7.6160     4.9420     0.2840 H     1 <1>   0.0800 
 31 H        8.2890     2.5340     0.0660 H     1 <1>   0.0800 
 32 H        8.8590     2.5690     1.7170 H     1 <1>   0.0800 
 33 H       10.5600     4.2240     1.1490 H     1 <1>   0.0800 
 34 H        9.9170     4.3890    -0.4670 H     1 <1>   0.0800 
 35 H       12.3740     1.0900    -2.3710 H     1 <1>   0.0800 
 36 H       11.3020    -0.0830    -1.6070 H     1 <1>   0.0800 
 37 H       12.5620     0.0400     0.3550 H     1 <1>   0.0800 
 38 H       13.6410     1.2010    -0.4140 H     1 <1>   0.0800 
@<TRIPOS>BOND
  1   1   2  1   
  2   2   3  ar  
  3   2   4  ar  
  4   3   5  ar  
  5   3   6  1   
  6   4   7  ar  
  7   4  25  1   
  8   5   8  ar  
  9   5  26  1   
 10   6   9  1   
 11   6  10  1   
 12   6  11  1   
 13   7   8  ar  
 14   7  27  1   
 15   8  12  1   
 16  12  13  am  
 17  12  28  1   
 18  13  14  2   
 19  13  15  1   
 20  15  16  1   
 21  15  29  1   
 22  15  30  1   
 23  16  17  1   
 24  16  31  1   
 25  16  32  1   
 26  17  18  1   
 27  17  33  1   
 28  17  34  1   
 29  18  19  am  
 30  18  20  am  
 31  19  21  2   
 32  19  22  1   
 33  20  23  2   
 34  20  24  1   
 35  22  24  1   
 36  22  35  1   
 37  22  36  1   
 38  24  37  1   
 39  24  38  1   
@<TRIPOS>SUBSTRUCTURE
  1 ****  12 GROUP 4 **** **** 0

# MOE 2024.06 (io_trps.svl 2023.06)
