@<TRIPOS>MOLECULE
NONAME
36 36 1 0 0 
SMALL
USER_CHARGES


@<TRIPOS>ATOM
  1 BR      -0.0860    -0.6040     2.0000 Br    1 <1>  -0.1110 
  2 C       -1.6880    -1.1390     1.0810 C.ar  1 <1>   0.1110 
  3 C       -2.0940    -0.4190    -0.0250 C.ar  1 <1>  -0.1500 
  4 C       -2.3920    -2.2310     1.5480 C.ar  1 <1>  -0.1500 
  5 C       -3.2500    -0.8050    -0.6820 C.ar  1 <1>  -0.1500 
  6 C       -3.5460    -2.6110     0.8850 C.ar  1 <1>  -0.1500 
  7 C       -3.9840    -1.8960    -0.2250 C.ar  1 <1>  -0.1430 
  8 C       -5.2600    -2.3030    -0.9370 C.3   1 <1>   0.4870 
  9 N       -6.4230    -1.8710    -0.0950 N.4   1 <1>  -0.9590 
 10 C       -7.6950    -2.5510    -0.5410 C.3   1 <1>   0.3430 
 11 C       -6.5080    -0.3680    -0.0830 C.3   1 <1>   0.2630 
 12 C       -8.9120    -2.3290     0.4070 C.3   1 <1>   0.3430 
 13 N      -10.1920    -2.9990    -0.0380 N.4   1 <1>  -0.9590 
 14 C      -11.3340    -2.5680     0.8390 C.3   1 <1>   0.2630 
 15 C      -10.1230    -4.5010    -0.0300 C.3   1 <1>   0.2630 
 16 H       -1.5110     0.4220    -0.3620 H     1 <1>   0.1500 
 17 H       -2.0340    -2.7700     2.4090 H     1 <1>   0.1500 
 18 H       -3.5580    -0.2460    -1.5500 H     1 <1>   0.1500 
 19 H       -4.0820    -3.4720     1.2470 H     1 <1>   0.1500 
 20 H       -5.2600    -3.3740    -1.0610 H     1 <1>   0.0800 
 21 H       -5.3030    -1.8450    -1.9120 H     1 <1>   0.0800 
 22 H       -6.1580    -2.1670     0.8580 H     1 <1>   0.4500 
 23 H       -7.5120    -3.6110    -0.6110 H     1 <1>   0.0800 
 24 H       -7.9540    -2.1930    -1.5240 H     1 <1>   0.0800 
 25 H       -6.7030     0.0100    -1.0740 H     1 <1>   0.0800 
 26 H       -5.5770     0.0560     0.2630 H     1 <1>   0.0800 
 27 H       -7.2900    -0.0320     0.5770 H     1 <1>   0.0800 
 28 H       -9.0910    -1.2690     0.4820 H     1 <1>   0.0800 
 29 H       -8.6560    -2.6910     1.3900 H     1 <1>   0.0800 
 30 H      -10.4390    -2.6970    -0.9970 H     1 <1>   0.4500 
 31 H      -11.1630    -2.8690     1.8600 H     1 <1>   0.0800 
 32 H      -12.2560    -3.0160     0.5020 H     1 <1>   0.0800 
 33 H      -11.4510    -1.4960     0.8110 H     1 <1>   0.0800 
 34 H       -9.9000    -4.8650     0.9600 H     1 <1>   0.0800 
 35 H       -9.3660    -4.8560    -0.7100 H     1 <1>   0.0800 
 36 H      -11.0700    -4.9190    -0.3370 H     1 <1>   0.0800 
@<TRIPOS>BOND
  1   1   2  1   
  2   2   3  ar  
  3   2   4  ar  
  4   3   5  ar  
  5   3  16  1   
  6   4   6  ar  
  7   4  17  1   
  8   5   7  ar  
  9   5  18  1   
 10   6   7  ar  
 11   6  19  1   
 12   7   8  1   
 13   8   9  1   
 14   8  20  1   
 15   8  21  1   
 16   9  10  1   
 17   9  11  1   
 18   9  22  1   
 19  10  12  1   
 20  10  23  1   
 21  10  24  1   
 22  11  25  1   
 23  11  26  1   
 24  11  27  1   
 25  12  13  1   
 26  12  28  1   
 27  12  29  1   
 28  13  14  1   
 29  13  15  1   
 30  13  30  1   
 31  14  31  1   
 32  14  32  1   
 33  14  33  1   
 34  15  34  1   
 35  15  35  1   
 36  15  36  1   
@<TRIPOS>SUBSTRUCTURE
  1 ****   9 GROUP 4 **** **** 0

# MOE 2024.06 (io_trps.svl 2023.06)
