@<TRIPOS>MOLECULE
NONAME
49 50 1 0 0 
SMALL
USER_CHARGES


@<TRIPOS>ATOM
  1 O        0.7180     2.5500     2.3200 O.2   1 <1>  -0.5700 
  2 C        0.5770     3.0460     1.2260 C.2   1 <1>   0.5690 
  3 N        1.0440     2.4710     0.0770 N.am  1 <1>  -0.5470 
  4 C       -0.1430     4.3970     1.1110 C.3   1 <1>   0.2610 
  5 C        1.8280     1.3220    -0.1400 C.ar  1 <1>   0.1170 
  6 O       -0.9660     4.4270    -0.0470 O.3   1 <1>  -0.3630 
  7 C        0.8340     5.5800     0.9820 C.3   1 <1>  -0.1600 
  8 C        2.7030     1.2850    -1.2360 C.ar  1 <1>   0.1170 
  9 C        1.7440     0.2110     0.6900 C.ar  1 <1>  -0.1500 
 10 C       -2.0880     3.6700    -0.1610 C.ar  1 <1>   0.0820 
 11 C        1.7490     5.7410     2.2050 C.3   1 <1>  -0.2400 
 12 N        2.8430     2.3900    -2.0940 N.am  1 <1>  -0.5470 
 13 C        3.4510     0.1430    -1.4810 C.ar  1 <1>  -0.1500 
 14 C        2.5010    -0.9210     0.4410 C.ar  1 <1>  -0.1500 
 15 C       -2.7670     3.7530    -1.3660 C.ar  1 <1>  -0.1500 
 16 C       -2.5750     2.8350     0.8430 C.ar  1 <1>  -0.1500 
 17 C        3.4320     3.5870    -1.8440 C.2   1 <1>   0.5690 
 18 C        3.3540    -0.9570    -0.6470 C.ar  1 <1>  -0.1500 
 19 C       -3.9160     3.0120    -1.5770 C.ar  1 <1>  -0.1500 
 20 C       -3.7250     2.0950     0.6290 C.ar  1 <1>  -0.1500 
 21 O        3.3420     4.4680    -2.6610 O.2   1 <1>  -0.5700 
 22 C        4.2060     3.8020    -0.5460 C.3   1 <1>  -0.0990 
 23 C       -4.3960     2.1820    -0.5790 C.ar  1 <1>  -0.1500 
 24 C        4.7570     5.2280    -0.3660 C.3   1 <1>  -0.1600 
 25 C        5.5230     5.3690     0.9540 C.3   1 <1>  -0.2400 
 26 H        0.8340     3.0050    -0.7700 H     1 <1>   0.3700 
 27 H       -0.7700     4.5480     1.9710 H     1 <1>   0.0800 
 28 H        0.2630     6.4840     0.8610 H     1 <1>   0.0800 
 29 H        1.4410     5.4460     0.1040 H     1 <1>   0.0800 
 30 H        1.0790     0.2240     1.5350 H     1 <1>   0.1500 
 31 H        1.1650     5.8850     3.0970 H     1 <1>   0.0800 
 32 H        2.3890     6.5960     2.0740 H     1 <1>   0.0800 
 33 H        2.3710     4.8720     2.3380 H     1 <1>   0.0800 
 34 H        2.4630     2.3060    -3.0380 H     1 <1>   0.3700 
 35 H        4.1170     0.1150    -2.3250 H     1 <1>   0.1500 
 36 H        2.4230    -1.7720     1.0960 H     1 <1>   0.1500 
 37 H       -2.3910     4.4000    -2.1370 H     1 <1>   0.1500 
 38 H       -2.0820     2.7410     1.7930 H     1 <1>   0.1500 
 39 H        3.9410    -1.8380    -0.8420 H     1 <1>   0.1500 
 40 H       -4.4370     3.0820    -2.5160 H     1 <1>   0.1500 
 41 H       -4.0990     1.4490     1.4040 H     1 <1>   0.1500 
 42 H        5.0220     3.1040    -0.5290 H     1 <1>   0.0800 
 43 H        3.5630     3.5750     0.2830 H     1 <1>   0.0800 
 44 H       -5.2890     1.6050    -0.7420 H     1 <1>   0.1500 
 45 H        3.9430     5.9330    -0.3850 H     1 <1>   0.0800 
 46 H        5.4150     5.4630    -1.1860 H     1 <1>   0.0800 
 47 H        4.8810     5.1520     1.7890 H     1 <1>   0.0800 
 48 H        5.8910     6.3740     1.0580 H     1 <1>   0.0800 
 49 H        6.3610     4.6950     0.9770 H     1 <1>   0.0800 
@<TRIPOS>BOND
  1   1   2  2   
  2   2   3  am  
  3   2   4  1   
  4   3   5  1   
  5   3  26  1   
  6   4   6  1   
  7   4   7  1   
  8   4  27  1   
  9   5   8  ar  
 10   5   9  ar  
 11   6  10  1   
 12   7  11  1   
 13   7  28  1   
 14   7  29  1   
 15   8  12  1   
 16   8  13  ar  
 17   9  14  ar  
 18   9  30  1   
 19  10  15  ar  
 20  10  16  ar  
 21  11  31  1   
 22  11  32  1   
 23  11  33  1   
 24  12  17  am  
 25  12  34  1   
 26  13  18  ar  
 27  13  35  1   
 28  14  18  ar  
 29  14  36  1   
 30  15  19  ar  
 31  15  37  1   
 32  16  20  ar  
 33  16  38  1   
 34  17  21  2   
 35  17  22  1   
 36  18  39  1   
 37  19  23  ar  
 38  19  40  1   
 39  20  23  ar  
 40  20  41  1   
 41  22  24  1   
 42  22  42  1   
 43  22  43  1   
 44  23  44  1   
 45  24  25  1   
 46  24  45  1   
 47  24  46  1   
 48  25  47  1   
 49  25  48  1   
 50  25  49  1   
@<TRIPOS>SUBSTRUCTURE
  1 ****   3 GROUP 4 **** **** 0

# MOE 2024.06 (io_trps.svl 2023.06)
