@<TRIPOS>MOLECULE
NONAME
36 36 1 0 0 
SMALL
USER_CHARGES


@<TRIPOS>ATOM
  1 S       -2.3560     2.0470    -2.2390 S.3   1 <1>  -0.3710 
  2 C       -1.1070     2.9020    -1.3120 C.2   1 <1>   0.6510 
  3 C       -3.7850     1.9500    -1.0270 C.3   1 <1>   0.0700 
  4 N       -1.4030     3.1260    -0.1050 N.2   1 <1>  -0.6210 
  5 N       -0.0030     3.3530    -1.9450 N.am  1 <1>  -0.4900 
  6 C       -4.3320     3.3520    -0.6390 C.3   1 <1>   0.3430 
  7 C       -0.7160     4.0790     0.5560 C.2   1 <1>   0.0210 
  8 C        0.8350     4.1960    -1.2670 C.2   1 <1>   0.6160 
  9 N       -3.8970     3.8770     0.7050 N.4   1 <1>  -0.9590 
 10 O       -1.3000     4.4580     1.5760 O.3   1 <1>  -0.8500 
 11 C        0.4650     4.6020     0.0230 C.2   1 <1>  -0.1240 
 12 O        1.8430     4.5470    -1.8980 O.2   1 <1>  -0.5700 
 13 C       -4.2380     3.0610     1.8940 C.3   1 <1>   0.2630 
 14 C       -4.1640     5.3190     0.9150 C.3   1 <1>   0.2630 
 15 C        1.2800     5.6060     0.8420 C.3   1 <1>   0.0580 
 16 C        1.3380     6.9760     0.1570 C.3   1 <1>  -0.2400 
 17 C        2.6890     5.0800     1.1420 C.3   1 <1>  -0.2400 
 18 H       -3.4430     1.3970    -0.1710 H     1 <1>   0.0800 
 19 H       -4.5480     1.3880    -1.5330 H     1 <1>   0.0800 
 20 H        0.2150     3.1290    -2.9060 H     1 <1>   0.3700 
 21 H       -5.4080     3.3080    -0.6490 H     1 <1>   0.0800 
 22 H       -4.0280     4.0480    -1.4020 H     1 <1>   0.0800 
 23 H       -2.8220     3.8650     0.7280 H     1 <1>   0.4500 
 24 H       -5.3040     3.0350     2.0450 H     1 <1>   0.0800 
 25 H       -3.7620     3.4850     2.7640 H     1 <1>   0.0800 
 26 H       -3.8660     2.0580     1.7720 H     1 <1>   0.0800 
 27 H       -3.7740     5.8860     0.0860 H     1 <1>   0.0800 
 28 H       -3.6540     5.6470     1.8070 H     1 <1>   0.0800 
 29 H       -5.2200     5.5020     1.0150 H     1 <1>   0.0800 
 30 H        0.7860     5.7430     1.7900 H     1 <1>   0.0800 
 31 H        1.8710     6.9170    -0.7740 H     1 <1>   0.0800 
 32 H        1.8320     7.6870     0.7940 H     1 <1>   0.0800 
 33 H        0.3390     7.3230    -0.0360 H     1 <1>   0.0800 
 34 H        3.2610     4.9780     0.2380 H     1 <1>   0.0800 
 35 H        2.6180     4.1190     1.6190 H     1 <1>   0.0800 
 36 H        3.2020     5.7540     1.8030 H     1 <1>   0.0800 
@<TRIPOS>BOND
  1   1   2  1   
  2   1   3  1   
  3   2   4  2   
  4   2   5  1   
  5   3   6  1   
  6   3  18  1   
  7   3  19  1   
  8   4   7  1   
  9   5   8  am  
 10   5  20  1   
 11   6   9  1   
 12   6  21  1   
 13   6  22  1   
 14   7  10  1   
 15   7  11  2   
 16   8  11  1   
 17   8  12  2   
 18   9  13  1   
 19   9  14  1   
 20   9  23  1   
 21  11  15  1   
 22  13  24  1   
 23  13  25  1   
 24  13  26  1   
 25  14  27  1   
 26  14  28  1   
 27  14  29  1   
 28  15  16  1   
 29  15  17  1   
 30  15  30  1   
 31  16  31  1   
 32  16  32  1   
 33  16  33  1   
 34  17  34  1   
 35  17  35  1   
 36  17  36  1   
@<TRIPOS>SUBSTRUCTURE
  1 ****   7 GROUP 4 **** **** 0

# MOE 2024.06 (io_trps.svl 2023.06)
