@<TRIPOS>MOLECULE
NONAME
33 34 1 0 0 
SMALL
USER_CHARGES


@<TRIPOS>ATOM
  1 BR       0.7200    -0.7170     2.2140 Br    1 <1>  -0.1110 
  2 C        0.0600    -2.0840     1.0210 C.ar  1 <1>   0.1110 
  3 C        0.9590    -2.8220     0.2610 C.ar  1 <1>   0.0820 
  4 C       -1.3060    -2.2860     0.9620 C.ar  1 <1>  -0.1500 
  5 O        2.2850    -2.5530     0.3890 O.3   1 <1>  -0.3630 
  6 C        0.4470    -3.7990    -0.5910 C.ar  1 <1>  -0.1500 
  7 C       -1.7970    -3.2610     0.1110 C.ar  1 <1>  -0.1500 
  8 C        3.2600    -3.2560    -0.3540 C.3   1 <1>   0.1200 
  9 C       -0.9220    -4.0120    -0.6610 C.ar  1 <1>  -0.1500 
 10 C        4.6480    -2.7080     0.0020 C.3   1 <1>   0.2000 
 11 O        4.6450    -1.3390    -0.2150 O.3   1 <1>  -0.6800 
 12 C        5.7550    -3.3550    -0.8390 C.3   1 <1>   0.0960 
 13 N        7.0960    -3.0450    -0.2980 N.pl3 1 <1>   0.0480 
 14 C        7.8710    -3.7860     0.5340 C.2   1 <1>   0.0060 
 15 C        7.8290    -1.9480    -0.5570 C.2   1 <1>  -0.3020 
 16 N        9.0110    -3.2430     0.8050 N.2   1 <1>  -0.5650 
 17 C        7.4560    -5.1280     1.1040 C.3   1 <1>  -0.0600 
 18 C        8.9870    -2.0850     0.1210 C.2   1 <1>   0.0770 
 19 H       -1.9670    -1.6930     1.5680 H     1 <1>   0.1500 
 20 H        1.0890    -4.4000    -1.2050 H     1 <1>   0.1500 
 21 H       -2.8580    -3.4360     0.0480 H     1 <1>   0.1500 
 22 H        3.0600    -3.1170    -1.4020 H     1 <1>   0.0800 
 23 H        3.1920    -4.2990    -0.1000 H     1 <1>   0.0800 
 24 H       -1.3130    -4.7680    -1.3210 H     1 <1>   0.1500 
 25 H        4.8380    -2.8830     1.0480 H     1 <1>   0.0800 
 26 H        3.8720    -0.9480     0.2460 H     1 <1>   0.4000 
 27 H        5.6950    -3.0070    -1.8540 H     1 <1>   0.0800 
 28 H        5.6320    -4.4220    -0.8410 H     1 <1>   0.0800 
 29 H        7.4880    -1.1480    -1.1870 H     1 <1>   0.1500 
 30 H        6.5420    -5.0290     1.6590 H     1 <1>   0.0800 
 31 H        8.2220    -5.4900     1.7670 H     1 <1>   0.0800 
 32 H        7.3260    -5.8420     0.3120 H     1 <1>   0.0800 
 33 H        9.8170    -1.3990     0.1560 H     1 <1>   0.1500 
@<TRIPOS>BOND
  1   1   2  1   
  2   2   3  ar  
  3   2   4  ar  
  4   3   5  1   
  5   3   6  ar  
  6   4   7  ar  
  7   4  19  1   
  8   5   8  1   
  9   6   9  ar  
 10   6  20  1   
 11   7   9  ar  
 12   7  21  1   
 13   8  10  1   
 14   8  22  1   
 15   8  23  1   
 16   9  24  1   
 17  10  11  1   
 18  10  12  1   
 19  10  25  1   
 20  11  26  1   
 21  12  13  1   
 22  12  27  1   
 23  12  28  1   
 24  13  14  1   
 25  13  15  1   
 26  14  16  2   
 27  14  17  1   
 28  15  18  2   
 29  15  29  1   
 30  16  18  1   
 31  17  30  1   
 32  17  31  1   
 33  17  32  1   
 34  18  33  1   
@<TRIPOS>SUBSTRUCTURE
  1 ****   8 GROUP 4 **** **** 0

# MOE 2024.06 (io_trps.svl 2023.06)
