@<TRIPOS>MOLECULE
NONAME
41 42 1 0 0 
SMALL
USER_CHARGES


@<TRIPOS>ATOM
  1 O       -0.2300    -0.2310    -0.4920 O.2   1 <1>  -0.5700 
  2 C       -0.1010    -1.4010    -0.1870 C.2   1 <1>   0.5440 
  3 N        1.1660    -1.9040     0.0070 N.am  1 <1>  -0.5470 
  4 C       -1.2850    -2.2320    -0.0290 C.ar  1 <1>   0.0860 
  5 C        2.4380    -1.3120    -0.0100 C.ar  1 <1>   0.1170 
  6 C       -1.2750    -3.6400    -0.0280 C.ar  1 <1>   0.3920 
  7 C       -2.5270    -1.6240     0.1320 C.ar  1 <1>  -0.1500 
  8 C        3.5420    -2.1220    -0.2450 C.ar  1 <1>  -0.1500 
  9 C        2.6560     0.0420     0.2160 C.ar  1 <1>  -0.1500 
 10 O       -0.0990    -4.2840    -0.1930 O.3   1 <1>  -0.3630 
 11 N       -2.3510    -4.4120     0.1230 N.ar  1 <1>  -0.6200 
 12 C       -3.6430    -2.4130     0.2860 C.ar  1 <1>  -0.1500 
 13 C        4.8220    -1.5980    -0.2580 C.ar  1 <1>  -0.1500 
 14 C        3.9350     0.5680     0.2020 C.ar  1 <1>  -0.1500 
 15 C       -0.0020    -5.6930    -0.2320 C.3   1 <1>   0.1200 
 16 C       -3.5020    -3.7870     0.2750 C.ar  1 <1>   0.1600 
 17 C        5.0340    -0.2450    -0.0350 C.ar  1 <1>  -0.1430 
 18 C        1.4680    -6.0580    -0.4190 C.3   1 <1>  -0.2400 
 19 C        6.4520     0.3210    -0.0550 C.3   1 <1>   0.0630 
 20 C        6.8200     0.9230     1.3040 C.3   1 <1>  -0.2400 
 21 C        6.6110     1.3590    -1.1710 C.3   1 <1>  -0.2400 
 22 H        1.1790    -2.9230     0.0960 H     1 <1>   0.3700 
 23 H       -2.6130    -0.5500     0.1370 H     1 <1>   0.1500 
 24 H        3.4010    -3.1710    -0.4220 H     1 <1>   0.1500 
 25 H        1.8240     0.6940     0.4080 H     1 <1>   0.1500 
 26 H       -4.6150    -1.9700     0.4120 H     1 <1>   0.1500 
 27 H        5.6550    -2.2510    -0.4450 H     1 <1>   0.1500 
 28 H        4.0670     1.6210     0.3780 H     1 <1>   0.1500 
 29 H       -0.5970    -6.0540    -1.0540 H     1 <1>   0.0800 
 30 H       -0.3820    -6.0890     0.6950 H     1 <1>   0.0800 
 31 H       -4.3810    -4.3990     0.3960 H     1 <1>   0.1500 
 32 H        1.8390    -5.6430    -1.3400 H     1 <1>   0.0800 
 33 H        1.5720    -7.1270    -0.4610 H     1 <1>   0.0800 
 34 H        2.0510    -5.6910     0.4060 H     1 <1>   0.0800 
 35 H        7.1420    -0.4820    -0.2550 H     1 <1>   0.0800 
 36 H        6.1920     1.7650     1.5330 H     1 <1>   0.0800 
 37 H        7.8450     1.2490     1.3030 H     1 <1>   0.0800 
 38 H        6.6960     0.1840     2.0760 H     1 <1>   0.0800 
 39 H        5.9770     2.2090    -0.9960 H     1 <1>   0.0800 
 40 H        6.3410     0.9210    -2.1160 H     1 <1>   0.0800 
 41 H        7.6310     1.6940    -1.2270 H     1 <1>   0.0800 
@<TRIPOS>BOND
  1   1   2  2   
  2   2   3  am  
  3   2   4  1   
  4   3   5  1   
  5   3  22  1   
  6   4   6  ar  
  7   4   7  ar  
  8   5   8  ar  
  9   5   9  ar  
 10   6  10  1   
 11   6  11  ar  
 12   7  12  ar  
 13   7  23  1   
 14   8  13  ar  
 15   8  24  1   
 16   9  14  ar  
 17   9  25  1   
 18  10  15  1   
 19  11  16  ar  
 20  12  16  ar  
 21  12  26  1   
 22  13  17  ar  
 23  13  27  1   
 24  14  17  ar  
 25  14  28  1   
 26  15  18  1   
 27  15  29  1   
 28  15  30  1   
 29  16  31  1   
 30  17  19  1   
 31  18  32  1   
 32  18  33  1   
 33  18  34  1   
 34  19  20  1   
 35  19  21  1   
 36  19  35  1   
 37  20  36  1   
 38  20  37  1   
 39  20  38  1   
 40  21  39  1   
 41  21  40  1   
 42  21  41  1   
@<TRIPOS>SUBSTRUCTURE
  1 ****   3 GROUP 4 **** **** 0

# MOE 2024.06 (io_trps.svl 2023.06)
