@<TRIPOS>MOLECULE
NONAME
42 43 1 0 0 
SMALL
USER_CHARGES


@<TRIPOS>ATOM
  1 S        1.8300     0.0550     0.7630 S.3   1 <1>  -0.3320 
  2 C        1.4970    -1.3510    -0.3220 C.ar  1 <1>   0.1020 
  3 C        0.2400     0.4640     1.6200 C.3   1 <1>   0.0700 
  4 C        2.2330    -1.4830    -1.5020 C.ar  1 <1>   0.0860 
  5 C        0.5350    -2.2820     0.0380 C.ar  1 <1>  -0.1500 
  6 C       -0.7750     0.9330     0.5730 C.3   1 <1>  -0.1600 
  7 C        3.2470    -0.5310    -1.8980 C.2   1 <1>   0.5440 
  8 C        1.9530    -2.5800    -2.3170 C.ar  1 <1>  -0.1500 
  9 C        0.2830    -3.3630    -0.7860 C.ar  1 <1>  -0.1500 
 10 C       -2.1030     1.3240     1.2280 C.3   1 <1>  -0.2400 
 11 O        2.9740     0.3160    -2.7250 O.2   1 <1>  -0.5700 
 12 N        4.5270    -0.5520    -1.3760 N.am  1 <1>  -0.6600 
 13 C        0.9920    -3.5100    -1.9650 C.ar  1 <1>  -0.1500 
 14 C        5.5240     0.5000    -1.7380 C.3   1 <1>   0.1400 
 15 C        4.9330    -1.3830    -0.2030 C.3   1 <1>   0.1400 
 16 C        5.7770     1.4090    -0.5240 C.3   1 <1>   0.3430 
 17 C        5.2470    -0.4820     1.0110 C.3   1 <1>   0.3430 
 18 N        6.2250     0.6210     0.6850 N.4   1 <1>  -0.9590 
 19 C        6.4090     1.5240     1.8600 C.3   1 <1>   0.2630 
 20 H        0.4580     1.2510     2.3200 H     1 <1>   0.0800 
 21 H       -0.0940    -0.4060     2.1540 H     1 <1>   0.0800 
 22 H       -0.0190    -2.1840     0.9520 H     1 <1>   0.1500 
 23 H       -0.9530     0.1500    -0.1430 H     1 <1>   0.0800 
 24 H       -0.3750     1.7820     0.0460 H     1 <1>   0.0800 
 25 H        2.4940    -2.6940    -3.2400 H     1 <1>   0.1500 
 26 H       -0.4650    -4.0890    -0.5140 H     1 <1>   0.1500 
 27 H       -2.5330     0.4830     1.7450 H     1 <1>   0.0800 
 28 H       -2.7990     1.6530     0.4750 H     1 <1>   0.0800 
 29 H       -1.9570     2.1270     1.9290 H     1 <1>   0.0800 
 30 H        0.7910    -4.3490    -2.6110 H     1 <1>   0.1500 
 31 H        5.1710     1.1000    -2.5600 H     1 <1>   0.0800 
 32 H        6.4410     0.0340    -2.0530 H     1 <1>   0.0800 
 33 H        5.8030    -1.9600    -0.4630 H     1 <1>   0.0800 
 34 H        4.1550    -2.0770     0.0640 H     1 <1>   0.0800 
 35 H        4.8610     1.9300    -0.3000 H     1 <1>   0.0800 
 36 H        6.5220     2.1430    -0.7830 H     1 <1>   0.0800 
 37 H        5.6360    -1.0920     1.8090 H     1 <1>   0.0800 
 38 H        4.3250    -0.0470     1.3560 H     1 <1>   0.0800 
 39 H        7.1270     0.1830     0.4520 H     1 <1>   0.4500 
 40 H        5.4740     1.9960     2.1180 H     1 <1>   0.0800 
 41 H        7.1320     2.2920     1.6340 H     1 <1>   0.0800 
 42 H        6.7590     0.9640     2.7120 H     1 <1>   0.0800 
@<TRIPOS>BOND
  1   1   2  1   
  2   1   3  1   
  3   2   4  ar  
  4   2   5  ar  
  5   3   6  1   
  6   3  20  1   
  7   3  21  1   
  8   4   7  1   
  9   4   8  ar  
 10   5   9  ar  
 11   5  22  1   
 12   6  10  1   
 13   6  23  1   
 14   6  24  1   
 15   7  11  2   
 16   7  12  am  
 17   8  13  ar  
 18   8  25  1   
 19   9  13  ar  
 20   9  26  1   
 21  10  27  1   
 22  10  28  1   
 23  10  29  1   
 24  12  14  1   
 25  12  15  1   
 26  13  30  1   
 27  14  16  1   
 28  14  31  1   
 29  14  32  1   
 30  15  17  1   
 31  15  33  1   
 32  15  34  1   
 33  16  18  1   
 34  16  35  1   
 35  16  36  1   
 36  17  18  1   
 37  17  37  1   
 38  17  38  1   
 39  18  19  1   
 40  18  39  1   
 41  19  40  1   
 42  19  41  1   
 43  19  42  1   
@<TRIPOS>SUBSTRUCTURE
  1 ****   2 GROUP 4 **** **** 0

# MOE 2024.06 (io_trps.svl 2023.06)
