@<TRIPOS>MOLECULE
NONAME
45 47 1 0 0 
SMALL
USER_CHARGES


@<TRIPOS>ATOM
  1 CL      -2.6750    -2.3650    -2.2320 Cl    1 <1>  -0.1770 
  2 C       -1.2800    -2.6240    -1.2120 C.ar  1 <1>   0.1770 
  3 C       -1.3470    -2.4320     0.1640 C.ar  1 <1>  -0.0090 
  4 C       -0.1150    -3.0300    -1.8440 C.ar  1 <1>  -0.1500 
  5 S       -2.8720    -1.9050     0.9780 S.o2  1 <1>   1.4470 
  6 C       -0.1880    -2.6630     0.9000 C.ar  1 <1>  -0.1500 
  7 C        1.0260    -3.2570    -1.0960 C.ar  1 <1>  -0.1500 
  8 O       -3.3280    -0.6710     0.3790 O.2   1 <1>  -0.6500 
  9 O       -2.6790    -1.9550     2.4110 O.2   1 <1>  -0.6500 
 10 N       -3.9790    -3.1330     0.5980 N.am  1 <1>  -0.8490 
 11 C        0.9750    -3.0690     0.2710 C.ar  1 <1>   0.1770 
 12 C       -5.3700    -2.6740     0.7440 C.3   1 <1>   0.1960 
 13 C       -3.7540    -4.3540     1.3750 C.3   1 <1>   0.1960 
 14 CL       2.4060    -3.3530     1.2260 Cl    1 <1>  -0.1770 
 15 C       -6.3420    -3.7270     0.1870 C.3   1 <1>  -0.0190 
 16 C       -4.6480    -5.4800     0.8460 C.3   1 <1>  -0.1600 
 17 C       -7.7890    -3.2560     0.3240 C.2   1 <1>   0.5690 
 18 C       -6.1290    -5.0820     0.8900 C.3   1 <1>  -0.1600 
 19 O       -8.0700    -2.5880     1.2930 O.2   1 <1>  -0.5700 
 20 N       -8.7420    -3.5880    -0.6080 N.am  1 <1>  -0.6600 
 21 C       -8.5660    -4.5270    -1.7610 C.3   1 <1>   0.1400 
 22 C      -10.1270    -3.0290    -0.5300 C.3   1 <1>   0.1400 
 23 C       -9.7090    -5.5570    -1.8050 C.3   1 <1>   0.1200 
 24 C      -11.1760    -4.1470    -0.6420 C.3   1 <1>   0.1200 
 25 O      -10.9530    -4.9200    -1.7870 O.3   1 <1>  -0.5600 
 26 H       -0.1080    -3.1650    -2.9120 H     1 <1>   0.1500 
 27 H       -0.1850    -2.5260     1.9690 H     1 <1>   0.1500 
 28 H        1.9430    -3.5730    -1.5620 H     1 <1>   0.1500 
 29 H       -5.5160    -1.7580     0.1940 H     1 <1>   0.0800 
 30 H       -5.5830    -2.4750     1.7820 H     1 <1>   0.0800 
 31 H       -3.9690    -4.1740     2.4170 H     1 <1>   0.0800 
 32 H       -2.7230    -4.6560     1.2920 H     1 <1>   0.0800 
 33 H       -6.1060    -3.8210    -0.8550 H     1 <1>   0.0800 
 34 H       -4.4940    -6.3650     1.4380 H     1 <1>   0.0800 
 35 H       -4.3580    -5.7060    -0.1660 H     1 <1>   0.0800 
 36 H       -6.7290    -5.8430     0.4220 H     1 <1>   0.0800 
 37 H       -6.4440    -4.9970     1.9170 H     1 <1>   0.0800 
 38 H       -7.6350    -5.0580    -1.6950 H     1 <1>   0.0800 
 39 H       -8.5660    -3.9630    -2.6770 H     1 <1>   0.0800 
 40 H      -10.2710    -2.3300    -1.3340 H     1 <1>   0.0800 
 41 H      -10.2760    -2.5000     0.3950 H     1 <1>   0.0800 
 42 H       -9.6510    -6.2240    -0.9620 H     1 <1>   0.0800 
 43 H       -9.6510    -6.1370    -2.7090 H     1 <1>   0.0800 
 44 H      -12.1620    -3.7240    -0.7170 H     1 <1>   0.0800 
 45 H      -11.1400    -4.7870     0.2230 H     1 <1>   0.0800 
@<TRIPOS>BOND
  1   1   2  1   
  2   2   3  ar  
  3   2   4  ar  
  4   3   5  1   
  5   3   6  ar  
  6   4   7  ar  
  7   4  26  1   
  8   5   8  2   
  9   5   9  2   
 10   5  10  am  
 11   6  11  ar  
 12   6  27  1   
 13   7  11  ar  
 14   7  28  1   
 15  10  12  1   
 16  10  13  1   
 17  11  14  1   
 18  12  15  1   
 19  12  29  1   
 20  12  30  1   
 21  13  16  1   
 22  13  31  1   
 23  13  32  1   
 24  15  17  1   
 25  15  18  1   
 26  15  33  1   
 27  16  18  1   
 28  16  34  1   
 29  16  35  1   
 30  17  19  2   
 31  17  20  am  
 32  18  36  1   
 33  18  37  1   
 34  20  21  1   
 35  20  22  1   
 36  21  23  1   
 37  21  38  1   
 38  21  39  1   
 39  22  24  1   
 40  22  40  1   
 41  22  41  1   
 42  23  25  1   
 43  23  42  1   
 44  23  43  1   
 45  24  25  1   
 46  24  44  1   
 47  24  45  1   
@<TRIPOS>SUBSTRUCTURE
  1 ****  10 GROUP 4 **** **** 0

# MOE 2024.06 (io_trps.svl 2023.06)
