@<TRIPOS>MOLECULE
NONAME
47 49 1 0 0 
SMALL
USER_CHARGES


@<TRIPOS>ATOM
  1 F       -1.1410    -0.7340    -1.7820 F     1 <1>  -0.1900 
  2 C       -2.2110    -1.2560    -1.2390 C.ar  1 <1>   0.1900 
  3 C       -2.4470    -1.0450     0.1070 C.ar  1 <1>  -0.1500 
  4 C       -3.0650    -2.0000    -2.0320 C.ar  1 <1>  -0.1500 
  5 C       -3.5820    -1.6010     0.6720 C.ar  1 <1>  -0.1500 
  6 C       -4.1950    -2.5490    -1.4510 C.ar  1 <1>  -0.1500 
  7 C       -4.4630    -2.3540    -0.0970 C.ar  1 <1>   0.1000 
  8 N       -5.5930    -2.8960     0.5020 N.pl3 1 <1>  -0.8380 
  9 C       -6.8980    -2.2960     0.0870 C.3   1 <1>   0.2090 
 10 C       -5.6480    -4.3910     0.5630 C.3   1 <1>   0.2090 
 11 C       -8.0530    -2.7780     0.9850 C.3   1 <1>   0.1400 
 12 C       -6.7920    -4.8670     1.4720 C.3   1 <1>   0.1400 
 13 N       -8.0960    -4.2730     1.0430 N.am  1 <1>  -0.6600 
 14 C       -9.0110    -5.0200     0.3560 C.2   1 <1>   0.6900 
 15 O       -8.7320    -6.1310    -0.0550 O.2   1 <1>  -0.5700 
 16 N      -10.2440    -4.5170     0.1380 N.am  1 <1>  -0.7300 
 17 C      -11.3400    -5.2910    -0.4590 C.3   1 <1>   0.2840 
 18 C      -12.6310    -4.5230    -0.2400 C.ar  1 <1>  -0.1430 
 19 C      -13.0770    -3.6140    -1.1880 C.ar  1 <1>  -0.1500 
 20 C      -13.3740    -4.7200     0.9140 C.ar  1 <1>  -0.1500 
 21 C      -14.2530    -2.9110    -0.9910 C.ar  1 <1>  -0.1500 
 22 C      -14.5490    -4.0180     1.1150 C.ar  1 <1>  -0.1500 
 23 C      -14.9980    -3.1120     0.1680 C.ar  1 <1>   0.0830 
 24 O      -16.1600    -2.4670     0.4410 O.3   1 <1>  -0.3620 
 25 C      -16.7190    -1.5450    -0.4670 C.3   1 <1>   0.0400 
 26 H       -1.7600    -0.4610     0.6910 H     1 <1>   0.1500 
 27 H       -2.8470    -2.1420    -3.0740 H     1 <1>   0.1500 
 28 H       -3.7990    -1.4590     1.7140 H     1 <1>   0.1500 
 29 H       -4.8760    -3.1310    -2.0430 H     1 <1>   0.1500 
 30 H       -7.1090    -2.5660    -0.9330 H     1 <1>   0.0800 
 31 H       -6.8260    -1.2240     0.1410 H     1 <1>   0.0800 
 32 H       -4.7120    -4.7650     0.9400 H     1 <1>   0.0800 
 33 H       -5.7960    -4.7910    -0.4250 H     1 <1>   0.0800 
 34 H       -8.9770    -2.3820     0.6050 H     1 <1>   0.0800 
 35 H       -7.9080    -2.3910     1.9780 H     1 <1>   0.0800 
 36 H       -6.5840    -4.5690     2.4840 H     1 <1>   0.0800 
 37 H       -6.8430    -5.9420     1.4510 H     1 <1>   0.0800 
 38 H      -10.5500    -3.7480     0.7280 H     1 <1>   0.3700 
 39 H      -11.3950    -6.2610     0.0070 H     1 <1>   0.0800 
 40 H      -11.1500    -5.4290    -1.5090 H     1 <1>   0.0800 
 41 H      -12.5060    -3.4510    -2.0860 H     1 <1>   0.1500 
 42 H      -13.0400    -5.4190     1.6610 H     1 <1>   0.1500 
 43 H      -14.5710    -2.2170    -1.7440 H     1 <1>   0.1500 
 44 H      -15.1280    -4.1690     2.0080 H     1 <1>   0.1500 
 45 H      -17.6340    -1.1720    -0.0440 H     1 <1>   0.0800 
 46 H      -16.9250    -2.0500    -1.3950 H     1 <1>   0.0800 
 47 H      -16.0270    -0.7350    -0.6130 H     1 <1>   0.0800 
@<TRIPOS>BOND
  1   1   2  1   
  2   2   3  ar  
  3   2   4  ar  
  4   3   5  ar  
  5   3  26  1   
  6   4   6  ar  
  7   4  27  1   
  8   5   7  ar  
  9   5  28  1   
 10   6   7  ar  
 11   6  29  1   
 12   7   8  1   
 13   8   9  1   
 14   8  10  1   
 15   9  11  1   
 16   9  30  1   
 17   9  31  1   
 18  10  12  1   
 19  10  32  1   
 20  10  33  1   
 21  11  13  1   
 22  11  34  1   
 23  11  35  1   
 24  12  13  1   
 25  12  36  1   
 26  12  37  1   
 27  13  14  am  
 28  14  15  2   
 29  14  16  am  
 30  16  17  1   
 31  16  38  1   
 32  17  18  1   
 33  17  39  1   
 34  17  40  1   
 35  18  19  ar  
 36  18  20  ar  
 37  19  21  ar  
 38  19  41  1   
 39  20  22  ar  
 40  20  42  1   
 41  21  23  ar  
 42  21  43  1   
 43  22  23  ar  
 44  22  44  1   
 45  23  24  1   
 46  24  25  1   
 47  25  45  1   
 48  25  46  1   
 49  25  47  1   
@<TRIPOS>SUBSTRUCTURE
  1 ****  11 GROUP 4 **** **** 0

# MOE 2024.06 (io_trps.svl 2023.06)
