@<TRIPOS>MOLECULE
NONAME
48 49 1 0 0 
SMALL
USER_CHARGES


@<TRIPOS>ATOM
  1 O       -3.7660    -5.8140     0.3590 O.3   1 <1>  -0.3630 
  2 C       -2.4320    -6.0750     0.4120 C.ar  1 <1>   0.0830 
  3 C       -4.3160    -4.7470    -0.3810 C.3   1 <1>   0.2000 
  4 C       -2.0570    -7.2130     1.1070 C.ar  1 <1>  -0.1500 
  5 C       -1.4500    -5.2810    -0.1750 C.ar  1 <1>  -0.1500 
  6 C       -5.7160    -4.4950     0.1740 C.3   1 <1>  -0.2400 
  7 C       -4.3750    -5.1450    -1.8580 C.3   1 <1>  -0.2400 
  8 C       -0.7230    -7.5620     1.2170 C.ar  1 <1>  -0.1500 
  9 C       -0.1140    -5.6280    -0.0660 C.ar  1 <1>  -0.1500 
 10 C        0.2560    -6.7750     0.6340 C.ar  1 <1>   0.0830 
 11 O        1.5410    -7.1870     0.7910 O.3   1 <1>  -0.3630 
 12 C        2.6150    -6.4400     0.2760 C.3   1 <1>   0.1200 
 13 C        3.9010    -7.1880     0.6420 C.3   1 <1>   0.3430 
 14 N        5.1360    -6.4830     0.1650 N.4   1 <1>  -0.9590 
 15 C        6.3180    -7.3830     0.2650 C.3   1 <1>   0.3430 
 16 C        5.3970    -5.2250     0.9160 C.3   1 <1>   0.3430 
 17 C        7.3970    -6.9890    -0.7470 C.3   1 <1>  -0.1600 
 18 C        5.8260    -4.1160    -0.0450 C.3   1 <1>  -0.1600 
 19 C        7.8920    -5.5310    -0.6840 C.3   1 <1>  -0.1600 
 20 C        6.8340    -4.5150    -1.1390 C.3   1 <1>  -0.1600 
 21 H       -3.7160    -3.8680    -0.2290 H     1 <1>   0.0800 
 22 H       -2.8190    -7.8230     1.5600 H     1 <1>   0.1500 
 23 H       -1.7070    -4.3940    -0.7200 H     1 <1>   0.1500 
 24 H       -6.3260    -5.3740     0.0650 H     1 <1>   0.0800 
 25 H       -6.1820    -3.6840    -0.3550 H     1 <1>   0.0800 
 26 H       -5.6540    -4.2330     1.2140 H     1 <1>   0.0800 
 27 H       -4.9700    -6.0330    -1.9800 H     1 <1>   0.0800 
 28 H       -3.3890    -5.3290    -2.2430 H     1 <1>   0.0800 
 29 H       -4.8190    -4.3540    -2.4340 H     1 <1>   0.0800 
 30 H       -0.4420    -8.4470     1.7580 H     1 <1>   0.1500 
 31 H        0.6130    -4.9930    -0.5340 H     1 <1>   0.1500 
 32 H        2.5830    -5.4640     0.7260 H     1 <1>   0.0800 
 33 H        2.4970    -6.3790    -0.7920 H     1 <1>   0.0800 
 34 H        3.8540    -8.1670     0.1940 H     1 <1>   0.0800 
 35 H        3.9440    -7.3080     1.7130 H     1 <1>   0.0800 
 36 H        5.0320    -6.2370    -0.8280 H     1 <1>   0.4500 
 37 H        6.0210    -8.4000     0.0630 H     1 <1>   0.0800 
 38 H        6.7230    -7.3490     1.2640 H     1 <1>   0.0800 
 39 H        6.1770    -5.3910     1.6410 H     1 <1>   0.0800 
 40 H        4.5150    -4.9070     1.4480 H     1 <1>   0.0800 
 41 H        7.0470    -7.2080    -1.7410 H     1 <1>   0.0800 
 42 H        8.2440    -7.6320    -0.5770 H     1 <1>   0.0800 
 43 H        6.2650    -3.3340     0.5510 H     1 <1>   0.0800 
 44 H        4.9540    -3.6900    -0.5090 H     1 <1>   0.0800 
 45 H        8.7340    -5.4480    -1.3530 H     1 <1>   0.0800 
 46 H        8.2550    -5.2890     0.3010 H     1 <1>   0.0800 
 47 H        7.3380    -3.6190    -1.4640 H     1 <1>   0.0800 
 48 H        6.3140    -4.8980    -2.0020 H     1 <1>   0.0800 
@<TRIPOS>BOND
  1   1   2  1   
  2   1   3  1   
  3   2   4  ar  
  4   2   5  ar  
  5   3   6  1   
  6   3   7  1   
  7   3  21  1   
  8   4   8  ar  
  9   4  22  1   
 10   5   9  ar  
 11   5  23  1   
 12   6  24  1   
 13   6  25  1   
 14   6  26  1   
 15   7  27  1   
 16   7  28  1   
 17   7  29  1   
 18   8  10  ar  
 19   8  30  1   
 20   9  10  ar  
 21   9  31  1   
 22  10  11  1   
 23  11  12  1   
 24  12  13  1   
 25  12  32  1   
 26  12  33  1   
 27  13  14  1   
 28  13  34  1   
 29  13  35  1   
 30  14  15  1   
 31  14  16  1   
 32  14  36  1   
 33  15  17  1   
 34  15  37  1   
 35  15  38  1   
 36  16  18  1   
 37  16  39  1   
 38  16  40  1   
 39  17  19  1   
 40  17  41  1   
 41  17  42  1   
 42  18  20  1   
 43  18  43  1   
 44  18  44  1   
 45  19  20  1   
 46  19  45  1   
 47  19  46  1   
 48  20  47  1   
 49  20  48  1   
@<TRIPOS>SUBSTRUCTURE
  1 ****  12 GROUP 4 **** **** 0

# MOE 2024.06 (io_trps.svl 2023.06)
