@<TRIPOS>MOLECULE
NONAME
42 44 1 0 0 
SMALL
USER_CHARGES


@<TRIPOS>ATOM
  1 CL       0.7980     1.6150     2.2430 Cl    1 <1>  -0.1770 
  2 C        1.2310     1.2000     0.5980 C.ar  1 <1>   0.1770 
  3 C        1.0830     2.1180    -0.4500 C.ar  1 <1>   0.0530 
  4 C        1.7160    -0.0790     0.3960 C.ar  1 <1>  -0.1500 
  5 C        0.5890     3.4710    -0.2940 C.2   1 <1>   0.1330 
  6 C        1.4460     1.6680    -1.7210 C.ar  1 <1>  -0.1500 
  7 C        2.0710    -0.4890    -0.8760 C.ar  1 <1>  -0.1500 
  8 N        0.0110     4.1780    -1.2320 N.2   1 <1>  -0.3380 
  9 N        0.6710     4.2010     0.8300 N.pl3 1 <1>   0.0330 
 10 C        1.9320     0.3900    -1.9350 C.ar  1 <1>  -0.1500 
 11 N       -0.2900     5.3740    -0.7280 N.2   1 <1>  -0.3380 
 12 C        0.1050     5.3440     0.4950 C.2   1 <1>   0.2430 
 13 S       -0.0930     6.6790     1.6720 S.3   1 <1>  -0.2860 
 14 C       -1.2410     7.8660     0.8160 C.3   1 <1>   0.1310 
 15 C       -2.6670     7.3390     0.8450 C.2   1 <1>   0.5690 
 16 O       -3.4780     7.8920     1.5490 O.2   1 <1>  -0.5700 
 17 N       -2.9900     6.2690     0.0740 N.am  1 <1>  -0.7300 
 18 C       -4.2830     5.5790     0.0440 C.3   1 <1>   0.2200 
 19 C       -4.0740     4.1390     0.5240 C.3   1 <1>  -0.1600 
 20 C       -4.8280     5.6140    -1.3870 C.3   1 <1>  -0.1600 
 21 C       -5.3690     3.3210     0.4070 C.3   1 <1>  -0.1600 
 22 C       -6.1240     4.8000    -1.5090 C.3   1 <1>  -0.1600 
 23 C       -5.9200     3.3570    -1.0260 C.3   1 <1>  -0.1600 
 24 H        1.8140    -0.7520     1.2290 H     1 <1>   0.1500 
 25 H        1.3450     2.3340    -2.5620 H     1 <1>   0.1500 
 26 H        2.4500    -1.4830    -1.0430 H     1 <1>   0.1500 
 27 H        1.0430     3.9260     1.7400 H     1 <1>   0.2700 
 28 H        2.2020     0.0790    -2.9300 H     1 <1>   0.1500 
 29 H       -0.8950     7.9890    -0.1920 H     1 <1>   0.0800 
 30 H       -1.1790     8.7990     1.3440 H     1 <1>   0.0800 
 31 H       -2.2510     5.8140    -0.4780 H     1 <1>   0.3700 
 32 H       -4.9780     6.0770     0.7020 H     1 <1>   0.0800 
 33 H       -3.7520     4.1510     1.5500 H     1 <1>   0.0800 
 34 H       -3.3080     3.6710    -0.0710 H     1 <1>   0.0800 
 35 H       -4.0930     5.2060    -2.0600 H     1 <1>   0.0800 
 36 H       -5.0200     6.6350    -1.6680 H     1 <1>   0.0800 
 37 H       -6.1050     3.7220     1.0820 H     1 <1>   0.0800 
 38 H       -5.1780     2.3010     0.6950 H     1 <1>   0.0800 
 39 H       -6.4520     4.7950    -2.5340 H     1 <1>   0.0800 
 40 H       -6.8940     5.2680    -0.9180 H     1 <1>   0.0800 
 41 H       -6.8560     2.8270    -1.0660 H     1 <1>   0.0800 
 42 H       -5.2300     2.8570    -1.6840 H     1 <1>   0.0800 
@<TRIPOS>BOND
  1   1   2  1   
  2   2   3  ar  
  3   2   4  ar  
  4   3   5  1   
  5   3   6  ar  
  6   4   7  ar  
  7   4  24  1   
  8   5   8  2   
  9   5   9  1   
 10   6  10  ar  
 11   6  25  1   
 12   7  10  ar  
 13   7  26  1   
 14   8  11  1   
 15   9  12  1   
 16   9  27  1   
 17  10  28  1   
 18  11  12  2   
 19  12  13  1   
 20  13  14  1   
 21  14  15  1   
 22  14  29  1   
 23  14  30  1   
 24  15  16  2   
 25  15  17  am  
 26  17  18  1   
 27  17  31  1   
 28  18  19  1   
 29  18  20  1   
 30  18  32  1   
 31  19  21  1   
 32  19  33  1   
 33  19  34  1   
 34  20  22  1   
 35  20  35  1   
 36  20  36  1   
 37  21  23  1   
 38  21  37  1   
 39  21  38  1   
 40  22  23  1   
 41  22  39  1   
 42  22  40  1   
 43  23  41  1   
 44  23  42  1   
@<TRIPOS>SUBSTRUCTURE
  1 ****   8 GROUP 4 **** **** 0

# MOE 2024.06 (io_trps.svl 2023.06)
