@<TRIPOS>MOLECULE
NONAME
43 45 1 0 0 
SMALL
USER_CHARGES


@<TRIPOS>ATOM
  1 O        0.5290     0.1250    -0.2270 O.2   1 <1>  -0.5700 
  2 C        1.0100     1.1530     0.2110 C.2   1 <1>   0.6900 
  3 N        2.3710     1.2620     0.3800 N.am  1 <1>  -0.6600 
  4 N        0.2180     2.2160     0.5450 N.am  1 <1>  -0.5470 
  5 C        3.2470     0.0600     0.3340 C.3   1 <1>   0.1400 
  6 C        3.0980     2.5440     0.5710 C.3   1 <1>   0.1400 
  7 C       -1.1670     2.4380     0.4590 C.ar  1 <1>   0.1170 
  8 C        4.4470     0.3220    -0.5790 C.3   1 <1>  -0.1600 
  9 C        4.2930     2.5870    -0.3810 C.3   1 <1>  -0.1600 
 10 C       -1.6570     3.7430     0.3160 C.ar  1 <1>  -0.1430 
 11 C       -2.0680     1.3830     0.5440 C.ar  1 <1>  -0.1500 
 12 C        5.3430     1.4770     0.0170 C.3   1 <1>   0.5600 
 13 C       -3.0330     3.9670     0.2770 C.ar  1 <1>  -0.1430 
 14 C       -0.6620     4.9020     0.2030 C.3   1 <1>  -0.0970 
 15 C       -3.4280     1.6060     0.4930 C.ar  1 <1>  -0.1500 
 16 O        6.3310     0.5270     0.3310 O.3   1 <1>  -0.5600 
 17 O        6.1150     2.4760     0.6410 O.3   1 <1>  -0.5600 
 18 C       -3.9070     2.8940     0.3620 C.ar  1 <1>  -0.1500 
 19 C       -3.6370     5.3590     0.1440 C.3   1 <1>  -0.0970 
 20 C        7.5770     0.9750    -0.0450 C.3   1 <1>   0.1200 
 21 C        7.4190     2.4380     0.1950 C.3   1 <1>   0.1200 
 22 H        0.7430     2.9970     0.9100 H     1 <1>   0.3700 
 23 H        2.7020    -0.7950    -0.0290 H     1 <1>   0.0800 
 24 H        3.5910    -0.1640     1.3300 H     1 <1>   0.0800 
 25 H        3.4390     2.6150     1.5910 H     1 <1>   0.0800 
 26 H        2.4580     3.3820     0.3610 H     1 <1>   0.0800 
 27 H        4.0950     0.5070    -1.5770 H     1 <1>   0.0800 
 28 H        4.9310    -0.6370    -0.6890 H     1 <1>   0.0800 
 29 H        4.6630     3.6010    -0.3580 H     1 <1>   0.0800 
 30 H        3.9350     2.5110    -1.3910 H     1 <1>   0.0800 
 31 H       -1.7090     0.3780     0.6580 H     1 <1>   0.1500 
 32 H        0.1270     4.6490    -0.4820 H     1 <1>   0.0800 
 33 H       -0.2400     5.1130     1.1680 H     1 <1>   0.0800 
 34 H       -1.1170     5.7990    -0.1700 H     1 <1>   0.0800 
 35 H       -4.1110     0.7780     0.5570 H     1 <1>   0.1500 
 36 H       -4.9700     3.0520     0.3270 H     1 <1>   0.1500 
 37 H       -3.2450     6.0080     0.9070 H     1 <1>   0.0800 
 38 H       -4.7060     5.3300     0.2520 H     1 <1>   0.0800 
 39 H       -3.4080     5.7680    -0.8230 H     1 <1>   0.0800 
 40 H        7.7480     0.7450    -1.0820 H     1 <1>   0.0800 
 41 H        8.3240     0.5250     0.5850 H     1 <1>   0.0800 
 42 H        8.0710     2.8080     0.9660 H     1 <1>   0.0800 
 43 H        7.5120     3.0140    -0.7090 H     1 <1>   0.0800 
@<TRIPOS>BOND
  1   1   2  2   
  2   2   3  am  
  3   2   4  am  
  4   3   5  1   
  5   3   6  1   
  6   4   7  1   
  7   4  22  1   
  8   5   8  1   
  9   5  23  1   
 10   5  24  1   
 11   6   9  1   
 12   6  25  1   
 13   6  26  1   
 14   7  10  ar  
 15   7  11  ar  
 16   8  12  1   
 17   8  27  1   
 18   8  28  1   
 19   9  12  1   
 20   9  29  1   
 21   9  30  1   
 22  10  13  ar  
 23  10  14  1   
 24  11  15  ar  
 25  11  31  1   
 26  12  16  1   
 27  12  17  1   
 28  13  18  ar  
 29  13  19  1   
 30  14  32  1   
 31  14  33  1   
 32  14  34  1   
 33  15  18  ar  
 34  15  35  1   
 35  16  20  1   
 36  17  21  1   
 37  18  36  1   
 38  19  37  1   
 39  19  38  1   
 40  19  39  1   
 41  20  21  1   
 42  20  40  1   
 43  20  41  1   
 44  21  42  1   
 45  21  43  1   
@<TRIPOS>SUBSTRUCTURE
  1 ****   2 GROUP 4 **** **** 0

# MOE 2024.06 (io_trps.svl 2023.06)
