@<TRIPOS>MOLECULE
NONAME
40 41 1 0 0 
SMALL
USER_CHARGES


@<TRIPOS>ATOM
  1 BR      -0.0670    -0.6510     1.2180 Br    1 <1>  -0.1110 
  2 C       -0.8800    -2.1620     0.3360 C.ar  1 <1>   0.1110 
  3 C       -0.1280    -3.3000     0.0880 C.ar  1 <1>   0.0820 
  4 C       -2.2080    -2.0500    -0.0320 C.ar  1 <1>  -0.1500 
  5 O        1.1750    -3.3280     0.4590 O.3   1 <1>  -0.3630 
  6 C       -0.7550    -4.3800    -0.5440 C.ar  1 <1>   0.0820 
  7 C       -2.8200    -3.1180    -0.6740 C.ar  1 <1>  -0.1440 
  8 C        2.1100    -3.0840    -0.5710 C.3   1 <1>   0.3000 
  9 O       -0.1540    -5.5660    -0.8250 O.3   1 <1>  -0.3620 
 10 C       -2.0840    -4.2690    -0.9300 C.ar  1 <1>  -0.1500 
 11 C       -4.2740    -3.0380    -1.0830 C.3   1 <1>   0.4870 
 12 C        3.5060    -3.3700    -0.0510 C.2   1 <1>  -0.1400 
 13 C        0.7030    -6.1680     0.1250 C.3   1 <1>   0.0400 
 14 N       -5.0590    -3.6020     0.0350 N.4   1 <1>  -0.9060 
 15 S        4.8220    -3.2390    -1.2070 S.3   1 <1>  -0.0800 
 16 C        3.9780    -3.7190     1.1610 C.2   1 <1>  -0.1500 
 17 C       -6.5290    -3.5740    -0.2190 C.3   1 <1>   0.3430 
 18 C        6.0010    -3.6750     0.0180 C.2   1 <1>  -0.1100 
 19 C        5.3980    -3.8930     1.2000 C.2   1 <1>  -0.1500 
 20 C       -7.3230    -4.1540     0.9570 C.3   1 <1>   0.1200 
 21 O       -8.6630    -4.0600     0.6340 O.3   1 <1>  -0.6800 
 22 H       -2.7300    -1.1330     0.1850 H     1 <1>   0.1500 
 23 H        2.0230    -2.0560    -0.8740 H     1 <1>   0.0800 
 24 H        1.8860    -3.7300    -1.4030 H     1 <1>   0.0800 
 25 H       -2.5240    -5.1120    -1.4350 H     1 <1>   0.1500 
 26 H       -4.4360    -3.6060    -1.9850 H     1 <1>   0.0800 
 27 H       -4.5520    -2.0110    -1.2620 H     1 <1>   0.0800 
 28 H        0.7220    -7.2270    -0.0640 H     1 <1>   0.0800 
 29 H        0.3300    -5.9780     1.1160 H     1 <1>   0.0800 
 30 H        1.6940    -5.7690     0.0120 H     1 <1>   0.0800 
 31 H       -4.8250    -3.0720     0.8840 H     1 <1>   0.4500 
 32 H       -4.7330    -4.5630     0.1950 H     1 <1>   0.4500 
 33 H        3.3780    -3.8630     2.0430 H     1 <1>   0.1500 
 34 H       -6.7570    -4.1480    -1.1030 H     1 <1>   0.0800 
 35 H       -6.8510    -2.5580    -0.3800 H     1 <1>   0.0800 
 36 H        7.0330    -3.7200    -0.2820 H     1 <1>   0.1500 
 37 H        5.8940    -4.1720     2.1140 H     1 <1>   0.1500 
 38 H       -7.1590    -3.5890     1.8590 H     1 <1>   0.0800 
 39 H       -7.0900    -5.1940     1.1130 H     1 <1>   0.0800 
 40 H       -9.2400    -4.4170     1.3440 H     1 <1>   0.4000 
@<TRIPOS>BOND
  1   1   2  1   
  2   2   3  ar  
  3   2   4  ar  
  4   3   5  1   
  5   3   6  ar  
  6   4   7  ar  
  7   4  22  1   
  8   5   8  1   
  9   6   9  1   
 10   6  10  ar  
 11   7  10  ar  
 12   7  11  1   
 13   8  12  1   
 14   8  23  1   
 15   8  24  1   
 16   9  13  1   
 17  10  25  1   
 18  11  14  1   
 19  11  26  1   
 20  11  27  1   
 21  12  15  1   
 22  12  16  2   
 23  13  28  1   
 24  13  29  1   
 25  13  30  1   
 26  14  17  1   
 27  14  31  1   
 28  14  32  1   
 29  15  18  1   
 30  16  19  1   
 31  16  33  1   
 32  17  20  1   
 33  17  34  1   
 34  17  35  1   
 35  18  19  2   
 36  18  36  1   
 37  19  37  1   
 38  20  21  1   
 39  20  38  1   
 40  20  39  1   
 41  21  40  1   
@<TRIPOS>SUBSTRUCTURE
  1 ****   3 GROUP 4 **** **** 0

# MOE 2024.06 (io_trps.svl 2023.06)
