@<TRIPOS>MOLECULE
NONAME
47 50 1 0 0 
SMALL
USER_CHARGES


@<TRIPOS>ATOM
  1 O       -0.5660    -1.5950     1.9410 O.2   1 <1>  -0.5700 
  2 C       -1.1600    -1.6000     0.8940 C.2   1 <1>   0.5690 
  3 N       -0.9350    -2.4180    -0.2010 N.am  1 <1>  -0.2370 
  4 C       -2.2800    -0.6750     0.5220 C.3   1 <1>  -0.0190 
  5 C        0.2450    -3.1440    -0.4460 C.ar  1 <1>   0.1170 
  6 C       -2.0150    -2.3220    -1.0620 C.2   1 <1>   0.5690 
  7 C       -3.3300     0.2600     1.1370 C.3   1 <1>   0.1960 
  8 C       -3.1250    -1.6450    -0.3090 C.3   1 <1>  -0.0190 
  9 C        1.5000    -2.5210    -0.5880 C.ar  1 <1>   0.0860 
 10 C        0.1480    -4.5290    -0.5320 C.ar  1 <1>  -0.1500 
 11 O       -2.1100    -2.7570    -2.1810 O.2   1 <1>  -0.5700 
 12 C       -3.9600     0.5940    -0.2130 C.2   1 <1>  -0.2760 
 13 C       -4.5440    -0.4630     1.7050 C.2   1 <1>  -0.2880 
 14 C       -4.4010    -0.8150    -0.5790 C.3   1 <1>   0.1960 
 15 C        1.6750    -1.0820    -0.5540 C.2   1 <1>   0.6340 
 16 C        2.6140    -3.3460    -0.7820 C.ar  1 <1>  -0.1500 
 17 C        1.2630    -5.3160    -0.7330 C.ar  1 <1>  -0.1500 
 18 C       -4.0810     1.7540    -0.8760 C.2   1 <1>  -0.2760 
 19 C       -5.2020    -1.0410     0.6960 C.2   1 <1>  -0.2880 
 20 O        0.8250    -0.2820    -0.8950 O.2   1 <1>  -0.5700 
 21 O        2.8530    -0.6140    -0.1320 O.3   1 <1>  -0.4300 
 22 C        2.5040    -4.7200    -0.8540 C.ar  1 <1>  -0.1500 
 23 C       -4.7460     1.8930    -2.2380 C.3   1 <1>  -0.1020 
 24 C       -3.5700     3.0940    -0.3640 C.3   1 <1>  -0.1020 
 25 C        3.1130     0.7680    -0.0380 C.3   1 <1>   0.1200 
 26 C        4.5400     0.9460     0.4700 C.3   1 <1>  -0.2400 
 27 H       -1.7490    -0.0110    -0.1460 H     1 <1>   0.0800 
 28 H       -2.9630     1.0980     1.6990 H     1 <1>   0.0800 
 29 H       -3.4520    -2.4600     0.3190 H     1 <1>   0.0800 
 30 H       -0.8160    -4.9990    -0.4390 H     1 <1>   0.1500 
 31 H       -4.7500    -0.4310     2.7610 H     1 <1>   0.1500 
 32 H       -4.9240    -0.9780    -1.5040 H     1 <1>   0.0800 
 33 H        3.5890    -2.8990    -0.8830 H     1 <1>   0.1500 
 34 H        1.1700    -6.3870    -0.7960 H     1 <1>   0.1500 
 35 H       -6.1100    -1.6180     0.6780 H     1 <1>   0.1500 
 36 H        3.3800    -5.3280    -1.0070 H     1 <1>   0.1500 
 37 H       -4.0430     2.2830    -2.9530 H     1 <1>   0.0800 
 38 H       -5.5810     2.5680    -2.1720 H     1 <1>   0.0800 
 39 H       -5.1070     0.9530    -2.6070 H     1 <1>   0.0800 
 40 H       -4.3870     3.7860    -0.2680 H     1 <1>   0.0800 
 41 H       -2.8520     3.5010    -1.0530 H     1 <1>   0.0800 
 42 H       -3.0970     3.0050     0.5950 H     1 <1>   0.0800 
 43 H        2.9920     1.2050    -1.0150 H     1 <1>   0.0800 
 44 H        2.4020     1.2020     0.6450 H     1 <1>   0.0800 
 45 H        5.2370     0.4990    -0.2160 H     1 <1>   0.0800 
 46 H        4.6460     0.4940     1.4400 H     1 <1>   0.0800 
 47 H        4.7660     1.9940     0.5550 H     1 <1>   0.0800 
@<TRIPOS>BOND
  1   1   2  2   
  2   2   3  am  
  3   2   4  1   
  4   3   5  1   
  5   3   6  am  
  6   4   7  1   
  7   4   8  1   
  8   4  27  1   
  9   5   9  ar  
 10   5  10  ar  
 11   6   8  1   
 12   6  11  2   
 13   7  12  1   
 14   7  13  1   
 15   7  28  1   
 16   8  14  1   
 17   8  29  1   
 18   9  15  1   
 19   9  16  ar  
 20  10  17  ar  
 21  10  30  1   
 22  12  14  1   
 23  12  18  2   
 24  13  19  2   
 25  13  31  1   
 26  14  19  1   
 27  14  32  1   
 28  15  20  2   
 29  15  21  1   
 30  16  22  ar  
 31  16  33  1   
 32  17  22  ar  
 33  17  34  1   
 34  18  23  1   
 35  18  24  1   
 36  19  35  1   
 37  21  25  1   
 38  22  36  1   
 39  23  37  1   
 40  23  38  1   
 41  23  39  1   
 42  24  40  1   
 43  24  41  1   
 44  24  42  1   
 45  25  26  1   
 46  25  43  1   
 47  25  44  1   
 48  26  45  1   
 49  26  46  1   
 50  26  47  1   
@<TRIPOS>SUBSTRUCTURE
  1 ****   3 GROUP 4 **** **** 0

# MOE 2024.06 (io_trps.svl 2023.06)
