@<TRIPOS>MOLECULE
NONAME
41 42 1 0 0 
SMALL
USER_CHARGES


@<TRIPOS>ATOM
  1 O       -0.2560    -0.3780     1.4600 O.2   1 <1>  -0.5700 
  2 C       -0.1350    -1.3910     0.7970 C.2   1 <1>   0.6900 
  3 N       -1.2150    -2.1780     0.5340 N.am  1 <1>  -0.6600 
  4 N        1.0620    -1.8170     0.3120 N.am  1 <1>  -0.5470 
  5 C       -2.4810    -1.5940    -0.0110 C.3   1 <1>   0.2200 
  6 C       -1.3970    -3.3320     1.4510 C.3   1 <1>   0.1400 
  7 C        2.3840    -1.3450     0.3830 C.ar  1 <1>   0.1170 
  8 C       -3.3290    -2.7140    -0.6490 C.3   1 <1>  -0.1600 
  9 C       -2.1820    -0.4810    -1.0430 C.3   1 <1>  -0.1600 
 10 C       -2.1900    -4.4440     0.7670 C.3   1 <1>  -0.1600 
 11 C        3.3710    -2.0270    -0.3400 C.ar  1 <1>   0.0830 
 12 C        2.7550    -0.2370     1.1370 C.ar  1 <1>  -0.1500 
 13 C       -3.5400    -3.9170     0.2790 C.3   1 <1>  -0.1600 
 14 C       -3.4320     0.1630    -1.6640 C.3   1 <1>  -0.2400 
 15 O        2.9720    -3.1150    -1.0690 O.3   1 <1>  -0.3630 
 16 C        4.6930    -1.5940    -0.2970 C.ar  1 <1>  -0.1500 
 17 C        4.0710     0.1900     1.1760 C.ar  1 <1>  -0.1500 
 18 C        3.8840    -3.8340    -1.8690 C.3   1 <1>   0.0400 
 19 C        5.0400    -0.4870     0.4590 C.ar  1 <1>  -0.1500 
 20 H        0.9670    -2.6390    -0.2820 H     1 <1>   0.3700 
 21 H       -3.0290    -1.1640     0.8120 H     1 <1>   0.0800 
 22 H       -1.9210    -2.9960     2.3300 H     1 <1>   0.0800 
 23 H       -0.4360    -3.7080     1.7600 H     1 <1>   0.0800 
 24 H       -2.8460    -3.0440    -1.5520 H     1 <1>   0.0800 
 25 H       -4.2950    -2.3280    -0.9180 H     1 <1>   0.0800 
 26 H       -1.5650    -0.8800    -1.8290 H     1 <1>   0.0800 
 27 H       -1.6340     0.3090    -0.5610 H     1 <1>   0.0800 
 28 H       -2.3450    -5.2500     1.4620 H     1 <1>   0.0800 
 29 H       -1.6190    -4.8260    -0.0620 H     1 <1>   0.0800 
 30 H        2.0190     0.3030     1.7030 H     1 <1>   0.1500 
 31 H       -4.0680    -4.6940    -0.2460 H     1 <1>   0.0800 
 32 H       -4.1370    -3.6170     1.1230 H     1 <1>   0.0800 
 33 H       -3.9500    -0.5290    -2.3030 H     1 <1>   0.0800 
 34 H       -3.1420     1.0100    -2.2600 H     1 <1>   0.0800 
 35 H       -4.1010     0.5040    -0.8940 H     1 <1>   0.0800 
 36 H        5.4670    -2.0990    -0.8410 H     1 <1>   0.1500 
 37 H        4.3360     1.0500     1.7650 H     1 <1>   0.1500 
 38 H        3.3460    -4.6250    -2.3610 H     1 <1>   0.0800 
 39 H        4.6490    -4.2520    -1.2380 H     1 <1>   0.0800 
 40 H        4.3060    -3.1700    -2.6020 H     1 <1>   0.0800 
 41 H        6.0630    -0.1530     0.4900 H     1 <1>   0.1500 
@<TRIPOS>BOND
  1   1   2  2   
  2   2   3  am  
  3   2   4  am  
  4   3   5  1   
  5   3   6  1   
  6   4   7  1   
  7   4  20  1   
  8   5   8  1   
  9   5   9  1   
 10   5  21  1   
 11   6  10  1   
 12   6  22  1   
 13   6  23  1   
 14   7  11  ar  
 15   7  12  ar  
 16   8  13  1   
 17   8  24  1   
 18   8  25  1   
 19   9  14  1   
 20   9  26  1   
 21   9  27  1   
 22  10  13  1   
 23  10  28  1   
 24  10  29  1   
 25  11  15  1   
 26  11  16  ar  
 27  12  17  ar  
 28  12  30  1   
 29  13  31  1   
 30  13  32  1   
 31  14  33  1   
 32  14  34  1   
 33  14  35  1   
 34  15  18  1   
 35  16  19  ar  
 36  16  36  1   
 37  17  19  ar  
 38  17  37  1   
 39  18  38  1   
 40  18  39  1   
 41  18  40  1   
 42  19  41  1   
@<TRIPOS>SUBSTRUCTURE
  1 ****   4 GROUP 4 **** **** 0

# MOE 2024.06 (io_trps.svl 2023.06)
