@<TRIPOS>MOLECULE
NONAME
48 50 1 0 0 
SMALL
USER_CHARGES


@<TRIPOS>ATOM
  1 O        1.2460     0.6580    -3.2170 O.2   1 <1>  -0.5700 
  2 C        1.9500     1.1480    -2.3720 C.2   1 <1>   0.5690 
  3 N        2.8090     0.3950    -1.6480 N.am  1 <1>  -0.5470 
  4 C        1.8770     2.6280    -2.0770 C.3   1 <1>  -0.0990 
  5 C        3.7250     0.9020    -0.7260 C.ar  1 <1>   0.1170 
  6 C        3.2580     3.1830    -1.6950 C.3   1 <1>   0.2070 
  7 C        3.9800     2.2690    -0.6930 C.ar  1 <1>  -0.1440 
  8 C        4.3870     0.0550     0.1510 C.ar  1 <1>  -0.1500 
  9 C        3.1020     4.6240    -1.2050 C.ar  1 <1>  -0.1430 
 10 C        4.9050     2.7580     0.2170 C.ar  1 <1>  -0.1500 
 11 C        5.3020     0.5480     1.0650 C.ar  1 <1>  -0.1440 
 12 C        2.5010     4.9010     0.0150 C.ar  1 <1>  -0.1500 
 13 C        3.5610     5.6800    -1.9780 C.ar  1 <1>  -0.1500 
 14 C        5.5630     1.9130     1.0980 C.ar  1 <1>  -0.1430 
 15 C        6.0000    -0.4190     2.0110 C.3   1 <1>  -0.0970 
 16 C        2.3500     6.2030     0.4640 C.ar  1 <1>   0.0830 
 17 C        3.4220     6.9890    -1.5480 C.ar  1 <1>   0.0830 
 18 C        6.5610     2.5080     2.0820 C.3   1 <1>  -0.0970 
 19 O        1.7510     6.3480     1.6780 O.3   1 <1>  -0.3630 
 20 C        2.7900     7.2670    -0.3320 C.ar  1 <1>   0.0830 
 21 O        3.9060     7.9600    -2.3640 O.3   1 <1>  -0.3630 
 22 C        2.2960     7.2560     2.6100 C.3   1 <1>   0.0400 
 23 O        2.5810     8.5560     0.0510 O.3   1 <1>  -0.3630 
 24 C        4.9620     8.7480    -1.8600 C.3   1 <1>   0.0400 
 25 C        1.4860     9.1870    -0.5710 C.3   1 <1>   0.0400 
 26 H        2.7780    -0.6070    -1.8300 H     1 <1>   0.3700 
 27 H        1.1870     2.7660    -1.2670 H     1 <1>   0.0800 
 28 H        1.4980     3.1490    -2.9370 H     1 <1>   0.0800 
 29 H        3.8610     3.1860    -2.5860 H     1 <1>   0.0800 
 30 H        4.1770    -0.9980     0.1140 H     1 <1>   0.1500 
 31 H        5.1210     3.8120     0.2430 H     1 <1>   0.1500 
 32 H        2.1470     4.1000     0.6390 H     1 <1>   0.1500 
 33 H        4.0350     5.5030    -2.9270 H     1 <1>   0.1500 
 34 H        5.6780    -1.4300     1.8400 H     1 <1>   0.0800 
 35 H        5.7760    -0.1620     3.0310 H     1 <1>   0.0800 
 36 H        7.0640    -0.3750     1.8630 H     1 <1>   0.0800 
 37 H        6.6270     3.5750     1.9690 H     1 <1>   0.0800 
 38 H        7.5370     2.0900     1.9150 H     1 <1>   0.0800 
 39 H        6.2550     2.2950     3.0900 H     1 <1>   0.0800 
 40 H        1.9930     6.9470     3.5940 H     1 <1>   0.0800 
 41 H        1.9120     8.2390     2.4050 H     1 <1>   0.0800 
 42 H        3.3680     7.2430     2.5320 H     1 <1>   0.0800 
 43 H        5.3670     9.3250    -2.6710 H     1 <1>   0.0800 
 44 H        5.7180     8.1000    -1.4530 H     1 <1>   0.0800 
 45 H        4.5840     9.4070    -1.1000 H     1 <1>   0.0800 
 46 H        1.4000    10.1830    -0.1760 H     1 <1>   0.0800 
 47 H        0.5950     8.6240    -0.3560 H     1 <1>   0.0800 
 48 H        1.6590     9.2250    -1.6320 H     1 <1>   0.0800 
@<TRIPOS>BOND
  1   1   2  2   
  2   2   3  am  
  3   2   4  1   
  4   3   5  1   
  5   3  26  1   
  6   4   6  1   
  7   4  27  1   
  8   4  28  1   
  9   5   7  ar  
 10   5   8  ar  
 11   6   7  1   
 12   6   9  1   
 13   6  29  1   
 14   7  10  ar  
 15   8  11  ar  
 16   8  30  1   
 17   9  12  ar  
 18   9  13  ar  
 19  10  14  ar  
 20  10  31  1   
 21  11  14  ar  
 22  11  15  1   
 23  12  16  ar  
 24  12  32  1   
 25  13  17  ar  
 26  13  33  1   
 27  14  18  1   
 28  15  34  1   
 29  15  35  1   
 30  15  36  1   
 31  16  19  1   
 32  16  20  ar  
 33  17  20  ar  
 34  17  21  1   
 35  18  37  1   
 36  18  38  1   
 37  18  39  1   
 38  19  22  1   
 39  20  23  1   
 40  21  24  1   
 41  22  40  1   
 42  22  41  1   
 43  22  42  1   
 44  23  25  1   
 45  24  43  1   
 46  24  44  1   
 47  24  45  1   
 48  25  46  1   
 49  25  47  1   
 50  25  48  1   
@<TRIPOS>SUBSTRUCTURE
  1 ****   9 GROUP 4 **** **** 0

# MOE 2024.06 (io_trps.svl 2023.06)
