@<TRIPOS>MOLECULE
NONAME
49 50 1 0 0 
SMALL
USER_CHARGES


@<TRIPOS>ATOM
  1 S       -0.0200     1.2320     1.8730 S.o2  1 <1>   1.4470 
  2 O        0.4890     1.9020     3.0490 O.2   1 <1>  -0.6500 
  3 O       -0.8480     0.0560     2.0280 O.2   1 <1>  -0.6500 
  4 N       -0.9650     2.3700     1.0500 N.am  1 <1>  -0.8490 
  5 C        1.3230     0.8720     0.7060 C.ar  1 <1>  -0.0090 
  6 C       -2.2380     2.5920     1.7910 C.3   1 <1>   0.2570 
  7 C       -0.2640     3.6390     0.8270 C.3   1 <1>   0.1960 
  8 C        2.6570     1.0010     1.0760 C.ar  1 <1>  -0.1500 
  9 C        1.0490     0.4610    -0.5930 C.ar  1 <1>  -0.1500 
 10 C       -3.2920     3.4400     1.0640 C.2   1 <1>   0.5690 
 11 C       -0.4780     4.0740    -0.6190 C.3   1 <1>  -0.2400 
 12 C        3.6790     0.7330     0.1820 C.ar  1 <1>  -0.1500 
 13 C        2.0660     0.1930    -1.4930 C.ar  1 <1>  -0.1500 
 14 O       -3.4960     4.5530     1.4970 O.2   1 <1>  -0.5700 
 15 N       -3.9760     2.9530    -0.0270 N.am  1 <1>  -0.6600 
 16 C        3.3880     0.3270    -1.1090 C.ar  1 <1>  -0.1430 
 17 C       -3.7010     1.6400    -0.6770 C.3   1 <1>   0.1400 
 18 C       -5.0480     3.7450    -0.6910 C.3   1 <1>   0.1400 
 19 C        4.5080     0.0330    -2.0910 C.3   1 <1>  -0.0970 
 20 C       -4.9840     0.8050    -0.7090 C.3   1 <1>  -0.1600 
 21 C       -6.3420     2.9260    -0.7280 C.3   1 <1>  -0.1600 
 22 C       -6.1320     1.5590    -1.3980 C.3   1 <1>  -0.0800 
 23 C       -7.4230     0.7340    -1.3580 C.3   1 <1>  -0.2400 
 24 H       -2.0220     3.0590     2.7370 H     1 <1>   0.0800 
 25 H       -2.7000     1.6460     2.0100 H     1 <1>   0.0800 
 26 H        0.7960     3.5230     0.9870 H     1 <1>   0.0800 
 27 H       -0.6110     4.4020     1.5050 H     1 <1>   0.0800 
 28 H        2.9000     1.3150     2.0780 H     1 <1>   0.1500 
 29 H        0.0230     0.3520    -0.9020 H     1 <1>   0.1500 
 30 H       -1.5160     4.2700    -0.8130 H     1 <1>   0.0800 
 31 H       -0.1260     3.3140    -1.2930 H     1 <1>   0.0800 
 32 H        0.0730     4.9780    -0.8060 H     1 <1>   0.0800 
 33 H        4.7030     0.8430     0.4960 H     1 <1>   0.1500 
 34 H        1.8220    -0.1220    -2.4930 H     1 <1>   0.1500 
 35 H       -2.9340     1.0930    -0.1590 H     1 <1>   0.0800 
 36 H       -3.3570     1.8160    -1.6810 H     1 <1>   0.0800 
 37 H       -4.7360     3.9860    -1.6920 H     1 <1>   0.0800 
 38 H       -5.2220     4.6680    -0.1640 H     1 <1>   0.0800 
 39 H        4.7810     0.9330    -2.6120 H     1 <1>   0.0800 
 40 H        4.1960    -0.7030    -2.8100 H     1 <1>   0.0800 
 41 H        5.3720    -0.3440    -1.5740 H     1 <1>   0.0800 
 42 H       -5.2600     0.5570     0.3010 H     1 <1>   0.0800 
 43 H       -4.7900    -0.1150    -1.2310 H     1 <1>   0.0800 
 44 H       -7.0910     3.4830    -1.2630 H     1 <1>   0.0800 
 45 H       -6.6920     2.7930     0.2810 H     1 <1>   0.0800 
 46 H       -5.8640     1.7220    -2.4300 H     1 <1>   0.0800 
 47 H       -7.7230     0.5490    -0.3410 H     1 <1>   0.0800 
 48 H       -7.2780    -0.2110    -1.8510 H     1 <1>   0.0800 
 49 H       -8.2170     1.2580    -1.8600 H     1 <1>   0.0800 
@<TRIPOS>BOND
  1   1   2  2   
  2   1   3  2   
  3   1   4  am  
  4   1   5  1   
  5   4   6  1   
  6   4   7  1   
  7   5   8  ar  
  8   5   9  ar  
  9   6  10  1   
 10   6  24  1   
 11   6  25  1   
 12   7  11  1   
 13   7  26  1   
 14   7  27  1   
 15   8  12  ar  
 16   8  28  1   
 17   9  13  ar  
 18   9  29  1   
 19  10  14  2   
 20  10  15  am  
 21  11  30  1   
 22  11  31  1   
 23  11  32  1   
 24  12  16  ar  
 25  12  33  1   
 26  13  16  ar  
 27  13  34  1   
 28  15  17  1   
 29  15  18  1   
 30  16  19  1   
 31  17  20  1   
 32  17  35  1   
 33  17  36  1   
 34  18  21  1   
 35  18  37  1   
 36  18  38  1   
 37  19  39  1   
 38  19  40  1   
 39  19  41  1   
 40  20  22  1   
 41  20  42  1   
 42  20  43  1   
 43  21  22  1   
 44  21  44  1   
 45  21  45  1   
 46  22  23  1   
 47  22  46  1   
 48  23  47  1   
 49  23  48  1   
 50  23  49  1   
@<TRIPOS>SUBSTRUCTURE
  1 ****   4 GROUP 4 **** **** 0

# MOE 2024.06 (io_trps.svl 2023.06)
