@<TRIPOS>MOLECULE
NONAME
47 49 1 0 0 
SMALL
USER_CHARGES


@<TRIPOS>ATOM
  1 S        0.9520     0.4870     1.8890 S.o2  1 <1>   1.4470 
  2 O        2.0180     0.7300     2.8350 O.2   1 <1>  -0.6500 
  3 O        0.0230    -0.5940     2.1290 O.2   1 <1>  -0.6500 
  4 N       -0.0050     1.9310     1.8240 N.am  1 <1>  -0.6930 
  5 C        1.6170     0.3490     0.2040 C.ar  1 <1>  -0.0090 
  6 C       -1.1700     1.9750     1.0720 C.ar  1 <1>   0.1990 
  7 C        0.6060     3.2050     2.3130 C.3   1 <1>   0.2570 
  8 C        2.8730     0.8550    -0.1250 C.ar  1 <1>  -0.1500 
  9 C        0.8640    -0.2500    -0.8060 C.ar  1 <1>  -0.1500 
 10 C       -1.1440     2.3370    -0.2710 C.ar  1 <1>  -0.1500 
 11 C       -2.3890     1.6570     1.6560 C.ar  1 <1>  -0.1500 
 12 C        1.3240     4.0090     1.2200 C.2   1 <1>   0.5690 
 13 C        3.3690     0.7740    -1.4150 C.ar  1 <1>  -0.1500 
 14 C        1.3410    -0.3420    -2.1040 C.ar  1 <1>  -0.1500 
 15 C       -2.3120     2.3920    -1.0100 C.ar  1 <1>  -0.1500 
 16 C       -3.5590     1.7100     0.9210 C.ar  1 <1>  -0.1500 
 17 O        2.4660     3.6980     0.9720 O.2   1 <1>  -0.5700 
 18 N        0.6980     5.0310     0.5410 N.am  1 <1>  -0.6600 
 19 C        2.5900     0.1740    -2.3850 C.ar  1 <1>   0.1900 
 20 C       -3.5220     2.0800    -0.4130 C.ar  1 <1>  -0.1500 
 21 C        1.3530     5.6440    -0.6550 C.3   1 <1>   0.1400 
 22 C       -0.6620     5.5500     0.8990 C.3   1 <1>   0.1400 
 23 F        3.0470     0.0950    -3.6040 F     1 <1>  -0.1900 
 24 C        0.3210     5.8410    -1.7700 C.3   1 <1>  -0.1600 
 25 C       -0.9750     6.8680     0.1830 C.3   1 <1>  -0.1600 
 26 C       -0.8510     6.7430    -1.3440 C.3   1 <1>  -0.1600 
 27 H        1.3170     2.9960     3.0920 H     1 <1>   0.0800 
 28 H       -0.1640     3.8010     2.7610 H     1 <1>   0.0800 
 29 H        3.4700     1.3250     0.6410 H     1 <1>   0.1500 
 30 H       -0.1100    -0.6470    -0.5710 H     1 <1>   0.1500 
 31 H       -0.2050     2.5780    -0.7360 H     1 <1>   0.1500 
 32 H       -2.4100     1.3600     2.6890 H     1 <1>   0.1500 
 33 H        4.3370     1.1700    -1.6650 H     1 <1>   0.1500 
 34 H        0.7600    -0.8050    -2.8810 H     1 <1>   0.1500 
 35 H       -2.2800     2.6760    -2.0480 H     1 <1>   0.1500 
 36 H       -4.4980     1.4600     1.3840 H     1 <1>   0.1500 
 37 H       -4.4320     2.1210    -0.9860 H     1 <1>   0.1500 
 38 H        2.1460     5.0100    -1.0160 H     1 <1>   0.0800 
 39 H        1.7850     6.5900    -0.3770 H     1 <1>   0.0800 
 40 H       -0.7190     5.7150     1.9600 H     1 <1>   0.0800 
 41 H       -1.4050     4.8200     0.6270 H     1 <1>   0.0800 
 42 H       -0.0540     4.8730    -2.0520 H     1 <1>   0.0800 
 43 H        0.8040     6.2620    -2.6340 H     1 <1>   0.0800 
 44 H       -0.2940     7.6210     0.5410 H     1 <1>   0.0800 
 45 H       -1.9700     7.1900     0.4380 H     1 <1>   0.0800 
 46 H       -1.7630     6.3360    -1.7470 H     1 <1>   0.0800 
 47 H       -0.7230     7.7270    -1.7620 H     1 <1>   0.0800 
@<TRIPOS>BOND
  1   1   2  2   
  2   1   3  2   
  3   1   4  am  
  4   1   5  1   
  5   4   6  1   
  6   4   7  1   
  7   5   8  ar  
  8   5   9  ar  
  9   6  10  ar  
 10   6  11  ar  
 11   7  12  1   
 12   7  27  1   
 13   7  28  1   
 14   8  13  ar  
 15   8  29  1   
 16   9  14  ar  
 17   9  30  1   
 18  10  15  ar  
 19  10  31  1   
 20  11  16  ar  
 21  11  32  1   
 22  12  17  2   
 23  12  18  am  
 24  13  19  ar  
 25  13  33  1   
 26  14  19  ar  
 27  14  34  1   
 28  15  20  ar  
 29  15  35  1   
 30  16  20  ar  
 31  16  36  1   
 32  18  21  1   
 33  18  22  1   
 34  19  23  1   
 35  20  37  1   
 36  21  24  1   
 37  21  38  1   
 38  21  39  1   
 39  22  25  1   
 40  22  40  1   
 41  22  41  1   
 42  24  26  1   
 43  24  42  1   
 44  24  43  1   
 45  25  26  1   
 46  25  44  1   
 47  25  45  1   
 48  26  46  1   
 49  26  47  1   
@<TRIPOS>SUBSTRUCTURE
  1 ****  10 GROUP 4 **** **** 0

# MOE 2024.06 (io_trps.svl 2023.06)
