@<TRIPOS>MOLECULE
NONAME
61 63 1 0 0 
SMALL
USER_CHARGES


@<TRIPOS>ATOM
  1 O       -3.3840    -1.3530     0.2590 O.3   1 <1>  -0.3630 
  2 C       -3.1330    -0.0460    -0.0020 C.ar  1 <1>   0.0830 
  3 C       -2.5520    -2.3000    -0.3780 C.3   1 <1>   0.0400 
  4 C       -1.9250     0.5860     0.3120 C.ar  1 <1>   0.0830 
  5 C       -4.1450     0.6740    -0.6130 C.ar  1 <1>  -0.1500 
  6 O       -0.9080    -0.0380     0.9540 O.3   1 <1>  -0.3630 
  7 C       -1.7400     1.9130    -0.0370 C.ar  1 <1>  -0.1500 
  8 C       -3.9670     2.0120    -0.9370 C.ar  1 <1>  -0.1430 
  9 C       -1.1460    -0.4090     2.2940 C.3   1 <1>   0.0400 
 10 C       -2.7540     2.6240    -0.6570 C.ar  1 <1>  -0.1500 
 11 C       -5.1000     2.7880    -1.5850 C.3   1 <1>  -0.0170 
 12 C       -6.1920     3.0860    -0.5450 C.3   1 <1>   0.4230 
 13 N       -7.4170     3.5790    -1.2290 N.4   1 <1>  -0.9060 
 14 C       -5.7380     4.1340     0.4720 C.3   1 <1>  -0.2400 
 15 C       -8.6500     3.6070    -0.3980 C.3   1 <1>   0.4230 
 16 C       -9.1080     2.1830    -0.0630 C.3   1 <1>  -0.1600 
 17 C       -9.7460     4.3520    -1.1640 C.3   1 <1>  -0.1600 
 18 C      -10.4350     2.1940     0.6980 C.3   1 <1>   0.3430 
 19 C      -11.0690     4.3470    -0.3930 C.3   1 <1>   0.3430 
 20 N      -11.4640     2.9470    -0.0800 N.4   1 <1>  -0.9590 
 21 C      -12.7910     2.9030     0.6110 C.3   1 <1>   0.4860 
 22 C      -13.2360     1.4570     0.6690 C.ar  1 <1>  -0.1430 
 23 C      -13.1860     0.7580     1.8680 C.ar  1 <1>  -0.1500 
 24 C      -13.6840     0.8150    -0.4780 C.ar  1 <1>  -0.1500 
 25 C      -13.5590    -0.5730     1.9130 C.ar  1 <1>  -0.1500 
 26 C      -14.0560    -0.5170    -0.4290 C.ar  1 <1>  -0.1500 
 27 C      -13.9910    -1.2120     0.7650 C.ar  1 <1>  -0.1500 
 28 H       -2.9690    -3.2770    -0.2150 H     1 <1>   0.0800 
 29 H       -1.5650    -2.2510     0.0440 H     1 <1>   0.0800 
 30 H       -2.5180    -2.0840    -1.4310 H     1 <1>   0.0800 
 31 H       -5.0610     0.1600    -0.8340 H     1 <1>   0.1500 
 32 H       -0.8000     2.3840     0.1850 H     1 <1>   0.1500 
 33 H       -0.2380    -0.8250     2.6930 H     1 <1>   0.0800 
 34 H       -1.9310    -1.1420     2.3290 H     1 <1>   0.0800 
 35 H       -1.4250     0.4670     2.8520 H     1 <1>   0.0800 
 36 H       -2.5800     3.6550    -0.9140 H     1 <1>   0.1500 
 37 H       -5.4970     2.1830    -2.3810 H     1 <1>   0.0800 
 38 H       -4.7210     3.7000    -2.0110 H     1 <1>   0.0800 
 39 H       -6.4080     2.1650    -0.0280 H     1 <1>   0.0800 
 40 H       -7.5720     3.0020    -2.0640 H     1 <1>   0.4500 
 41 H       -7.2070     4.5260    -1.5690 H     1 <1>   0.4500 
 42 H       -4.8490     3.7890     0.9720 H     1 <1>   0.0800 
 43 H       -6.4770     4.2960     1.2340 H     1 <1>   0.0800 
 44 H       -5.5000     5.0680    -0.0060 H     1 <1>   0.0800 
 45 H       -8.4520     4.1380     0.5200 H     1 <1>   0.0800 
 46 H       -8.3820     1.6950     0.5630 H     1 <1>   0.0800 
 47 H       -9.2280     1.5980    -0.9570 H     1 <1>   0.0800 
 48 H       -9.9080     3.9040    -2.1300 H     1 <1>   0.0800 
 49 H       -9.4510     5.3760    -1.3140 H     1 <1>   0.0800 
 50 H      -10.3010     2.6520     1.6650 H     1 <1>   0.0800 
 51 H      -10.7630     1.1760     0.8550 H     1 <1>   0.0800 
 52 H      -11.8350     4.8230    -0.9880 H     1 <1>   0.0800 
 53 H      -10.9610     4.9090     0.5220 H     1 <1>   0.0800 
 54 H      -11.6290     2.4280    -0.9550 H     1 <1>   0.4500 
 55 H      -13.5220     3.4750     0.0620 H     1 <1>   0.0800 
 56 H      -12.7170     3.3080     1.6080 H     1 <1>   0.0800 
 57 H      -12.8630     1.2320     2.7800 H     1 <1>   0.1500 
 58 H      -13.7590     1.3330    -1.4190 H     1 <1>   0.1500 
 59 H      -13.5210    -1.1180     2.8430 H     1 <1>   0.1500 
 60 H      -14.4040    -1.0180    -1.3180 H     1 <1>   0.1500 
 61 H      -14.2830    -2.2480     0.8020 H     1 <1>   0.1500 
@<TRIPOS>BOND
  1   1   2  1   
  2   1   3  1   
  3   2   4  ar  
  4   2   5  ar  
  5   3  28  1   
  6   3  29  1   
  7   3  30  1   
  8   4   6  1   
  9   4   7  ar  
 10   5   8  ar  
 11   5  31  1   
 12   6   9  1   
 13   7  10  ar  
 14   7  32  1   
 15   8  10  ar  
 16   8  11  1   
 17   9  33  1   
 18   9  34  1   
 19   9  35  1   
 20  10  36  1   
 21  11  12  1   
 22  11  37  1   
 23  11  38  1   
 24  12  13  1   
 25  12  14  1   
 26  12  39  1   
 27  13  15  1   
 28  13  40  1   
 29  13  41  1   
 30  14  42  1   
 31  14  43  1   
 32  14  44  1   
 33  15  16  1   
 34  15  17  1   
 35  15  45  1   
 36  16  18  1   
 37  16  46  1   
 38  16  47  1   
 39  17  19  1   
 40  17  48  1   
 41  17  49  1   
 42  18  20  1   
 43  18  50  1   
 44  18  51  1   
 45  19  20  1   
 46  19  52  1   
 47  19  53  1   
 48  20  21  1   
 49  20  54  1   
 50  21  22  1   
 51  21  55  1   
 52  21  56  1   
 53  22  23  ar  
 54  22  24  ar  
 55  23  25  ar  
 56  23  57  1   
 57  24  26  ar  
 58  24  58  1   
 59  25  27  ar  
 60  25  59  1   
 61  26  27  ar  
 62  26  60  1   
 63  27  61  1   
@<TRIPOS>SUBSTRUCTURE
  1 ****  16 GROUP 4 **** **** 0

# MOE 2024.06 (io_trps.svl 2023.06)
