@<TRIPOS>MOLECULE
NONAME
55 56 1 0 0 
SMALL
USER_CHARGES


@<TRIPOS>ATOM
  1 S        0.4270    -0.9840    -0.1040 S.o2  1 <1>   1.4470 
  2 O        1.5690    -0.4110    -0.7750 O.2   1 <1>  -0.6500 
  3 O        0.5500    -1.3620     1.2880 O.2   1 <1>  -0.6500 
  4 N       -0.0160    -2.4050    -0.9170 N.am  1 <1>  -0.8490 
  5 C       -1.0040     0.1040    -0.3530 C.ar  1 <1>  -0.0090 
  6 C        1.0910    -3.4010    -0.9370 C.3   1 <1>   0.2570 
  7 C       -1.2330    -3.0110    -0.3570 C.3   1 <1>   0.1960 
  8 C       -1.7100     0.6330     0.7220 C.ar  1 <1>  -0.1500 
  9 C       -1.4400     0.4190    -1.6340 C.ar  1 <1>  -0.1500 
 10 C        2.2940    -3.0920    -1.8480 C.2   1 <1>   0.5690 
 11 C       -2.0340    -3.7090    -1.4580 C.3   1 <1>  -0.0160 
 12 C       -2.8160     1.4410     0.5240 C.ar  1 <1>  -0.1500 
 13 C       -2.5460     1.2260    -1.8380 C.ar  1 <1>  -0.1500 
 14 O        2.1610    -3.2100    -3.0420 O.2   1 <1>  -0.5700 
 15 N        3.5180    -2.7720    -1.3540 N.am  1 <1>  -0.7300 
 16 C       -3.3660    -4.1860    -0.9020 C.ar  1 <1>  -0.1430 
 17 C       -3.2410     1.7420    -0.7580 C.ar  1 <1>  -0.1430 
 18 C        3.9170    -2.4420     0.0220 C.3   1 <1>   0.2200 
 19 C       -4.4210    -3.2950    -0.7760 C.ar  1 <1>  -0.1500 
 20 C       -3.5370    -5.5050    -0.5110 C.ar  1 <1>  -0.1500 
 21 C       -4.4550     2.6270    -0.9760 C.3   1 <1>  -0.0970 
 22 C        4.8060    -1.1930    -0.0280 C.3   1 <1>  -0.1600 
 23 C        4.6360    -3.6590     0.6000 C.3   1 <1>  -0.2400 
 24 C       -5.6350    -3.7190    -0.2630 C.ar  1 <1>  -0.1500 
 25 C       -4.7510    -5.9290     0.0020 C.ar  1 <1>  -0.1500 
 26 C        5.1440    -0.6390     1.3640 C.3   1 <1>  -0.2400 
 27 C       -5.8000    -5.0360     0.1270 C.ar  1 <1>  -0.1500 
 28 H        0.7040    -4.3380    -1.2920 H     1 <1>   0.0800 
 29 H        1.4370    -3.5720     0.0660 H     1 <1>   0.0800 
 30 H       -1.8680    -2.2540     0.0700 H     1 <1>   0.0800 
 31 H       -0.9890    -3.7020     0.4330 H     1 <1>   0.0800 
 32 H       -1.3930     0.4080     1.7260 H     1 <1>   0.1500 
 33 H       -0.9040     0.0240    -2.4820 H     1 <1>   0.1500 
 34 H       -1.4840    -4.5430    -1.8540 H     1 <1>   0.0800 
 35 H       -2.2140    -3.0160    -2.2610 H     1 <1>   0.0800 
 36 H       -3.3450     1.8340     1.3750 H     1 <1>   0.1500 
 37 H       -2.8600     1.4510    -2.8430 H     1 <1>   0.1500 
 38 H        4.2250    -2.5730    -2.0630 H     1 <1>   0.3700 
 39 H        3.0460    -2.2230     0.6150 H     1 <1>   0.0800 
 40 H       -4.3050    -2.2680    -1.0770 H     1 <1>   0.1500 
 41 H       -2.7290    -6.2090    -0.6040 H     1 <1>   0.1500 
 42 H       -5.3470     2.0270    -0.9770 H     1 <1>   0.0800 
 43 H       -4.3820     3.1430    -1.9160 H     1 <1>   0.0800 
 44 H       -4.5300     3.3600    -0.1930 H     1 <1>   0.0800 
 45 H        4.2820    -0.4240    -0.5710 H     1 <1>   0.0800 
 46 H        5.7180    -1.4120    -0.5540 H     1 <1>   0.0800 
 47 H        5.5400    -3.8590     0.0540 H     1 <1>   0.0800 
 48 H        3.9980    -4.5230     0.5550 H     1 <1>   0.0800 
 49 H        4.8880    -3.4880     1.6300 H     1 <1>   0.0800 
 50 H       -6.4510    -3.0240    -0.1670 H     1 <1>   0.1500 
 51 H       -4.8800    -6.9540     0.3030 H     1 <1>   0.1500 
 52 H        4.2410    -0.4370     1.9140 H     1 <1>   0.0800 
 53 H        5.6920     0.2810     1.2650 H     1 <1>   0.0800 
 54 H        5.7470    -1.3320     1.9220 H     1 <1>   0.0800 
 55 H       -6.7440    -5.3660     0.5260 H     1 <1>   0.1500 
@<TRIPOS>BOND
  1   1   2  2   
  2   1   3  2   
  3   1   4  am  
  4   1   5  1   
  5   4   6  1   
  6   4   7  1   
  7   5   8  ar  
  8   5   9  ar  
  9   6  10  1   
 10   6  28  1   
 11   6  29  1   
 12   7  11  1   
 13   7  30  1   
 14   7  31  1   
 15   8  12  ar  
 16   8  32  1   
 17   9  13  ar  
 18   9  33  1   
 19  10  14  2   
 20  10  15  am  
 21  11  16  1   
 22  11  34  1   
 23  11  35  1   
 24  12  17  ar  
 25  12  36  1   
 26  13  17  ar  
 27  13  37  1   
 28  15  18  1   
 29  15  38  1   
 30  16  19  ar  
 31  16  20  ar  
 32  17  21  1   
 33  18  22  1   
 34  18  23  1   
 35  18  39  1   
 36  19  24  ar  
 37  19  40  1   
 38  20  25  ar  
 39  20  41  1   
 40  21  42  1   
 41  21  43  1   
 42  21  44  1   
 43  22  26  1   
 44  22  45  1   
 45  22  46  1   
 46  23  47  1   
 47  23  48  1   
 48  23  49  1   
 49  24  27  ar  
 50  24  50  1   
 51  25  27  ar  
 52  25  51  1   
 53  26  52  1   
 54  26  53  1   
 55  26  54  1   
 56  27  55  1   
@<TRIPOS>SUBSTRUCTURE
  1 ****   4 GROUP 4 **** **** 0

# MOE 2024.06 (io_trps.svl 2023.06)
