@<TRIPOS>MOLECULE
NONAME
37 39 1 0 0 
SMALL
USER_CHARGES


@<TRIPOS>ATOM
  1 O       -0.0480    -0.4330    -0.0030 O.3   1 <1>  -0.3630 
  2 C       -0.0980    -1.7770    -0.0040 C.ar  1 <1>   0.7020 
  3 C       -1.2160     0.3630    -0.0530 C.3   1 <1>   0.0400 
  4 N        1.0610    -2.3640     0.0450 N.ar  1 <1>  -0.6200 
  5 N       -1.2690    -2.3540    -0.0510 N.ar  1 <1>  -0.6200 
  6 C        0.9880    -3.6710     0.0410 C.ar  1 <1>   0.7200 
  7 C       -1.2070    -3.6620    -0.0460 C.ar  1 <1>   0.7200 
  8 N       -0.1130    -4.3740    -0.0020 N.ar  1 <1>  -0.6200 
  9 N        2.1730    -4.3620     0.0910 N.pl3 1 <1>  -0.8380 
 10 N       -2.3990    -4.3420    -0.0940 N.pl3 1 <1>  -0.8380 
 11 C        2.2850    -5.8250    -0.0720 C.3   1 <1>   0.2090 
 12 C        3.5010    -3.7130     0.0990 C.3   1 <1>   0.2090 
 13 C       -3.7240    -3.6910    -0.1210 C.3   1 <1>   0.2090 
 14 C       -2.5160    -5.8080     0.0450 C.3   1 <1>   0.2090 
 15 C        3.7530    -6.0620    -0.4090 C.3   1 <1>  -0.1600 
 16 C        4.4890    -4.8690     0.1970 C.3   1 <1>  -0.1600 
 17 C       -4.7120    -4.8430    -0.2570 C.3   1 <1>  -0.1600 
 18 C       -3.9910    -6.0470     0.3470 C.3   1 <1>  -0.1600 
 19 H       -0.9200     1.3960    -0.0420 H     1 <1>   0.0800 
 20 H       -1.8240     0.1420     0.8070 H     1 <1>   0.0800 
 21 H       -1.7510     0.1390    -0.9600 H     1 <1>   0.0800 
 22 H        1.6370    -6.1800    -0.8560 H     1 <1>   0.0800 
 23 H        2.0250    -6.3010     0.8580 H     1 <1>   0.0800 
 24 H        3.5930    -3.0360     0.9320 H     1 <1>   0.0800 
 25 H        3.6340    -3.1730    -0.8240 H     1 <1>   0.0800 
 26 H       -3.7980    -3.0030    -0.9460 H     1 <1>   0.0800 
 27 H       -3.8770    -3.1660     0.8070 H     1 <1>   0.0800 
 28 H       -1.8860    -6.1750     0.8380 H     1 <1>   0.0800 
 29 H       -2.2370    -6.2710    -0.8860 H     1 <1>   0.0800 
 30 H        3.8660    -6.0550    -1.4790 H     1 <1>   0.0800 
 31 H        4.1030    -7.0020    -0.0230 H     1 <1>   0.0800 
 32 H        4.6970    -5.0570     1.2350 H     1 <1>   0.0800 
 33 H        5.4100    -4.6500    -0.3130 H     1 <1>   0.0800 
 34 H       -4.8980    -5.0170    -1.3030 H     1 <1>   0.0800 
 35 H       -5.6440    -4.6300     0.2350 H     1 <1>   0.0800 
 36 H       -4.1280    -6.0560     1.4140 H     1 <1>   0.0800 
 37 H       -4.3350    -6.9810    -0.0600 H     1 <1>   0.0800 
@<TRIPOS>BOND
  1   1   2  1   
  2   1   3  1   
  3   2   4  ar  
  4   2   5  ar  
  5   3  19  1   
  6   3  20  1   
  7   3  21  1   
  8   4   6  ar  
  9   5   7  ar  
 10   6   8  ar  
 11   6   9  1   
 12   7   8  ar  
 13   7  10  1   
 14   9  11  1   
 15   9  12  1   
 16  10  13  1   
 17  10  14  1   
 18  11  15  1   
 19  11  22  1   
 20  11  23  1   
 21  12  16  1   
 22  12  24  1   
 23  12  25  1   
 24  13  17  1   
 25  13  26  1   
 26  13  27  1   
 27  14  18  1   
 28  14  28  1   
 29  14  29  1   
 30  15  16  1   
 31  15  30  1   
 32  15  31  1   
 33  16  32  1   
 34  16  33  1   
 35  17  18  1   
 36  17  34  1   
 37  17  35  1   
 38  18  36  1   
 39  18  37  1   
@<TRIPOS>SUBSTRUCTURE
  1 ****   8 GROUP 4 **** **** 0

# MOE 2024.06 (io_trps.svl 2023.06)
