@<TRIPOS>MOLECULE
NONAME
46 48 1 0 0 
SMALL
USER_CHARGES


@<TRIPOS>ATOM
  1 F        1.3290     0.7440    -1.4500 F     1 <1>  -0.1900 
  2 C        2.4990     0.5480    -0.8970 C.ar  1 <1>   0.1900 
  3 C        3.6370     0.8610    -1.6160 C.ar  1 <1>  -0.1500 
  4 C        2.5520     0.0370     0.3860 C.ar  1 <1>  -0.1500 
  5 C        4.8710     0.6510    -1.0250 C.ar  1 <1>  -0.1500 
  6 C        3.7940    -0.1660     0.9630 C.ar  1 <1>  -0.1500 
  7 C        4.9600     0.1370     0.2670 C.ar  1 <1>   0.1000 
  8 N        6.1890    -0.0820     0.8760 N.pl3 1 <1>  -0.8380 
  9 C        7.0080    -1.1920     0.3020 C.3   1 <1>   0.2090 
 10 C        7.0070     1.1410     1.1540 C.3   1 <1>   0.2090 
 11 C        8.2130    -1.5240     1.2030 C.3   1 <1>   0.1400 
 12 C        8.2010     0.8100     2.0650 C.3   1 <1>   0.1400 
 13 N        9.0230    -0.2980     1.4870 N.am  1 <1>  -0.6600 
 14 C       10.1720    -0.0150     0.7990 C.2   1 <1>   0.6900 
 15 O       10.3980     1.1210     0.4260 O.2   1 <1>  -0.5700 
 16 N       11.0470    -1.0340     0.5680 N.am  1 <1>  -0.5470 
 17 C       12.2110    -1.1130    -0.2130 C.ar  1 <1>   0.1170 
 18 C       13.2230    -2.0220     0.1200 C.ar  1 <1>  -0.1430 
 19 C       12.3600    -0.3170    -1.3430 C.ar  1 <1>  -0.1500 
 20 C       14.3520    -2.1290    -0.6920 C.ar  1 <1>  -0.1430 
 21 C       13.0670    -2.8820     1.3780 C.3   1 <1>  -0.0970 
 22 C       13.4830    -0.4160    -2.1370 C.ar  1 <1>  -0.1500 
 23 C       14.4730    -1.3220    -1.8130 C.ar  1 <1>  -0.1500 
 24 C       15.4830    -3.1090    -0.4040 C.3   1 <1>  -0.0970 
 25 H        3.5540     1.2570    -2.6120 H     1 <1>   0.1500 
 26 H        1.6460    -0.1940     0.9150 H     1 <1>   0.1500 
 27 H        5.7710     0.8850    -1.5610 H     1 <1>   0.1500 
 28 H        3.8760    -0.5620     1.9590 H     1 <1>   0.1500 
 29 H        7.3640    -0.9100    -0.6740 H     1 <1>   0.0800 
 30 H        6.3910    -2.0670     0.1930 H     1 <1>   0.0800 
 31 H        6.3890     1.8820     1.6280 H     1 <1>   0.0800 
 32 H        7.3760     1.5520     0.2300 H     1 <1>   0.0800 
 33 H        8.8120    -2.2740     0.7180 H     1 <1>   0.0800 
 34 H        7.8530    -1.9320     2.1310 H     1 <1>   0.0800 
 35 H        7.8340     0.5120     3.0310 H     1 <1>   0.0800 
 36 H        8.8040     1.6910     2.1990 H     1 <1>   0.0800 
 37 H       10.8960    -1.8200     1.1890 H     1 <1>   0.3700 
 38 H       11.5920     0.3860    -1.6080 H     1 <1>   0.1500 
 39 H       12.3550    -3.6660     1.1950 H     1 <1>   0.0800 
 40 H       12.7260    -2.2790     2.2000 H     1 <1>   0.0800 
 41 H       13.9910    -3.3300     1.6870 H     1 <1>   0.0800 
 42 H       13.5850     0.2100    -3.0060 H     1 <1>   0.1500 
 43 H       15.3420    -1.3900    -2.4440 H     1 <1>   0.1500 
 44 H       15.9940    -2.8250     0.4980 H     1 <1>   0.0800 
 45 H       16.1990    -3.1220    -1.2060 H     1 <1>   0.0800 
 46 H       15.0920    -4.1050    -0.2930 H     1 <1>   0.0800 
@<TRIPOS>BOND
  1   1   2  1   
  2   2   3  ar  
  3   2   4  ar  
  4   3   5  ar  
  5   3  25  1   
  6   4   6  ar  
  7   4  26  1   
  8   5   7  ar  
  9   5  27  1   
 10   6   7  ar  
 11   6  28  1   
 12   7   8  1   
 13   8   9  1   
 14   8  10  1   
 15   9  11  1   
 16   9  29  1   
 17   9  30  1   
 18  10  12  1   
 19  10  31  1   
 20  10  32  1   
 21  11  13  1   
 22  11  33  1   
 23  11  34  1   
 24  12  13  1   
 25  12  35  1   
 26  12  36  1   
 27  13  14  am  
 28  14  15  2   
 29  14  16  am  
 30  16  17  1   
 31  16  37  1   
 32  17  18  ar  
 33  17  19  ar  
 34  18  20  ar  
 35  18  21  1   
 36  19  22  ar  
 37  19  38  1   
 38  20  23  ar  
 39  20  24  1   
 40  21  39  1   
 41  21  40  1   
 42  21  41  1   
 43  22  23  ar  
 44  22  42  1   
 45  23  43  1   
 46  24  44  1   
 47  24  45  1   
 48  24  46  1   
@<TRIPOS>SUBSTRUCTURE
  1 ****  13 GROUP 4 **** **** 0

# MOE 2024.06 (io_trps.svl 2023.06)
