@<TRIPOS>MOLECULE
NONAME
35 36 1 0 0 
SMALL
USER_CHARGES


@<TRIPOS>ATOM
  1 CL       1.8190    -0.9970     2.2850 Cl    1 <1>  -0.1770 
  2 C        3.0290    -1.4690     1.1190 C.ar  1 <1>   0.1770 
  3 C        3.8070    -0.4990     0.5190 C.ar  1 <1>  -0.1500 
  4 C        3.1850    -2.8100     0.8150 C.ar  1 <1>  -0.1500 
  5 C        4.7690    -0.8690    -0.4090 C.ar  1 <1>   0.1000 
  6 C        4.1410    -3.1840    -0.1140 C.ar  1 <1>  -0.1500 
  7 N        5.5600     0.1040    -1.0290 N.pl3 1 <1>  -0.6000 
  8 C        4.9240    -2.2160    -0.7210 C.ar  1 <1>  -0.1500 
  9 C        6.9220     0.1530    -1.1410 C.2   1 <1>  -0.0500 
 10 C        7.9010    -0.5050    -0.4250 C.2   1 <1>   0.0290 
 11 C        9.2490    -0.4860    -0.9050 C.2   1 <1>   0.4950 
 12 C        7.6870    -1.2080     0.8070 C.2   1 <1>   0.4950 
 13 O        9.6350     0.2480    -1.7830 O.2   1 <1>  -0.5700 
 14 C       10.2820    -1.4430    -0.3320 C.3   1 <1>  -0.0990 
 15 O        6.8820    -0.8790     1.6440 O.2   1 <1>  -0.5700 
 16 C        8.5550    -2.3970     1.1930 C.3   1 <1>  -0.0990 
 17 C        9.6420    -2.7500     0.1640 C.3   1 <1>   0.0000 
 18 C        9.0370    -3.5430    -1.0100 C.3   1 <1>  -0.2400 
 19 C       10.7160    -3.6270     0.8270 C.3   1 <1>  -0.2400 
 20 H        3.6760     0.5330     0.7820 H     1 <1>   0.1500 
 21 H        2.5660    -3.5430     1.3000 H     1 <1>   0.1500 
 22 H        4.2730    -4.2230    -0.3630 H     1 <1>   0.1500 
 23 H        5.0140     0.8260    -1.5130 H     1 <1>   0.4000 
 24 H        5.6620    -2.5010    -1.4480 H     1 <1>   0.1500 
 25 H        7.2620     0.8040    -1.9330 H     1 <1>   0.1500 
 26 H       11.0120    -1.6610    -1.0920 H     1 <1>   0.0800 
 27 H       10.7890    -0.9440     0.4730 H     1 <1>   0.0800 
 28 H        9.0180    -2.1480     2.1320 H     1 <1>   0.0800 
 29 H        7.9180    -3.2450     1.3700 H     1 <1>   0.0800 
 30 H        9.7950    -3.7690    -1.7410 H     1 <1>   0.0800 
 31 H        8.2520    -3.0010    -1.5050 H     1 <1>   0.0800 
 32 H        8.6250    -4.4740    -0.6620 H     1 <1>   0.0800 
 33 H       11.1820    -3.1100     1.6480 H     1 <1>   0.0800 
 34 H       11.4820    -3.8900     0.1190 H     1 <1>   0.0800 
 35 H       10.2810    -4.5360     1.2060 H     1 <1>   0.0800 
@<TRIPOS>BOND
  1   1   2  1   
  2   2   3  ar  
  3   2   4  ar  
  4   3   5  ar  
  5   3  20  1   
  6   4   6  ar  
  7   4  21  1   
  8   5   7  1   
  9   5   8  ar  
 10   6   8  ar  
 11   6  22  1   
 12   7   9  1   
 13   7  23  1   
 14   8  24  1   
 15   9  10  2   
 16   9  25  1   
 17  10  11  1   
 18  10  12  1   
 19  11  13  2   
 20  11  14  1   
 21  12  15  2   
 22  12  16  1   
 23  14  17  1   
 24  14  26  1   
 25  14  27  1   
 26  16  17  1   
 27  16  28  1   
 28  16  29  1   
 29  17  18  1   
 30  17  19  1   
 31  18  30  1   
 32  18  31  1   
 33  18  32  1   
 34  19  33  1   
 35  19  34  1   
 36  19  35  1   
@<TRIPOS>SUBSTRUCTURE
  1 ****  12 GROUP 4 **** **** 0

# MOE 2024.06 (io_trps.svl 2023.06)
