@<TRIPOS>MOLECULE
NONAME
43 44 1 0 0 
SMALL
USER_CHARGES


@<TRIPOS>ATOM
  1 O        0.1840     0.8240    -0.6990 O.2   1 <1>  -0.5700 
  2 C        0.2710     1.1540     0.4660 C.2   1 <1>   0.6900 
  3 N       -0.8160     1.5280     1.1800 N.am  1 <1>  -0.7300 
  4 N        1.4500     1.1790     1.1250 N.am  1 <1>  -0.7300 
  5 C       -2.2220     1.6140     0.7310 C.3   1 <1>   0.2200 
  6 C        2.8130     0.8780     0.6260 C.3   1 <1>   0.3640 
  7 C       -2.7620     0.2330     0.3370 C.3   1 <1>  -0.1600 
  8 C       -2.3830     2.6330    -0.4040 C.3   1 <1>  -0.1600 
  9 C        3.4420     2.1480     0.0610 C.ar  1 <1>  -0.1440 
 10 C        2.9110    -0.3090    -0.3500 C.3   1 <1>  -0.1600 
 11 C       -4.2270     0.3250    -0.1140 C.3   1 <1>  -0.1600 
 12 C       -3.8500     2.7250    -0.8530 C.3   1 <1>  -0.1600 
 13 C        2.8980     2.7890    -1.0440 C.ar  1 <1>  -0.1500 
 14 C        4.5790     2.6830     0.6530 C.ar  1 <1>  -0.1500 
 15 C        2.3630    -1.6260     0.2240 C.3   1 <1>  -0.2400 
 16 C       -4.3940     1.3450    -1.2500 C.3   1 <1>  -0.1600 
 17 C        3.4760     3.9410    -1.5480 C.ar  1 <1>  -0.1500 
 18 C        5.1590     3.8350     0.1500 C.ar  1 <1>  -0.1500 
 19 C        4.6080     4.4650    -0.9510 C.ar  1 <1>  -0.1500 
 20 H       -0.6960     1.5910     2.1860 H     1 <1>   0.3700 
 21 H        1.4760     1.8120     1.9170 H     1 <1>   0.3700 
 22 H       -2.8050     1.9660     1.5660 H     1 <1>   0.0800 
 23 H        3.3890     0.5940     1.4900 H     1 <1>   0.0800 
 24 H       -2.6840    -0.4380     1.1740 H     1 <1>   0.0800 
 25 H       -2.1760    -0.1650    -0.4730 H     1 <1>   0.0800 
 26 H       -1.7850     2.3360    -1.2470 H     1 <1>   0.0800 
 27 H       -2.0460     3.5990    -0.0730 H     1 <1>   0.0800 
 28 H        3.9500    -0.4500    -0.5910 H     1 <1>   0.0800 
 29 H        2.4120    -0.0750    -1.2720 H     1 <1>   0.0800 
 30 H       -4.8420     0.6160     0.7200 H     1 <1>   0.0800 
 31 H       -4.5610    -0.6430    -0.4480 H     1 <1>   0.0800 
 32 H       -3.9260     3.3960    -1.6910 H     1 <1>   0.0800 
 33 H       -4.4460     3.1280    -0.0520 H     1 <1>   0.0800 
 34 H        2.0160     2.3910    -1.5180 H     1 <1>   0.1500 
 35 H        5.0230     2.2060     1.5090 H     1 <1>   0.1500 
 36 H        1.3080    -1.5410     0.4160 H     1 <1>   0.0800 
 37 H        2.8640    -1.8790     1.1410 H     1 <1>   0.0800 
 38 H        2.5120    -2.4230    -0.4830 H     1 <1>   0.0800 
 39 H       -5.4350     1.4280    -1.5110 H     1 <1>   0.0800 
 40 H       -3.8640     0.9940    -2.1190 H     1 <1>   0.0800 
 41 H        3.0420     4.4260    -2.4040 H     1 <1>   0.1500 
 42 H        6.0400     4.2410     0.6150 H     1 <1>   0.1500 
 43 H        5.0580     5.3610    -1.3420 H     1 <1>   0.1500 
@<TRIPOS>BOND
  1   1   2  2   
  2   2   3  am  
  3   2   4  am  
  4   3   5  1   
  5   3  20  1   
  6   4   6  1   
  7   4  21  1   
  8   5   7  1   
  9   5   8  1   
 10   5  22  1   
 11   6   9  1   
 12   6  10  1   
 13   6  23  1   
 14   7  11  1   
 15   7  24  1   
 16   7  25  1   
 17   8  12  1   
 18   8  26  1   
 19   8  27  1   
 20   9  13  ar  
 21   9  14  ar  
 22  10  15  1   
 23  10  28  1   
 24  10  29  1   
 25  11  16  1   
 26  11  30  1   
 27  11  31  1   
 28  12  16  1   
 29  12  32  1   
 30  12  33  1   
 31  13  17  ar  
 32  13  34  1   
 33  14  18  ar  
 34  14  35  1   
 35  15  36  1   
 36  15  37  1   
 37  15  38  1   
 38  16  39  1   
 39  16  40  1   
 40  17  19  ar  
 41  17  41  1   
 42  18  19  ar  
 43  18  42  1   
 44  19  43  1   
@<TRIPOS>SUBSTRUCTURE
  1 ****   2 GROUP 4 **** **** 0

# MOE 2024.06 (io_trps.svl 2023.06)
