@<TRIPOS>MOLECULE
NONAME
52 54 1 0 0 
SMALL
USER_CHARGES


@<TRIPOS>ATOM
  1 S        0.0830    -0.2930     1.2050 S.o2  1 <1>   1.4470 
  2 O        0.6000    -0.7430     2.4810 O.2   1 <1>  -0.6500 
  3 O        0.0920     1.1230     0.9040 O.2   1 <1>  -0.6500 
  4 N        0.9930    -1.0830     0.0100 N.am  1 <1>  -0.8490 
  5 C       -1.5940    -0.9390     0.9580 C.ar  1 <1>  -0.0090 
  6 C        1.1530    -2.5100     0.3160 C.3   1 <1>   0.1960 
  7 C        2.2680    -0.3930    -0.2110 C.3   1 <1>   0.1960 
  8 C       -2.3840    -1.3270     2.0340 C.ar  1 <1>  -0.1500 
  9 C       -2.1400    -1.0570    -0.3150 C.ar  1 <1>  -0.1500 
 10 C        1.3450    -3.3150    -0.9720 C.3   1 <1>  -0.1600 
 11 C        3.0490    -0.9170    -1.4240 C.3   1 <1>  -0.1600 
 12 C       -3.6630    -1.8200     1.8460 C.ar  1 <1>  -0.1500 
 13 C       -3.4170    -1.5520    -0.5080 C.ar  1 <1>  -0.1500 
 14 C        2.8050    -3.4820    -1.4230 C.3   1 <1>  -0.1600 
 15 C        3.7220    -2.2760    -1.1790 C.3   1 <1>  -0.1600 
 16 C       -4.2020    -1.9410     0.5710 C.ar  1 <1>   0.1170 
 17 N       -5.4950    -2.4600     0.4290 N.am  1 <1>  -0.5470 
 18 C       -6.4150    -2.3430    -0.5740 C.2   1 <1>   0.6900 
 19 O       -6.2340    -1.5830    -1.5060 O.2   1 <1>  -0.5700 
 20 N       -7.5700    -3.0790    -0.4920 N.am  1 <1>  -0.6600 
 21 C       -7.7010    -4.3660     0.2460 C.3   1 <1>   0.1400 
 22 C       -8.7610    -2.7270    -1.3120 C.3   1 <1>   0.1400 
 23 C       -8.9190    -4.3030     1.1720 C.3   1 <1>  -0.1600 
 24 C      -10.0020    -2.6610    -0.4130 C.3   1 <1>  -0.1600 
 25 C      -10.1960    -3.9550     0.3930 C.3   1 <1>  -0.1600 
 26 H        0.2540    -2.8740     0.7840 H     1 <1>   0.0800 
 27 H        1.9620    -2.6700     1.0110 H     1 <1>   0.0800 
 28 H        2.8750    -0.4520     0.6780 H     1 <1>   0.0800 
 29 H        2.0700     0.6500    -0.3960 H     1 <1>   0.0800 
 30 H       -1.9900    -1.2400     3.0330 H     1 <1>   0.1500 
 31 H       -1.5530    -0.7580    -1.1680 H     1 <1>   0.1500 
 32 H        0.7690    -2.8550    -1.7560 H     1 <1>   0.0800 
 33 H        0.9360    -4.2980    -0.8210 H     1 <1>   0.0800 
 34 H        3.8270    -0.2030    -1.6260 H     1 <1>   0.0800 
 35 H        2.4140    -0.9460    -2.2920 H     1 <1>   0.0800 
 36 H       -4.2480    -2.1090     2.7000 H     1 <1>   0.1500 
 37 H       -3.8020    -1.6360    -1.5080 H     1 <1>   0.1500 
 38 H        2.8020    -3.7090    -2.4750 H     1 <1>   0.0800 
 39 H        3.2330    -4.3320    -0.9200 H     1 <1>   0.0800 
 40 H        4.1020    -2.3080    -0.1720 H     1 <1>   0.0800 
 41 H        4.5710    -2.3670    -1.8350 H     1 <1>   0.0800 
 42 H       -5.8920    -2.8940     1.2530 H     1 <1>   0.3700 
 43 H       -6.8140    -4.5830     0.8140 H     1 <1>   0.0800 
 44 H       -7.8340    -5.1600    -0.4700 H     1 <1>   0.0800 
 45 H       -8.8960    -3.4750    -2.0750 H     1 <1>   0.0800 
 46 H       -8.6210    -1.7750    -1.7970 H     1 <1>   0.0800 
 47 H       -8.7440    -3.5610     1.9320 H     1 <1>   0.0800 
 48 H       -9.0440    -5.2530     1.6620 H     1 <1>   0.0800 
 49 H      -10.8700    -2.4790    -1.0200 H     1 <1>   0.0800 
 50 H       -9.8940    -1.8280     0.2600 H     1 <1>   0.0800 
 51 H      -11.0200    -3.8390     1.0750 H     1 <1>   0.0800 
 52 H      -10.4330    -4.7600    -0.2820 H     1 <1>   0.0800 
@<TRIPOS>BOND
  1   1   2  2   
  2   1   3  2   
  3   1   4  am  
  4   1   5  1   
  5   4   6  1   
  6   4   7  1   
  7   5   8  ar  
  8   5   9  ar  
  9   6  10  1   
 10   6  26  1   
 11   6  27  1   
 12   7  11  1   
 13   7  28  1   
 14   7  29  1   
 15   8  12  ar  
 16   8  30  1   
 17   9  13  ar  
 18   9  31  1   
 19  10  14  1   
 20  10  32  1   
 21  10  33  1   
 22  11  15  1   
 23  11  34  1   
 24  11  35  1   
 25  12  16  ar  
 26  12  36  1   
 27  13  16  ar  
 28  13  37  1   
 29  14  15  1   
 30  14  38  1   
 31  14  39  1   
 32  15  40  1   
 33  15  41  1   
 34  16  17  1   
 35  17  18  am  
 36  17  42  1   
 37  18  19  2   
 38  18  20  am  
 39  20  21  1   
 40  20  22  1   
 41  21  23  1   
 42  21  43  1   
 43  21  44  1   
 44  22  24  1   
 45  22  45  1   
 46  22  46  1   
 47  23  25  1   
 48  23  47  1   
 49  23  48  1   
 50  24  25  1   
 51  24  49  1   
 52  24  50  1   
 53  25  51  1   
 54  25  52  1   
@<TRIPOS>SUBSTRUCTURE
  1 ****  13 GROUP 4 **** **** 0

# MOE 2024.06 (io_trps.svl 2023.06)
