@<TRIPOS>MOLECULE
NONAME
50 51 1 0 0 
SMALL
USER_CHARGES


@<TRIPOS>ATOM
  1 O        0.6480     2.7580    -2.5610 O.2   1 <1>  -0.5700 
  2 C        0.5700     2.9850    -1.3760 C.2   1 <1>   0.5690 
  3 N       -0.4920     2.5640    -0.6440 N.am  1 <1>  -0.7300 
  4 C        1.6990     3.7610    -0.6860 C.3   1 <1>   0.2610 
  5 C       -1.6660     1.8660    -1.1660 C.3   1 <1>   0.3640 
  6 O        1.7570     3.4190     0.6930 O.3   1 <1>  -0.3630 
  7 C        1.5040     5.2780    -0.7740 C.3   1 <1>  -0.2400 
  8 C       -2.8930     2.3490    -0.4000 C.ar  1 <1>  -0.1430 
  9 C       -1.4490     0.3620    -1.0200 C.3   1 <1>  -0.2400 
 10 C        2.9480     2.9890     1.1610 C.ar  1 <1>   0.0830 
 11 C       -3.8960     3.0300    -1.0740 C.ar  1 <1>  -0.1500 
 12 C       -3.0290     2.1290     0.9640 C.ar  1 <1>  -0.1500 
 13 C        3.3900     1.6870     0.9330 C.ar  1 <1>  -0.1430 
 14 C        3.7210     3.8790     1.8890 C.ar  1 <1>  -0.1500 
 15 C       -5.0280     3.4870    -0.4040 C.ar  1 <1>   0.0830 
 16 C       -4.1480     2.5760     1.6430 C.ar  1 <1>  -0.1500 
 17 C        4.6290     1.3080     1.4260 C.ar  1 <1>  -0.1500 
 18 C        2.5490     0.6740     0.1690 C.3   1 <1>  -0.0970 
 19 C        4.9540     3.4870     2.3780 C.ar  1 <1>  -0.1500 
 20 O       -6.0310     4.1620    -1.0380 O.3   1 <1>  -0.3620 
 21 C       -5.1560     3.2570     0.9680 C.ar  1 <1>   0.0830 
 22 C        5.4090     2.2010     2.1420 C.ar  1 <1>  -0.1500 
 23 C       -5.9610     4.4910    -2.4070 C.3   1 <1>   0.0400 
 24 O       -6.2780     3.7160     1.5960 O.3   1 <1>  -0.3630 
 25 C       -6.4900     3.5240     2.9760 C.3   1 <1>   0.0400 
 26 H       -0.5190     2.7820     0.3530 H     1 <1>   0.3700 
 27 H        2.6310     3.4880    -1.1500 H     1 <1>   0.0800 
 28 H       -1.7770     2.0990    -2.2130 H     1 <1>   0.0800 
 29 H        0.5840     5.5630    -0.2960 H     1 <1>   0.0800 
 30 H        1.4610     5.5760    -1.8060 H     1 <1>   0.0800 
 31 H        2.3280     5.7850    -0.3060 H     1 <1>   0.0800 
 32 H       -1.2590     0.0940     0.0020 H     1 <1>   0.0800 
 33 H       -0.6160     0.0570    -1.6280 H     1 <1>   0.0800 
 34 H       -2.3250    -0.1610    -1.3580 H     1 <1>   0.0800 
 35 H       -3.7810     3.2000    -2.1270 H     1 <1>   0.1500 
 36 H       -2.2620     1.6060     1.5090 H     1 <1>   0.1500 
 37 H        3.3560     4.8740     2.0690 H     1 <1>   0.1500 
 38 H       -4.2140     2.3840     2.6960 H     1 <1>   0.1500 
 39 H        4.9960     0.3110     1.2570 H     1 <1>   0.1500 
 40 H        1.5220     0.7330     0.4820 H     1 <1>   0.0800 
 41 H        2.8970    -0.3270     0.3520 H     1 <1>   0.0800 
 42 H        2.6060     0.8670    -0.8870 H     1 <1>   0.0800 
 43 H        5.5580     4.1780     2.9400 H     1 <1>   0.1500 
 44 H        6.3680     1.8940     2.5200 H     1 <1>   0.1500 
 45 H       -6.8510     5.0360    -2.6620 H     1 <1>   0.0800 
 46 H       -5.9120     3.5830    -2.9810 H     1 <1>   0.0800 
 47 H       -5.0950     5.1050    -2.5740 H     1 <1>   0.0800 
 48 H       -7.4350     3.9690     3.2310 H     1 <1>   0.0800 
 49 H       -5.7000     4.0070     3.5210 H     1 <1>   0.0800 
 50 H       -6.5160     2.4680     3.1810 H     1 <1>   0.0800 
@<TRIPOS>BOND
  1   1   2  2   
  2   2   3  am  
  3   2   4  1   
  4   3   5  1   
  5   3  26  1   
  6   4   6  1   
  7   4   7  1   
  8   4  27  1   
  9   5   8  1   
 10   5   9  1   
 11   5  28  1   
 12   6  10  1   
 13   7  29  1   
 14   7  30  1   
 15   7  31  1   
 16   8  11  ar  
 17   8  12  ar  
 18   9  32  1   
 19   9  33  1   
 20   9  34  1   
 21  10  13  ar  
 22  10  14  ar  
 23  11  15  ar  
 24  11  35  1   
 25  12  16  ar  
 26  12  36  1   
 27  13  17  ar  
 28  13  18  1   
 29  14  19  ar  
 30  14  37  1   
 31  15  20  1   
 32  15  21  ar  
 33  16  21  ar  
 34  16  38  1   
 35  17  22  ar  
 36  17  39  1   
 37  18  40  1   
 38  18  41  1   
 39  18  42  1   
 40  19  22  ar  
 41  19  43  1   
 42  20  23  1   
 43  21  24  1   
 44  22  44  1   
 45  23  45  1   
 46  23  46  1   
 47  23  47  1   
 48  24  25  1   
 49  25  48  1   
 50  25  49  1   
 51  25  50  1   
@<TRIPOS>SUBSTRUCTURE
  1 ****   3 GROUP 4 **** **** 0

# MOE 2024.06 (io_trps.svl 2023.06)
