@<TRIPOS>MOLECULE
NONAME
44 45 1 0 0 
SMALL
USER_CHARGES


@<TRIPOS>ATOM
  1 CL       0.5610     0.1000     0.8610 Cl    1 <1>  -0.1770 
  2 C        0.3140    -1.5660     0.3740 C.ar  1 <1>   0.1770 
  3 C        1.4240    -2.3590     0.0860 C.ar  1 <1>   0.1170 
  4 C       -0.9800    -2.0430     0.2910 C.ar  1 <1>  -0.1500 
  5 N        2.7120    -1.7920     0.1970 N.am  1 <1>  -0.5470 
  6 C        1.1820    -3.6770    -0.2970 C.ar  1 <1>  -0.1500 
  7 C       -1.1930    -3.3550    -0.0920 C.ar  1 <1>  -0.1500 
  8 C        3.9620    -2.3020    -0.0020 C.2   1 <1>   0.5690 
  9 C       -0.1100    -4.1670    -0.3840 C.ar  1 <1>  -0.1500 
 10 O        4.1890    -3.4350    -0.3410 O.2   1 <1>  -0.5700 
 11 C        5.1410    -1.3780     0.2160 C.3   1 <1>  -0.0990 
 12 C        6.4460    -2.1690     0.0950 C.3   1 <1>   0.3430 
 13 N        7.6440    -1.3190     0.3630 N.4   1 <1>  -0.9590 
 14 C        7.9150    -0.3240    -0.7150 C.3   1 <1>   0.3430 
 15 C        8.8490    -2.1830     0.6050 C.3   1 <1>   0.3430 
 16 C        8.9380     0.7120    -0.2140 C.3   1 <1>  -0.0800 
 17 C       10.1770    -1.3930     0.5600 C.3   1 <1>  -0.0800 
 18 C        9.9590     0.1150     0.7810 C.3   1 <1>  -0.1600 
 19 C        8.2320     1.9230     0.4160 C.3   1 <1>  -0.2400 
 20 C       10.9440    -1.6590    -0.7480 C.3   1 <1>  -0.2400 
 21 H       -1.8080    -1.3960     0.5220 H     1 <1>   0.1500 
 22 H        2.6710    -0.8110     0.4830 H     1 <1>   0.3700 
 23 H        1.9950    -4.3380    -0.5320 H     1 <1>   0.1500 
 24 H       -2.1960    -3.7440    -0.1620 H     1 <1>   0.1500 
 25 H       -0.2730    -5.1900    -0.6830 H     1 <1>   0.1500 
 26 H        5.0620    -0.9490     1.1980 H     1 <1>   0.0800 
 27 H        5.0970    -0.6030    -0.5250 H     1 <1>   0.0800 
 28 H        6.5130    -2.6030    -0.8910 H     1 <1>   0.0800 
 29 H        6.4140    -2.9820     0.8040 H     1 <1>   0.0800 
 30 H        7.4920    -0.7790     1.2240 H     1 <1>   0.4500 
 31 H        7.0110     0.1820    -1.0100 H     1 <1>   0.0800 
 32 H        8.3090    -0.8340    -1.5790 H     1 <1>   0.0800 
 33 H        8.8900    -2.9680    -0.1330 H     1 <1>   0.0800 
 34 H        8.7550    -2.6510     1.5710 H     1 <1>   0.0800 
 35 H        9.4740     1.0660    -1.0800 H     1 <1>   0.0800 
 36 H       10.7990    -1.7620     1.3590 H     1 <1>   0.0800 
 37 H        9.6060     0.2530     1.7900 H     1 <1>   0.0800 
 38 H       10.8940     0.6450     0.7050 H     1 <1>   0.0800 
 39 H        7.6560     1.6380     1.2780 H     1 <1>   0.0800 
 40 H        7.5760     2.3910    -0.2970 H     1 <1>   0.0800 
 41 H        8.9600     2.6550     0.7230 H     1 <1>   0.0800 
 42 H       10.3950    -1.3390    -1.6150 H     1 <1>   0.0800 
 43 H       11.1560    -2.7100    -0.8510 H     1 <1>   0.0800 
 44 H       11.8860    -1.1360    -0.7370 H     1 <1>   0.0800 
@<TRIPOS>BOND
  1   1   2  1   
  2   2   3  ar  
  3   2   4  ar  
  4   3   5  1   
  5   3   6  ar  
  6   4   7  ar  
  7   4  21  1   
  8   5   8  am  
  9   5  22  1   
 10   6   9  ar  
 11   6  23  1   
 12   7   9  ar  
 13   7  24  1   
 14   8  10  2   
 15   8  11  1   
 16   9  25  1   
 17  11  12  1   
 18  11  26  1   
 19  11  27  1   
 20  12  13  1   
 21  12  28  1   
 22  12  29  1   
 23  13  14  1   
 24  13  15  1   
 25  13  30  1   
 26  14  16  1   
 27  14  31  1   
 28  14  32  1   
 29  15  17  1   
 30  15  33  1   
 31  15  34  1   
 32  16  18  1   
 33  16  19  1   
 34  16  35  1   
 35  17  18  1   
 36  17  20  1   
 37  17  36  1   
 38  18  37  1   
 39  18  38  1   
 40  19  39  1   
 41  19  40  1   
 42  19  41  1   
 43  20  42  1   
 44  20  43  1   
 45  20  44  1   
@<TRIPOS>SUBSTRUCTURE
  1 ****  11 GROUP 4 **** **** 0

# MOE 2024.06 (io_trps.svl 2023.06)
