@<TRIPOS>MOLECULE
NONAME
46 49 1 0 0 
SMALL
USER_CHARGES


@<TRIPOS>ATOM
  1 S        0.0470     0.1790     0.4350 S.3   1 <1>  -0.0800 
  2 C       -0.6300     1.0050    -0.9750 C.2   1 <1>   0.0400 
  3 C        1.1280    -0.7870    -0.5490 C.2   1 <1>  -0.1100 
  4 C       -1.6410     2.0230    -0.8500 C.2   1 <1>   0.1860 
  5 C       -0.0090     0.5270    -2.0830 C.2   1 <1>  -0.1500 
  6 C        0.9720    -0.4810    -1.8490 C.2   1 <1>  -0.1500 
  7 N       -1.8370     2.9290    -1.7740 N.2   1 <1>  -0.3380 
  8 N       -2.5270     2.1930     0.1610 N.pl3 1 <1>   0.0480 
  9 N       -2.8430     3.7090    -1.3900 N.2   1 <1>  -0.3380 
 10 C       -3.2240     3.2460    -0.2540 C.2   1 <1>   0.2420 
 11 C       -2.8750     1.3320     1.3180 C.3   1 <1>   0.0960 
 12 S       -4.6140     3.9120     0.6650 S.3   1 <1>  -0.2860 
 13 C       -2.2480     1.8660     2.6100 C.3   1 <1>  -0.2400 
 14 C       -5.7870     4.4560    -0.6700 C.3   1 <1>   0.1310 
 15 C       -7.1260     3.7560    -0.4890 C.2   1 <1>   0.5690 
 16 O       -8.0850     4.4610    -0.2720 O.2   1 <1>  -0.5700 
 17 N       -7.2410     2.3810    -0.5170 N.am  1 <1>  -0.4770 
 18 C       -6.3000     1.3920    -0.8340 C.ar  1 <1>   0.1170 
 19 C       -8.3300     1.7390     0.2650 C.3   1 <1>   0.2200 
 20 C       -6.4970     0.2560    -0.0800 C.ar  1 <1>  -0.1430 
 21 C       -5.2820     1.4100    -1.7790 C.ar  1 <1>  -0.1500 
 22 C       -7.7080     0.4350     0.8020 C.3   1 <1>  -0.0170 
 23 C       -9.5180     1.4720    -0.6630 C.3   1 <1>  -0.2400 
 24 C       -5.6730    -0.8470    -0.1970 C.ar  1 <1>  -0.1500 
 25 C       -4.4470     0.3130    -1.9080 C.ar  1 <1>  -0.1500 
 26 C       -4.6350    -0.8100    -1.1150 C.ar  1 <1>  -0.1500 
 27 H        1.7720    -1.4870    -0.0460 H     1 <1>   0.1500 
 28 H       -0.2210     0.8710    -3.0810 H     1 <1>   0.1500 
 29 H        1.5150    -0.9260    -2.6650 H     1 <1>   0.1500 
 30 H       -2.5520     0.3270     1.1240 H     1 <1>   0.0800 
 31 H       -3.9460     1.3060     1.4180 H     1 <1>   0.0800 
 32 H       -1.1770     1.9090     2.5260 H     1 <1>   0.0800 
 33 H       -2.5000     1.2170     3.4300 H     1 <1>   0.0800 
 34 H       -2.6250     2.8500     2.8310 H     1 <1>   0.0800 
 35 H       -5.3560     4.2400    -1.6260 H     1 <1>   0.0800 
 36 H       -5.9030     5.5180    -0.5630 H     1 <1>   0.0800 
 37 H       -8.6330     2.3730     1.0820 H     1 <1>   0.0800 
 38 H       -5.1340     2.2620    -2.4150 H     1 <1>   0.1500 
 39 H       -8.3850    -0.3970     0.7320 H     1 <1>   0.0800 
 40 H       -7.4020     0.5660     1.8250 H     1 <1>   0.0800 
 41 H       -9.2240     0.8430    -1.4850 H     1 <1>   0.0800 
 42 H       -9.8950     2.4040    -1.0480 H     1 <1>   0.0800 
 43 H      -10.3090     0.9880    -0.1210 H     1 <1>   0.0800 
 44 H       -5.8380    -1.7220     0.4060 H     1 <1>   0.1500 
 45 H       -3.6490     0.3350    -2.6310 H     1 <1>   0.1500 
 46 H       -3.9790    -1.6580    -1.2220 H     1 <1>   0.1500 
@<TRIPOS>BOND
  1   1   2  1   
  2   1   3  1   
  3   2   4  1   
  4   2   5  2   
  5   3   6  2   
  6   3  27  1   
  7   4   7  2   
  8   4   8  1   
  9   5   6  1   
 10   5  28  1   
 11   6  29  1   
 12   7   9  1   
 13   8  10  1   
 14   8  11  1   
 15   9  10  2   
 16  10  12  1   
 17  11  13  1   
 18  11  30  1   
 19  11  31  1   
 20  12  14  1   
 21  13  32  1   
 22  13  33  1   
 23  13  34  1   
 24  14  15  1   
 25  14  35  1   
 26  14  36  1   
 27  15  16  2   
 28  15  17  am  
 29  17  18  1   
 30  17  19  1   
 31  18  20  ar  
 32  18  21  ar  
 33  19  22  1   
 34  19  23  1   
 35  19  37  1   
 36  20  22  1   
 37  20  24  ar  
 38  21  25  ar  
 39  21  38  1   
 40  22  39  1   
 41  22  40  1   
 42  23  41  1   
 43  23  42  1   
 44  23  43  1   
 45  24  26  ar  
 46  24  44  1   
 47  25  26  ar  
 48  25  45  1   
 49  26  46  1   
@<TRIPOS>SUBSTRUCTURE
  1 ****  21 GROUP 4 **** **** 0

# MOE 2024.06 (io_trps.svl 2023.06)
