@<TRIPOS>MOLECULE
NONAME
44 45 1 0 0 
SMALL
USER_CHARGES


@<TRIPOS>ATOM
  1 F       -0.5260     0.2370    -0.7840 F     1 <1>  -0.1900 
  2 C       -1.4580    -0.6480    -0.5270 C.ar  1 <1>   0.1900 
  3 C       -1.1470    -1.9360    -0.0750 C.ar  1 <1>   0.0830 
  4 C       -2.7630    -0.2360    -0.7270 C.ar  1 <1>  -0.1500 
  5 O        0.0950    -2.4510     0.1570 O.3   1 <1>  -0.3630 
  6 C       -2.2030    -2.8020     0.1700 C.ar  1 <1>  -0.1500 
  7 C       -3.7980    -1.1210    -0.4750 C.ar  1 <1>  -0.1500 
  8 C        1.2760    -1.7150    -0.0460 C.3   1 <1>   0.1200 
  9 C       -3.5150    -2.4010    -0.0260 C.ar  1 <1>  -0.1500 
 10 C        2.4550    -2.6200     0.3140 C.3   1 <1>  -0.1600 
 11 C        3.7960    -1.8970     0.1290 C.3   1 <1>  -0.1600 
 12 C        4.9600    -2.8230     0.4900 C.3   1 <1>   0.3430 
 13 N        6.2580    -2.1380     0.2480 N.4   1 <1>  -0.9590 
 14 C        7.3730    -3.1210     0.1900 C.3   1 <1>   0.3430 
 15 C        6.5510    -1.1000     1.2720 C.3   1 <1>   0.3430 
 16 C        8.5330    -2.5910    -0.6580 C.3   1 <1>  -0.1600 
 17 C        7.1030     0.1600     0.6040 C.3   1 <1>  -0.1600 
 18 C        9.1130    -1.2260    -0.2430 C.3   1 <1>  -0.1600 
 19 C        8.1500    -0.0580    -0.5040 C.3   1 <1>  -0.1600 
 20 H       -2.9650     0.7610    -1.0760 H     1 <1>   0.1500 
 21 H       -1.9910    -3.7970     0.5190 H     1 <1>   0.1500 
 22 H       -4.8190    -0.8150    -0.6260 H     1 <1>   0.1500 
 23 H        1.2480    -0.8480     0.5920 H     1 <1>   0.0800 
 24 H        1.3180    -1.4210    -1.0810 H     1 <1>   0.0800 
 25 H       -4.3190    -3.0900     0.1700 H     1 <1>   0.1500 
 26 H        2.4210    -3.4930    -0.3160 H     1 <1>   0.0800 
 27 H        2.3470    -2.9310     1.3400 H     1 <1>   0.0800 
 28 H        3.8050    -1.0230     0.7560 H     1 <1>   0.0800 
 29 H        3.8870    -1.5890    -0.8980 H     1 <1>   0.0800 
 30 H        4.8970    -3.7070    -0.1260 H     1 <1>   0.0800 
 31 H        4.8850    -3.1270     1.5220 H     1 <1>   0.0800 
 32 H        6.2190    -1.6660    -0.6640 H     1 <1>   0.4500 
 33 H        7.0240    -4.0410    -0.2520 H     1 <1>   0.0800 
 34 H        7.7200    -3.3430     1.1860 H     1 <1>   0.0800 
 35 H        7.2750    -1.4780     1.9760 H     1 <1>   0.0800 
 36 H        5.6590    -0.8440     1.8210 H     1 <1>   0.0800 
 37 H        8.2280    -2.5550    -1.6900 H     1 <1>   0.0800 
 38 H        9.3260    -3.3170    -0.6040 H     1 <1>   0.0800 
 39 H        7.5480     0.7600     1.3800 H     1 <1>   0.0800 
 40 H        6.2860     0.7360     0.2060 H     1 <1>   0.0800 
 41 H        9.9980    -1.0580    -0.8370 H     1 <1>   0.0800 
 42 H        9.4300    -1.2380     0.7870 H     1 <1>   0.0800 
 43 H        8.7270     0.8480    -0.5940 H     1 <1>   0.0800 
 44 H        7.6610    -0.2000    -1.4530 H     1 <1>   0.0800 
@<TRIPOS>BOND
  1   1   2  1   
  2   2   3  ar  
  3   2   4  ar  
  4   3   5  1   
  5   3   6  ar  
  6   4   7  ar  
  7   4  20  1   
  8   5   8  1   
  9   6   9  ar  
 10   6  21  1   
 11   7   9  ar  
 12   7  22  1   
 13   8  10  1   
 14   8  23  1   
 15   8  24  1   
 16   9  25  1   
 17  10  11  1   
 18  10  26  1   
 19  10  27  1   
 20  11  12  1   
 21  11  28  1   
 22  11  29  1   
 23  12  13  1   
 24  12  30  1   
 25  12  31  1   
 26  13  14  1   
 27  13  15  1   
 28  13  32  1   
 29  14  16  1   
 30  14  33  1   
 31  14  34  1   
 32  15  17  1   
 33  15  35  1   
 34  15  36  1   
 35  16  18  1   
 36  16  37  1   
 37  16  38  1   
 38  17  19  1   
 39  17  39  1   
 40  17  40  1   
 41  18  19  1   
 42  18  41  1   
 43  18  42  1   
 44  19  43  1   
 45  19  44  1   
@<TRIPOS>SUBSTRUCTURE
  1 ****  10 GROUP 4 **** **** 0

# MOE 2024.06 (io_trps.svl 2023.06)
