@<TRIPOS>MOLECULE
NONAME
44 46 1 0 0 
SMALL
USER_CHARGES


@<TRIPOS>ATOM
  1 O        0.4970     0.9400     0.2620 O.co2 1 <1>  -0.9000 
  2 C        0.5130     2.1790     0.2650 C.2   1 <1>   0.9060 
  3 O        1.5140     2.8210     0.5890 O.co2 1 <1>  -0.9000 
  4 C       -0.7440     2.8910    -0.1920 C.3   1 <1>  -0.1860 
  5 C       -2.0400     2.3470     0.4640 C.3   1 <1>  -0.0190 
  6 C       -0.8450     4.4060     0.0410 C.3   1 <1>   0.0580 
  7 C       -2.7300     1.2880    -0.3880 C.2   1 <1>   0.5690 
  8 C       -2.8450     3.6350     0.7410 C.3   1 <1>   0.0580 
  9 C       -2.3030     4.5840    -0.3020 C.2   1 <1>  -0.2760 
 10 C       -0.8660     4.7510     1.5400 C.3   1 <1>  -0.1600 
 11 O       -3.9080     1.3600    -0.6550 O.2   1 <1>  -0.5700 
 12 N       -1.9690     0.2460    -0.7890 N.am  1 <1>  -0.7300 
 13 C       -2.2630     4.2930     2.0000 C.3   1 <1>  -0.1600 
 14 C       -2.9170     5.3290    -1.2310 C.2   1 <1>  -0.2760 
 15 C       -2.4160    -0.9450    -1.5490 C.3   1 <1>   0.2840 
 16 C       -4.4240     5.3550    -1.4410 C.3   1 <1>  -0.1020 
 17 C       -2.1910     6.2390    -2.2100 C.3   1 <1>  -0.1020 
 18 C       -1.8800    -2.2750    -1.0090 C.ar  1 <1>   0.1670 
 19 N       -2.4870    -3.3630    -1.4750 N.ar  1 <1>  -0.6200 
 20 C       -0.8220    -2.3230    -0.1060 C.ar  1 <1>  -0.1500 
 21 C       -2.0350    -4.5210    -1.0220 C.ar  1 <1>   0.1600 
 22 C       -0.3620    -3.5380     0.3540 C.ar  1 <1>  -0.1500 
 23 C       -0.9940    -4.6640    -0.1220 C.ar  1 <1>  -0.1500 
 24 H       -0.7980     2.7380    -1.2530 H     1 <1>   0.0800 
 25 H       -1.8020     1.8720     1.3990 H     1 <1>   0.0800 
 26 H       -0.1290     4.9700    -0.5280 H     1 <1>   0.0800 
 27 H       -3.9100     3.4980     0.7830 H     1 <1>   0.0800 
 28 H       -0.0770     4.2470     2.0720 H     1 <1>   0.0800 
 29 H       -0.7590     5.8130     1.6720 H     1 <1>   0.0800 
 30 H       -0.9640     0.2750    -0.5120 H     1 <1>   0.3700 
 31 H       -2.8590     5.1460     2.2700 H     1 <1>   0.0800 
 32 H       -2.2130     3.6130     2.8320 H     1 <1>   0.0800 
 33 H       -3.4920    -0.9810    -1.5400 H     1 <1>   0.0800 
 34 H       -2.0990    -0.8390    -2.5700 H     1 <1>   0.0800 
 35 H       -4.6590     5.0460    -2.4430 H     1 <1>   0.0800 
 36 H       -4.8020     6.3480    -1.2830 H     1 <1>   0.0800 
 37 H       -4.9290     4.6900    -0.7670 H     1 <1>   0.0800 
 38 H       -2.3900     5.9260    -3.2190 H     1 <1>   0.0800 
 39 H       -1.1290     6.2170    -2.0570 H     1 <1>   0.0800 
 40 H       -2.5260     7.2530    -2.0860 H     1 <1>   0.0800 
 41 H       -0.3460    -1.4240     0.2450 H     1 <1>   0.1500 
 42 H       -2.5230    -5.4080    -1.3900 H     1 <1>   0.1500 
 43 H        0.4540    -3.5920     1.0530 H     1 <1>   0.1500 
 44 H       -0.6850    -5.6410     0.1980 H     1 <1>   0.1500 
@<TRIPOS>BOND
  1   1   2  ar  
  2   2   3  ar  
  3   2   4  1   
  4   4   5  1   
  5   4   6  1   
  6   4  24  1   
  7   5   7  1   
  8   5   8  1   
  9   5  25  1   
 10   6   9  1   
 11   6  10  1   
 12   6  26  1   
 13   7  11  2   
 14   7  12  am  
 15   8   9  1   
 16   8  13  1   
 17   8  27  1   
 18   9  14  2   
 19  10  13  1   
 20  10  28  1   
 21  10  29  1   
 22  12  15  1   
 23  12  30  1   
 24  13  31  1   
 25  13  32  1   
 26  14  16  1   
 27  14  17  1   
 28  15  18  1   
 29  15  33  1   
 30  15  34  1   
 31  16  35  1   
 32  16  36  1   
 33  16  37  1   
 34  17  38  1   
 35  17  39  1   
 36  17  40  1   
 37  18  19  ar  
 38  18  20  ar  
 39  19  21  ar  
 40  20  22  ar  
 41  20  41  1   
 42  21  23  ar  
 43  21  42  1   
 44  22  23  ar  
 45  22  43  1   
 46  23  44  1   
@<TRIPOS>SUBSTRUCTURE
  1 ****   7 GROUP 4 **** **** 0

# MOE 2024.06 (io_trps.svl 2023.06)
