@<TRIPOS>MOLECULE
Structure2173
36 35 1 0 0 
SMALL
USER_CHARGES


@<TRIPOS>ATOM
  1 O       -0.4920     0.1810     0.0920 O.2   1 <1>  -0.5700 
  2 C       -0.1580    -0.8890    -0.3700 C.2   1 <1>   0.7800 
  3 O       -0.9920    -1.9260    -0.4100 O.3   1 <1>  -0.4300 
  4 N        1.0600    -1.1390    -0.9000 N.am  1 <1>  -0.7300 
  5 C       -2.3070    -1.9790     0.1010 C.3   1 <1>   0.2800 
  6 C        2.3440    -0.4130    -0.6530 C.3   1 <1>   0.2810 
  7 C       -2.7890    -3.4020    -0.1850 C.3   1 <1>  -0.2400 
  8 C       -2.2970    -1.7440     1.6160 C.3   1 <1>  -0.2400 
  9 C       -3.2070    -0.9830    -0.6410 C.3   1 <1>  -0.2400 
 10 C        3.0230    -0.8180     0.6790 C.2   1 <1>   0.5690 
 11 C        2.1680     1.1050    -0.7850 C.3   1 <1>  -0.2400 
 12 O        2.3760    -0.7830     1.7080 O.2   1 <1>  -0.5700 
 13 N        4.3370    -1.2220     0.6810 N.am  1 <1>  -0.3250 
 14 O        5.1230    -1.2410    -0.4760 O.3   1 <1>  -0.3160 
 15 C        5.0180    -1.8050     1.8640 C.3   1 <1>   0.0600 
 16 C        5.9370    -0.0950    -0.5960 C.3   1 <1>   0.0400 
 17 H        1.1830    -2.1090    -1.1810 H     1 <1>   0.3700 
 18 H        2.9990    -0.7080    -1.4520 H     1 <1>   0.0800 
 19 H       -3.7930    -3.5360     0.1740 H     1 <1>   0.0800 
 20 H       -2.1540    -4.1150     0.3090 H     1 <1>   0.0800 
 21 H       -2.7780    -3.5940    -1.2420 H     1 <1>   0.0800 
 22 H       -1.5990    -2.4080     2.0930 H     1 <1>   0.0800 
 23 H       -3.2750    -1.9250     2.0230 H     1 <1>   0.0800 
 24 H       -2.0310    -0.7300     1.8500 H     1 <1>   0.0800 
 25 H       -4.2310    -1.1260    -0.3490 H     1 <1>   0.0800 
 26 H       -3.1300    -1.1300    -1.7030 H     1 <1>   0.0800 
 27 H       -2.9400     0.0300    -0.4050 H     1 <1>   0.0800 
 28 H        1.6440     1.4990     0.0680 H     1 <1>   0.0800 
 29 H        1.6230     1.3420    -1.6810 H     1 <1>   0.0800 
 30 H        3.1280     1.5840    -0.8300 H     1 <1>   0.0800 
 31 H        4.3170    -1.9560     2.6650 H     1 <1>   0.0800 
 32 H        5.7930    -1.1400     2.1980 H     1 <1>   0.0800 
 33 H        5.4510    -2.7510     1.5940 H     1 <1>   0.0800 
 34 H        6.6460    -0.0820     0.2120 H     1 <1>   0.0800 
 35 H        5.3200     0.7850    -0.5670 H     1 <1>   0.0800 
 36 H        6.4570    -0.1490    -1.5360 H     1 <1>   0.0800 
@<TRIPOS>BOND
  1   1   2  2   
  2   2   3  1   
  3   2   4  am  
  4   3   5  1   
  5   4   6  1   
  6   4  17  1   
  7   5   7  1   
  8   5   8  1   
  9   5   9  1   
 10   6  10  1   
 11   6  11  1   
 12   6  18  1   
 13   7  19  1   
 14   7  20  1   
 15   7  21  1   
 16   8  22  1   
 17   8  23  1   
 18   8  24  1   
 19   9  25  1   
 20   9  26  1   
 21   9  27  1   
 22  10  12  2   
 23  10  13  am  
 24  11  28  1   
 25  11  29  1   
 26  11  30  1   
 27  13  14  1   
 28  13  15  1   
 29  14  16  1   
 30  15  31  1   
 31  15  32  1   
 32  15  33  1   
 33  16  34  1   
 34  16  35  1   
 35  16  36  1   
@<TRIPOS>SUBSTRUCTURE
  1 ****   4 GROUP 4 **** **** 0

# MOE 2024.06 (io_trps.svl 2023.06)
