@<TRIPOS>MOLECULE
NONAME
53 55 1 0 0 
SMALL
USER_CHARGES


@<TRIPOS>ATOM
  1 S       -0.0520     0.0310     0.9080 S.o2  1 <1>   1.4470 
  2 O        0.1120    -0.4670     2.2580 O.2   1 <1>  -0.6500 
  3 O       -1.1380     0.9350     0.6040 O.2   1 <1>  -0.6500 
  4 N       -0.1180    -1.3360    -0.1060 N.am  1 <1>  -0.8490 
  5 C        1.4760     0.8790     0.4010 C.ar  1 <1>  -0.0090 
  6 C       -1.3130    -2.1860     0.1040 C.3   1 <1>   0.2760 
  7 C        1.0990    -2.1480     0.0840 C.3   1 <1>   0.1960 
  8 C        1.7120     1.1900    -0.9320 C.ar  1 <1>  -0.1500 
  9 C        2.4460     1.2490     1.3250 C.ar  1 <1>  -0.1500 
 10 C       -1.3030    -3.3650    -0.8900 C.3   1 <1>  -0.1600 
 11 C       -2.6310    -1.4330    -0.1080 C.3   1 <1>  -0.2400 
 12 C        1.1790    -3.2840    -0.9350 C.3   1 <1>  -0.1600 
 13 C        2.8730     1.8300    -1.3260 C.ar  1 <1>  -0.1500 
 14 C        3.6070     1.8930     0.9340 C.ar  1 <1>  -0.1500 
 15 C       -0.0290    -4.2060    -0.8020 C.3   1 <1>  -0.1600 
 16 C        3.8570     2.1930    -0.4060 C.ar  1 <1>   0.0860 
 17 C        5.0760     2.8530    -0.8400 C.2   1 <1>   0.5440 
 18 O        5.0690     3.5530    -1.8320 O.2   1 <1>  -0.5700 
 19 N        6.2440     2.6520    -0.1390 N.am  1 <1>  -0.5470 
 20 C        7.5090     3.2490    -0.2520 C.ar  1 <1>   0.1170 
 21 C        8.6160     2.5680     0.2410 C.ar  1 <1>  -0.1500 
 22 C        7.7100     4.5040    -0.8130 C.ar  1 <1>  -0.1500 
 23 C        9.8900     3.1090     0.1800 C.ar  1 <1>  -0.1430 
 24 C        8.9760     5.0530    -0.8810 C.ar  1 <1>  -0.1500 
 25 C       10.0740     4.3650    -0.3870 C.ar  1 <1>  -0.1430 
 26 C       11.0630     2.3120     0.7340 C.3   1 <1>  -0.0970 
 27 C       11.4520     5.0050    -0.4830 C.3   1 <1>  -0.0970 
 28 H       -1.2990    -2.5790     1.1090 H     1 <1>   0.0800 
 29 H        1.1160    -2.5570     1.0830 H     1 <1>   0.0800 
 30 H        1.9800    -1.5430    -0.0390 H     1 <1>   0.0800 
 31 H        0.9710     0.9260    -1.6690 H     1 <1>   0.1500 
 32 H        2.2830     1.0350     2.3700 H     1 <1>   0.1500 
 33 H       -1.4050    -2.9770    -1.8890 H     1 <1>   0.0800 
 34 H       -2.1480    -4.0020    -0.7010 H     1 <1>   0.0800 
 35 H       -2.5870    -0.8370    -1.0030 H     1 <1>   0.0800 
 36 H       -2.8560    -0.8080     0.7350 H     1 <1>   0.0800 
 37 H       -3.4490    -2.1250    -0.2000 H     1 <1>   0.0800 
 38 H        2.0820    -3.8470    -0.7760 H     1 <1>   0.0800 
 39 H        1.2190    -2.8650    -1.9260 H     1 <1>   0.0800 
 40 H        3.0260     2.0610    -2.3680 H     1 <1>   0.1500 
 41 H        4.3210     2.1770     1.6870 H     1 <1>   0.1500 
 42 H       -0.0190    -4.9460    -1.5830 H     1 <1>   0.0800 
 43 H        0.0040    -4.7140     0.1470 H     1 <1>   0.0800 
 44 H        6.2050     1.8920     0.5340 H     1 <1>   0.3700 
 45 H        8.4760     1.5970     0.6760 H     1 <1>   0.1500 
 46 H        6.8770     5.0610    -1.1990 H     1 <1>   0.1500 
 47 H        9.0980     6.0250    -1.3240 H     1 <1>   0.1500 
 48 H       10.7370     1.3670     1.1300 H     1 <1>   0.0800 
 49 H       11.5410     2.8620     1.5240 H     1 <1>   0.0800 
 50 H       11.7790     2.1210    -0.0450 H     1 <1>   0.0800 
 51 H       12.1050     4.3860    -1.0700 H     1 <1>   0.0800 
 52 H       11.8700     5.1270     0.5000 H     1 <1>   0.0800 
 53 H       11.3960     5.9730    -0.9480 H     1 <1>   0.0800 
@<TRIPOS>BOND
  1   1   2  2   
  2   1   3  2   
  3   1   4  am  
  4   1   5  1   
  5   4   6  1   
  6   4   7  1   
  7   5   8  ar  
  8   5   9  ar  
  9   6  10  1   
 10   6  11  1   
 11   6  28  1   
 12   7  12  1   
 13   7  29  1   
 14   7  30  1   
 15   8  13  ar  
 16   8  31  1   
 17   9  14  ar  
 18   9  32  1   
 19  10  15  1   
 20  10  33  1   
 21  10  34  1   
 22  11  35  1   
 23  11  36  1   
 24  11  37  1   
 25  12  15  1   
 26  12  38  1   
 27  12  39  1   
 28  13  16  ar  
 29  13  40  1   
 30  14  16  ar  
 31  14  41  1   
 32  15  42  1   
 33  15  43  1   
 34  16  17  1   
 35  17  18  2   
 36  17  19  am  
 37  19  20  1   
 38  19  44  1   
 39  20  21  ar  
 40  20  22  ar  
 41  21  23  ar  
 42  21  45  1   
 43  22  24  ar  
 44  22  46  1   
 45  23  25  ar  
 46  23  26  1   
 47  24  25  ar  
 48  24  47  1   
 49  25  27  1   
 50  26  48  1   
 51  26  49  1   
 52  26  50  1   
 53  27  51  1   
 54  27  52  1   
 55  27  53  1   
@<TRIPOS>SUBSTRUCTURE
  1 ****  16 GROUP 4 **** **** 0

# MOE 2024.06 (io_trps.svl 2023.06)
