@<TRIPOS>MOLECULE
NONAME
45 48 1 0 0 
SMALL
USER_CHARGES


@<TRIPOS>ATOM
  1 CL      -0.0980     0.0340     0.2890 Cl    1 <1>  -0.1230 
  2 C        0.4850     1.6890     0.1800 C.2   1 <1>   0.1230 
  3 C        1.7880     2.0480     0.1020 C.2   1 <1>  -0.0260 
  4 C       -0.2850     2.8480     0.1730 C.2   1 <1>   0.2030 
  5 N        2.9400     1.2960     0.0720 N.2   1 <1>  -0.5760 
  6 N        1.7690     3.4220     0.0560 N.pl3 1 <1>   0.6010 
  7 N        0.5150     3.9080     0.0950 N.2   1 <1>  -0.7070 
  8 C       -1.7420     2.8740     0.2400 C.2   1 <1>   0.7160 
  9 C        4.0770     1.9270    -0.0060 C.2   1 <1>   0.3490 
 10 C        2.9660     4.0960    -0.0140 C.2   1 <1>  -0.1690 
 11 O       -2.3380     3.7800     0.7940 O.2   1 <1>  -0.5700 
 12 N       -2.4910     1.8740    -0.3160 N.am  1 <1>  -0.7300 
 13 C        5.3180     1.1790    -0.0480 C.ar  1 <1>   0.0860 
 14 C        4.1110     3.3580    -0.0410 C.2   1 <1>  -0.1360 
 15 C        2.8710     5.6060    -0.0460 C.3   1 <1>   1.1580 
 16 C       -3.9620     1.7150    -0.2260 C.3   1 <1>   0.1400 
 17 C        5.5000     0.0610     0.7740 C.ar  1 <1>  -0.1500 
 18 C        6.3660     1.5380    -0.9030 C.ar  1 <1>  -0.1500 
 19 F        4.0780     6.1550    -0.1170 F     1 <1>  -0.3400 
 20 F        2.2100     6.0670    -1.0990 F     1 <1>  -0.3400 
 21 F        2.3080     6.1210     1.0370 F     1 <1>  -0.3400 
 22 C       -4.3030     0.2840     0.2170 C.3   1 <1>   0.2000 
 23 C        6.6790    -0.6620     0.7620 C.ar  1 <1>  -0.1500 
 24 C        7.5530     0.8270    -0.9270 C.ar  1 <1>  -0.1500 
 25 O       -3.6050    -0.6380    -0.5590 O.3   1 <1>  -0.5600 
 26 C       -5.7630    -0.1040     0.0370 C.3   1 <1>  -0.1600 
 27 C        7.6900    -0.2630    -0.0900 C.ar  1 <1>   0.1900 
 28 C       -4.2310    -1.8800    -0.5070 C.3   1 <1>   0.1200 
 29 C       -5.6890    -1.6130    -0.1360 C.3   1 <1>  -0.1600 
 30 F        8.8060    -0.9360    -0.1060 F     1 <1>  -0.1900 
 31 H       -2.0310     1.0280    -0.6730 H     1 <1>   0.3700 
 32 H        5.0800     3.8240    -0.0810 H     1 <1>   0.1500 
 33 H       -4.3930     1.9050    -1.1930 H     1 <1>   0.0800 
 34 H       -4.3770     2.4210     0.4730 H     1 <1>   0.0800 
 35 H        4.7000    -0.2420     1.4290 H     1 <1>   0.1500 
 36 H        6.2530     2.3780    -1.5660 H     1 <1>   0.1500 
 37 H       -4.0050     0.1360     1.2410 H     1 <1>   0.0800 
 38 H        6.8160    -1.5200     1.3960 H     1 <1>   0.1500 
 39 H        8.3600     1.1030    -1.5820 H     1 <1>   0.1500 
 40 H       -6.1570     0.3500    -0.8550 H     1 <1>   0.0800 
 41 H       -6.3630     0.1880     0.8810 H     1 <1>   0.0800 
 42 H       -3.7370    -2.4740     0.2420 H     1 <1>   0.0800 
 43 H       -4.1360    -2.3480    -1.4720 H     1 <1>   0.0800 
 44 H       -6.3570    -1.9590    -0.9060 H     1 <1>   0.0800 
 45 H       -5.9240    -2.1200     0.7840 H     1 <1>   0.0800 
@<TRIPOS>BOND
  1   1   2  1   
  2   2   3  2   
  3   2   4  1   
  4   3   5  1   
  5   3   6  1   
  6   4   7  2   
  7   4   8  1   
  8   5   9  2   
  9   6   7  1   
 10   6  10  1   
 11   8  11  2   
 12   8  12  am  
 13   9  13  1   
 14   9  14  1   
 15  10  14  2   
 16  10  15  1   
 17  12  16  1   
 18  12  31  1   
 19  13  17  ar  
 20  13  18  ar  
 21  14  32  1   
 22  15  19  1   
 23  15  20  1   
 24  15  21  1   
 25  16  22  1   
 26  16  33  1   
 27  16  34  1   
 28  17  23  ar  
 29  17  35  1   
 30  18  24  ar  
 31  18  36  1   
 32  22  25  1   
 33  22  26  1   
 34  22  37  1   
 35  23  27  ar  
 36  23  38  1   
 37  24  27  ar  
 38  24  39  1   
 39  25  28  1   
 40  26  29  1   
 41  26  40  1   
 42  26  41  1   
 43  27  30  1   
 44  28  29  1   
 45  28  42  1   
 46  28  43  1   
 47  29  44  1   
 48  29  45  1   
@<TRIPOS>SUBSTRUCTURE
  1 ****   3 GROUP 4 **** **** 0

# MOE 2024.06 (io_trps.svl 2023.06)
