@<TRIPOS>MOLECULE
NONAME
43 44 1 0 0 
SMALL
USER_CHARGES


@<TRIPOS>ATOM
  1 O       -0.8650     3.7410    -2.8480 O.2   1 <1>  -0.5700 
  2 C       -1.0440     3.7080    -1.6540 C.2   1 <1>   0.5690 
  3 N       -2.3120     3.5630    -1.1400 N.am  1 <1>  -0.6600 
  4 C        0.1880     3.7290    -0.7570 C.3   1 <1>   0.0440 
  5 C       -3.4230     3.1130    -2.0240 C.3   1 <1>   0.1400 
  6 C       -2.6150     3.3220     0.2980 C.3   1 <1>   0.1400 
  7 C        0.4450     2.3430    -0.1550 C.ar  1 <1>  -0.1440 
  8 C       -3.6130     1.5950    -1.8420 C.3   1 <1>   0.3430 
  9 C       -2.7930     1.8090     0.5290 C.3   1 <1>   0.3430 
 10 C        0.4730     2.1140     1.2200 C.ar  1 <1>   0.0820 
 11 C        0.6530     1.2800    -1.0220 C.ar  1 <1>  -0.1500 
 12 N       -3.8250     1.2050    -0.3960 N.4   1 <1>  -0.9590 
 13 O        0.2620     3.1590     2.0560 O.3   1 <1>  -0.3630 
 14 C        0.6950     0.8280     1.7040 C.ar  1 <1>  -0.1500 
 15 C        0.8740     0.0040    -0.5360 C.ar  1 <1>  -0.1500 
 16 C       -3.8740    -0.2650    -0.2550 C.3   1 <1>   0.4810 
 17 C        0.8820     3.1900     3.3260 C.3   1 <1>   0.0400 
 18 C        0.8930    -0.2230     0.8280 C.ar  1 <1>  -0.1500 
 19 C       -4.5290    -0.5650     1.0740 C.2   1 <1>  -0.2880 
 20 C       -5.7870    -0.9890     1.2350 C.2   1 <1>  -0.3000 
 21 H        0.0680     4.4880    -0.0080 H     1 <1>   0.0800 
 22 H        1.0390     4.0090    -1.3500 H     1 <1>   0.0800 
 23 H       -3.2020     3.3280    -3.0560 H     1 <1>   0.0800 
 24 H       -4.3270     3.6390    -1.7710 H     1 <1>   0.0800 
 25 H       -3.5190     3.8410     0.5660 H     1 <1>   0.0800 
 26 H       -1.8360     3.7080     0.9270 H     1 <1>   0.0800 
 27 H       -2.7290     1.1070    -2.2200 H     1 <1>   0.0800 
 28 H       -4.4500     1.2700    -2.4380 H     1 <1>   0.0800 
 29 H       -3.0730     1.6410     1.5560 H     1 <1>   0.0800 
 30 H       -1.8410     1.3290     0.3680 H     1 <1>   0.0800 
 31 H        0.6530     1.4440    -2.0880 H     1 <1>   0.1500 
 32 H       -4.7480     1.5470    -0.0990 H     1 <1>   0.4500 
 33 H        0.7170     0.6300     2.7600 H     1 <1>   0.1500 
 34 H        1.0430    -0.8110    -1.2200 H     1 <1>   0.1500 
 35 H       -2.8850    -0.6950    -0.3050 H     1 <1>   0.0800 
 36 H       -4.4750    -0.6880    -1.0440 H     1 <1>   0.0800 
 37 H        0.7880     4.1860     3.7210 H     1 <1>   0.0800 
 38 H        1.9230     2.9400     3.2140 H     1 <1>   0.0800 
 39 H        0.3880     2.4930     3.9790 H     1 <1>   0.0800 
 40 H        1.0730    -1.2150     1.2060 H     1 <1>   0.1500 
 41 H       -3.8700    -0.4120     1.9120 H     1 <1>   0.1500 
 42 H       -6.2280    -1.2020     2.1960 H     1 <1>   0.1500 
 43 H       -6.4890    -1.1680     0.4370 H     1 <1>   0.1500 
@<TRIPOS>BOND
  1   1   2  2   
  2   2   3  am  
  3   2   4  1   
  4   3   5  1   
  5   3   6  1   
  6   4   7  1   
  7   4  21  1   
  8   4  22  1   
  9   5   8  1   
 10   5  23  1   
 11   5  24  1   
 12   6   9  1   
 13   6  25  1   
 14   6  26  1   
 15   7  10  ar  
 16   7  11  ar  
 17   8  12  1   
 18   8  27  1   
 19   8  28  1   
 20   9  12  1   
 21   9  29  1   
 22   9  30  1   
 23  10  13  1   
 24  10  14  ar  
 25  11  15  ar  
 26  11  31  1   
 27  12  16  1   
 28  12  32  1   
 29  13  17  1   
 30  14  18  ar  
 31  14  33  1   
 32  15  18  ar  
 33  15  34  1   
 34  16  19  1   
 35  16  35  1   
 36  16  36  1   
 37  17  37  1   
 38  17  38  1   
 39  17  39  1   
 40  18  40  1   
 41  19  20  2   
 42  19  41  1   
 43  20  42  1   
 44  20  43  1   
@<TRIPOS>SUBSTRUCTURE
  1 ****   9 GROUP 4 **** **** 0

# MOE 2024.06 (io_trps.svl 2023.06)
