@<TRIPOS>MOLECULE
NONAME
39 39 1 0 0 
SMALL
USER_CHARGES


@<TRIPOS>ATOM
  1 CL       0.3750     0.3820     0.3810 Cl    1 <1>  -0.1770 
  2 C       -1.2650     0.9980     0.3240 C.ar  1 <1>   0.1770 
  3 C       -2.3040     0.1930    -0.1280 C.ar  1 <1>   0.0830 
  4 C       -1.4840     2.2960     0.7410 C.ar  1 <1>  -0.1500 
  5 O       -2.0100    -1.0790    -0.5230 O.3   1 <1>  -0.3630 
  6 C       -3.5910     0.7220    -0.1560 C.ar  1 <1>  -0.1500 
  7 C       -2.7730     2.8150     0.7090 C.ar  1 <1>   0.0830 
  8 C       -3.0140    -1.9450    -1.0040 C.3   1 <1>   0.0400 
  9 C       -3.8390     2.0270     0.2570 C.ar  1 <1>   0.1170 
 10 O       -3.0650     4.0930     1.1070 O.3   1 <1>  -0.3630 
 11 N       -5.1220     2.6090     0.2470 N.am  1 <1>  -0.5470 
 12 C       -2.0510     4.9600     1.5730 C.3   1 <1>   0.0400 
 13 C       -6.3570     2.1690    -0.1420 C.2   1 <1>   0.5690 
 14 O       -6.5610     1.0680    -0.5950 O.2   1 <1>  -0.5700 
 15 C       -7.5320     3.1400     0.0100 C.3   1 <1>  -0.0190 
 16 C       -8.5620     2.5470     1.0000 C.3   1 <1>  -0.1600 
 17 C       -8.1310     3.4750    -1.3780 C.3   1 <1>  -0.1600 
 18 C       -9.7260     3.4790     1.3540 C.3   1 <1>  -0.2400 
 19 C       -8.5890     4.9340    -1.5160 C.3   1 <1>  -0.2400 
 20 H       -0.6410     2.8650     1.0790 H     1 <1>   0.1500 
 21 H       -4.4080     0.1230    -0.4980 H     1 <1>   0.1500 
 22 H       -2.5530    -2.8820    -1.2580 H     1 <1>   0.0800 
 23 H       -3.4640    -1.5100    -1.8790 H     1 <1>   0.0800 
 24 H       -3.7470    -2.0970    -0.2310 H     1 <1>   0.0800 
 25 H       -5.0920     3.5670     0.5990 H     1 <1>   0.3700 
 26 H       -2.5050     5.9010     1.8250 H     1 <1>   0.0800 
 27 H       -1.3260     5.1040     0.7910 H     1 <1>   0.0800 
 28 H       -1.5960     4.5290     2.4470 H     1 <1>   0.0800 
 29 H       -7.1450     4.0470     0.4390 H     1 <1>   0.0800 
 30 H       -8.0470     2.2920     1.9110 H     1 <1>   0.0800 
 31 H       -8.9570     1.6300     0.5950 H     1 <1>   0.0800 
 32 H       -8.9480     2.8070    -1.5940 H     1 <1>   0.0800 
 33 H       -7.3820     3.3020    -2.1340 H     1 <1>   0.0800 
 34 H       -9.3620     4.4360     1.6830 H     1 <1>   0.0800 
 35 H      -10.3100     3.0460     2.1470 H     1 <1>   0.0800 
 36 H      -10.3730     3.6170     0.5060 H     1 <1>   0.0800 
 37 H       -9.3570     5.1780    -0.8070 H     1 <1>   0.0800 
 38 H       -8.9810     5.0990    -2.5050 H     1 <1>   0.0800 
 39 H       -7.7600     5.6040    -1.3680 H     1 <1>   0.0800 
@<TRIPOS>BOND
  1   1   2  1   
  2   2   3  ar  
  3   2   4  ar  
  4   3   5  1   
  5   3   6  ar  
  6   4   7  ar  
  7   4  20  1   
  8   5   8  1   
  9   6   9  ar  
 10   6  21  1   
 11   7   9  ar  
 12   7  10  1   
 13   8  22  1   
 14   8  23  1   
 15   8  24  1   
 16   9  11  1   
 17  10  12  1   
 18  11  13  am  
 19  11  25  1   
 20  12  26  1   
 21  12  27  1   
 22  12  28  1   
 23  13  14  2   
 24  13  15  1   
 25  15  16  1   
 26  15  17  1   
 27  15  29  1   
 28  16  18  1   
 29  16  30  1   
 30  16  31  1   
 31  17  19  1   
 32  17  32  1   
 33  17  33  1   
 34  18  34  1   
 35  18  35  1   
 36  18  36  1   
 37  19  37  1   
 38  19  38  1   
 39  19  39  1   
@<TRIPOS>SUBSTRUCTURE
  1 ****   9 GROUP 4 **** **** 0

# MOE 2024.06 (io_trps.svl 2023.06)
