@<TRIPOS>MOLECULE
NONAME
56 59 1 0 0 
SMALL
USER_CHARGES


@<TRIPOS>ATOM
  1 O        3.8140    -0.4320     1.7470 O.2   1 <1>  -0.5700 
  2 C        3.0690    -0.7080     0.8210 C.2   1 <1>   0.5440 
  3 N        2.7360     0.3280    -0.0200 N.am  1 <1>  -0.6600 
  4 C        2.6360    -2.0720     0.5700 C.ar  1 <1>   0.0860 
  5 C        3.4750     0.4070    -1.3200 C.3   1 <1>   0.1400 
  6 C        2.5010     1.6840     0.5790 C.3   1 <1>   0.1400 
  7 C        3.3170    -3.1580     1.1220 C.ar  1 <1>  -0.1500 
  8 C        1.5280    -2.3570    -0.2330 C.ar  1 <1>  -0.1500 
  9 C        4.8090     1.1840    -1.1640 C.3   1 <1>   0.3430 
 10 C        3.8120     2.5040     0.6910 C.3   1 <1>   0.3430 
 11 C        2.9190    -4.4590     0.8800 C.ar  1 <1>  -0.1500 
 12 C        1.1220    -3.6560    -0.4800 C.ar  1 <1>  -0.1500 
 13 N        4.9910     1.6980     0.2410 N.4   1 <1>  -0.9590 
 14 C        1.8210    -4.7220     0.0780 C.ar  1 <1>   0.0830 
 15 C        6.3080     2.3430     0.4820 C.3   1 <1>   0.4860 
 16 O        1.4950    -6.0200    -0.1110 O.3   1 <1>  -0.3630 
 17 C        7.4140     1.4020     0.0440 C.ar  1 <1>  -0.1440 
 18 C        0.3750    -6.4030    -0.8780 C.3   1 <1>   0.0400 
 19 C        8.0780     1.6770    -1.1270 C.ar  1 <1>   0.0830 
 20 C        7.7340     0.2620     0.8220 C.ar  1 <1>   0.0000 
 21 O        7.7030     2.7740    -1.8340 O.3   1 <1>  -0.3620 
 22 C        9.0990     0.8190    -1.5710 C.ar  1 <1>  -0.1500 
 23 C        8.7520    -0.6010     0.3560 C.ar  1 <1>   0.0000 
 24 C        7.0940    -0.0780     2.0390 C.ar  1 <1>  -0.1500 
 25 C        8.5180     3.3040    -2.8610 C.3   1 <1>   0.0400 
 26 C        9.4210    -0.2890    -0.8430 C.ar  1 <1>  -0.1500 
 27 C        9.0740    -1.7550     1.0970 C.ar  1 <1>  -0.1500 
 28 C        7.4240    -1.2060     2.7360 C.ar  1 <1>  -0.1500 
 29 C        8.4250    -2.0570     2.2600 C.ar  1 <1>  -0.1500 
 30 H        2.8570     0.8930    -2.0550 H     1 <1>   0.0800 
 31 H        3.6860    -0.5860    -1.6830 H     1 <1>   0.0800 
 32 H        2.0740     1.5700     1.5620 H     1 <1>   0.0800 
 33 H        1.7860     2.2220    -0.0180 H     1 <1>   0.0800 
 34 H        4.1730    -2.9790     1.7510 H     1 <1>   0.1500 
 35 H        0.9700    -1.5460    -0.6680 H     1 <1>   0.1500 
 36 H        4.8340     2.0030    -1.8630 H     1 <1>   0.0800 
 37 H        5.6210     0.5210    -1.4160 H     1 <1>   0.0800 
 38 H        3.9450     2.8030     1.7180 H     1 <1>   0.0800 
 39 H        3.7270     3.3970     0.0950 H     1 <1>   0.0800 
 40 H        3.4560    -5.2850     1.3130 H     1 <1>   0.1500 
 41 H        0.2640    -3.8240    -1.1030 H     1 <1>   0.1500 
 42 H        4.9480     0.8400     0.8310 H     1 <1>   0.4500 
 43 H        6.4260     2.5710     1.5280 H     1 <1>   0.0800 
 44 H        6.3710     3.2650    -0.0720 H     1 <1>   0.0800 
 45 H        0.3170    -7.4770    -0.8690 H     1 <1>   0.0800 
 46 H        0.5050    -6.0530    -1.8860 H     1 <1>   0.0800 
 47 H       -0.5120    -5.9860    -0.4340 H     1 <1>   0.0800 
 48 H        9.6310     1.0190    -2.4830 H     1 <1>   0.1500 
 49 H        6.3250     0.5520     2.4440 H     1 <1>   0.1500 
 50 H        8.0940     4.2390    -3.1810 H     1 <1>   0.0800 
 51 H        8.5380     2.6150    -3.6870 H     1 <1>   0.0800 
 52 H        9.5090     3.4680    -2.4750 H     1 <1>   0.0800 
 53 H       10.2000    -0.9510    -1.1790 H     1 <1>   0.1500 
 54 H        9.8480    -2.4050     0.7290 H     1 <1>   0.1500 
 55 H        6.9230    -1.4560     3.6560 H     1 <1>   0.1500 
 56 H        8.6730    -2.9420     2.8220 H     1 <1>   0.1500 
@<TRIPOS>BOND
  1   1   2  2   
  2   2   3  am  
  3   2   4  1   
  4   3   5  1   
  5   3   6  1   
  6   4   7  ar  
  7   4   8  ar  
  8   5   9  1   
  9   5  30  1   
 10   5  31  1   
 11   6  10  1   
 12   6  32  1   
 13   6  33  1   
 14   7  11  ar  
 15   7  34  1   
 16   8  12  ar  
 17   8  35  1   
 18   9  13  1   
 19   9  36  1   
 20   9  37  1   
 21  10  13  1   
 22  10  38  1   
 23  10  39  1   
 24  11  14  ar  
 25  11  40  1   
 26  12  14  ar  
 27  12  41  1   
 28  13  15  1   
 29  13  42  1   
 30  14  16  1   
 31  15  17  1   
 32  15  43  1   
 33  15  44  1   
 34  16  18  1   
 35  17  19  ar  
 36  17  20  ar  
 37  18  45  1   
 38  18  46  1   
 39  18  47  1   
 40  19  21  1   
 41  19  22  ar  
 42  20  23  ar  
 43  20  24  ar  
 44  21  25  1   
 45  22  26  ar  
 46  22  48  1   
 47  23  26  ar  
 48  23  27  ar  
 49  24  28  ar  
 50  24  49  1   
 51  25  50  1   
 52  25  51  1   
 53  25  52  1   
 54  26  53  1   
 55  27  29  ar  
 56  27  54  1   
 57  28  29  ar  
 58  28  55  1   
 59  29  56  1   
@<TRIPOS>SUBSTRUCTURE
  1 ****   1 GROUP 4 **** **** 0

# MOE 2024.06 (io_trps.svl 2023.06)
