@<TRIPOS>MOLECULE
NONAME
51 52 1 0 0 
SMALL
USER_CHARGES


@<TRIPOS>ATOM
  1 O       -0.1590    -6.2620    -0.8050 O.3   1 <1>  -0.3630 
  2 C       -1.5040    -6.1790    -0.6380 C.ar  1 <1>   0.0830 
  3 C        0.6240    -7.0970     0.0100 C.3   1 <1>   0.1200 
  4 C       -2.2150    -6.9000     0.3190 C.ar  1 <1>  -0.1500 
  5 C       -2.1840    -5.3190    -1.4860 C.ar  1 <1>  -0.1500 
  6 C        2.0740    -6.9350    -0.4440 C.3   1 <1>  -0.1600 
  7 C       -3.5890    -6.7550     0.4210 C.ar  1 <1>  -0.1500 
  8 C       -3.5550    -5.1750    -1.3840 C.ar  1 <1>  -0.1500 
  9 C        3.0050    -7.8000     0.4020 C.3   1 <1>   0.3430 
 10 C       -4.2670    -5.8880    -0.4330 C.ar  1 <1>   0.0830 
 11 N        4.3990    -7.7150    -0.1120 N.4   1 <1>  -0.9590 
 12 O       -5.6100    -5.6880    -0.4000 O.3   1 <1>  -0.3620 
 13 C        5.2590    -8.7850     0.4640 C.3   1 <1>   0.3430 
 14 C        5.0120    -6.3550     0.0870 C.3   1 <1>   0.3430 
 15 C       -6.4250    -6.3650     0.5270 C.3   1 <1>   0.1200 
 16 C        6.5600    -8.9000    -0.3520 C.3   1 <1>  -0.0800 
 17 C        6.5470    -6.3500    -0.0920 C.3   1 <1>  -0.0800 
 18 C       -7.8660    -5.9200     0.3010 C.3   1 <1>  -0.2400 
 19 C        7.0280    -7.5470    -0.9330 C.3   1 <1>  -0.1600 
 20 C        6.4150    -9.9350    -1.4780 C.3   1 <1>  -0.2400 
 21 C        7.2730    -6.2910     1.2640 C.3   1 <1>  -0.2400 
 22 H        0.2830    -8.1100    -0.1210 H     1 <1>   0.0800 
 23 H        0.4960    -6.7840     1.0320 H     1 <1>   0.0800 
 24 H       -1.7250    -7.5760     0.9920 H     1 <1>   0.1500 
 25 H       -1.6360    -4.7630    -2.2250 H     1 <1>   0.1500 
 26 H        2.3390    -5.8980    -0.3480 H     1 <1>   0.0800 
 27 H        2.1410    -7.2310    -1.4760 H     1 <1>   0.0800 
 28 H       -4.1110    -7.3220     1.1670 H     1 <1>   0.1500 
 29 H       -4.0840    -4.5070    -2.0400 H     1 <1>   0.1500 
 30 H        2.6680    -8.8240     0.3540 H     1 <1>   0.0800 
 31 H        2.9710    -7.4820     1.4320 H     1 <1>   0.0800 
 32 H        4.3840    -7.8910    -1.1250 H     1 <1>   0.4500 
 33 H        4.7460    -9.7330     0.4540 H     1 <1>   0.0800 
 34 H        5.4940    -8.5420     1.4870 H     1 <1>   0.0800 
 35 H        4.7780    -5.9880     1.0730 H     1 <1>   0.0800 
 36 H        4.5790    -5.6700    -0.6250 H     1 <1>   0.0800 
 37 H       -6.0990    -6.1070     1.5200 H     1 <1>   0.0800 
 38 H       -6.3230    -7.4240     0.3620 H     1 <1>   0.0800 
 39 H        7.3200    -9.2620     0.3210 H     1 <1>   0.0800 
 40 H        6.8060    -5.4460    -0.6170 H     1 <1>   0.0800 
 41 H       -7.9530    -4.8590     0.4520 H     1 <1>   0.0800 
 42 H       -8.5160    -6.4210     0.9960 H     1 <1>   0.0800 
 43 H       -8.1760    -6.1670    -0.6990 H     1 <1>   0.0800 
 44 H        6.6400    -7.4260    -1.9310 H     1 <1>   0.0800 
 45 H        8.1030    -7.5380    -1.0160 H     1 <1>   0.0800 
 46 H        5.6520    -9.6490    -2.1800 H     1 <1>   0.0800 
 47 H        6.1650   -10.9010    -1.0740 H     1 <1>   0.0800 
 48 H        7.3460   -10.0330    -2.0120 H     1 <1>   0.0800 
 49 H        7.0630    -7.1480     1.8780 H     1 <1>   0.0800 
 50 H        6.9820    -5.4080     1.8060 H     1 <1>   0.0800 
 51 H        8.3370    -6.2430     1.1100 H     1 <1>   0.0800 
@<TRIPOS>BOND
  1   1   2  1   
  2   1   3  1   
  3   2   4  ar  
  4   2   5  ar  
  5   3   6  1   
  6   3  22  1   
  7   3  23  1   
  8   4   7  ar  
  9   4  24  1   
 10   5   8  ar  
 11   5  25  1   
 12   6   9  1   
 13   6  26  1   
 14   6  27  1   
 15   7  10  ar  
 16   7  28  1   
 17   8  10  ar  
 18   8  29  1   
 19   9  11  1   
 20   9  30  1   
 21   9  31  1   
 22  10  12  1   
 23  11  13  1   
 24  11  14  1   
 25  11  32  1   
 26  12  15  1   
 27  13  16  1   
 28  13  33  1   
 29  13  34  1   
 30  14  17  1   
 31  14  35  1   
 32  14  36  1   
 33  15  18  1   
 34  15  37  1   
 35  15  38  1   
 36  16  19  1   
 37  16  20  1   
 38  16  39  1   
 39  17  19  1   
 40  17  21  1   
 41  17  40  1   
 42  18  41  1   
 43  18  42  1   
 44  18  43  1   
 45  19  44  1   
 46  19  45  1   
 47  20  46  1   
 48  20  47  1   
 49  20  48  1   
 50  21  49  1   
 51  21  50  1   
 52  21  51  1   
@<TRIPOS>SUBSTRUCTURE
  1 ****   3 GROUP 4 **** **** 0

# MOE 2024.06 (io_trps.svl 2023.06)
