@<TRIPOS>MOLECULE
NONAME
28 28 1 0 0 
SMALL
USER_CHARGES


@<TRIPOS>ATOM
  1 S        0.0500     0.1130    -0.6890 S.o2  1 <1>   0.8600 
  2 O       -0.1620    -0.0830    -2.1130 O.co2 1 <1>  -0.6500 
  3 O       -0.2530    -0.9880     0.2100 O.co2 1 <1>  -0.6500 
  4 N        1.6060     0.7020    -0.3790 N.2   1 <1>  -0.3590 
  5 C       -0.9960     1.4710    -0.1910 C.3   1 <1>  -0.1350 
  6 N        1.8720     1.9620    -0.2740 N.2   1 <1>  -0.7560 
  7 C        3.1280     2.3310    -0.0430 C.2   1 <1>   0.3030 
  8 C        3.4920     3.7070     0.0150 C.ar  1 <1>   0.0860 
  9 C        4.2070     1.2580     0.1580 C.3   1 <1>  -0.1790 
 10 C        2.5040     4.7100     0.0660 C.ar  1 <1>  -0.1500 
 11 C        4.8210     4.1830     0.0160 C.ar  1 <1>  -0.1500 
 12 C        2.8050     6.0540     0.1400 C.ar  1 <1>  -0.1500 
 13 C        5.1280     5.5260     0.0930 C.ar  1 <1>  -0.1500 
 14 C        4.1240     6.4780     0.1610 C.ar  1 <1>  -0.1430 
 15 C        4.4580     7.9550     0.2440 C.3   1 <1>  -0.0970 
 16 H       -0.7810     2.3320    -0.7920 H     1 <1>   0.0800 
 17 H       -0.8080     1.7150     0.8350 H     1 <1>   0.0800 
 18 H       -2.0270     1.2070    -0.3100 H     1 <1>   0.0800 
 19 H        5.0320     1.6180     0.7370 H     1 <1>   0.0800 
 20 H        4.5490     0.9180    -0.8010 H     1 <1>   0.0800 
 21 H        3.8100     0.4170     0.6970 H     1 <1>   0.0800 
 22 H        1.4720     4.4030     0.0480 H     1 <1>   0.1500 
 23 H        5.6340     3.4890    -0.0590 H     1 <1>   0.1500 
 24 H        2.0060     6.7730     0.1810 H     1 <1>   0.1500 
 25 H        6.1580     5.8380     0.0940 H     1 <1>   0.1500 
 26 H        3.7020     8.4800     0.7990 H     1 <1>   0.0800 
 27 H        4.5150     8.3710    -0.7460 H     1 <1>   0.0800 
 28 H        5.4030     8.1000     0.7380 H     1 <1>   0.0800 
@<TRIPOS>BOND
  1   1   2  ar  
  2   1   3  ar  
  3   1   4  2   
  4   1   5  1   
  5   4   6  1   
  6   5  16  1   
  7   5  17  1   
  8   5  18  1   
  9   6   7  2   
 10   7   8  1   
 11   7   9  1   
 12   8  10  ar  
 13   8  11  ar  
 14   9  19  1   
 15   9  20  1   
 16   9  21  1   
 17  10  12  ar  
 18  10  22  1   
 19  11  13  ar  
 20  11  23  1   
 21  12  14  ar  
 22  12  24  1   
 23  13  14  ar  
 24  13  25  1   
 25  14  15  1   
 26  15  26  1   
 27  15  27  1   
 28  15  28  1   
@<TRIPOS>SUBSTRUCTURE
  1 ****   7 GROUP 4 **** **** 0

# MOE 2024.06 (io_trps.svl 2023.06)
