@<TRIPOS>MOLECULE
NONAME
37 39 1 0 0 
SMALL
USER_CHARGES


@<TRIPOS>ATOM
  1 S       -1.8330    -0.9200    -1.6050 S.3   1 <1>  -0.0800 
  2 C       -1.8790    -0.7760     0.1470 C.2   1 <1>  -0.1400 
  3 C       -0.3830    -1.9040    -1.5310 C.2   1 <1>  -0.1100 
  4 C       -0.8470    -1.4410     0.7000 C.2   1 <1>  -0.1500 
  5 C       -3.0120     0.0340     0.7540 C.3   1 <1>   0.2900 
  6 C        0.0040    -2.0840    -0.2550 C.2   1 <1>  -0.1500 
  7 N       -4.3380    -0.5510     0.4290 N.3   1 <1>  -0.8100 
  8 C       -5.4910     0.2270     0.9490 C.3   1 <1>   0.1900 
  9 C       -4.4230    -1.9640     0.8670 C.3   1 <1>   0.1100 
 10 C       -6.8580    -0.4290     0.5620 C.3   1 <1>   0.4230 
 11 C       -5.4400     1.6820     0.4570 C.3   1 <1>  -0.2400 
 12 C       -5.7240    -2.6260     0.3850 C.3   1 <1>   0.3430 
 13 N       -6.9530    -1.8950     0.8540 N.4   1 <1>  -0.9590 
 14 C       -7.2440    -0.3390    -0.9150 C.3   1 <1>  -0.1600 
 15 C       -8.1490    -2.3670     0.1110 C.3   1 <1>   0.3430 
 16 C       -8.2180    -1.4990    -1.1440 C.3   1 <1>  -0.1600 
 17 H        0.0320    -2.2450    -2.4630 H     1 <1>   0.1500 
 18 H       -0.6350    -1.5120     1.7530 H     1 <1>   0.1500 
 19 H       -2.9360     1.0280     0.3520 H     1 <1>   0.0800 
 20 H       -2.8850     0.0870     1.8210 H     1 <1>   0.0800 
 21 H        0.8650    -2.6470     0.0620 H     1 <1>   0.1500 
 22 H       -5.4370     0.2450     2.0250 H     1 <1>   0.0800 
 23 H       -4.3510    -2.0270     1.9400 H     1 <1>   0.0800 
 24 H       -3.6080    -2.5280     0.4490 H     1 <1>   0.0800 
 25 H       -7.6300     0.0750     1.1210 H     1 <1>   0.0800 
 26 H       -5.2770     1.7210    -0.6060 H     1 <1>   0.0800 
 27 H       -4.6600     2.2290     0.9530 H     1 <1>   0.0800 
 28 H       -6.3640     2.1850     0.6800 H     1 <1>   0.0800 
 29 H       -5.7520    -3.6470     0.7290 H     1 <1>   0.0800 
 30 H       -5.7010    -2.6410    -0.6920 H     1 <1>   0.0800 
 31 H       -7.0630    -2.0350     1.8640 H     1 <1>   0.4500 
 32 H       -6.3680    -0.4610    -1.5290 H     1 <1>   0.0800 
 33 H       -7.6910     0.6130    -1.1430 H     1 <1>   0.0800 
 34 H       -9.0340    -2.2030     0.7050 H     1 <1>   0.0800 
 35 H       -8.0790    -3.4150    -0.1340 H     1 <1>   0.0800 
 36 H       -7.9330    -2.0670    -2.0130 H     1 <1>   0.0800 
 37 H       -9.2240    -1.1430    -1.2860 H     1 <1>   0.0800 
@<TRIPOS>BOND
  1   1   2  1   
  2   1   3  1   
  3   2   4  2   
  4   2   5  1   
  5   3   6  2   
  6   3  17  1   
  7   4   6  1   
  8   4  18  1   
  9   5   7  1   
 10   5  19  1   
 11   5  20  1   
 12   6  21  1   
 13   7   8  1   
 14   7   9  1   
 15   8  10  1   
 16   8  11  1   
 17   8  22  1   
 18   9  12  1   
 19   9  23  1   
 20   9  24  1   
 21  10  13  1   
 22  10  14  1   
 23  10  25  1   
 24  11  26  1   
 25  11  27  1   
 26  11  28  1   
 27  12  13  1   
 28  12  29  1   
 29  12  30  1   
 30  13  15  1   
 31  13  31  1   
 32  14  16  1   
 33  14  32  1   
 34  14  33  1   
 35  15  16  1   
 36  15  34  1   
 37  15  35  1   
 38  16  36  1   
 39  16  37  1   
@<TRIPOS>SUBSTRUCTURE
  1 ****   7 GROUP 4 **** **** 0

# MOE 2024.06 (io_trps.svl 2023.06)
