@<TRIPOS>MOLECULE
NONAME
53 56 1 0 0 
SMALL
USER_CHARGES


@<TRIPOS>ATOM
  1 O        0.6490    -0.4260     1.8180 O.2   1 <1>  -0.5700 
  2 C        1.6520    -0.8090     1.2620 C.2   1 <1>   0.5690 
  3 N        1.7760    -1.9620     0.5340 N.am  1 <1>  -0.2370 
  4 C        2.9980    -0.0740     1.3740 C.3   1 <1>   0.2510 
  5 C        0.7120    -2.8040     0.1360 C.ar  1 <1>   0.1170 
  6 C        3.0990    -2.1880     0.2670 C.2   1 <1>   0.5690 
  7 N        3.1600     1.1630     0.5520 N.3   1 <1>  -0.8100 
  8 C        3.9880    -1.1310     0.8690 C.3   1 <1>  -0.0990 
  9 C        0.6120    -3.2480    -1.1780 C.ar  1 <1>  -0.1500 
 10 C       -0.2620    -3.2110     1.0430 C.ar  1 <1>  -0.1500 
 11 O        3.5590    -3.1150    -0.3480 O.2   1 <1>  -0.5700 
 12 C        4.3500     1.9220     0.9840 C.3   1 <1>   0.1100 
 13 C        1.9650     2.0310     0.5750 C.3   1 <1>   0.1100 
 14 C       -0.4260    -4.0720    -1.5740 C.ar  1 <1>  -0.1500 
 15 C       -1.3010    -4.0350     0.6490 C.ar  1 <1>  -0.1500 
 16 C        4.6140     3.0870     0.0290 C.3   1 <1>  -0.1600 
 17 C        2.1490     3.2140    -0.3800 C.3   1 <1>  -0.1600 
 18 C       -1.3890    -4.4720    -0.6620 C.ar  1 <1>  -0.1430 
 19 C        3.4040     4.0320    -0.0420 C.3   1 <1>  -0.0800 
 20 C       -2.5290    -5.3750    -1.0960 C.3   1 <1>  -0.0970 
 21 C        3.6110     5.1610    -1.0670 C.3   1 <1>  -0.0170 
 22 C        4.8070     6.0370    -0.7180 C.ar  1 <1>  -0.1430 
 23 C        4.7090     6.9800     0.2930 C.ar  1 <1>  -0.1500 
 24 C        6.0040     5.9000    -1.4050 C.ar  1 <1>  -0.1500 
 25 C        5.7950     7.7750     0.6170 C.ar  1 <1>  -0.1500 
 26 C        7.0910     6.6940    -1.0820 C.ar  1 <1>  -0.1500 
 27 C        6.9870     7.6320    -0.0700 C.ar  1 <1>  -0.1500 
 28 H        3.1740     0.1520     2.4120 H     1 <1>   0.0800 
 29 H        4.5400    -1.5620     1.6830 H     1 <1>   0.0800 
 30 H        4.6620    -0.7570     0.1200 H     1 <1>   0.0800 
 31 H        1.3540    -2.9510    -1.8970 H     1 <1>   0.1500 
 32 H       -0.2120    -2.8800     2.0650 H     1 <1>   0.1500 
 33 H        5.2180     1.2850     0.9910 H     1 <1>   0.0800 
 34 H        4.2020     2.3000     1.9820 H     1 <1>   0.0800 
 35 H        1.7840     2.3850     1.5760 H     1 <1>   0.0800 
 36 H        1.0990     1.4830     0.2470 H     1 <1>   0.0800 
 37 H       -0.4800    -4.4020    -2.5970 H     1 <1>   0.1500 
 38 H       -2.0430    -4.3330     1.3690 H     1 <1>   0.1500 
 39 H        4.8350     2.6930    -0.9470 H     1 <1>   0.0800 
 40 H        5.4780     3.6260     0.3730 H     1 <1>   0.0800 
 41 H        1.2780     3.8430    -0.3270 H     1 <1>   0.0800 
 42 H        2.2180     2.8310    -1.3840 H     1 <1>   0.0800 
 43 H        3.2650     4.4760     0.9290 H     1 <1>   0.0800 
 44 H       -2.2140    -6.0210    -1.8960 H     1 <1>   0.0800 
 45 H       -3.3560    -4.7780    -1.4360 H     1 <1>   0.0800 
 46 H       -2.8570    -5.9880    -0.2760 H     1 <1>   0.0800 
 47 H        2.7310     5.7790    -1.1010 H     1 <1>   0.0800 
 48 H        3.7430     4.7400    -2.0470 H     1 <1>   0.0800 
 49 H        3.7860     7.0990     0.8320 H     1 <1>   0.1500 
 50 H        6.0950     5.1730    -2.1920 H     1 <1>   0.1500 
 51 H        5.7110     8.5050     1.4030 H     1 <1>   0.1500 
 52 H        8.0160     6.5810    -1.6180 H     1 <1>   0.1500 
 53 H        7.8310     8.2490     0.1810 H     1 <1>   0.1500 
@<TRIPOS>BOND
  1   1   2  2   
  2   2   3  am  
  3   2   4  1   
  4   3   5  1   
  5   3   6  am  
  6   4   7  1   
  7   4   8  1   
  8   4  28  1   
  9   5   9  ar  
 10   5  10  ar  
 11   6   8  1   
 12   6  11  2   
 13   7  12  1   
 14   7  13  1   
 15   8  29  1   
 16   8  30  1   
 17   9  14  ar  
 18   9  31  1   
 19  10  15  ar  
 20  10  32  1   
 21  12  16  1   
 22  12  33  1   
 23  12  34  1   
 24  13  17  1   
 25  13  35  1   
 26  13  36  1   
 27  14  18  ar  
 28  14  37  1   
 29  15  18  ar  
 30  15  38  1   
 31  16  19  1   
 32  16  39  1   
 33  16  40  1   
 34  17  19  1   
 35  17  41  1   
 36  17  42  1   
 37  18  20  1   
 38  19  21  1   
 39  19  43  1   
 40  20  44  1   
 41  20  45  1   
 42  20  46  1   
 43  21  22  1   
 44  21  47  1   
 45  21  48  1   
 46  22  23  ar  
 47  22  24  ar  
 48  23  25  ar  
 49  23  49  1   
 50  24  26  ar  
 51  24  50  1   
 52  25  27  ar  
 53  25  51  1   
 54  26  27  ar  
 55  26  52  1   
 56  27  53  1   
@<TRIPOS>SUBSTRUCTURE
  1 ****   7 GROUP 4 **** **** 0

# MOE 2024.06 (io_trps.svl 2023.06)
