@<TRIPOS>MOLECULE
NONAME
33 33 1 0 0 
SMALL
USER_CHARGES


@<TRIPOS>ATOM
  1 O       -0.2160    -0.9550     1.1960 O.2   1 <1>  -0.5700 
  2 C       -0.1770    -1.0080    -0.0140 C.2   1 <1>   0.7800 
  3 O       -1.2810    -1.0470    -0.7480 O.3   1 <1>  -0.4300 
  4 N        0.9770    -1.0310    -0.7110 N.am  1 <1>  -0.7300 
  5 C       -2.6120    -1.0340    -0.2600 C.3   1 <1>   0.4800 
  6 C        2.3290    -0.9980    -0.1370 C.3   1 <1>   0.2200 
  7 C       -3.5030    -1.0930    -1.4720 C.1   1 <1>   0.3570 
  8 C       -2.8870     0.2760     0.4980 C.3   1 <1>  -0.2400 
  9 C       -2.8710    -2.2750     0.6110 C.3   1 <1>  -0.2400 
 10 C        3.0550     0.2510    -0.6500 C.3   1 <1>  -0.1600 
 11 C        3.0700    -2.2770    -0.5390 C.3   1 <1>  -0.1600 
 12 N       -4.1970    -1.1370    -2.3760 N.1   1 <1>  -0.5570 
 13 C        4.5120     0.2830    -0.1670 C.3   1 <1>  -0.1600 
 14 C        4.5280    -2.2490    -0.0550 C.3   1 <1>  -0.1600 
 15 C        5.2570    -0.9980    -0.5640 C.3   1 <1>  -0.1600 
 16 H        0.9170    -1.0760    -1.7250 H     1 <1>   0.3700 
 17 H        2.2670    -0.9500     0.9390 H     1 <1>   0.0800 
 18 H       -2.6240     1.1210    -0.1120 H     1 <1>   0.0800 
 19 H       -2.3390     0.3190     1.4210 H     1 <1>   0.0800 
 20 H       -3.9320     0.3450     0.7390 H     1 <1>   0.0800 
 21 H       -2.3230    -2.2300     1.5340 H     1 <1>   0.0800 
 22 H       -2.5970    -3.1680     0.0770 H     1 <1>   0.0800 
 23 H       -3.9160    -2.3350     0.8570 H     1 <1>   0.0800 
 24 H        2.5440     1.1290    -0.2970 H     1 <1>   0.0800 
 25 H        3.0440     0.2580    -1.7260 H     1 <1>   0.0800 
 26 H        3.0600    -2.3790    -1.6100 H     1 <1>   0.0800 
 27 H        2.5700    -3.1270    -0.1090 H     1 <1>   0.0800 
 28 H        4.5300     0.3870     0.9050 H     1 <1>   0.0800 
 29 H        5.0140     1.1380    -0.5880 H     1 <1>   0.0800 
 30 H        5.0400    -3.1310    -0.4000 H     1 <1>   0.0800 
 31 H        4.5460    -2.2580     1.0220 H     1 <1>   0.0800 
 32 H        6.2550    -0.9740    -0.1600 H     1 <1>   0.0800 
 33 H        5.3390    -1.0450    -1.6370 H     1 <1>   0.0800 
@<TRIPOS>BOND
  1   1   2  2   
  2   2   3  1   
  3   2   4  am  
  4   3   5  1   
  5   4   6  1   
  6   4  16  1   
  7   5   7  1   
  8   5   8  1   
  9   5   9  1   
 10   6  10  1   
 11   6  11  1   
 12   6  17  1   
 13   7  12  3   
 14   8  18  1   
 15   8  19  1   
 16   8  20  1   
 17   9  21  1   
 18   9  22  1   
 19   9  23  1   
 20  10  13  1   
 21  10  24  1   
 22  10  25  1   
 23  11  14  1   
 24  11  26  1   
 25  11  27  1   
 26  13  15  1   
 27  13  28  1   
 28  13  29  1   
 29  14  15  1   
 30  14  30  1   
 31  14  31  1   
 32  15  32  1   
 33  15  33  1   
@<TRIPOS>SUBSTRUCTURE
  1 ****   2 GROUP 4 **** **** 0

# MOE 2024.06 (io_trps.svl 2023.06)
