@<TRIPOS>MOLECULE
NONAME
34 35 1 0 0 
SMALL
USER_CHARGES


@<TRIPOS>ATOM
  1 O       -0.0440     1.6100     2.1360 O.2   1 <1>  -0.5700 
  2 C        0.1500     2.0860     1.0320 C.2   1 <1>   0.5440 
  3 N       -0.9410     2.3300     0.2330 N.am  1 <1>  -0.6600 
  4 C        1.4960     2.3890     0.5960 C.ar  1 <1>   0.0860 
  5 C       -2.3040     1.8250     0.5850 C.3   1 <1>   0.2810 
  6 C       -1.0030     3.3520    -0.8330 C.3   1 <1>   0.1400 
  7 C        2.4020     3.0270     1.4450 C.ar  1 <1>  -0.1500 
  8 C        1.9470     2.0490    -0.6820 C.ar  1 <1>  -0.1500 
  9 C       -2.4430     0.2920     0.6210 C.2   1 <1>   0.6590 
 10 C       -3.2200     2.4770    -0.4560 C.3   1 <1>  -0.1600 
 11 C       -2.4770     3.7340    -0.9050 C.3   1 <1>  -0.1600 
 12 C        3.6840     3.3300     1.0330 C.ar  1 <1>  -0.1500 
 13 C        3.2290     2.3520    -1.0980 C.ar  1 <1>  -0.1500 
 14 O       -3.2100    -0.2530     1.3770 O.2   1 <1>  -0.5700 
 15 O       -1.7100    -0.4050    -0.2480 O.3   1 <1>  -0.4300 
 16 C        4.1120     3.0030    -0.2470 C.ar  1 <1>   0.1000 
 17 C       -1.7350    -1.8160    -0.2740 C.3   1 <1>   0.0400 
 18 N        5.3860     3.3130    -0.6620 N.pl3 1 <1>  -0.9000 
 19 H       -2.5550     2.2030     1.5610 H     1 <1>   0.0800 
 20 H       -0.6880     2.9120    -1.7640 H     1 <1>   0.0800 
 21 H       -0.3820     4.2010    -0.6000 H     1 <1>   0.0800 
 22 H        2.0830     3.2780     2.4420 H     1 <1>   0.1500 
 23 H        1.2800     1.5320    -1.3480 H     1 <1>   0.1500 
 24 H       -4.1900     2.6960    -0.0460 H     1 <1>   0.0800 
 25 H       -3.3390     1.8100    -1.2930 H     1 <1>   0.0800 
 26 H       -2.7610     4.0490    -1.8940 H     1 <1>   0.0800 
 27 H       -2.6640     4.5380    -0.2140 H     1 <1>   0.0800 
 28 H        4.3640     3.8190     1.7060 H     1 <1>   0.1500 
 29 H        3.5550     2.0790    -2.0840 H     1 <1>   0.1500 
 30 H       -1.0660    -2.1540    -1.0450 H     1 <1>   0.0800 
 31 H       -2.7390    -2.1430    -0.4800 H     1 <1>   0.0800 
 32 H       -1.4120    -2.1840     0.6850 H     1 <1>   0.0800 
 33 H        5.5980     3.3090    -1.6640 H     1 <1>   0.4000 
 34 H        5.9250     4.0030    -0.1310 H     1 <1>   0.4000 
@<TRIPOS>BOND
  1   1   2  2   
  2   2   3  am  
  3   2   4  1   
  4   3   5  1   
  5   3   6  1   
  6   4   7  ar  
  7   4   8  ar  
  8   5   9  1   
  9   5  10  1   
 10   5  19  1   
 11   6  11  1   
 12   6  20  1   
 13   6  21  1   
 14   7  12  ar  
 15   7  22  1   
 16   8  13  ar  
 17   8  23  1   
 18   9  14  2   
 19   9  15  1   
 20  10  11  1   
 21  10  24  1   
 22  10  25  1   
 23  11  26  1   
 24  11  27  1   
 25  12  16  ar  
 26  12  28  1   
 27  13  16  ar  
 28  13  29  1   
 29  15  17  1   
 30  16  18  1   
 31  17  30  1   
 32  17  31  1   
 33  17  32  1   
 34  18  33  1   
 35  18  34  1   
@<TRIPOS>SUBSTRUCTURE
  1 ****   2 GROUP 4 **** **** 0

# MOE 2024.06 (io_trps.svl 2023.06)
