@<TRIPOS>MOLECULE
NONAME
40 40 1 0 0 
SMALL
USER_CHARGES


@<TRIPOS>ATOM
  1 O        0.3450     0.0750    -0.0500 O.3   1 <1>  -0.5600 
  2 C        1.3530     0.9160     0.3780 C.3   1 <1>   0.1200 
  3 C       -0.9390     0.5240     0.2310 C.3   1 <1>   0.1200 
  4 C        2.6660     0.2490    -0.0240 C.3   1 <1>  -0.1600 
  5 C       -1.9150    -0.5150    -0.3060 C.3   1 <1>  -0.2400 
  6 C        3.8600     1.0920     0.3980 C.3   1 <1>   0.3430 
  7 N        5.1010     0.3980    -0.0220 N.4   1 <1>  -0.9060 
  8 C        6.3430     1.0970     0.3580 C.3   1 <1>   0.4230 
  9 C        6.5150     2.3670    -0.4860 C.3   1 <1>  -0.1600 
 10 C        7.5160     0.1350     0.1460 C.3   1 <1>  -0.1600 
 11 C        7.8550     3.0550    -0.1830 C.3   1 <1>  -0.1600 
 12 C        8.8560     0.8190     0.4550 C.3   1 <1>  -0.1600 
 13 C        9.0390     2.0960    -0.3810 C.3   1 <1>  -0.0800 
 14 C       10.3530     2.7900    -0.0110 C.3   1 <1>  -0.2400 
 15 H        1.2780     1.0260     1.4480 H     1 <1>   0.0800 
 16 H        1.2320     1.8720    -0.1050 H     1 <1>   0.0800 
 17 H       -1.0940     1.4730    -0.2540 H     1 <1>   0.0800 
 18 H       -1.0490     0.6290     1.2980 H     1 <1>   0.0800 
 19 H        2.6660     0.1240    -1.0920 H     1 <1>   0.0800 
 20 H        2.7120    -0.7160     0.4510 H     1 <1>   0.0800 
 21 H       -1.7910    -0.6240    -1.3690 H     1 <1>   0.0800 
 22 H       -2.9240    -0.2040    -0.1080 H     1 <1>   0.0800 
 23 H       -1.7470    -1.4630     0.1730 H     1 <1>   0.0800 
 24 H        3.8530     1.2230     1.4690 H     1 <1>   0.0800 
 25 H        3.8000     2.0630    -0.0680 H     1 <1>   0.0800 
 26 H        5.0970     0.2670    -1.0400 H     1 <1>   0.4500 
 27 H        5.1150    -0.5420     0.3920 H     1 <1>   0.4500 
 28 H        6.3070     1.3690     1.4020 H     1 <1>   0.0800 
 29 H        5.7260     3.0670    -0.2790 H     1 <1>   0.0800 
 30 H        6.4890     2.1190    -1.5340 H     1 <1>   0.0800 
 31 H        7.5350    -0.2050    -0.8750 H     1 <1>   0.0800 
 32 H        7.4130    -0.7200     0.7920 H     1 <1>   0.0800 
 33 H        7.8520     3.4170     0.8320 H     1 <1>   0.0800 
 34 H        7.9730     3.9080    -0.8310 H     1 <1>   0.0800 
 35 H        9.6630     0.1360     0.2470 H     1 <1>   0.0800 
 36 H        8.9020     1.0650     1.5030 H     1 <1>   0.0800 
 37 H        9.0900     1.8210    -1.4230 H     1 <1>   0.0800 
 38 H       10.3550     3.0850     1.0240 H     1 <1>   0.0800 
 39 H       10.4960     3.6670    -0.6170 H     1 <1>   0.0800 
 40 H       11.1860     2.1290    -0.1780 H     1 <1>   0.0800 
@<TRIPOS>BOND
  1   1   2  1   
  2   1   3  1   
  3   2   4  1   
  4   2  15  1   
  5   2  16  1   
  6   3   5  1   
  7   3  17  1   
  8   3  18  1   
  9   4   6  1   
 10   4  19  1   
 11   4  20  1   
 12   5  21  1   
 13   5  22  1   
 14   5  23  1   
 15   6   7  1   
 16   6  24  1   
 17   6  25  1   
 18   7   8  1   
 19   7  26  1   
 20   7  27  1   
 21   8   9  1   
 22   8  10  1   
 23   8  28  1   
 24   9  11  1   
 25   9  29  1   
 26   9  30  1   
 27  10  12  1   
 28  10  31  1   
 29  10  32  1   
 30  11  13  1   
 31  11  33  1   
 32  11  34  1   
 33  12  13  1   
 34  12  35  1   
 35  12  36  1   
 36  13  14  1   
 37  13  37  1   
 38  14  38  1   
 39  14  39  1   
 40  14  40  1   
@<TRIPOS>SUBSTRUCTURE
  1 ****   7 GROUP 4 **** **** 0

# MOE 2024.06 (io_trps.svl 2023.06)
