@<TRIPOS>MOLECULE
NONAME
49 51 1 0 0 
SMALL
USER_CHARGES


@<TRIPOS>ATOM
  1 O       -0.0600    -0.1800     0.1090 O.2   1 <1>  -0.5700 
  2 C        0.6980    -1.0960     0.3620 C.2   1 <1>   0.5440 
  3 N        2.0540    -0.9160     0.2690 N.am  1 <1>  -0.5470 
  4 C        0.1800    -2.3990     0.7390 C.ar  1 <1>   0.0860 
  5 C        2.8860     0.1700    -0.0430 C.ar  1 <1>   0.1170 
  6 C       -1.0590    -2.8390     0.2760 C.ar  1 <1>  -0.1500 
  7 C        0.8950    -3.2640     1.5720 C.ar  1 <1>  -0.1500 
  8 C        4.2370    -0.1300    -0.2690 C.ar  1 <1>   0.1000 
  9 C        2.4520     1.4860    -0.1270 C.ar  1 <1>  -0.1500 
 10 C       -1.5660    -4.0830     0.6090 C.ar  1 <1>   0.0830 
 11 C        0.4000    -4.5110     1.9130 C.ar  1 <1>  -0.1500 
 12 N        4.6840    -1.4630    -0.1800 N.pl3 1 <1>  -0.8380 
 13 C        5.1140     0.8990    -0.5890 C.ar  1 <1>  -0.1500 
 14 C        3.3390     2.5020    -0.4410 C.ar  1 <1>  -0.1500 
 15 O       -2.7790    -4.4050     0.0960 O.3   1 <1>  -0.3630 
 16 C       -0.8280    -4.9260     1.4330 C.ar  1 <1>  -0.1500 
 17 C        5.8190    -1.7260     0.7550 C.3   1 <1>   0.2090 
 18 C        4.8750    -2.1460    -1.4970 C.3   1 <1>   0.2090 
 19 C        4.6710     2.2080    -0.6740 C.ar  1 <1>  -0.1500 
 20 C       -3.4130    -5.6240     0.4120 C.3   1 <1>   0.0400 
 21 C        6.0240    -3.2370     0.9660 C.3   1 <1>   0.1400 
 22 C        5.0700    -3.6600    -1.3110 C.3   1 <1>   0.1400 
 23 N        6.1770    -3.9530    -0.3420 N.am  1 <1>  -0.6600 
 24 C        7.2280    -4.7580    -0.6930 C.2   1 <1>   0.5690 
 25 O        7.3170    -5.2520    -1.7900 O.2   1 <1>  -0.5700 
 26 C        8.3300    -5.0620     0.2940 C.3   1 <1>  -0.1790 
 27 H        2.6280    -1.7590     0.3320 H     1 <1>   0.3700 
 28 H       -1.6420    -2.1950    -0.3580 H     1 <1>   0.1500 
 29 H        1.8470    -2.9570     1.9680 H     1 <1>   0.1500 
 30 H        1.4200     1.7270     0.0520 H     1 <1>   0.1500 
 31 H        0.9710    -5.1590     2.5560 H     1 <1>   0.1500 
 32 H        6.1470     0.6780    -0.7780 H     1 <1>   0.1500 
 33 H        2.9890     3.5170    -0.5040 H     1 <1>   0.1500 
 34 H       -1.1930    -5.8970     1.7100 H     1 <1>   0.1500 
 35 H        5.6150    -1.2540     1.7010 H     1 <1>   0.0800 
 36 H        6.7240    -1.3010     0.3570 H     1 <1>   0.0800 
 37 H        5.7360    -1.7370    -1.9970 H     1 <1>   0.0800 
 38 H        4.0140    -1.9710    -2.1200 H     1 <1>   0.0800 
 39 H        5.3600     2.9960    -0.9220 H     1 <1>   0.1500 
 40 H       -4.3640    -5.6460    -0.0900 H     1 <1>   0.0800 
 41 H       -3.5620    -5.6750     1.4760 H     1 <1>   0.0800 
 42 H       -2.8000    -6.4380     0.0680 H     1 <1>   0.0800 
 43 H        5.1680    -3.6340     1.4820 H     1 <1>   0.0800 
 44 H        6.8840    -3.3860     1.5920 H     1 <1>   0.0800 
 45 H        5.2760    -4.1060    -2.2690 H     1 <1>   0.0800 
 46 H        4.1570    -4.0900    -0.9400 H     1 <1>   0.0800 
 47 H        8.8600    -4.1610     0.5370 H     1 <1>   0.0800 
 48 H        9.0210    -5.7600    -0.1410 H     1 <1>   0.0800 
 49 H        7.9160    -5.4980     1.1830 H     1 <1>   0.0800 
@<TRIPOS>BOND
  1   1   2  2   
  2   2   3  am  
  3   2   4  1   
  4   3   5  1   
  5   3  27  1   
  6   4   6  ar  
  7   4   7  ar  
  8   5   8  ar  
  9   5   9  ar  
 10   6  10  ar  
 11   6  28  1   
 12   7  11  ar  
 13   7  29  1   
 14   8  12  1   
 15   8  13  ar  
 16   9  14  ar  
 17   9  30  1   
 18  10  15  1   
 19  10  16  ar  
 20  11  16  ar  
 21  11  31  1   
 22  12  17  1   
 23  12  18  1   
 24  13  19  ar  
 25  13  32  1   
 26  14  19  ar  
 27  14  33  1   
 28  15  20  1   
 29  16  34  1   
 30  17  21  1   
 31  17  35  1   
 32  17  36  1   
 33  18  22  1   
 34  18  37  1   
 35  18  38  1   
 36  19  39  1   
 37  20  40  1   
 38  20  41  1   
 39  20  42  1   
 40  21  23  1   
 41  21  43  1   
 42  21  44  1   
 43  22  23  1   
 44  22  45  1   
 45  22  46  1   
 46  23  24  am  
 47  24  25  2   
 48  24  26  1   
 49  26  47  1   
 50  26  48  1   
 51  26  49  1   
@<TRIPOS>SUBSTRUCTURE
  1 ****   3 GROUP 4 **** **** 0

# MOE 2024.06 (io_trps.svl 2023.06)
