@<TRIPOS>MOLECULE
NONAME
36 38 1 0 0 
SMALL
USER_CHARGES


@<TRIPOS>ATOM
  1 O       -1.7670    -2.2720     0.8610 O.3   1 <1>  -0.6800 
  2 C       -0.7080    -2.8810     1.5170 C.3   1 <1>   0.1200 
  3 C        0.5980    -2.7280     0.7020 C.3   1 <1>   0.0000 
  4 C        1.7600    -3.4180     1.4530 C.3   1 <1>  -0.1600 
  5 C        0.9630    -1.2360     0.5110 C.3   1 <1>  -0.1600 
  6 C        0.4640    -3.3840    -0.6940 C.3   1 <1>  -0.1600 
  7 C        3.0650    -3.2730     0.6540 C.3   1 <1>   0.5030 
  8 C        2.2770    -1.0770    -0.2830 C.3   1 <1>   0.0000 
  9 C        1.7720    -3.2470    -1.4930 C.3   1 <1>  -0.0800 
 10 N        4.1470    -3.9300     1.3770 N.4   1 <1>  -0.8530 
 11 C        3.4100    -1.7870     0.4830 C.3   1 <1>  -0.1600 
 12 C        2.9110    -3.9360    -0.7230 C.3   1 <1>  -0.1600 
 13 C        2.1050    -1.7530    -1.6600 C.3   1 <1>  -0.1600 
 14 C        2.6080     0.4090    -0.4630 C.3   1 <1>  -0.2400 
 15 H       -2.5980    -2.3610     1.3690 H     1 <1>   0.4000 
 16 H       -0.9560    -3.9210     1.6460 H     1 <1>   0.0800 
 17 H       -0.6100    -2.4180     2.4840 H     1 <1>   0.0800 
 18 H        1.5200    -4.4590     1.5860 H     1 <1>   0.0800 
 19 H        1.8660    -2.9650     2.4230 H     1 <1>   0.0800 
 20 H        1.0490    -0.7530     1.4690 H     1 <1>   0.0800 
 21 H        0.1680    -0.7390    -0.0210 H     1 <1>   0.0800 
 22 H       -0.3330    -2.9080    -1.2420 H     1 <1>   0.0800 
 23 H        0.2000    -4.4230    -0.5940 H     1 <1>   0.0800 
 24 H        1.6520    -3.7010    -2.4640 H     1 <1>   0.0800 
 25 H        4.2660    -3.4980     2.2960 H     1 <1>   0.4500 
 26 H        5.0190    -3.8370     0.8500 H     1 <1>   0.4500 
 27 H        3.9350    -4.9240     1.4960 H     1 <1>   0.4500 
 28 H        4.3270    -1.6770    -0.0690 H     1 <1>   0.0800 
 29 H        3.5300    -1.3170     1.4440 H     1 <1>   0.0800 
 30 H        2.6760    -4.9810    -0.6180 H     1 <1>   0.0800 
 31 H        3.8200    -3.8460    -1.2920 H     1 <1>   0.0800 
 32 H        1.3090    -1.2700    -2.2030 H     1 <1>   0.0800 
 33 H        3.0020    -1.6410    -2.2450 H     1 <1>   0.0800 
 34 H        3.5190     0.5340    -1.0220 H     1 <1>   0.0800 
 35 H        2.7230     0.8930     0.4910 H     1 <1>   0.0800 
 36 H        1.8160     0.9070    -0.9970 H     1 <1>   0.0800 
@<TRIPOS>BOND
  1   1   2  1   
  2   1  15  1   
  3   2   3  1   
  4   2  16  1   
  5   2  17  1   
  6   3   4  1   
  7   3   5  1   
  8   3   6  1   
  9   4   7  1   
 10   4  18  1   
 11   4  19  1   
 12   5   8  1   
 13   5  20  1   
 14   5  21  1   
 15   6   9  1   
 16   6  22  1   
 17   6  23  1   
 18   7  10  1   
 19   7  11  1   
 20   7  12  1   
 21   8  11  1   
 22   8  13  1   
 23   8  14  1   
 24   9  12  1   
 25   9  13  1   
 26   9  24  1   
 27  10  25  1   
 28  10  26  1   
 29  10  27  1   
 30  11  28  1   
 31  11  29  1   
 32  12  30  1   
 33  12  31  1   
 34  13  32  1   
 35  13  33  1   
 36  14  34  1   
 37  14  35  1   
 38  14  36  1   
@<TRIPOS>SUBSTRUCTURE
  1 ****   3 GROUP 4 **** **** 0

# MOE 2024.06 (io_trps.svl 2023.06)
