@<TRIPOS>MOLECULE
NONAME
43 43 1 0 0 
SMALL
USER_CHARGES


@<TRIPOS>ATOM
  1 O        4.2670    -3.2740     0.0100 O.3   1 <1>  -0.5600 
  2 C        5.6510    -3.3590    -0.0500 C.3   1 <1>   0.2000 
  3 C        3.5890    -4.5000     0.0500 C.3   1 <1>   0.1200 
  4 C        6.1930    -2.0700     0.5560 C.3   1 <1>  -0.2400 
  5 C        6.0710    -3.5020    -1.5130 C.3   1 <1>  -0.2400 
  6 C        2.0780    -4.2350     0.1020 C.3   1 <1>   0.2000 
  7 O        1.8690    -3.2370     1.0450 O.3   1 <1>  -0.6800 
  8 C        1.2740    -5.5030     0.4620 C.3   1 <1>   0.1100 
  9 N       -0.1770    -5.4310     0.1430 N.3   1 <1>  -0.8100 
 10 C       -0.8340    -6.7350     0.3890 C.3   1 <1>   0.1100 
 11 C       -0.8660    -4.3520     0.9050 C.3   1 <1>   0.1100 
 12 C       -2.3290    -6.7230    -0.0200 C.3   1 <1>   0.3430 
 13 C       -2.4060    -4.4050     0.7840 C.3   1 <1>   0.3430 
 14 N       -2.8120    -5.3340    -0.3200 N.4   1 <1>  -0.9590 
 15 C       -4.2460    -5.2850    -0.6900 C.3   1 <1>   0.3430 
 16 C       -4.5580    -3.9540    -1.3620 C.3   1 <1>  -0.2400 
 17 H        5.9870    -4.2020     0.5340 H     1 <1>   0.0800 
 18 H        3.9020    -5.0370     0.9290 H     1 <1>   0.0800 
 19 H        3.8340    -5.0720    -0.8270 H     1 <1>   0.0800 
 20 H        5.8450    -1.2190    -0.0010 H     1 <1>   0.0800 
 21 H        7.2670    -2.0770     0.5380 H     1 <1>   0.0800 
 22 H        5.8720    -1.9820     1.5780 H     1 <1>   0.0800 
 23 H        5.6800    -2.6850    -2.0930 H     1 <1>   0.0800 
 24 H        5.7220    -4.4310    -1.9230 H     1 <1>   0.0800 
 25 H        7.1430    -3.4890    -1.5860 H     1 <1>   0.0800 
 26 H        1.7610    -3.8630    -0.8560 H     1 <1>   0.0800 
 27 H        2.6410    -2.6280     0.9650 H     1 <1>   0.4000 
 28 H        1.4170    -5.7250     1.5070 H     1 <1>   0.0800 
 29 H        1.6920    -6.3180    -0.1030 H     1 <1>   0.0800 
 30 H       -0.7560    -6.9870     1.4330 H     1 <1>   0.0800 
 31 H       -0.3300    -7.5060    -0.1680 H     1 <1>   0.0800 
 32 H       -0.5430    -3.3980     0.5270 H     1 <1>   0.0800 
 33 H       -0.5880    -4.3930     1.9450 H     1 <1>   0.0800 
 34 H       -2.9130    -7.1570     0.7740 H     1 <1>   0.0800 
 35 H       -2.4520    -7.3420    -0.8930 H     1 <1>   0.0800 
 36 H       -2.7720    -3.4090     0.5980 H     1 <1>   0.0800 
 37 H       -2.8240    -4.7410     1.7180 H     1 <1>   0.0800 
 38 H       -2.2280    -5.0360    -1.1170 H     1 <1>   0.4500 
 39 H       -4.8620    -5.4130     0.1870 H     1 <1>   0.0800 
 40 H       -4.4680    -6.0840    -1.3800 H     1 <1>   0.0800 
 41 H       -4.4470    -3.1320    -0.6790 H     1 <1>   0.0800 
 42 H       -5.5790    -3.9610    -1.7000 H     1 <1>   0.0800 
 43 H       -3.9260    -3.8020    -2.2190 H     1 <1>   0.0800 
@<TRIPOS>BOND
  1   1   2  1   
  2   1   3  1   
  3   2   4  1   
  4   2   5  1   
  5   2  17  1   
  6   3   6  1   
  7   3  18  1   
  8   3  19  1   
  9   4  20  1   
 10   4  21  1   
 11   4  22  1   
 12   5  23  1   
 13   5  24  1   
 14   5  25  1   
 15   6   7  1   
 16   6   8  1   
 17   6  26  1   
 18   7  27  1   
 19   8   9  1   
 20   8  28  1   
 21   8  29  1   
 22   9  10  1   
 23   9  11  1   
 24  10  12  1   
 25  10  30  1   
 26  10  31  1   
 27  11  13  1   
 28  11  32  1   
 29  11  33  1   
 30  12  14  1   
 31  12  34  1   
 32  12  35  1   
 33  13  14  1   
 34  13  36  1   
 35  13  37  1   
 36  14  15  1   
 37  14  38  1   
 38  15  16  1   
 39  15  39  1   
 40  15  40  1   
 41  16  41  1   
 42  16  42  1   
 43  16  43  1   
@<TRIPOS>SUBSTRUCTURE
  1 ****   8 GROUP 4 **** **** 0

# MOE 2024.06 (io_trps.svl 2023.06)
