@<TRIPOS>MOLECULE
NONAME
56 57 1 0 0 
SMALL
USER_CHARGES


@<TRIPOS>ATOM
  1 O       -4.2750    -0.4100    -0.6200 O.2   1 <1>  -0.5700 
  2 C       -3.5710    -0.4520     0.3550 C.2   1 <1>   0.6590 
  3 O       -2.9880     0.6200     0.8720 O.3   1 <1>  -0.4300 
  4 C       -3.2790    -1.7610     1.0480 C.3   1 <1>  -0.0990 
  5 C       -3.1320     1.9040     0.3100 C.3   1 <1>   0.2000 
  6 C       -1.9430    -2.3540     0.5720 C.3   1 <1>  -0.0990 
  7 C       -2.1170     2.0670    -0.8250 C.3   1 <1>  -0.1600 
  8 C       -2.8820     2.9290     1.4170 C.3   1 <1>  -0.1600 
  9 C       -1.7220    -3.7350     1.1530 C.2   1 <1>   0.5690 
 10 C       -2.1320     3.4980    -1.3820 C.3   1 <1>  -0.1600 
 11 C       -2.9000     4.3610     0.8630 C.3   1 <1>  -0.1600 
 12 O       -1.1510    -3.8320     2.2080 O.2   1 <1>  -0.5700 
 13 N       -2.1640    -4.8420     0.5190 N.am  1 <1>  -0.7300 
 14 C       -1.8750     4.5580    -0.2810 C.3   1 <1>  -0.0800 
 15 C       -2.9520    -4.9630    -0.7200 C.3   1 <1>   0.2840 
 16 C       -1.8020     6.0280    -0.8210 C.3   1 <1>   0.0000 
 17 C       -3.8320    -6.1930    -0.6040 C.ar  1 <1>  -0.1440 
 18 C       -1.4460     7.0060     0.3140 C.3   1 <1>  -0.2400 
 19 C       -3.1230     6.5000    -1.4550 C.3   1 <1>  -0.2400 
 20 C       -0.6940     6.1610    -1.8830 C.3   1 <1>  -0.2400 
 21 C       -5.0120    -6.1380     0.1220 C.ar  1 <1>  -0.1500 
 22 C       -3.4640    -7.3820    -1.2160 C.ar  1 <1>  -0.1500 
 23 C       -5.8190    -7.2580     0.2310 C.ar  1 <1>  -0.1500 
 24 C       -4.2700    -8.5020    -1.1080 C.ar  1 <1>  -0.1500 
 25 C       -5.4480    -8.4400    -0.3850 C.ar  1 <1>  -0.1500 
 26 H       -4.0810    -2.4440     0.8360 H     1 <1>   0.0800 
 27 H       -3.2490    -1.6000     2.1110 H     1 <1>   0.0800 
 28 H       -4.1370     2.0120    -0.0640 H     1 <1>   0.0800 
 29 H       -1.1370    -1.7160     0.8880 H     1 <1>   0.0800 
 30 H       -1.9170    -2.4020    -0.5010 H     1 <1>   0.0800 
 31 H       -2.3530     1.3800    -1.6180 H     1 <1>   0.0800 
 32 H       -1.1310     1.8430    -0.4570 H     1 <1>   0.0800 
 33 H       -1.9230     2.7390     1.8680 H     1 <1>   0.0800 
 34 H       -3.6410     2.8290     2.1720 H     1 <1>   0.0800 
 35 H       -3.0870     3.6750    -1.8440 H     1 <1>   0.0800 
 36 H       -1.3800     3.5570    -2.1460 H     1 <1>   0.0800 
 37 H       -2.6870     5.0270     1.6790 H     1 <1>   0.0800 
 38 H       -3.8920     4.5800     0.5080 H     1 <1>   0.0800 
 39 H       -2.0070    -5.7300     1.0030 H     1 <1>   0.3700 
 40 H       -0.9060     4.3380     0.1350 H     1 <1>   0.0800 
 41 H       -2.2850    -5.0600    -1.5600 H     1 <1>   0.0800 
 42 H       -3.5640    -4.0900    -0.8670 H     1 <1>   0.0800 
 43 H       -2.2460     7.0890     1.0260 H     1 <1>   0.0800 
 44 H       -1.2640     7.9920    -0.0760 H     1 <1>   0.0800 
 45 H       -0.5590     6.6800     0.8290 H     1 <1>   0.0800 
 46 H       -3.3950     5.8830    -2.2910 H     1 <1>   0.0800 
 47 H       -3.0260     7.5100    -1.8100 H     1 <1>   0.0800 
 48 H       -3.9250     6.4800    -0.7400 H     1 <1>   0.0800 
 49 H       -0.5520     7.1910    -2.1570 H     1 <1>   0.0800 
 50 H        0.2390     5.7830    -1.5050 H     1 <1>   0.0800 
 51 H       -0.9450     5.6260    -2.7800 H     1 <1>   0.0800 
 52 H       -5.3070    -5.2250     0.6080 H     1 <1>   0.1500 
 53 H       -2.5490    -7.4430    -1.7800 H     1 <1>   0.1500 
 54 H       -6.7340    -7.2090     0.7950 H     1 <1>   0.1500 
 55 H       -3.9810    -9.4220    -1.5860 H     1 <1>   0.1500 
 56 H       -6.0750    -9.3110    -0.3010 H     1 <1>   0.1500 
@<TRIPOS>BOND
  1   1   2  2   
  2   2   3  1   
  3   2   4  1   
  4   3   5  1   
  5   4   6  1   
  6   4  26  1   
  7   4  27  1   
  8   5   7  1   
  9   5   8  1   
 10   5  28  1   
 11   6   9  1   
 12   6  29  1   
 13   6  30  1   
 14   7  10  1   
 15   7  31  1   
 16   7  32  1   
 17   8  11  1   
 18   8  33  1   
 19   8  34  1   
 20   9  12  2   
 21   9  13  am  
 22  10  14  1   
 23  10  35  1   
 24  10  36  1   
 25  11  14  1   
 26  11  37  1   
 27  11  38  1   
 28  13  15  1   
 29  13  39  1   
 30  14  16  1   
 31  14  40  1   
 32  15  17  1   
 33  15  41  1   
 34  15  42  1   
 35  16  18  1   
 36  16  19  1   
 37  16  20  1   
 38  17  21  ar  
 39  17  22  ar  
 40  18  43  1   
 41  18  44  1   
 42  18  45  1   
 43  19  46  1   
 44  19  47  1   
 45  19  48  1   
 46  20  49  1   
 47  20  50  1   
 48  20  51  1   
 49  21  23  ar  
 50  21  52  1   
 51  22  24  ar  
 52  22  53  1   
 53  23  25  ar  
 54  23  54  1   
 55  24  25  ar  
 56  24  55  1   
 57  25  56  1   
@<TRIPOS>SUBSTRUCTURE
  1 ****   2 GROUP 4 **** **** 0

# MOE 2024.06 (io_trps.svl 2023.06)
