@<TRIPOS>MOLECULE
NONAME
49 50 1 0 0 
SMALL
USER_CHARGES


@<TRIPOS>ATOM
  1 S        0.3050    -0.0820    -1.3210 S.o2  1 <1>   1.3330 
  2 O        0.5910    -0.9860    -0.2380 O.2   1 <1>  -0.6500 
  3 O        1.2610     0.0650    -2.3950 O.2   1 <1>  -0.6500 
  4 N        0.0690     1.4980    -0.6590 N.am  1 <1>  -0.6930 
  5 C       -1.2920    -0.4460    -2.0150 C.3   1 <1>  -0.1350 
  6 C       -0.6560     1.6370     0.5210 C.ar  1 <1>   0.1990 
  7 C        1.1150     2.5180    -1.0020 C.3   1 <1>   0.3370 
  8 C       -0.0880     1.3500     1.7570 C.ar  1 <1>  -0.1500 
  9 C       -1.9750     2.0720     0.4770 C.ar  1 <1>  -0.1500 
 10 C        2.4790     2.2610    -0.3110 C.2   1 <1>   0.5690 
 11 C        0.5690     3.9360    -0.7620 C.3   1 <1>  -0.2400 
 12 C       -0.8200     1.4930     2.9210 C.ar  1 <1>  -0.1500 
 13 C       -2.7120     2.2150     1.6390 C.ar  1 <1>  -0.1500 
 14 O        2.7890     2.9160     0.6590 O.2   1 <1>  -0.5700 
 15 N        3.2940     1.2930    -0.8400 N.am  1 <1>  -0.5470 
 16 C       -2.1340     1.9250     2.8640 C.ar  1 <1>  -0.1500 
 17 C        4.5720     0.8550    -0.4680 C.ar  1 <1>   0.1170 
 18 C        4.9570    -0.4350    -0.8080 C.ar  1 <1>  -0.1500 
 19 C        5.4840     1.6550     0.2100 C.ar  1 <1>  -0.1500 
 20 C        6.2140    -0.9130    -0.4830 C.ar  1 <1>  -0.1500 
 21 C        6.7410     1.1780     0.5370 C.ar  1 <1>  -0.1500 
 22 C        7.1220    -0.1110     0.1940 C.ar  1 <1>  -0.1430 
 23 C        8.5060    -0.6520     0.5470 C.3   1 <1>   0.0630 
 24 C        8.7120    -0.6790     2.0650 C.3   1 <1>  -0.2400 
 25 C        9.6050     0.1690    -0.1350 C.3   1 <1>  -0.2400 
 26 H       -1.2740    -1.4060    -2.4930 H     1 <1>   0.0800 
 27 H       -1.5600     0.2960    -2.7410 H     1 <1>   0.0800 
 28 H       -2.0350    -0.4620    -1.2420 H     1 <1>   0.0800 
 29 H        1.2970     2.4570    -2.0600 H     1 <1>   0.0800 
 30 H        0.9330     1.0110     1.8040 H     1 <1>   0.1500 
 31 H       -2.4210     2.3030    -0.4720 H     1 <1>   0.1500 
 32 H        0.4080     4.1100     0.2880 H     1 <1>   0.0800 
 33 H       -0.3520     4.0790    -1.2960 H     1 <1>   0.0800 
 34 H        1.2830     4.6590    -1.1100 H     1 <1>   0.0800 
 35 H       -0.3660     1.2670     3.8700 H     1 <1>   0.1500 
 36 H       -3.7330     2.5540     1.5950 H     1 <1>   0.1500 
 37 H        2.8550     0.7230    -1.5750 H     1 <1>   0.3700 
 38 H       -2.7040     2.0360     3.7700 H     1 <1>   0.1500 
 39 H        4.2660    -1.0730    -1.3290 H     1 <1>   0.1500 
 40 H        5.2170     2.6580     0.4850 H     1 <1>   0.1500 
 41 H        6.4810    -1.9180    -0.7600 H     1 <1>   0.1500 
 42 H        7.4220     1.8220     1.0640 H     1 <1>   0.1500 
 43 H        8.5830    -1.6650     0.1890 H     1 <1>   0.0800 
 44 H        8.6890     0.3150     2.4730 H     1 <1>   0.0800 
 45 H        9.6580    -1.1290     2.3060 H     1 <1>   0.0800 
 46 H        7.9300    -1.2550     2.5280 H     1 <1>   0.0800 
 47 H        9.6040     1.1820     0.2230 H     1 <1>   0.0800 
 48 H        9.4420     0.1820    -1.1980 H     1 <1>   0.0800 
 49 H       10.5690    -0.2650     0.0580 H     1 <1>   0.0800 
@<TRIPOS>BOND
  1   1   2  2   
  2   1   3  2   
  3   1   4  am  
  4   1   5  1   
  5   4   6  1   
  6   4   7  1   
  7   5  26  1   
  8   5  27  1   
  9   5  28  1   
 10   6   8  ar  
 11   6   9  ar  
 12   7  10  1   
 13   7  11  1   
 14   7  29  1   
 15   8  12  ar  
 16   8  30  1   
 17   9  13  ar  
 18   9  31  1   
 19  10  14  2   
 20  10  15  am  
 21  11  32  1   
 22  11  33  1   
 23  11  34  1   
 24  12  16  ar  
 25  12  35  1   
 26  13  16  ar  
 27  13  36  1   
 28  15  17  1   
 29  15  37  1   
 30  16  38  1   
 31  17  18  ar  
 32  17  19  ar  
 33  18  20  ar  
 34  18  39  1   
 35  19  21  ar  
 36  19  40  1   
 37  20  22  ar  
 38  20  41  1   
 39  21  22  ar  
 40  21  42  1   
 41  22  23  1   
 42  23  24  1   
 43  23  25  1   
 44  23  43  1   
 45  24  44  1   
 46  24  45  1   
 47  24  46  1   
 48  25  47  1   
 49  25  48  1   
 50  25  49  1   
@<TRIPOS>SUBSTRUCTURE
  1 ****  15 GROUP 4 **** **** 0

# MOE 2024.06 (io_trps.svl 2023.06)
