@<TRIPOS>MOLECULE
NONAME
41 42 1 0 0 
SMALL
USER_CHARGES


@<TRIPOS>ATOM
  1 O       -9.3330    -0.7970     0.3070 O.3   1 <1>  -0.3630 
  2 C      -10.6770    -0.9040     0.1250 C.ar  1 <1>   0.0830 
  3 C       -8.5640     0.1370    -0.4040 C.3   1 <1>   0.1200 
  4 C      -11.3550    -1.8620     0.8720 C.ar  1 <1>  -0.1440 
  5 C      -11.3860    -0.1020    -0.7670 C.ar  1 <1>  -0.1500 
  6 C       -7.1170    -0.0270     0.0570 C.3   1 <1>  -0.1600 
  7 C      -12.7250    -2.0070     0.7190 C.ar  1 <1>  -0.1500 
  8 C      -10.6100    -2.7530     1.8550 C.3   1 <1>  -0.0960 
  9 C      -12.7520    -0.2570    -0.9090 C.ar  1 <1>  -0.1500 
 10 C       -6.2050     0.9630    -0.6610 C.3   1 <1>   0.3430 
 11 C      -13.4290    -1.2110    -0.1690 C.ar  1 <1>  -0.1440 
 12 N       -4.7890     0.7410    -0.2590 N.4   1 <1>  -0.9590 
 13 C      -14.9300    -1.3810    -0.3220 C.3   1 <1>  -0.0970 
 14 C       -4.4910     1.0950     1.1530 C.3   1 <1>   0.3430 
 15 C       -3.8270     1.5140    -1.0800 C.3   1 <1>   0.3430 
 16 C       -2.9780     1.2630     1.1900 C.3   1 <1>  -0.1600 
 17 C       -2.5470     1.5190    -0.2570 C.3   1 <1>  -0.1600 
 18 H       -8.9390     1.1210    -0.1770 H     1 <1>   0.0800 
 19 H       -8.6680    -0.0740    -1.4550 H     1 <1>   0.0800 
 20 H      -10.9010     0.6480    -1.3600 H     1 <1>   0.1500 
 21 H       -6.8040    -1.0330    -0.1610 H     1 <1>   0.0800 
 22 H       -7.0840     0.1380     1.1190 H     1 <1>   0.0800 
 23 H      -13.2520    -2.7460     1.2960 H     1 <1>   0.1500 
 24 H       -9.8580    -3.3190     1.3350 H     1 <1>   0.0800 
 25 H      -11.2780    -3.4390     2.3420 H     1 <1>   0.0800 
 26 H      -10.1330    -2.1480     2.6040 H     1 <1>   0.0800 
 27 H      -13.2890     0.3690    -1.6000 H     1 <1>   0.1500 
 28 H       -6.5020     1.9730    -0.4250 H     1 <1>   0.0800 
 29 H       -6.3030     0.8220    -1.7260 H     1 <1>   0.0800 
 30 H       -4.5620    -0.2560    -0.3790 H     1 <1>   0.4500 
 31 H      -15.2020    -2.4140    -0.2030 H     1 <1>   0.0800 
 32 H      -15.2490    -1.0570    -1.2960 H     1 <1>   0.0800 
 33 H      -15.4390    -0.7980     0.4230 H     1 <1>   0.0800 
 34 H       -4.8250     0.3320     1.8370 H     1 <1>   0.0800 
 35 H       -4.9630     2.0320     1.4020 H     1 <1>   0.0800 
 36 H       -4.1790     2.5260    -1.2010 H     1 <1>   0.0800 
 37 H       -3.6760     1.0680    -2.0510 H     1 <1>   0.0800 
 38 H       -2.5190     0.3640     1.5660 H     1 <1>   0.0800 
 39 H       -2.7080     2.0780     1.8390 H     1 <1>   0.0800 
 40 H       -2.0360     2.4610    -0.3610 H     1 <1>   0.0800 
 41 H       -1.8910     0.7370    -0.5970 H     1 <1>   0.0800 
@<TRIPOS>BOND
  1   1   2  1   
  2   1   3  1   
  3   2   4  ar  
  4   2   5  ar  
  5   3   6  1   
  6   3  18  1   
  7   3  19  1   
  8   4   7  ar  
  9   4   8  1   
 10   5   9  ar  
 11   5  20  1   
 12   6  10  1   
 13   6  21  1   
 14   6  22  1   
 15   7  11  ar  
 16   7  23  1   
 17   8  24  1   
 18   8  25  1   
 19   8  26  1   
 20   9  11  ar  
 21   9  27  1   
 22  10  12  1   
 23  10  28  1   
 24  10  29  1   
 25  11  13  1   
 26  12  14  1   
 27  12  15  1   
 28  12  30  1   
 29  13  31  1   
 30  13  32  1   
 31  13  33  1   
 32  14  16  1   
 33  14  34  1   
 34  14  35  1   
 35  15  17  1   
 36  15  36  1   
 37  15  37  1   
 38  16  17  1   
 39  16  38  1   
 40  16  39  1   
 41  17  40  1   
 42  17  41  1   
@<TRIPOS>SUBSTRUCTURE
  1 ****   3 GROUP 4 **** **** 0

# MOE 2024.06 (io_trps.svl 2023.06)
