@<TRIPOS>MOLECULE
NONAME
49 52 1 0 0 
SMALL
USER_CHARGES


@<TRIPOS>ATOM
  1 O       -0.6130    -0.1640     0.4820 O.2   1 <1>  -0.5700 
  2 C       -0.7740    -1.3370     0.2350 C.2   1 <1>   0.4950 
  3 C       -2.0630    -1.9430     0.0880 C.2   1 <1>   0.0290 
  4 C        0.5050    -2.1470     0.1030 C.3   1 <1>  -0.0990 
  5 C       -2.1270    -3.3540    -0.1790 C.2   1 <1>   0.4950 
  6 C       -3.1900    -1.1550     0.2050 C.2   1 <1>  -0.0500 
  7 C        0.3480    -3.3780    -0.7990 C.3   1 <1>   0.0000 
  8 O       -3.1520    -3.9870    -0.3120 O.2   1 <1>  -0.5700 
  9 C       -0.8580    -4.1830    -0.3000 C.3   1 <1>  -0.0990 
 10 N       -4.4760    -1.5710     0.0920 N.pl3 1 <1>  -0.8690 
 11 C        1.6150    -4.2420    -0.7160 C.3   1 <1>  -0.2400 
 12 C        0.1470    -2.9530    -2.2660 C.3   1 <1>  -0.2400 
 13 C       -5.7070    -0.7750     0.2050 C.3   1 <1>   0.3690 
 14 C       -6.9080    -1.7120    -0.0020 C.3   1 <1>  -0.1600 
 15 C       -5.7970    -0.1350     1.6010 C.3   1 <1>  -0.1600 
 16 C       -5.7280     0.3230    -0.8710 C.3   1 <1>  -0.1600 
 17 C       -8.2240    -0.9160     0.1090 C.3   1 <1>  -0.0800 
 18 C       -7.1040     0.6750     1.7220 C.3   1 <1>  -0.0800 
 19 C       -7.0340     1.1360    -0.7640 C.3   1 <1>  -0.0800 
 20 C       -8.3040    -0.2670     1.5050 C.3   1 <1>  -0.1600 
 21 C       -8.2350     0.1910    -0.9640 C.3   1 <1>  -0.1600 
 22 C       -7.1200     1.7710     0.6380 C.3   1 <1>  -0.1600 
 23 H        1.2810    -1.5110    -0.2850 H     1 <1>   0.0800 
 24 H        0.8020    -2.4480     1.0920 H     1 <1>   0.0800 
 25 H       -3.0550    -0.1030     0.4050 H     1 <1>   0.1500 
 26 H       -0.6500    -4.6000     0.6690 H     1 <1>   0.0800 
 27 H       -1.0440    -5.0050    -0.9690 H     1 <1>   0.0800 
 28 H       -4.6520    -2.5720    -0.0990 H     1 <1>   0.4000 
 29 H        2.4750    -3.6880    -1.0510 H     1 <1>   0.0800 
 30 H        1.5180    -5.1170    -1.3350 H     1 <1>   0.0800 
 31 H        1.7960    -4.5650     0.2950 H     1 <1>   0.0800 
 32 H       -0.7290    -2.3410    -2.3930 H     1 <1>   0.0800 
 33 H        0.0400    -3.8180    -2.8970 H     1 <1>   0.0800 
 34 H        0.9960    -2.3910    -2.6150 H     1 <1>   0.0800 
 35 H       -6.8460    -2.1700    -0.9720 H     1 <1>   0.0800 
 36 H       -6.8940    -2.4880     0.7420 H     1 <1>   0.0800 
 37 H       -5.7730    -0.9040     2.3520 H     1 <1>   0.0800 
 38 H       -4.9570     0.5160     1.7590 H     1 <1>   0.0800 
 39 H       -5.6560    -0.1260    -1.8450 H     1 <1>   0.0800 
 40 H       -4.8880     0.9800    -0.7400 H     1 <1>   0.0800 
 41 H       -9.0620    -1.5750    -0.0360 H     1 <1>   0.0800 
 42 H       -7.1640     1.1250     2.6980 H     1 <1>   0.0800 
 43 H       -7.0460     1.9060    -1.5160 H     1 <1>   0.0800 
 44 H       -9.2220     0.2870     1.5960 H     1 <1>   0.0800 
 45 H       -8.3080    -1.0320     2.2620 H     1 <1>   0.0800 
 46 H       -9.1530     0.7500    -0.9000 H     1 <1>   0.0800 
 47 H       -8.1910    -0.2520    -1.9440 H     1 <1>   0.0800 
 48 H       -6.2900     2.4410     0.7850 H     1 <1>   0.0800 
 49 H       -8.0240     2.3500     0.7200 H     1 <1>   0.0800 
@<TRIPOS>BOND
  1   1   2  2   
  2   2   3  1   
  3   2   4  1   
  4   3   5  1   
  5   3   6  2   
  6   4   7  1   
  7   4  23  1   
  8   4  24  1   
  9   5   8  2   
 10   5   9  1   
 11   6  10  1   
 12   6  25  1   
 13   7   9  1   
 14   7  11  1   
 15   7  12  1   
 16   9  26  1   
 17   9  27  1   
 18  10  13  1   
 19  10  28  1   
 20  11  29  1   
 21  11  30  1   
 22  11  31  1   
 23  12  32  1   
 24  12  33  1   
 25  12  34  1   
 26  13  14  1   
 27  13  15  1   
 28  13  16  1   
 29  14  17  1   
 30  14  35  1   
 31  14  36  1   
 32  15  18  1   
 33  15  37  1   
 34  15  38  1   
 35  16  19  1   
 36  16  39  1   
 37  16  40  1   
 38  17  20  1   
 39  17  21  1   
 40  17  41  1   
 41  18  20  1   
 42  18  22  1   
 43  18  42  1   
 44  19  21  1   
 45  19  22  1   
 46  19  43  1   
 47  20  44  1   
 48  20  45  1   
 49  21  46  1   
 50  21  47  1   
 51  22  48  1   
 52  22  49  1   
@<TRIPOS>SUBSTRUCTURE
  1 ****  10 GROUP 4 **** **** 0

# MOE 2024.06 (io_trps.svl 2023.06)
