@<TRIPOS>MOLECULE
NONAME
49 52 1 0 0 
SMALL
USER_CHARGES


@<TRIPOS>ATOM
  1 S       -0.1120     0.6670    -2.6840 S.o2  1 <1>   1.4970 
  2 O       -0.1990    -0.4830    -3.5740 O.2   1 <1>  -0.6500 
  3 O       -0.3460     1.9590    -3.3160 O.2   1 <1>  -0.6500 
  4 N        1.3990     0.5750    -1.9790 N.2   1 <1>  -0.6380 
  5 C       -1.3640     0.3430    -1.3930 C.ar  1 <1>  -0.0090 
  6 C        1.6080     1.2850    -0.9270 C.2   1 <1>   0.2500 
  7 C       -2.1120     1.3680    -0.8240 C.ar  1 <1>  -0.1500 
  8 C       -1.6020    -0.9490    -0.9340 C.ar  1 <1>  -0.1500 
  9 O        0.7350     2.0210    -0.4320 O.3   1 <1>  -0.8610 
 10 C        2.9690     1.2580    -0.1990 C.3   1 <1>   0.0610 
 11 C       -3.0670     1.1180     0.1450 C.ar  1 <1>  -0.1500 
 12 C       -2.5540    -1.2090     0.0360 C.ar  1 <1>  -0.1500 
 13 C        2.7770     0.7560     1.2510 C.3   1 <1>  -0.1600 
 14 C        3.5680     2.6830    -0.1470 C.3   1 <1>  -0.1600 
 15 C        4.0020     0.3310    -0.8930 C.3   1 <1>  -0.1600 
 16 C       -3.3060    -0.1760     0.5820 C.ar  1 <1>   0.1170 
 17 C        4.1120     0.7550     2.0210 C.3   1 <1>  -0.0800 
 18 C        4.9090     2.6950     0.6150 C.3   1 <1>  -0.0800 
 19 C        5.3440     0.3270    -0.1380 C.3   1 <1>  -0.0800 
 20 N       -4.2670    -0.4080     1.5680 N.am  1 <1>  -0.5470 
 21 C        4.6760     2.1890     2.0510 C.3   1 <1>  -0.1600 
 22 C        5.1110    -0.1690     1.3010 C.3   1 <1>  -0.1600 
 23 C        5.9040     1.7610    -0.0990 C.3   1 <1>  -0.1600 
 24 C       -5.3080    -1.2790     1.6040 C.2   1 <1>   0.5690 
 25 O       -6.0060    -1.3430     2.5820 O.2   1 <1>  -0.5700 
 26 C       -5.6250    -2.1640     0.4220 C.3   1 <1>  -0.1790 
 27 H       -1.9110     2.3780    -1.1410 H     1 <1>   0.1500 
 28 H       -1.0210    -1.7560    -1.3470 H     1 <1>   0.1500 
 29 H       -3.6200     1.9380     0.5650 H     1 <1>   0.1500 
 30 H       -2.7010    -2.2160     0.3780 H     1 <1>   0.1500 
 31 H        2.3580    -0.2340     1.2280 H     1 <1>   0.0800 
 32 H        2.0670     1.3930     1.7500 H     1 <1>   0.0800 
 33 H        2.8670     3.3400     0.3370 H     1 <1>   0.0800 
 34 H        3.7040     3.0440    -1.1500 H     1 <1>   0.0800 
 35 H        3.6080    -0.6680    -0.9390 H     1 <1>   0.0800 
 36 H        4.1540     0.6650    -1.9040 H     1 <1>   0.0800 
 37 H        3.9480     0.4070     3.0250 H     1 <1>   0.0800 
 38 H        5.2990     3.6970     0.6390 H     1 <1>   0.0800 
 39 H        6.0390    -0.3220    -0.6410 H     1 <1>   0.0800 
 40 H       -4.2270     0.1990     2.3870 H     1 <1>   0.3700 
 41 H        3.9800     2.8390     2.5530 H     1 <1>   0.0800 
 42 H        5.6000     2.2070     2.5990 H     1 <1>   0.0800 
 43 H        4.7230    -1.1730     1.2790 H     1 <1>   0.0800 
 44 H        6.0430    -0.1870     1.8370 H     1 <1>   0.0800 
 45 H        6.8480     1.7720     0.4170 H     1 <1>   0.0800 
 46 H        6.0720     2.1120    -1.1020 H     1 <1>   0.0800 
 47 H       -5.0040    -3.0390     0.4500 H     1 <1>   0.0800 
 48 H       -5.4600    -1.6330    -0.4970 H     1 <1>   0.0800 
 49 H       -6.6540    -2.4670     0.4660 H     1 <1>   0.0800 
@<TRIPOS>BOND
  1   1   2  2   
  2   1   3  2   
  3   1   4  1   
  4   1   5  1   
  5   4   6  2   
  6   5   7  ar  
  7   5   8  ar  
  8   6   9  1   
  9   6  10  1   
 10   7  11  ar  
 11   7  27  1   
 12   8  12  ar  
 13   8  28  1   
 14  10  13  1   
 15  10  14  1   
 16  10  15  1   
 17  11  16  ar  
 18  11  29  1   
 19  12  16  ar  
 20  12  30  1   
 21  13  17  1   
 22  13  31  1   
 23  13  32  1   
 24  14  18  1   
 25  14  33  1   
 26  14  34  1   
 27  15  19  1   
 28  15  35  1   
 29  15  36  1   
 30  16  20  1   
 31  17  21  1   
 32  17  22  1   
 33  17  37  1   
 34  18  21  1   
 35  18  23  1   
 36  18  38  1   
 37  19  22  1   
 38  19  23  1   
 39  19  39  1   
 40  20  24  am  
 41  20  40  1   
 42  21  41  1   
 43  21  42  1   
 44  22  43  1   
 45  22  44  1   
 46  23  45  1   
 47  23  46  1   
 48  24  25  2   
 49  24  26  1   
 50  26  47  1   
 51  26  48  1   
 52  26  49  1   
@<TRIPOS>SUBSTRUCTURE
  1 ****   9 GROUP 4 **** **** 0

# MOE 2024.06 (io_trps.svl 2023.06)
