@<TRIPOS>MOLECULE
NONAME
52 55 1 0 0 
SMALL
USER_CHARGES


@<TRIPOS>ATOM
  1 O       -1.0730    -7.2230     2.3900 O.3   1 <1>  -0.3630 
  2 C       -0.7860    -7.0940     1.0910 C.ar  1 <1>   0.0830 
  3 C       -1.7450    -8.4720     2.5370 C.3   1 <1>   0.4000 
  4 C       -1.2230    -8.1870     0.4020 C.ar  1 <1>   0.0830 
  5 C       -0.1440    -6.0510     0.4560 C.ar  1 <1>  -0.1500 
  6 O       -1.8080    -9.0530     1.2350 O.3   1 <1>  -0.3630 
  7 C       -1.0410    -8.2970    -0.9620 C.ar  1 <1>  -0.1500 
  8 C        0.0580    -6.1380    -0.9190 C.ar  1 <1>  -0.1440 
  9 C       -0.3940    -7.2580    -1.6190 C.ar  1 <1>  -0.1500 
 10 C        0.7790    -5.0120    -1.6470 C.3   1 <1>   0.2540 
 11 N        2.1060    -4.7680    -1.0440 N.3   1 <1>  -0.8100 
 12 C        2.7610    -3.5790    -1.6160 C.3   1 <1>   0.1100 
 13 C        2.9820    -5.9590    -1.1000 C.3   1 <1>   0.1100 
 14 C        4.1030    -3.2910    -0.9120 C.3   1 <1>   0.3430 
 15 C        4.3220    -5.6960    -0.3890 C.3   1 <1>   0.3430 
 16 N        5.0230    -4.4820    -0.9480 N.4   1 <1>  -0.9590 
 17 C        6.3390    -4.1800    -0.3170 C.3   1 <1>   0.4230 
 18 C        7.3610    -5.2580    -0.6980 C.3   1 <1>  -0.1600 
 19 C        6.2490    -4.0270     1.2110 C.3   1 <1>  -0.1600 
 20 C        8.7420    -4.9270    -0.1110 C.3   1 <1>  -0.1600 
 21 C        7.6270    -3.6910     1.8010 C.3   1 <1>  -0.1600 
 22 C        8.6760    -4.7460     1.4140 C.3   1 <1>  -0.0800 
 23 C       10.0520    -4.3550     1.9630 C.3   1 <1>  -0.2400 
 24 H       -2.7410    -8.3050     2.9050 H     1 <1>   0.0800 
 25 H       -1.1800    -9.1120     3.1910 H     1 <1>   0.0800 
 26 H        0.1910    -5.2000     1.0210 H     1 <1>   0.1500 
 27 H       -1.3960    -9.1660    -1.4860 H     1 <1>   0.1500 
 28 H       -0.2460    -7.3290    -2.6820 H     1 <1>   0.1500 
 29 H        0.1800    -4.1210    -1.5690 H     1 <1>   0.0800 
 30 H        0.8880    -5.2540    -2.6900 H     1 <1>   0.0800 
 31 H        2.1160    -2.7250    -1.4900 H     1 <1>   0.0800 
 32 H        2.9250    -3.7180    -2.6720 H     1 <1>   0.0800 
 33 H        3.1570    -6.2430    -2.1230 H     1 <1>   0.0800 
 34 H        2.5020    -6.7870    -0.6050 H     1 <1>   0.0800 
 35 H        3.8920    -3.0270     0.1110 H     1 <1>   0.0800 
 36 H        4.5760    -2.4460    -1.3830 H     1 <1>   0.0800 
 37 H        4.9490    -6.5660    -0.4870 H     1 <1>   0.0800 
 38 H        4.1180    -5.5490     0.6590 H     1 <1>   0.0800 
 39 H        5.2050    -4.6820    -1.9370 H     1 <1>   0.4500 
 40 H        6.7000    -3.2450    -0.7160 H     1 <1>   0.0800 
 41 H        7.4490    -5.3190    -1.7680 H     1 <1>   0.0800 
 42 H        7.0570    -6.2170    -0.3200 H     1 <1>   0.0800 
 43 H        5.9070    -4.9390     1.6650 H     1 <1>   0.0800 
 44 H        5.5670    -3.2370     1.4710 H     1 <1>   0.0800 
 45 H        9.1200    -4.0250    -0.5640 H     1 <1>   0.0800 
 46 H        9.4310    -5.7220    -0.3480 H     1 <1>   0.0800 
 47 H        7.5520    -3.6370     2.8740 H     1 <1>   0.0800 
 48 H        7.9430    -2.7230     1.4490 H     1 <1>   0.0800 
 49 H        8.3970    -5.6880     1.8600 H     1 <1>   0.0800 
 50 H       10.3790    -3.4170     1.5490 H     1 <1>   0.0800 
 51 H       10.7800    -5.1080     1.7210 H     1 <1>   0.0800 
 52 H       10.0140    -4.2590     3.0350 H     1 <1>   0.0800 
@<TRIPOS>BOND
  1   1   2  1   
  2   1   3  1   
  3   2   4  ar  
  4   2   5  ar  
  5   3   6  1   
  6   3  24  1   
  7   3  25  1   
  8   4   6  1   
  9   4   7  ar  
 10   5   8  ar  
 11   5  26  1   
 12   7   9  ar  
 13   7  27  1   
 14   8   9  ar  
 15   8  10  1   
 16   9  28  1   
 17  10  11  1   
 18  10  29  1   
 19  10  30  1   
 20  11  12  1   
 21  11  13  1   
 22  12  14  1   
 23  12  31  1   
 24  12  32  1   
 25  13  15  1   
 26  13  33  1   
 27  13  34  1   
 28  14  16  1   
 29  14  35  1   
 30  14  36  1   
 31  15  16  1   
 32  15  37  1   
 33  15  38  1   
 34  16  17  1   
 35  16  39  1   
 36  17  18  1   
 37  17  19  1   
 38  17  40  1   
 39  18  20  1   
 40  18  41  1   
 41  18  42  1   
 42  19  21  1   
 43  19  43  1   
 44  19  44  1   
 45  20  22  1   
 46  20  45  1   
 47  20  46  1   
 48  21  22  1   
 49  21  47  1   
 50  21  48  1   
 51  22  23  1   
 52  22  49  1   
 53  23  50  1   
 54  23  51  1   
 55  23  52  1   
@<TRIPOS>SUBSTRUCTURE
  1 ****  13 GROUP 4 **** **** 0

# MOE 2024.06 (io_trps.svl 2023.06)
