@<TRIPOS>MOLECULE
NONAME
34 35 1 0 0 
SMALL
USER_CHARGES


@<TRIPOS>ATOM
  1 CL      -0.4220     0.3080     1.1520 Cl    1 <1>  -0.1770 
  2 C       -2.0970     0.1970     0.6800 C.ar  1 <1>   0.1770 
  3 C       -2.8070    -0.9560     0.9550 C.ar  1 <1>  -0.1500 
  4 C       -2.6960     1.2630     0.0380 C.ar  1 <1>  -0.1500 
  5 C       -4.1360    -1.0380     0.5780 C.ar  1 <1>  -0.1500 
  6 C       -4.0260     1.1680    -0.3340 C.ar  1 <1>  -0.1500 
  7 C       -4.7800     0.0180    -0.0750 C.ar  1 <1>   0.0540 
  8 C       -6.1770    -0.0680    -0.4710 C.2   1 <1>   0.4620 
  9 N       -6.8560     0.8660    -1.0360 N.2   1 <1>  -0.4100 
 10 N       -6.9130    -1.1680    -0.2820 N.2   1 <1>  -0.5650 
 11 O       -8.0600     0.4250    -1.2260 O.3   1 <1>  -0.0190 
 12 C       -8.0320    -0.7930    -0.7520 C.2   1 <1>   0.2980 
 13 C       -9.3070    -1.6270    -0.8290 C.3   1 <1>   0.2900 
 14 N      -10.4380    -0.9900    -0.1330 N.3   1 <1>  -0.9000 
 15 C      -11.6890    -1.7190    -0.3170 C.3   1 <1>   0.1100 
 16 C      -12.8430    -0.9670     0.3630 C.3   1 <1>  -0.0800 
 17 C      -14.1350    -1.7890     0.2610 C.3   1 <1>  -0.2400 
 18 C      -13.0710     0.4250    -0.2470 C.3   1 <1>  -0.2400 
 19 H       -2.3230    -1.7740     1.4560 H     1 <1>   0.1500 
 20 H       -2.1270     2.1510    -0.1660 H     1 <1>   0.1500 
 21 H       -4.6860    -1.9380     0.7950 H     1 <1>   0.1500 
 22 H       -4.4900     2.0010    -0.8340 H     1 <1>   0.1500 
 23 H       -9.1170    -2.5900    -0.3870 H     1 <1>   0.0800 
 24 H       -9.5540    -1.7720    -1.8660 H     1 <1>   0.0800 
 25 H      -10.5600    -0.0380    -0.5030 H     1 <1>   0.3600 
 26 H      -11.5930    -2.6990     0.1200 H     1 <1>   0.0800 
 27 H      -11.9010    -1.8300    -1.3670 H     1 <1>   0.0800 
 28 H      -12.6010    -0.8550     1.4080 H     1 <1>   0.0800 
 29 H      -14.4180    -1.9270    -0.7670 H     1 <1>   0.0800 
 30 H      -14.9360    -1.2870     0.7740 H     1 <1>   0.0800 
 31 H      -14.0000    -2.7550     0.7150 H     1 <1>   0.0800 
 32 H      -13.2670     0.3510    -1.3020 H     1 <1>   0.0800 
 33 H      -12.2100     1.0510    -0.0970 H     1 <1>   0.0800 
 34 H      -13.9110     0.9040     0.2250 H     1 <1>   0.0800 
@<TRIPOS>BOND
  1   1   2  1   
  2   2   3  ar  
  3   2   4  ar  
  4   3   5  ar  
  5   3  19  1   
  6   4   6  ar  
  7   4  20  1   
  8   5   7  ar  
  9   5  21  1   
 10   6   7  ar  
 11   6  22  1   
 12   7   8  1   
 13   8   9  2   
 14   8  10  1   
 15   9  11  1   
 16  10  12  2   
 17  11  12  1   
 18  12  13  1   
 19  13  14  1   
 20  13  23  1   
 21  13  24  1   
 22  14  15  1   
 23  14  25  1   
 24  15  16  1   
 25  15  26  1   
 26  15  27  1   
 27  16  17  1   
 28  16  18  1   
 29  16  28  1   
 30  17  29  1   
 31  17  30  1   
 32  17  31  1   
 33  18  32  1   
 34  18  33  1   
 35  18  34  1   
@<TRIPOS>SUBSTRUCTURE
  1 ****  10 GROUP 4 **** **** 0

# MOE 2024.06 (io_trps.svl 2023.06)
