@<TRIPOS>MOLECULE
NONAME
30 32 1 0 0 
SMALL
USER_CHARGES


@<TRIPOS>ATOM
  1 S       -0.3200    -0.0710     0.1280 S.3   1 <1>  -0.2860 
  2 C       -1.6880    -0.3040    -0.9670 C.2   1 <1>   0.2420 
  3 C       -1.2710     1.0360     1.2610 C.3   1 <1>   0.1500 
  4 N       -1.8140    -0.9140    -2.0880 N.2   1 <1>  -0.3380 
  5 N       -2.7820     0.2760    -0.5300 N.pl3 1 <1>   0.0480 
  6 C       -2.7440     0.9720     0.7750 C.3   1 <1>   0.0960 
  7 C       -0.6550     2.4330     1.1450 C.3   1 <1>  -0.2400 
  8 N       -3.1000    -0.7290    -2.4330 N.2   1 <1>  -0.3380 
  9 C       -3.6570    -0.0240    -1.4980 C.2   1 <1>   0.0070 
 10 C       -5.1130     0.4080    -1.5120 C.3   1 <1>   0.3000 
 11 O       -5.5700     0.6290    -0.1910 O.3   1 <1>  -0.3630 
 12 C       -6.8340     1.0540     0.0510 C.ar  1 <1>   0.0820 
 13 C       -7.1870     1.2320     1.3800 C.ar  1 <1>  -0.1500 
 14 C       -7.7710     1.3150    -0.9470 C.ar  1 <1>  -0.1500 
 15 C       -8.4560     1.6690     1.7160 C.ar  1 <1>  -0.1500 
 16 C       -9.0390     1.7520    -0.6080 C.ar  1 <1>  -0.1500 
 17 C       -9.3830     1.9300     0.7220 C.ar  1 <1>  -0.1500 
 18 H       -1.1680     0.6480     2.2590 H     1 <1>   0.0800 
 19 H       -3.1660     1.9550     0.6710 H     1 <1>   0.0800 
 20 H       -3.3360     0.4120     1.4750 H     1 <1>   0.0800 
 21 H       -0.7140     2.7870     0.1300 H     1 <1>   0.0800 
 22 H        0.3780     2.4030     1.4410 H     1 <1>   0.0800 
 23 H       -1.1740     3.1240     1.7850 H     1 <1>   0.0800 
 24 H       -5.7180    -0.3610    -1.9590 H     1 <1>   0.0800 
 25 H       -5.2120     1.3250    -2.0650 H     1 <1>   0.0800 
 26 H       -6.4670     1.0260     2.1490 H     1 <1>   0.1500 
 27 H       -7.5400     1.1860    -1.9880 H     1 <1>   0.1500 
 28 H       -8.7240     1.8050     2.7500 H     1 <1>   0.1500 
 29 H       -9.7640     1.9540    -1.3780 H     1 <1>   0.1500 
 30 H      -10.3700     2.2700     0.9820 H     1 <1>   0.1500 
@<TRIPOS>BOND
  1   1   2  1   
  2   1   3  1   
  3   2   4  2   
  4   2   5  1   
  5   3   6  1   
  6   3   7  1   
  7   3  18  1   
  8   4   8  1   
  9   5   6  1   
 10   5   9  1   
 11   6  19  1   
 12   6  20  1   
 13   7  21  1   
 14   7  22  1   
 15   7  23  1   
 16   8   9  2   
 17   9  10  1   
 18  10  11  1   
 19  10  24  1   
 20  10  25  1   
 21  11  12  1   
 22  12  13  ar  
 23  12  14  ar  
 24  13  15  ar  
 25  13  26  1   
 26  14  16  ar  
 27  14  27  1   
 28  15  17  ar  
 29  15  28  1   
 30  16  17  ar  
 31  16  29  1   
 32  17  30  1   
@<TRIPOS>SUBSTRUCTURE
  1 ****  11 GROUP 4 **** **** 0

# MOE 2024.06 (io_trps.svl 2023.06)
