@<TRIPOS>MOLECULE
NONAME
53 55 1 0 0 
SMALL
USER_CHARGES


@<TRIPOS>ATOM
  1 O       -0.8690     3.5340    -0.8460 O.2   1 <1>  -0.5700 
  2 C       -0.1660     2.7180    -0.2990 C.2   1 <1>   0.5690 
  3 N       -0.5810     1.4880     0.1260 N.am  1 <1>  -0.5470 
  4 C        1.3060     3.0500    -0.0500 C.3   1 <1>   0.1710 
  5 C       -1.8070     0.8100     0.0890 C.ar  1 <1>   0.1170 
  6 N        2.1670     1.8420     0.1260 N.3   1 <1>  -0.8100 
  7 C       -2.9980     1.4050    -0.3180 C.ar  1 <1>  -0.1500 
  8 C       -1.8370    -0.5230     0.4820 C.ar  1 <1>  -0.1500 
  9 C        2.4250     1.1790    -1.1800 C.3   1 <1>   0.1100 
 10 C        3.4600     2.1980     0.7560 C.3   1 <1>   0.1100 
 11 C       -4.1860     0.6930    -0.3370 C.ar  1 <1>  -0.1430 
 12 C       -3.0180    -1.2410     0.4680 C.ar  1 <1>  -0.1500 
 13 C        3.3290    -0.0600    -1.0370 C.3   1 <1>   0.2090 
 14 C        4.3790     0.9730     0.9300 C.3   1 <1>   0.2090 
 15 C       -4.1920    -0.6340     0.0590 C.ar  1 <1>  -0.1500 
 16 C       -5.4750     1.3580    -0.7840 C.3   1 <1>  -0.0970 
 17 N        4.6180     0.2980    -0.3780 N.pl3 1 <1>  -0.8380 
 18 C        5.5890    -0.7130    -0.3650 C.ar  1 <1>   0.1000 
 19 C        5.4640    -1.9280     0.3350 C.ar  1 <1>   0.0820 
 20 C        6.7440    -0.4830    -1.0980 C.ar  1 <1>  -0.1500 
 21 O        4.3220    -2.1500     1.0570 O.3   1 <1>  -0.3620 
 22 C        6.4940    -2.8640     0.2770 C.ar  1 <1>  -0.1500 
 23 C        7.7620    -1.4170    -1.1510 C.ar  1 <1>  -0.1500 
 24 C        4.1440    -3.3190     1.8200 C.3   1 <1>   0.1200 
 25 C        7.6370    -2.6090    -0.4630 C.ar  1 <1>  -0.1500 
 26 C        2.7850    -3.2270     2.5070 C.3   1 <1>  -0.2400 
 27 H        0.2130     0.9570     0.4990 H     1 <1>   0.3700 
 28 H        1.3440     3.6470     0.8440 H     1 <1>   0.0800 
 29 H        1.6730     3.6510    -0.8630 H     1 <1>   0.0800 
 30 H       -2.9990     2.4350    -0.6200 H     1 <1>   0.1500 
 31 H       -0.9300    -1.0020     0.8010 H     1 <1>   0.1500 
 32 H        2.9030     1.8690    -1.8530 H     1 <1>   0.0800 
 33 H        1.4940     0.8730    -1.6250 H     1 <1>   0.0800 
 34 H        3.2790     2.6310     1.7240 H     1 <1>   0.0800 
 35 H        3.9740     2.9270     0.1520 H     1 <1>   0.0800 
 36 H       -3.0270    -2.2730     0.7750 H     1 <1>   0.1500 
 37 H        3.5330    -0.4730    -2.0090 H     1 <1>   0.0800 
 38 H        2.8170    -0.8070    -0.4560 H     1 <1>   0.0800 
 39 H        3.9210     0.2840     1.6180 H     1 <1>   0.0800 
 40 H        5.3220     1.2840     1.3440 H     1 <1>   0.0800 
 41 H       -5.1090    -1.1970     0.0500 H     1 <1>   0.1500 
 42 H       -5.2670     2.2590    -1.3330 H     1 <1>   0.0800 
 43 H       -6.0720     1.6060     0.0750 H     1 <1>   0.0800 
 44 H       -6.0340     0.6940    -1.4190 H     1 <1>   0.0800 
 45 H        6.8340     0.4450    -1.6300 H     1 <1>   0.1500 
 46 H        6.4320    -3.8000     0.7960 H     1 <1>   0.1500 
 47 H        8.6480    -1.2150    -1.7260 H     1 <1>   0.1500 
 48 H        4.9360    -3.3760     2.5480 H     1 <1>   0.0800 
 49 H        4.1790    -4.1680     1.1590 H     1 <1>   0.0800 
 50 H        8.4270    -3.3380    -0.5020 H     1 <1>   0.1500 
 51 H        2.7550    -2.3650     3.1510 H     1 <1>   0.0800 
 52 H        2.6170    -4.1060     3.1020 H     1 <1>   0.0800 
 53 H        2.0050    -3.1540     1.7720 H     1 <1>   0.0800 
@<TRIPOS>BOND
  1   1   2  2   
  2   2   3  am  
  3   2   4  1   
  4   3   5  1   
  5   3  27  1   
  6   4   6  1   
  7   4  28  1   
  8   4  29  1   
  9   5   7  ar  
 10   5   8  ar  
 11   6   9  1   
 12   6  10  1   
 13   7  11  ar  
 14   7  30  1   
 15   8  12  ar  
 16   8  31  1   
 17   9  13  1   
 18   9  32  1   
 19   9  33  1   
 20  10  14  1   
 21  10  34  1   
 22  10  35  1   
 23  11  15  ar  
 24  11  16  1   
 25  12  15  ar  
 26  12  36  1   
 27  13  17  1   
 28  13  37  1   
 29  13  38  1   
 30  14  17  1   
 31  14  39  1   
 32  14  40  1   
 33  15  41  1   
 34  16  42  1   
 35  16  43  1   
 36  16  44  1   
 37  17  18  1   
 38  18  19  ar  
 39  18  20  ar  
 40  19  21  1   
 41  19  22  ar  
 42  20  23  ar  
 43  20  45  1   
 44  21  24  1   
 45  22  25  ar  
 46  22  46  1   
 47  23  25  ar  
 48  23  47  1   
 49  24  26  1   
 50  24  48  1   
 51  24  49  1   
 52  25  50  1   
 53  26  51  1   
 54  26  52  1   
 55  26  53  1   
@<TRIPOS>SUBSTRUCTURE
  1 ****   9 GROUP 4 **** **** 0

# MOE 2024.06 (io_trps.svl 2023.06)
