@<TRIPOS>MOLECULE
NONAME
53 55 1 0 0 
SMALL
USER_CHARGES


@<TRIPOS>ATOM
  1 O       -0.2300     1.9710     1.8270 O.2   1 <1>  -0.5700 
  2 C       -0.2500     3.0050     1.1980 C.2   1 <1>   0.5690 
  3 N       -1.0660     3.1440     0.0980 N.am  1 <1>  -0.6600 
  4 C        0.6500     4.1310     1.7190 C.3   1 <1>   0.1810 
  5 C       -1.1190     4.3740    -0.7450 C.3   1 <1>   0.2200 
  6 C       -1.9060     1.9670    -0.3200 C.3   1 <1>   0.3200 
  7 O        1.5670     4.6150     0.7450 O.3   1 <1>  -0.3630 
  8 C       -2.5560     4.8460    -0.9640 C.3   1 <1>  -0.2400 
  9 C       -0.4060     4.1240    -2.0740 C.3   1 <1>  -0.2400 
 10 C       -3.3010     1.9950     0.2920 C.2   1 <1>   0.2980 
 11 C        2.5870     3.8590     0.2660 C.ar  1 <1>   0.0820 
 12 O       -3.4210     2.0720     1.5920 O.3   1 <1>  -0.0190 
 13 N       -4.3960     1.9520    -0.3520 N.2   1 <1>  -0.5650 
 14 C        2.9090     2.5890     0.7350 C.ar  1 <1>  -0.1500 
 15 C        3.3370     4.4110    -0.7570 C.ar  1 <1>  -0.1500 
 16 N       -4.7020     2.0890     1.7920 N.2   1 <1>  -0.4100 
 17 C       -5.2830     2.0180     0.6470 C.2   1 <1>   0.4620 
 18 C        3.9620     1.8770     0.1810 C.ar  1 <1>  -0.1430 
 19 C        4.3890     3.7070    -1.3110 C.ar  1 <1>  -0.1500 
 20 C       -6.7200     2.0120     0.4240 C.ar  1 <1>   0.0540 
 21 C        4.7090     2.4390    -0.8500 C.ar  1 <1>  -0.1430 
 22 C        4.2740     0.4880     0.7200 C.3   1 <1>  -0.0970 
 23 C       -7.2650     1.9380    -0.8600 C.ar  1 <1>  -0.1500 
 24 C       -7.6180     2.0840     1.4910 C.ar  1 <1>  -0.1500 
 25 C        5.8740     1.6950    -1.4850 C.3   1 <1>  -0.0970 
 26 C       -8.6320     1.9350    -1.0690 C.ar  1 <1>  -0.1500 
 27 C       -8.9870     2.0820     1.2900 C.ar  1 <1>  -0.1500 
 28 C       -9.4970     2.0070     0.0070 C.ar  1 <1>  -0.1500 
 29 H        1.2100     3.7960     2.5720 H     1 <1>   0.0800 
 30 H        0.0350     4.9570     2.0220 H     1 <1>   0.0800 
 31 H       -0.6050     5.1750    -0.2450 H     1 <1>   0.0800 
 32 H       -1.4260     1.0500    -0.0270 H     1 <1>   0.0800 
 33 H       -1.9990     1.9450    -1.3890 H     1 <1>   0.0800 
 34 H       -3.1040     4.1660    -1.5900 H     1 <1>   0.0800 
 35 H       -2.5490     5.8050    -1.4480 H     1 <1>   0.0800 
 36 H       -3.0610     4.9520    -0.0200 H     1 <1>   0.0800 
 37 H       -0.9380     3.4160    -2.6820 H     1 <1>   0.0800 
 38 H        0.5900     3.7600    -1.8960 H     1 <1>   0.0800 
 39 H       -0.3320     5.0450    -2.6230 H     1 <1>   0.0800 
 40 H        2.3490     2.1400     1.5320 H     1 <1>   0.1500 
 41 H        3.0920     5.3940    -1.1170 H     1 <1>   0.1500 
 42 H        4.9590     4.1560    -2.1050 H     1 <1>   0.1500 
 43 H        3.5800     0.2060     1.4910 H     1 <1>   0.0800 
 44 H        5.2660     0.4680     1.1350 H     1 <1>   0.0800 
 45 H        4.2090    -0.2380    -0.0700 H     1 <1>   0.0800 
 46 H       -6.6080     1.8800    -1.7100 H     1 <1>   0.1500 
 47 H       -7.2380     2.1420     2.4960 H     1 <1>   0.1500 
 48 H        5.5270     0.7820    -1.9340 H     1 <1>   0.0800 
 49 H        6.6130     1.4620    -0.7400 H     1 <1>   0.0800 
 50 H        6.3420     2.2890    -2.2490 H     1 <1>   0.0800 
 51 H       -9.0240     1.8760    -2.0700 H     1 <1>   0.1500 
 52 H       -9.6550     2.1380     2.1310 H     1 <1>   0.1500 
 53 H      -10.5620     2.0060    -0.1530 H     1 <1>   0.1500 
@<TRIPOS>BOND
  1   1   2  2   
  2   2   3  am  
  3   2   4  1   
  4   3   5  1   
  5   3   6  1   
  6   4   7  1   
  7   4  29  1   
  8   4  30  1   
  9   5   8  1   
 10   5   9  1   
 11   5  31  1   
 12   6  10  1   
 13   6  32  1   
 14   6  33  1   
 15   7  11  1   
 16   8  34  1   
 17   8  35  1   
 18   8  36  1   
 19   9  37  1   
 20   9  38  1   
 21   9  39  1   
 22  10  12  1   
 23  10  13  2   
 24  11  14  ar  
 25  11  15  ar  
 26  12  16  1   
 27  13  17  1   
 28  14  18  ar  
 29  14  40  1   
 30  15  19  ar  
 31  15  41  1   
 32  16  17  2   
 33  17  20  1   
 34  18  21  ar  
 35  18  22  1   
 36  19  21  ar  
 37  19  42  1   
 38  20  23  ar  
 39  20  24  ar  
 40  21  25  1   
 41  22  43  1   
 42  22  44  1   
 43  22  45  1   
 44  23  26  ar  
 45  23  46  1   
 46  24  27  ar  
 47  24  47  1   
 48  25  48  1   
 49  25  49  1   
 50  25  50  1   
 51  26  28  ar  
 52  26  51  1   
 53  27  28  ar  
 54  27  52  1   
 55  28  53  1   
@<TRIPOS>SUBSTRUCTURE
  1 ****   3 GROUP 4 **** **** 0

# MOE 2024.06 (io_trps.svl 2023.06)
