@<TRIPOS>MOLECULE
NONAME
42 43 1 0 0 
SMALL
USER_CHARGES


@<TRIPOS>ATOM
  1 CL       0.4000     0.6680     1.0390 Cl    1 <1>  -0.1770 
  2 C        1.7110    -0.4360     0.7040 C.ar  1 <1>   0.1770 
  3 C        2.8530     0.0360     0.0860 C.ar  1 <1>  -0.1500 
  4 C        1.5850    -1.7640     1.0610 C.ar  1 <1>  -0.1500 
  5 C        3.8990    -0.8340    -0.1870 C.ar  1 <1>  -0.1440 
  6 C        2.6260    -2.6370     0.7970 C.ar  1 <1>  -0.1500 
  7 C        3.7880    -2.1770     0.1760 C.ar  1 <1>   0.0830 
  8 C        5.1470    -0.2880    -0.8710 C.3   1 <1>   0.1220 
  9 O        4.8420    -2.9920    -0.0950 O.3   1 <1>  -0.3620 
 10 C        6.1410     0.2060     0.1660 C.2   1 <1>  -0.2880 
 11 C        4.8860    -4.3250     0.3480 C.3   1 <1>   0.1200 
 12 C        6.6220     1.4510     0.2460 C.2   1 <1>  -0.3000 
 13 C        6.2500    -4.8860    -0.0520 C.3   1 <1>  -0.1600 
 14 C        6.3990    -6.3340     0.4090 C.3   1 <1>   0.3430 
 15 N        7.7020    -6.8880    -0.0510 N.4   1 <1>  -0.9590 
 16 C        7.8180    -8.3500     0.1700 C.3   1 <1>   0.3430 
 17 C        8.8900    -6.2860     0.6080 C.3   1 <1>   0.3430 
 18 C        9.3120    -8.6270     0.0790 C.3   1 <1>  -0.1600 
 19 C       10.0060    -7.2950     0.3750 C.3   1 <1>  -0.1600 
 20 H        2.9170     1.0770    -0.1730 H     1 <1>   0.1500 
 21 H        0.6840    -2.1030     1.5390 H     1 <1>   0.1500 
 22 H        2.5060    -3.6640     1.0820 H     1 <1>   0.1500 
 23 H        4.8750     0.5190    -1.5290 H     1 <1>   0.0800 
 24 H        5.6080    -1.0470    -1.4770 H     1 <1>   0.0800 
 25 H        6.4250    -0.5700     0.8560 H     1 <1>   0.1500 
 26 H        4.0850    -4.8640    -0.1280 H     1 <1>   0.0800 
 27 H        4.7610    -4.3280     1.4180 H     1 <1>   0.0800 
 28 H        7.3240     1.7740     0.9950 H     1 <1>   0.1500 
 29 H        6.3580     2.2510    -0.4250 H     1 <1>   0.1500 
 30 H        7.0090    -4.2730     0.4000 H     1 <1>   0.0800 
 31 H        6.3370    -4.8360    -1.1230 H     1 <1>   0.0800 
 32 H        5.5940    -6.9190    -0.0050 H     1 <1>   0.0800 
 33 H        6.3350    -6.3860     1.4850 H     1 <1>   0.0800 
 34 H        7.7980    -6.7230    -1.0620 H     1 <1>   0.4500 
 35 H        7.2620    -8.9130    -0.5630 H     1 <1>   0.0800 
 36 H        7.4670    -8.6000     1.1580 H     1 <1>   0.0800 
 37 H        8.7100    -6.1860     1.6670 H     1 <1>   0.0800 
 38 H        9.1320    -5.3200     0.1940 H     1 <1>   0.0800 
 39 H        9.5600    -8.9680    -0.9120 H     1 <1>   0.0800 
 40 H        9.5960    -9.3920     0.7820 H     1 <1>   0.0800 
 41 H       10.6400    -7.3580     1.2430 H     1 <1>   0.0800 
 42 H       10.6070    -6.9880    -0.4640 H     1 <1>   0.0800 
@<TRIPOS>BOND
  1   1   2  1   
  2   2   3  ar  
  3   2   4  ar  
  4   3   5  ar  
  5   3  20  1   
  6   4   6  ar  
  7   4  21  1   
  8   5   7  ar  
  9   5   8  1   
 10   6   7  ar  
 11   6  22  1   
 12   7   9  1   
 13   8  10  1   
 14   8  23  1   
 15   8  24  1   
 16   9  11  1   
 17  10  12  2   
 18  10  25  1   
 19  11  13  1   
 20  11  26  1   
 21  11  27  1   
 22  12  28  1   
 23  12  29  1   
 24  13  14  1   
 25  13  30  1   
 26  13  31  1   
 27  14  15  1   
 28  14  32  1   
 29  14  33  1   
 30  15  16  1   
 31  15  17  1   
 32  15  34  1   
 33  16  18  1   
 34  16  35  1   
 35  16  36  1   
 36  17  19  1   
 37  17  37  1   
 38  17  38  1   
 39  18  19  1   
 40  18  39  1   
 41  18  40  1   
 42  19  41  1   
 43  19  42  1   
@<TRIPOS>SUBSTRUCTURE
  1 ****   9 GROUP 4 **** **** 0

# MOE 2024.06 (io_trps.svl 2023.06)
