@<TRIPOS>MOLECULE
NONAME
48 49 1 0 0 
SMALL
USER_CHARGES


@<TRIPOS>ATOM
  1 O        5.9320     5.1270     0.9110 O.3   1 <1>  -0.5600 
  2 C        6.0050     6.5200     0.9950 C.3   1 <1>   0.1200 
  3 C        5.0750     4.6770    -0.0950 C.3   1 <1>   0.1200 
  4 C        4.6100     7.1120     1.2670 C.3   1 <1>   0.1100 
  5 C        3.6480     5.2050     0.1450 C.3   1 <1>   0.1100 
  6 N        3.6290     6.6860     0.2410 N.3   1 <1>  -0.8100 
  7 C        2.2930     7.2180     0.5350 C.3   1 <1>   0.1100 
  8 C        1.4380     7.2210    -0.7390 C.3   1 <1>   0.3430 
  9 N        0.1090     7.8410    -0.4990 N.4   1 <1>  -0.9060 
 10 C       -0.7840     7.8070    -1.6730 C.3   1 <1>   0.4860 
 11 C       -2.1400     8.2960    -1.2140 C.ar  1 <1>  -0.1440 
 12 C       -2.8290     7.6080    -0.2190 C.ar  1 <1>   0.0820 
 13 C       -2.6960     9.4280    -1.7910 C.ar  1 <1>  -0.1500 
 14 O       -2.2060     6.4990     0.2820 O.3   1 <1>  -0.3620 
 15 C       -4.0760     8.0790     0.2230 C.ar  1 <1>   0.0820 
 16 C       -3.9330     9.8800    -1.3740 C.ar  1 <1>  -0.1500 
 17 C       -2.9500     5.3400     0.6000 C.3   1 <1>   0.1200 
 18 O       -4.7160     7.4330     1.2390 O.3   1 <1>  -0.3630 
 19 C       -4.6190     9.2140    -0.3740 C.ar  1 <1>  -0.1500 
 20 C       -2.0150     4.1390     0.5030 C.3   1 <1>  -0.2400 
 21 C       -5.9620     7.8670     1.7430 C.3   1 <1>   0.0400 
 22 H        6.4070     6.9020     0.0720 H     1 <1>   0.0800 
 23 H        6.6790     6.7660     1.7960 H     1 <1>   0.0800 
 24 H        5.0860     3.6020    -0.0770 H     1 <1>   0.0800 
 25 H        5.4520     5.0130    -1.0460 H     1 <1>   0.0800 
 26 H        4.6870     8.1860     1.2710 H     1 <1>   0.0800 
 27 H        4.2870     6.7940     2.2440 H     1 <1>   0.0800 
 28 H        3.2740     4.7690     1.0560 H     1 <1>   0.0800 
 29 H        3.0230     4.8800    -0.6670 H     1 <1>   0.0800 
 30 H        2.3930     8.2330     0.8810 H     1 <1>   0.0800 
 31 H        1.8280     6.6310     1.3100 H     1 <1>   0.0800 
 32 H        1.3100     6.2050    -1.0740 H     1 <1>   0.0800 
 33 H        1.9660     7.7700    -1.5020 H     1 <1>   0.0800 
 34 H        0.1840     8.8080    -0.1680 H     1 <1>   0.4500 
 35 H       -0.4160     7.3240     0.2290 H     1 <1>   0.4500 
 36 H       -0.8780     6.7980    -2.0420 H     1 <1>   0.0800 
 37 H       -0.4010     8.4360    -2.4600 H     1 <1>   0.0800 
 38 H       -2.1830     9.9680    -2.5690 H     1 <1>   0.1500 
 39 H       -4.3680    10.7570    -1.8260 H     1 <1>   0.1500 
 40 H       -3.7680     5.2470    -0.0950 H     1 <1>   0.0800 
 41 H       -3.3310     5.4420     1.6020 H     1 <1>   0.0800 
 42 H       -5.5740     9.6030    -0.0760 H     1 <1>   0.1500 
 43 H       -1.6330     4.0400    -0.4970 H     1 <1>   0.0800 
 44 H       -2.5590     3.2430     0.7470 H     1 <1>   0.0800 
 45 H       -1.2020     4.2390     1.2000 H     1 <1>   0.0800 
 46 H       -6.2530     7.2010     2.5360 H     1 <1>   0.0800 
 47 H       -6.6920     7.8320     0.9530 H     1 <1>   0.0800 
 48 H       -5.8560     8.8660     2.1290 H     1 <1>   0.0800 
@<TRIPOS>BOND
  1   1   2  1   
  2   1   3  1   
  3   2   4  1   
  4   2  22  1   
  5   2  23  1   
  6   3   5  1   
  7   3  24  1   
  8   3  25  1   
  9   4   6  1   
 10   4  26  1   
 11   4  27  1   
 12   5   6  1   
 13   5  28  1   
 14   5  29  1   
 15   6   7  1   
 16   7   8  1   
 17   7  30  1   
 18   7  31  1   
 19   8   9  1   
 20   8  32  1   
 21   8  33  1   
 22   9  10  1   
 23   9  34  1   
 24   9  35  1   
 25  10  11  1   
 26  10  36  1   
 27  10  37  1   
 28  11  12  ar  
 29  11  13  ar  
 30  12  14  1   
 31  12  15  ar  
 32  13  16  ar  
 33  13  38  1   
 34  14  17  1   
 35  15  18  1   
 36  15  19  ar  
 37  16  19  ar  
 38  16  39  1   
 39  17  20  1   
 40  17  40  1   
 41  17  41  1   
 42  18  21  1   
 43  19  42  1   
 44  20  43  1   
 45  20  44  1   
 46  20  45  1   
 47  21  46  1   
 48  21  47  1   
 49  21  48  1   
@<TRIPOS>SUBSTRUCTURE
  1 ****   9 GROUP 4 **** **** 0

# MOE 2024.06 (io_trps.svl 2023.06)
