@<TRIPOS>MOLECULE
NONAME
32 32 1 0 0 
SMALL
USER_CHARGES


@<TRIPOS>ATOM
  1 O        0.2810    -2.1510    -1.8900 O.2   1 <1>  -0.5700 
  2 C       -0.0980    -1.9270    -0.7610 C.2   1 <1>   0.6900 
  3 N       -1.3990    -2.1910    -0.4880 N.am  1 <1>  -0.4900 
  4 N        0.7160    -1.4400     0.2020 N.am  1 <1>  -0.7300 
  5 C       -2.1370    -2.0520     0.6600 C.2   1 <1>   0.5440 
  6 C        2.1280    -1.0650     0.1530 C.3   1 <1>   0.3000 
  7 O       -1.6360    -1.5420     1.6420 O.2   1 <1>  -0.5700 
  8 C       -3.5180    -2.5000     0.6800 C.ar  1 <1>   0.0860 
  9 C        2.9730    -2.2880    -0.2040 C.3   1 <1>  -0.2400 
 10 C        2.4960    -0.5740     1.5510 C.3   1 <1>  -0.2400 
 11 C        2.3240     0.0630    -0.8600 C.3   1 <1>  -0.2400 
 12 C       -4.4640    -1.8550     1.4780 C.ar  1 <1>  -0.1500 
 13 C       -3.9590    -3.5820    -0.0880 C.ar  1 <1>  -0.1500 
 14 C       -5.7880    -2.2550     1.5000 C.ar  1 <1>  -0.1500 
 15 C       -5.2820    -3.9860    -0.0710 C.ar  1 <1>  -0.1500 
 16 C       -6.2000    -3.3210     0.7220 C.ar  1 <1>  -0.1500 
 17 H       -1.8810    -2.5230    -1.3150 H     1 <1>   0.3700 
 18 H        0.2560    -1.2710     1.1030 H     1 <1>   0.3700 
 19 H        2.7440    -2.6290    -1.1970 H     1 <1>   0.0800 
 20 H        2.7880    -3.0860     0.4920 H     1 <1>   0.0800 
 21 H        4.0170    -2.0390    -0.1710 H     1 <1>   0.0800 
 22 H        2.3450    -1.3540     2.2760 H     1 <1>   0.0800 
 23 H        1.8970     0.2780     1.8210 H     1 <1>   0.0800 
 24 H        3.5300    -0.2810     1.5810 H     1 <1>   0.0800 
 25 H        1.6910     0.8980    -0.6190 H     1 <1>   0.0800 
 26 H        2.0930    -0.2760    -1.8530 H     1 <1>   0.0800 
 27 H        3.3460     0.3950    -0.8510 H     1 <1>   0.0800 
 28 H       -4.1520    -1.0260     2.0900 H     1 <1>   0.1500 
 29 H       -3.2640    -4.1260    -0.7020 H     1 <1>   0.1500 
 30 H       -6.4970    -1.7380     2.1230 H     1 <1>   0.1500 
 31 H       -5.6020    -4.8210    -0.6720 H     1 <1>   0.1500 
 32 H       -7.2300    -3.6340     0.7370 H     1 <1>   0.1500 
@<TRIPOS>BOND
  1   1   2  2   
  2   2   3  am  
  3   2   4  am  
  4   3   5  am  
  5   3  17  1   
  6   4   6  1   
  7   4  18  1   
  8   5   7  2   
  9   5   8  1   
 10   6   9  1   
 11   6  10  1   
 12   6  11  1   
 13   8  12  ar  
 14   8  13  ar  
 15   9  19  1   
 16   9  20  1   
 17   9  21  1   
 18  10  22  1   
 19  10  23  1   
 20  10  24  1   
 21  11  25  1   
 22  11  26  1   
 23  11  27  1   
 24  12  14  ar  
 25  12  28  1   
 26  13  15  ar  
 27  13  29  1   
 28  14  16  ar  
 29  14  30  1   
 30  15  16  ar  
 31  15  31  1   
 32  16  32  1   
@<TRIPOS>SUBSTRUCTURE
  1 ****   3 GROUP 4 **** **** 0

# MOE 2024.06 (io_trps.svl 2023.06)
