@<TRIPOS>MOLECULE
NONAME
33 34 1 0 0 
SMALL
USER_CHARGES


@<TRIPOS>ATOM
  1 O       -0.4270    -0.3870    -2.2550 O.2   1 <1>  -0.5700 
  2 C       -1.2520    -0.8890    -1.5270 C.2   1 <1>   0.5690 
  3 N       -1.2960    -2.2360    -1.2630 N.am  1 <1>  -0.4770 
  4 C       -2.2780     0.0150    -0.8530 C.3   1 <1>   0.1810 
  5 C       -2.3420    -2.7660    -0.4690 C.ar  1 <1>   0.1170 
  6 C       -0.2310    -3.1220    -1.8430 C.3   1 <1>   0.2010 
  7 O       -3.4990    -0.6550    -0.5640 O.3   1 <1>  -0.3630 
  8 C       -3.4350    -1.9490    -0.1500 C.ar  1 <1>   0.0830 
  9 C       -2.3460    -4.0750     0.0130 C.ar  1 <1>  -0.1500 
 10 C        0.8570    -3.4780    -0.8380 C.2   1 <1>   0.6590 
 11 C       -4.4930    -2.4350     0.5950 C.ar  1 <1>  -0.1500 
 12 C       -3.4000    -4.5610     0.7700 C.ar  1 <1>  -0.1440 
 13 O        1.1110    -4.6260    -0.5720 O.2   1 <1>  -0.5700 
 14 O        1.5030    -2.4660    -0.2720 O.3   1 <1>  -0.4300 
 15 C       -4.4760    -3.7390     1.0560 C.ar  1 <1>  -0.1500 
 16 C       -3.3780    -5.9910     1.2810 C.3   1 <1>  -0.0970 
 17 C        2.5120    -2.6740     0.6860 C.3   1 <1>   0.1200 
 18 C        3.0070    -1.3090     1.1520 C.3   1 <1>  -0.2400 
 19 H       -2.5040     0.8490    -1.4900 H     1 <1>   0.0800 
 20 H       -1.8750     0.3760     0.0740 H     1 <1>   0.0800 
 21 H        0.2360    -2.6420    -2.6830 H     1 <1>   0.0800 
 22 H       -0.6830    -4.0260    -2.2050 H     1 <1>   0.0800 
 23 H       -1.5260    -4.7360    -0.1930 H     1 <1>   0.1500 
 24 H       -5.3250    -1.7900     0.8150 H     1 <1>   0.1500 
 25 H       -5.3030    -4.1080     1.6370 H     1 <1>   0.1500 
 26 H       -2.3660    -6.3310     1.4110 H     1 <1>   0.0800 
 27 H       -3.8730    -6.6360     0.5790 H     1 <1>   0.0800 
 28 H       -3.8800    -6.0580     2.2300 H     1 <1>   0.0800 
 29 H        3.3060    -3.2400     0.2280 H     1 <1>   0.0800 
 30 H        2.0940    -3.2350     1.5060 H     1 <1>   0.0800 
 31 H        3.4070    -0.7570     0.3200 H     1 <1>   0.0800 
 32 H        3.7830    -1.4350     1.8850 H     1 <1>   0.0800 
 33 H        2.2010    -0.7550     1.5970 H     1 <1>   0.0800 
@<TRIPOS>BOND
  1   1   2  2   
  2   2   3  am  
  3   2   4  1   
  4   3   5  1   
  5   3   6  1   
  6   4   7  1   
  7   4  19  1   
  8   4  20  1   
  9   5   8  ar  
 10   5   9  ar  
 11   6  10  1   
 12   6  21  1   
 13   6  22  1   
 14   7   8  1   
 15   8  11  ar  
 16   9  12  ar  
 17   9  23  1   
 18  10  13  2   
 19  10  14  1   
 20  11  15  ar  
 21  11  24  1   
 22  12  15  ar  
 23  12  16  1   
 24  14  17  1   
 25  15  25  1   
 26  16  26  1   
 27  16  27  1   
 28  16  28  1   
 29  17  18  1   
 30  17  29  1   
 31  17  30  1   
 32  18  31  1   
 33  18  32  1   
 34  18  33  1   
@<TRIPOS>SUBSTRUCTURE
  1 ****   5 GROUP 4 **** **** 0

# MOE 2024.06 (io_trps.svl 2023.06)
