@<TRIPOS>MOLECULE
NONAME
49 51 1 0 0 
SMALL
USER_CHARGES


@<TRIPOS>ATOM
  1 S       -0.2700     0.0940     0.4250 S.o2  1 <1>   1.4470 
  2 O        0.1820     0.1060     1.8020 O.2   1 <1>  -0.6500 
  3 O        0.3910     0.9750    -0.5150 O.2   1 <1>  -0.6500 
  4 N       -0.1250    -1.5030    -0.1510 N.am  1 <1>  -0.8490 
  5 C       -2.0450     0.4600     0.3360 C.ar  1 <1>  -0.0090 
  6 C       -0.3390    -2.5530     0.8790 C.3   1 <1>   0.2760 
  7 C        1.1720    -1.6600    -0.8320 C.3   1 <1>   0.1960 
  8 C       -2.6890     1.1580     1.3510 C.ar  1 <1>  -0.1500 
  9 C       -2.8080     0.0650    -0.7570 C.ar  1 <1>  -0.1500 
 10 C       -0.1830    -3.9550     0.2490 C.3   1 <1>  -0.1600 
 11 C       -1.7390    -2.4420     1.5350 C.3   1 <1>  -0.1600 
 12 C        1.3000    -3.0230    -1.5090 C.3   1 <1>  -0.1600 
 13 C       -4.0430     1.4360     1.2840 C.ar  1 <1>  -0.1500 
 14 C       -4.1620     0.3400    -0.8280 C.ar  1 <1>  -0.1500 
 15 C        1.1430    -4.1420    -0.4880 C.3   1 <1>  -0.1600 
 16 C       -2.0830    -3.5510     2.5430 C.3   1 <1>  -0.2400 
 17 C       -4.8040     1.0260     0.1970 C.ar  1 <1>   0.1170 
 18 N       -6.1690     1.3360     0.1800 N.am  1 <1>  -0.5470 
 19 C       -7.2390     0.7920    -0.4920 C.2   1 <1>   0.7160 
 20 O       -7.0870    -0.1580    -1.2390 O.2   1 <1>  -0.5700 
 21 C       -8.5490     1.3710    -0.2740 C.2   1 <1>   0.2030 
 22 N       -8.8150     2.3660     0.5210 N.2   1 <1>  -0.4100 
 23 C       -9.7310     0.9620    -0.8720 C.2   1 <1>  -0.1500 
 24 O      -10.0960     2.6420     0.4880 O.3   1 <1>  -0.0190 
 25 C      -10.6420     1.7900    -0.3550 C.2   1 <1>  -0.0400 
 26 C      -12.1340     1.8690    -0.6010 C.3   1 <1>  -0.0600 
 27 H        0.4100    -2.4440     1.6480 H     1 <1>   0.0800 
 28 H        1.9720    -1.5230    -0.1230 H     1 <1>   0.0800 
 29 H        1.2780    -0.9140    -1.6020 H     1 <1>   0.0800 
 30 H       -2.1200     1.4850     2.2050 H     1 <1>   0.1500 
 31 H       -2.3320    -0.4690    -1.5630 H     1 <1>   0.1500 
 32 H       -0.9980    -4.1230    -0.4340 H     1 <1>   0.0800 
 33 H       -0.2350    -4.7090     1.0130 H     1 <1>   0.0800 
 34 H       -2.4920    -2.4310     0.7660 H     1 <1>   0.0800 
 35 H       -1.8030    -1.5250     2.0880 H     1 <1>   0.0800 
 36 H        2.2620    -3.0960    -1.9830 H     1 <1>   0.0800 
 37 H        0.5460    -3.1070    -2.2730 H     1 <1>   0.0800 
 38 H       -4.5100     1.9740     2.0890 H     1 <1>   0.1500 
 39 H       -4.7130     0.0180    -1.6920 H     1 <1>   0.1500 
 40 H        1.1600    -5.0990    -0.9820 H     1 <1>   0.0800 
 41 H        1.9570    -4.1100     0.2160 H     1 <1>   0.0800 
 42 H       -2.2380    -4.4940     2.0500 H     1 <1>   0.0800 
 43 H       -2.9940    -3.2990     3.0590 H     1 <1>   0.0800 
 44 H       -1.2990    -3.6550     3.2730 H     1 <1>   0.0800 
 45 H       -6.4610     2.0820     0.8130 H     1 <1>   0.3700 
 46 H       -9.8330     0.1590    -1.5790 H     1 <1>   0.1500 
 47 H      -12.4360     1.1170    -1.3070 H     1 <1>   0.0800 
 48 H      -12.3890     2.8370    -0.9910 H     1 <1>   0.0800 
 49 H      -12.6640     1.7150     0.3220 H     1 <1>   0.0800 
@<TRIPOS>BOND
  1   1   2  2   
  2   1   3  2   
  3   1   4  am  
  4   1   5  1   
  5   4   6  1   
  6   4   7  1   
  7   5   8  ar  
  8   5   9  ar  
  9   6  10  1   
 10   6  11  1   
 11   6  27  1   
 12   7  12  1   
 13   7  28  1   
 14   7  29  1   
 15   8  13  ar  
 16   8  30  1   
 17   9  14  ar  
 18   9  31  1   
 19  10  15  1   
 20  10  32  1   
 21  10  33  1   
 22  11  16  1   
 23  11  34  1   
 24  11  35  1   
 25  12  15  1   
 26  12  36  1   
 27  12  37  1   
 28  13  17  ar  
 29  13  38  1   
 30  14  17  ar  
 31  14  39  1   
 32  15  40  1   
 33  15  41  1   
 34  16  42  1   
 35  16  43  1   
 36  16  44  1   
 37  17  18  1   
 38  18  19  am  
 39  18  45  1   
 40  19  20  2   
 41  19  21  1   
 42  21  22  2   
 43  21  23  1   
 44  22  24  1   
 45  23  25  2   
 46  23  46  1   
 47  24  25  1   
 48  25  26  1   
 49  26  47  1   
 50  26  48  1   
 51  26  49  1   
@<TRIPOS>SUBSTRUCTURE
  1 ****  14 GROUP 4 **** **** 0

# MOE 2024.06 (io_trps.svl 2023.06)
