@<TRIPOS>MOLECULE
NONAME
32 33 1 0 0 
SMALL
USER_CHARGES


@<TRIPOS>ATOM
  1 O       -1.5490     0.3430    -2.0620 O.2   1 <1>  -0.5700 
  2 C       -2.1300     0.7940    -1.1030 C.2   1 <1>   0.5690 
  3 N       -2.7140     0.1250    -0.0480 N.am  1 <1>  -0.1150 
  4 C       -2.3220     2.2670    -0.8900 C.3   1 <1>  -0.0380 
  5 N       -3.2740     1.0220     0.8440 N.2   1 <1>  -0.5120 
  6 C       -2.7830    -1.2750     0.1550 C.ar  1 <1>   0.1170 
  7 C       -3.0810     2.1930     0.4190 C.2   1 <1>   0.3280 
  8 C       -3.8840    -1.8400     0.7930 C.ar  1 <1>  -0.1500 
  9 C       -1.7630    -2.1260    -0.2640 C.ar  1 <1>  -0.1500 
 10 C       -3.5270     3.4570     1.1140 C.3   1 <1>  -0.0380 
 11 C       -3.9680    -3.2050     1.0030 C.ar  1 <1>  -0.1500 
 12 C       -1.8420    -3.4920    -0.0580 C.ar  1 <1>  -0.1500 
 13 C       -4.4870     4.2030     0.2290 C.2   1 <1>   0.6590 
 14 C       -2.9460    -4.0330     0.5770 C.ar  1 <1>  -0.1500 
 15 O       -4.0890     4.9700    -0.6080 O.2   1 <1>  -0.5700 
 16 O       -5.7740     3.9540     0.4150 O.3   1 <1>  -0.4300 
 17 C       -6.7660     4.5780    -0.3660 C.3   1 <1>   0.1200 
 18 C       -8.1240     4.0510     0.0860 C.3   1 <1>  -0.2400 
 19 H       -2.9100     2.6900    -1.6820 H     1 <1>   0.0800 
 20 H       -1.3790     2.7670    -0.7820 H     1 <1>   0.0800 
 21 H       -4.6820    -1.2010     1.1280 H     1 <1>   0.1500 
 22 H       -0.8970    -1.7200    -0.7570 H     1 <1>   0.1500 
 23 H       -2.6750     4.0770     1.3200 H     1 <1>   0.0800 
 24 H       -4.0100     3.2150     2.0420 H     1 <1>   0.0800 
 25 H       -4.8280    -3.6210     1.4980 H     1 <1>   0.1500 
 26 H       -1.0440    -4.1330    -0.3910 H     1 <1>   0.1500 
 27 H       -3.0080    -5.0960     0.7380 H     1 <1>   0.1500 
 28 H       -6.5860     4.3420    -1.4010 H     1 <1>   0.0800 
 29 H       -6.6960     5.6430    -0.2210 H     1 <1>   0.0800 
 30 H       -8.1740     2.9860    -0.0540 H     1 <1>   0.0800 
 31 H       -8.9030     4.5090    -0.4950 H     1 <1>   0.0800 
 32 H       -8.2870     4.2860     1.1230 H     1 <1>   0.0800 
@<TRIPOS>BOND
  1   1   2  2   
  2   2   3  am  
  3   2   4  1   
  4   3   5  1   
  5   3   6  1   
  6   4   7  1   
  7   4  19  1   
  8   4  20  1   
  9   5   7  2   
 10   6   8  ar  
 11   6   9  ar  
 12   7  10  1   
 13   8  11  ar  
 14   8  21  1   
 15   9  12  ar  
 16   9  22  1   
 17  10  13  1   
 18  10  23  1   
 19  10  24  1   
 20  11  14  ar  
 21  11  25  1   
 22  12  14  ar  
 23  12  26  1   
 24  13  15  2   
 25  13  16  1   
 26  14  27  1   
 27  16  17  1   
 28  17  18  1   
 29  17  28  1   
 30  17  29  1   
 31  18  30  1   
 32  18  31  1   
 33  18  32  1   
@<TRIPOS>SUBSTRUCTURE
  1 ****   5 GROUP 4 **** **** 0

# MOE 2024.06 (io_trps.svl 2023.06)
