@<TRIPOS>MOLECULE
NONAME
34 35 1 0 0 
SMALL
USER_CHARGES


@<TRIPOS>ATOM
  1 O       -0.2190     0.4300     0.0960 O.3   1 <1>  -0.3630 
  2 C       -1.3900     1.0810     0.1150 C.ar  1 <1>   0.7020 
  3 C        1.0170     1.1050     0.0090 C.3   1 <1>   0.1200 
  4 N       -2.4430     0.3210     0.1730 N.ar  1 <1>  -0.6200 
  5 N       -1.3760     2.3940     0.0770 N.ar  1 <1>  -0.6200 
  6 C        2.1360     0.0630     0.0000 C.3   1 <1>  -0.1600 
  7 C       -3.5530     0.9900     0.1830 C.ar  1 <1>   0.7200 
  8 C       -2.5680     2.9560     0.0980 C.ar  1 <1>   0.6200 
  9 C        3.5140     0.7300    -0.0930 C.3   1 <1>  -0.1600 
 10 N       -3.6950     2.2830     0.1550 N.ar  1 <1>  -0.6200 
 11 N       -4.6740     0.2740     0.2430 N.pl3 1 <1>  -0.9000 
 12 C       -2.6380     4.4100     0.0560 C.ar  1 <1>   0.0000 
 13 C        4.6330    -0.3150    -0.1030 C.3   1 <1>  -0.2400 
 14 C       -1.6300     5.2080     0.6060 C.ar  1 <1>  -0.1500 
 15 C       -3.7170     5.0730    -0.5360 C.ar  1 <1>  -0.1500 
 16 C       -1.6940     6.5890     0.5660 C.ar  1 <1>  -0.1500 
 17 C       -3.7870     6.4540    -0.5780 C.ar  1 <1>  -0.1500 
 18 C       -2.7740     7.2160    -0.0260 C.ar  1 <1>  -0.1500 
 19 H        1.1090     1.7570     0.8610 H     1 <1>   0.0800 
 20 H        1.0250     1.6850    -0.8980 H     1 <1>   0.0800 
 21 H        1.9980    -0.5920    -0.8430 H     1 <1>   0.0800 
 22 H        2.0810    -0.5200     0.9030 H     1 <1>   0.0800 
 23 H        3.6540     1.3910     0.7460 H     1 <1>   0.0800 
 24 H        3.5720     1.3180    -0.9940 H     1 <1>   0.0800 
 25 H       -5.5400     0.7510     0.4810 H     1 <1>   0.4000 
 26 H       -4.5960    -0.7150     0.4670 H     1 <1>   0.4000 
 27 H        4.6090    -0.9010     0.8000 H     1 <1>   0.0800 
 28 H        5.5910     0.1710    -0.1680 H     1 <1>   0.0800 
 29 H        4.5260    -0.9740    -0.9460 H     1 <1>   0.0800 
 30 H       -0.7820     4.7400     1.0730 H     1 <1>   0.1500 
 31 H       -4.5150     4.4980    -0.9720 H     1 <1>   0.1500 
 32 H       -0.9030     7.1780     0.9980 H     1 <1>   0.1500 
 33 H       -4.6310     6.9360    -1.0410 H     1 <1>   0.1500 
 34 H       -2.8270     8.2910    -0.0580 H     1 <1>   0.1500 
@<TRIPOS>BOND
  1   1   2  1   
  2   1   3  1   
  3   2   4  ar  
  4   2   5  ar  
  5   3   6  1   
  6   3  19  1   
  7   3  20  1   
  8   4   7  ar  
  9   5   8  ar  
 10   6   9  1   
 11   6  21  1   
 12   6  22  1   
 13   7  10  ar  
 14   7  11  1   
 15   8  10  ar  
 16   8  12  1   
 17   9  13  1   
 18   9  23  1   
 19   9  24  1   
 20  11  25  1   
 21  11  26  1   
 22  12  14  ar  
 23  12  15  ar  
 24  13  27  1   
 25  13  28  1   
 26  13  29  1   
 27  14  16  ar  
 28  14  30  1   
 29  15  17  ar  
 30  15  31  1   
 31  16  18  ar  
 32  16  32  1   
 33  17  18  ar  
 34  17  33  1   
 35  18  34  1   
@<TRIPOS>SUBSTRUCTURE
  1 ****   5 GROUP 4 **** **** 0

# MOE 2024.06 (io_trps.svl 2023.06)
