@<TRIPOS>MOLECULE
NONAME
40 40 1 0 0 
SMALL
USER_CHARGES


@<TRIPOS>ATOM
  1 O       -1.0500    -0.3990    -1.8070 O.2   1 <1>  -0.5700 
  2 C       -1.9220    -1.0870    -1.3150 C.2   1 <1>   0.5440 
  3 N       -3.0800    -0.4460    -1.0020 N.am  1 <1>  -0.7300 
  4 C       -1.6990    -2.5050    -1.0850 C.ar  1 <1>   0.0860 
  5 C       -4.1280    -0.8640    -0.0440 C.3   1 <1>   0.1400 
  6 C       -2.7000    -3.4610    -1.2720 C.ar  1 <1>  -0.1500 
  7 C       -0.4460    -2.9690    -0.6810 C.ar  1 <1>  -0.1500 
  8 C       -4.5810     0.3510     0.7480 C.3   1 <1>  -0.2660 
  9 C       -2.4630    -4.8060    -1.0570 C.ar  1 <1>  -0.1500 
 10 C       -0.1980    -4.3120    -0.4660 C.ar  1 <1>  -0.1500 
 11 C       -5.6760    -0.0650     1.6870 C.2   1 <1>   0.9060 
 12 C       -1.2130    -5.2450    -0.6540 C.ar  1 <1>   0.0820 
 13 O       -5.4650    -0.0180     2.9000 O.co2 1 <1>  -0.9000 
 14 O       -6.7400    -0.4580     1.2010 O.co2 1 <1>  -0.9000 
 15 O       -1.0580    -6.5760    -0.4720 O.3   1 <1>  -0.3630 
 16 C        0.1790    -7.1330    -0.0890 C.3   1 <1>   0.1200 
 17 C        0.0090    -8.6510     0.0110 C.3   1 <1>  -0.1600 
 18 C        1.3300    -9.3860     0.3050 C.3   1 <1>  -0.0800 
 19 C        1.0980   -10.9000     0.2640 C.3   1 <1>  -0.2400 
 20 C        1.9160    -8.9960     1.6690 C.3   1 <1>  -0.2400 
 21 H       -3.0960     0.5490    -1.2290 H     1 <1>   0.3700 
 22 H       -3.7480    -1.6140     0.6300 H     1 <1>   0.0800 
 23 H       -4.9670    -1.2740    -0.5820 H     1 <1>   0.0800 
 24 H       -3.6750    -3.1410    -1.5950 H     1 <1>   0.1500 
 25 H        0.3430    -2.2500    -0.5390 H     1 <1>   0.1500 
 26 H       -4.9790     1.1040     0.0960 H     1 <1>   0.0800 
 27 H       -3.7700     0.7520     1.3240 H     1 <1>   0.0800 
 28 H       -3.2480    -5.5260    -1.2020 H     1 <1>   0.1500 
 29 H        0.7840    -4.6110    -0.1550 H     1 <1>   0.1500 
 30 H        0.4560    -6.7120     0.8610 H     1 <1>   0.0800 
 31 H        0.9090    -6.8820    -0.8390 H     1 <1>   0.0800 
 32 H       -0.3840    -9.0060    -0.9260 H     1 <1>   0.0800 
 33 H       -0.7070    -8.8730     0.7820 H     1 <1>   0.0800 
 34 H        2.0450    -9.1360    -0.4620 H     1 <1>   0.0800 
 35 H        0.3890   -11.1970     1.0170 H     1 <1>   0.0800 
 36 H        2.0210   -11.4250     0.4350 H     1 <1>   0.0800 
 37 H        0.7190   -11.1950    -0.6990 H     1 <1>   0.0800 
 38 H        1.2040    -9.1830     2.4540 H     1 <1>   0.0800 
 39 H        2.1880    -7.9560     1.6900 H     1 <1>   0.0800 
 40 H        2.8030    -9.5700     1.8690 H     1 <1>   0.0800 
@<TRIPOS>BOND
  1   1   2  2   
  2   2   3  am  
  3   2   4  1   
  4   3   5  1   
  5   3  21  1   
  6   4   6  ar  
  7   4   7  ar  
  8   5   8  1   
  9   5  22  1   
 10   5  23  1   
 11   6   9  ar  
 12   6  24  1   
 13   7  10  ar  
 14   7  25  1   
 15   8  11  1   
 16   8  26  1   
 17   8  27  1   
 18   9  12  ar  
 19   9  28  1   
 20  10  12  ar  
 21  10  29  1   
 22  11  13  ar  
 23  11  14  ar  
 24  12  15  1   
 25  15  16  1   
 26  16  17  1   
 27  16  30  1   
 28  16  31  1   
 29  17  18  1   
 30  17  32  1   
 31  17  33  1   
 32  18  19  1   
 33  18  20  1   
 34  18  34  1   
 35  19  35  1   
 36  19  36  1   
 37  19  37  1   
 38  20  38  1   
 39  20  39  1   
 40  20  40  1   
@<TRIPOS>SUBSTRUCTURE
  1 ****   9 GROUP 4 **** **** 0

# MOE 2024.06 (io_trps.svl 2023.06)
