@<TRIPOS>MOLECULE
NONAME
56 57 1 0 0 
SMALL
USER_CHARGES


@<TRIPOS>ATOM
  1 O       -5.9420    -1.7730     0.2800 O.3   1 <1>  -0.5600 
  2 C       -7.1630    -1.3050    -0.2000 C.3   1 <1>   0.2000 
  3 C       -5.2920    -2.7070    -0.5380 C.3   1 <1>   0.1200 
  4 C       -7.3810     0.0840     0.4080 C.3   1 <1>  -0.1600 
  5 C       -8.2740    -2.2760     0.2210 C.3   1 <1>  -0.1600 
  6 C       -3.9620    -3.1110     0.1140 C.3   1 <1>   0.2000 
  7 C       -8.7620     0.6790     0.0630 C.3   1 <1>   0.0000 
  8 C       -9.6620    -1.7320    -0.1510 C.3   1 <1>  -0.0800 
  9 O       -3.3510    -1.9440     0.5540 O.3   1 <1>  -0.6800 
 10 C       -3.0390    -3.8700    -0.8640 C.3   1 <1>   0.1100 
 11 C       -9.8730    -0.3250     0.4410 C.3   1 <1>  -0.1600 
 12 C       -8.8410     1.0460    -1.4300 C.3   1 <1>  -0.2400 
 13 C       -8.9630     1.9680     0.8740 C.3   1 <1>  -0.2400 
 14 C      -10.7570    -2.6860     0.3410 C.3   1 <1>  -0.2400 
 15 N       -1.9570    -4.6680    -0.2240 N.3   1 <1>  -0.8100 
 16 C       -1.0320    -3.8290     0.5740 C.3   1 <1>   0.1100 
 17 C       -1.2300    -5.4490    -1.2450 C.3   1 <1>   0.1100 
 18 C        0.1160    -4.6500     1.1920 C.3   1 <1>   0.3430 
 19 C       -0.0980    -6.2930    -0.6250 C.3   1 <1>   0.3430 
 20 N        0.8630    -5.4410     0.1550 N.4   1 <1>  -0.9590 
 21 C        1.9460    -6.2610     0.7720 C.3   1 <1>   0.2630 
 22 H       -7.1120    -1.2250    -1.2730 H     1 <1>   0.0800 
 23 H       -5.1100    -2.2530    -1.4980 H     1 <1>   0.0800 
 24 H       -5.9210    -3.5710    -0.6620 H     1 <1>   0.0800 
 25 H       -6.6060     0.7450     0.0640 H     1 <1>   0.0800 
 26 H       -7.2970    -0.0020     1.4770 H     1 <1>   0.0800 
 27 H       -8.2230    -2.4200     1.2870 H     1 <1>   0.0800 
 28 H       -8.1320    -3.2260    -0.2600 H     1 <1>   0.0800 
 29 H       -4.1710    -3.7270     0.9710 H     1 <1>   0.0800 
 30 H       -9.7340    -1.6750    -1.2230 H     1 <1>   0.0800 
 31 H       -4.0820    -1.3580     0.8610 H     1 <1>   0.4000 
 32 H       -2.6210    -3.1670    -1.5650 H     1 <1>   0.0800 
 33 H       -3.6580    -4.5530    -1.4210 H     1 <1>   0.0800 
 34 H      -10.8270     0.0570     0.1230 H     1 <1>   0.0800 
 35 H       -9.9060    -0.4130     1.5140 H     1 <1>   0.0800 
 36 H       -8.7030     0.1890    -2.0620 H     1 <1>   0.0800 
 37 H       -8.0820     1.7670    -1.6780 H     1 <1>   0.0800 
 38 H       -9.8000     1.4760    -1.6590 H     1 <1>   0.0800 
 39 H       -8.9150     1.7660     1.9290 H     1 <1>   0.0800 
 40 H       -9.9220     2.4060     0.6570 H     1 <1>   0.0800 
 41 H       -8.2000     2.6880     0.6340 H     1 <1>   0.0800 
 42 H      -10.7260    -2.7800     1.4120 H     1 <1>   0.0800 
 43 H      -10.6260    -3.6610    -0.0940 H     1 <1>   0.0800 
 44 H      -11.7270    -2.3170     0.0570 H     1 <1>   0.0800 
 45 H       -1.5710    -3.3770     1.3880 H     1 <1>   0.0800 
 46 H       -0.6320    -3.0350    -0.0340 H     1 <1>   0.0800 
 47 H       -0.8190    -4.7880    -1.9890 H     1 <1>   0.0800 
 48 H       -1.9210    -6.1120    -1.7380 H     1 <1>   0.0800 
 49 H       -0.3080    -5.3190     1.9230 H     1 <1>   0.0800 
 50 H        0.7890    -3.9830     1.7040 H     1 <1>   0.0800 
 51 H        0.4250    -6.8130    -1.4100 H     1 <1>   0.0800 
 52 H       -0.5420    -7.0290     0.0250 H     1 <1>   0.0800 
 53 H        1.2740    -4.7630    -0.5010 H     1 <1>   0.4500 
 54 H        1.5270    -6.9730     1.4650 H     1 <1>   0.0800 
 55 H        2.6380    -5.6280     1.3050 H     1 <1>   0.0800 
 56 H        2.4890    -6.7980     0.0120 H     1 <1>   0.0800 
@<TRIPOS>BOND
  1   1   2  1   
  2   1   3  1   
  3   2   4  1   
  4   2   5  1   
  5   2  22  1   
  6   3   6  1   
  7   3  23  1   
  8   3  24  1   
  9   4   7  1   
 10   4  25  1   
 11   4  26  1   
 12   5   8  1   
 13   5  27  1   
 14   5  28  1   
 15   6   9  1   
 16   6  10  1   
 17   6  29  1   
 18   7  11  1   
 19   7  12  1   
 20   7  13  1   
 21   8  11  1   
 22   8  14  1   
 23   8  30  1   
 24   9  31  1   
 25  10  15  1   
 26  10  32  1   
 27  10  33  1   
 28  11  34  1   
 29  11  35  1   
 30  12  36  1   
 31  12  37  1   
 32  12  38  1   
 33  13  39  1   
 34  13  40  1   
 35  13  41  1   
 36  14  42  1   
 37  14  43  1   
 38  14  44  1   
 39  15  16  1   
 40  15  17  1   
 41  16  18  1   
 42  16  45  1   
 43  16  46  1   
 44  17  19  1   
 45  17  47  1   
 46  17  48  1   
 47  18  20  1   
 48  18  49  1   
 49  18  50  1   
 50  19  20  1   
 51  19  51  1   
 52  19  52  1   
 53  20  21  1   
 54  20  53  1   
 55  21  54  1   
 56  21  55  1   
 57  21  56  1   
@<TRIPOS>SUBSTRUCTURE
  1 ****   3 GROUP 4 **** **** 0

# MOE 2024.06 (io_trps.svl 2023.06)
