@<TRIPOS>MOLECULE
NONAME
33 34 1 0 0 
SMALL
USER_CHARGES


@<TRIPOS>ATOM
  1 O       -1.7990     3.7730     1.5640 O.2   1 <1>  -0.5700 
  2 C       -1.3420     3.1250     0.6510 C.2   1 <1>   0.5690 
  3 N       -1.9220     1.9430     0.2550 N.am  1 <1>  -0.6600 
  4 C       -0.1050     3.6860    -0.0430 C.3   1 <1>   0.0440 
  5 C       -3.0880     1.3670     0.9910 C.3   1 <1>   0.1400 
  6 C       -1.4140     1.0470    -0.8280 C.3   1 <1>   0.1400 
  7 C        1.1140     2.7680     0.0210 C.ar  1 <1>  -0.1440 
  8 C       -4.1450     0.8320     0.0120 C.3   1 <1>   0.1200 
  9 C       -2.5690     0.5160    -1.6940 C.3   1 <1>   0.1200 
 10 C        1.8860     2.5490    -1.1120 C.ar  1 <1>  -0.1500 
 11 C        1.4610     2.1430     1.2080 C.ar  1 <1>  -0.1500 
 12 O       -3.5680    -0.0580    -0.9010 O.3   1 <1>  -0.5600 
 13 C        2.9850     1.7070    -1.0670 C.ar  1 <1>  -0.1440 
 14 C        2.5590     1.3030     1.2600 C.ar  1 <1>  -0.1500 
 15 C        3.3180     1.0850     0.1240 C.ar  1 <1>  -0.1500 
 16 C        3.8220     1.4740    -2.3120 C.3   1 <1>  -0.0970 
 17 H        0.1530     4.6200     0.4220 H     1 <1>   0.0800 
 18 H       -0.3630     3.8980    -1.0630 H     1 <1>   0.0800 
 19 H       -3.5410     2.1110     1.6240 H     1 <1>   0.0800 
 20 H       -2.7470     0.5630     1.6180 H     1 <1>   0.0800 
 21 H       -0.8930     0.2170    -0.3830 H     1 <1>   0.0800 
 22 H       -0.7230     1.5660    -1.4650 H     1 <1>   0.0800 
 23 H       -4.6000     1.6410    -0.5320 H     1 <1>   0.0800 
 24 H       -4.9110     0.3010     0.5490 H     1 <1>   0.0800 
 25 H       -2.2090    -0.2420    -2.3670 H     1 <1>   0.0800 
 26 H       -3.0050     1.3120    -2.2720 H     1 <1>   0.0800 
 27 H        1.6340     3.0380    -2.0360 H     1 <1>   0.1500 
 28 H        0.8780     2.3070     2.0990 H     1 <1>   0.1500 
 29 H        2.8220     0.8200     2.1840 H     1 <1>   0.1500 
 30 H        4.1710     0.4310     0.1740 H     1 <1>   0.1500 
 31 H        3.2100     1.5300    -3.1940 H     1 <1>   0.0800 
 32 H        4.2830     0.5030    -2.2800 H     1 <1>   0.0800 
 33 H        4.5920     2.2220    -2.3750 H     1 <1>   0.0800 
@<TRIPOS>BOND
  1   1   2  2   
  2   2   3  am  
  3   2   4  1   
  4   3   5  1   
  5   3   6  1   
  6   4   7  1   
  7   4  17  1   
  8   4  18  1   
  9   5   8  1   
 10   5  19  1   
 11   5  20  1   
 12   6   9  1   
 13   6  21  1   
 14   6  22  1   
 15   7  10  ar  
 16   7  11  ar  
 17   8  12  1   
 18   8  23  1   
 19   8  24  1   
 20   9  12  1   
 21   9  25  1   
 22   9  26  1   
 23  10  13  ar  
 24  10  27  1   
 25  11  14  ar  
 26  11  28  1   
 27  13  15  ar  
 28  13  16  1   
 29  14  15  ar  
 30  14  29  1   
 31  15  30  1   
 32  16  31  1   
 33  16  32  1   
 34  16  33  1   
@<TRIPOS>SUBSTRUCTURE
  1 ****   7 GROUP 4 **** **** 0

# MOE 2024.06 (io_trps.svl 2023.06)
