@<TRIPOS>MOLECULE
NONAME
45 46 1 0 0 
SMALL
USER_CHARGES


@<TRIPOS>ATOM
  1 O       -2.2240     1.1030    -1.7190 O.2   1 <1>  -0.5700 
  2 C       -1.9950     1.6870    -0.6870 C.2   1 <1>   0.6590 
  3 O       -1.8940     1.0450     0.4750 O.3   1 <1>  -0.4300 
  4 C       -1.7820     3.2160    -0.6710 C.3   1 <1>   0.2510 
  5 C       -1.9720    -0.3570     0.5890 C.3   1 <1>   0.1200 
  6 N       -0.3990     3.6590    -0.2990 N.3   1 <1>  -0.8100 
  7 C       -2.8050     3.8840     0.2680 C.3   1 <1>  -0.1600 
  8 C       -0.5890    -0.9470     0.3240 C.3   1 <1>  -0.2400 
  9 C       -0.2560     5.1240    -0.3890 C.3   1 <1>   0.1100 
 10 C        0.6260     2.9780    -1.1190 C.3   1 <1>   0.2530 
 11 C       -2.6860     5.4120     0.2520 C.3   1 <1>  -0.1600 
 12 C       -1.2410     5.8170     0.5560 C.3   1 <1>  -0.1600 
 13 C        2.0380     3.3020    -0.6460 C.ar  1 <1>  -0.1430 
 14 C        2.9870     3.7900    -1.5310 C.ar  1 <1>  -0.1500 
 15 C        2.3900     3.1050     0.6800 C.ar  1 <1>  -0.1500 
 16 C        4.2690     4.0770    -1.0940 C.ar  1 <1>  -0.1500 
 17 C        3.6710     3.3920     1.1170 C.ar  1 <1>  -0.1500 
 18 C        4.6190     3.8810     0.2330 C.ar  1 <1>  -0.1430 
 19 C        6.0260     4.1980     0.7120 C.3   1 <1>  -0.0170 
 20 C        6.9320     2.9730     0.5680 C.3   1 <1>  -0.2400 
 21 H       -1.9800     3.5590    -1.6710 H     1 <1>   0.0800 
 22 H       -2.7030    -0.7310    -0.1080 H     1 <1>   0.0800 
 23 H       -2.2920    -0.5840     1.5910 H     1 <1>   0.0800 
 24 H       -2.6450     3.5230     1.2690 H     1 <1>   0.0800 
 25 H       -3.7990     3.6010    -0.0290 H     1 <1>   0.0800 
 26 H       -0.2820    -0.7390    -0.6860 H     1 <1>   0.0800 
 27 H       -0.6180    -2.0130     0.4560 H     1 <1>   0.0800 
 28 H        0.1290    -0.5340     1.0110 H     1 <1>   0.0800 
 29 H       -0.4270     5.4480    -1.4020 H     1 <1>   0.0800 
 30 H        0.7420     5.4150    -0.1060 H     1 <1>   0.0800 
 31 H        0.5080     3.2570    -2.1520 H     1 <1>   0.0800 
 32 H        0.5060     1.9110    -1.0470 H     1 <1>   0.0800 
 33 H       -3.3480     5.8400     0.9850 H     1 <1>   0.0800 
 34 H       -2.9680     5.7870    -0.7170 H     1 <1>   0.0800 
 35 H       -1.1340     6.8830     0.4610 H     1 <1>   0.0800 
 36 H       -0.9900     5.5500     1.5680 H     1 <1>   0.0800 
 37 H        2.7340     3.9480    -2.5640 H     1 <1>   0.1500 
 38 H        1.6550     2.7330     1.3730 H     1 <1>   0.1500 
 39 H        4.9950     4.4530    -1.7920 H     1 <1>   0.1500 
 40 H        3.9250     3.2330     2.1500 H     1 <1>   0.1500 
 41 H        5.9970     4.5060     1.7430 H     1 <1>   0.0800 
 42 H        6.4290     5.0150     0.1390 H     1 <1>   0.0800 
 43 H        6.5450     2.1570     1.1510 H     1 <1>   0.0800 
 44 H        7.9250     3.2040     0.9080 H     1 <1>   0.0800 
 45 H        6.9790     2.6680    -0.4630 H     1 <1>   0.0800 
@<TRIPOS>BOND
  1   1   2  2   
  2   2   3  1   
  3   2   4  1   
  4   3   5  1   
  5   4   6  1   
  6   4   7  1   
  7   4  21  1   
  8   5   8  1   
  9   5  22  1   
 10   5  23  1   
 11   6   9  1   
 12   6  10  1   
 13   7  11  1   
 14   7  24  1   
 15   7  25  1   
 16   8  26  1   
 17   8  27  1   
 18   8  28  1   
 19   9  12  1   
 20   9  29  1   
 21   9  30  1   
 22  10  13  1   
 23  10  31  1   
 24  10  32  1   
 25  11  12  1   
 26  11  33  1   
 27  11  34  1   
 28  12  35  1   
 29  12  36  1   
 30  13  14  ar  
 31  13  15  ar  
 32  14  16  ar  
 33  14  37  1   
 34  15  17  ar  
 35  15  38  1   
 36  16  18  ar  
 37  16  39  1   
 38  17  18  ar  
 39  17  40  1   
 40  18  19  1   
 41  19  20  1   
 42  19  41  1   
 43  19  42  1   
 44  20  43  1   
 45  20  44  1   
 46  20  45  1   
@<TRIPOS>SUBSTRUCTURE
  1 ****  10 GROUP 4 **** **** 0

# MOE 2024.06 (io_trps.svl 2023.06)
