@<TRIPOS>MOLECULE
NONAME
48 50 1 0 0 
SMALL
USER_CHARGES


@<TRIPOS>ATOM
  1 S       -0.9850    -1.1360     0.7880 S.3   1 <1>  -0.0800 
  2 C       -0.8380     0.6080     0.6300 C.2   1 <1>   0.1040 
  3 C       -2.6190    -1.1060     0.1750 C.2   1 <1>  -0.1400 
  4 N        0.3410     1.2400     1.0060 N.am  1 <1>  -0.4940 
  5 C       -2.0050     1.1600     0.1600 C.2   1 <1>  -0.0860 
  6 C       -3.0020     0.1440    -0.1260 C.2   1 <1>  -0.1810 
  7 C       -3.3950    -2.3980     0.0460 C.3   1 <1>   0.0200 
  8 C        1.6090     0.8460     1.3340 C.2   1 <1>   0.5690 
  9 C       -2.1840     2.5850     0.0120 C.2   1 <1>   0.8060 
 10 C       -4.3920     0.3880    -0.7120 C.3   1 <1>   0.0210 
 11 C       -4.8810    -2.0700    -0.1750 C.3   1 <1>  -0.1600 
 12 O        2.3540     1.6620     1.8180 O.2   1 <1>  -0.5700 
 13 C        2.1000    -0.5890     1.1100 C.3   1 <1>   0.1810 
 14 O       -1.3060     3.3890     0.2760 O.2   1 <1>  -0.5700 
 15 O       -3.3620     3.0610    -0.4120 O.3   1 <1>  -0.4300 
 16 C       -5.0600    -0.9200    -1.1830 C.3   1 <1>  -0.1600 
 17 O        3.5170    -0.6660     1.0030 O.3   1 <1>  -0.4300 
 18 C       -3.6420     4.4400    -0.5360 C.3   1 <1>   0.1200 
 19 C        4.1570    -0.2320    -0.0870 C.2   1 <1>   0.6340 
 20 C       -4.1000     4.9750     0.8200 C.3   1 <1>  -0.2400 
 21 O        3.5010     0.1040    -1.0520 O.2   1 <1>  -0.5700 
 22 C        5.6080    -0.1990    -0.0580 C.ar  1 <1>   0.0860 
 23 C        6.3430     0.0980    -1.2090 C.ar  1 <1>  -0.1500 
 24 C        6.3340    -0.4600     1.1080 C.ar  1 <1>  -0.1500 
 25 C        7.7250     0.1280    -1.2010 C.ar  1 <1>  -0.1500 
 26 C        7.7170    -0.4320     1.1230 C.ar  1 <1>  -0.1500 
 27 C        8.4160    -0.1380    -0.0330 C.ar  1 <1>  -0.1500 
 28 H        0.2670     2.2650     1.0410 H     1 <1>   0.3700 
 29 H       -3.2810    -2.9910     0.9370 H     1 <1>   0.0800 
 30 H       -3.0090    -2.9550    -0.7890 H     1 <1>   0.0800 
 31 H       -4.3250     1.0490    -1.5580 H     1 <1>   0.0800 
 32 H       -5.0050     0.8570     0.0380 H     1 <1>   0.0800 
 33 H       -5.3180    -1.7790     0.7650 H     1 <1>   0.0800 
 34 H       -5.3960    -2.9500    -0.5210 H     1 <1>   0.0800 
 35 H        1.6780    -0.9920     0.2080 H     1 <1>   0.0800 
 36 H        1.8050    -1.1970     1.9430 H     1 <1>   0.0800 
 37 H       -4.6220    -1.2130    -2.1220 H     1 <1>   0.0800 
 38 H       -6.1080    -0.7430    -1.3530 H     1 <1>   0.0800 
 39 H       -4.4280     4.5470    -1.2630 H     1 <1>   0.0800 
 40 H       -2.7660     4.9560    -0.8920 H     1 <1>   0.0800 
 41 H       -4.9660     4.4380     1.1600 H     1 <1>   0.0800 
 42 H       -4.3560     6.0150     0.7290 H     1 <1>   0.0800 
 43 H       -3.3100     4.8860     1.5450 H     1 <1>   0.0800 
 44 H        5.8160     0.3090    -2.1240 H     1 <1>   0.1500 
 45 H        5.8070    -0.6850     2.0190 H     1 <1>   0.1500 
 46 H        8.2640     0.3590    -2.1040 H     1 <1>   0.1500 
 47 H        8.2510    -0.6360     2.0350 H     1 <1>   0.1500 
 48 H        9.4920    -0.1150    -0.0240 H     1 <1>   0.1500 
@<TRIPOS>BOND
  1   1   2  1   
  2   1   3  1   
  3   2   4  1   
  4   2   5  2   
  5   3   6  2   
  6   3   7  1   
  7   4   8  am  
  8   4  28  1   
  9   5   6  1   
 10   5   9  1   
 11   6  10  1   
 12   7  11  1   
 13   7  29  1   
 14   7  30  1   
 15   8  12  2   
 16   8  13  1   
 17   9  14  2   
 18   9  15  1   
 19  10  16  1   
 20  10  31  1   
 21  10  32  1   
 22  11  16  1   
 23  11  33  1   
 24  11  34  1   
 25  13  17  1   
 26  13  35  1   
 27  13  36  1   
 28  15  18  1   
 29  16  37  1   
 30  16  38  1   
 31  17  19  1   
 32  18  20  1   
 33  18  39  1   
 34  18  40  1   
 35  19  21  2   
 36  19  22  1   
 37  20  41  1   
 38  20  42  1   
 39  20  43  1   
 40  22  23  ar  
 41  22  24  ar  
 42  23  25  ar  
 43  23  44  1   
 44  24  26  ar  
 45  24  45  1   
 46  25  27  ar  
 47  25  46  1   
 48  26  27  ar  
 49  26  47  1   
 50  27  48  1   
@<TRIPOS>SUBSTRUCTURE
  1 ****   4 GROUP 4 **** **** 0

# MOE 2024.06 (io_trps.svl 2023.06)
