@<TRIPOS>MOLECULE
NONAME
49 50 1 0 0 
SMALL
USER_CHARGES


@<TRIPOS>ATOM
  1 O       -3.6530     2.7680    -0.2840 O.3   1 <1>  -0.5600 
  2 C       -4.3300     1.8130     0.4900 C.3   1 <1>   0.2000 
  3 C       -3.7560     4.1150     0.1030 C.3   1 <1>   0.2000 
  4 C       -5.8550     2.1090     0.5070 C.3   1 <1>   0.3430 
  5 C       -3.7030     1.7440     1.8880 C.3   1 <1>  -0.2400 
  6 C       -5.1960     4.4710     0.5600 C.3   1 <1>   0.3430 
  7 C       -3.3300     4.9350    -1.1130 C.3   1 <1>  -0.2400 
  8 N       -6.1890     3.4930     0.0060 N.4   1 <1>  -0.9590 
  9 C       -7.6050     3.9120     0.2670 C.3   1 <1>   0.3430 
 10 C       -8.6240     3.0730    -0.5110 C.3   1 <1>   0.1200 
 11 O       -9.9030     3.5450    -0.1660 O.3   1 <1>  -0.3630 
 12 C      -11.0260     2.9760    -0.6730 C.ar  1 <1>   0.0820 
 13 C      -12.2350     3.4650    -0.2050 C.ar  1 <1>  -0.1500 
 14 C      -11.0140     1.9500    -1.6150 C.ar  1 <1>  -0.1500 
 15 C      -13.4360     2.9350    -0.6670 C.ar  1 <1>   0.0820 
 16 C      -12.2070     1.4220    -2.0760 C.ar  1 <1>  -0.1500 
 17 O      -14.6640     3.3480    -0.2600 O.3   1 <1>  -0.3630 
 18 C      -13.4100     1.9130    -1.6020 C.ar  1 <1>  -0.1500 
 19 C      -14.8650     4.4130     0.6410 C.3   1 <1>   0.2000 
 20 C      -16.2630     4.2420     1.2300 C.3   1 <1>  -0.2400 
 21 C      -14.7480     5.7360    -0.1200 C.3   1 <1>  -0.2400 
 22 H       -4.1720     0.8620     0.0090 H     1 <1>   0.0800 
 23 H       -3.0600     4.2920     0.9070 H     1 <1>   0.0800 
 24 H       -6.2150     1.9840     1.5150 H     1 <1>   0.0800 
 25 H       -6.3520     1.3730    -0.1020 H     1 <1>   0.0800 
 26 H       -3.8870     2.6340     2.4610 H     1 <1>   0.0800 
 27 H       -2.6410     1.5890     1.8020 H     1 <1>   0.0800 
 28 H       -4.1130     0.9090     2.4290 H     1 <1>   0.0800 
 29 H       -5.4300     5.4730     0.2410 H     1 <1>   0.0800 
 30 H       -5.2320     4.4550     1.6370 H     1 <1>   0.0800 
 31 H       -3.9840     4.7560    -1.9470 H     1 <1>   0.0800 
 32 H       -2.3250     4.6700    -1.3940 H     1 <1>   0.0800 
 33 H       -3.3430     5.9850    -0.8810 H     1 <1>   0.0800 
 34 H       -6.0020     3.4790    -1.0080 H     1 <1>   0.4500 
 35 H       -7.7310     4.9420    -0.0220 H     1 <1>   0.0800 
 36 H       -7.8170     3.8270     1.3200 H     1 <1>   0.0800 
 37 H       -8.5700     2.0360    -0.2350 H     1 <1>   0.0800 
 38 H       -8.4960     3.2000    -1.5720 H     1 <1>   0.0800 
 39 H      -12.2140     4.2560     0.5160 H     1 <1>   0.1500 
 40 H      -10.1000     1.5470    -2.0060 H     1 <1>   0.1500 
 41 H      -12.2060     0.6290    -2.8040 H     1 <1>   0.1500 
 42 H      -14.3410     1.5070    -1.9550 H     1 <1>   0.1500 
 43 H      -14.1400     4.3450     1.4330 H     1 <1>   0.0800 
 44 H      -17.0040     4.2720     0.4510 H     1 <1>   0.0800 
 45 H      -16.4670     5.0300     1.9310 H     1 <1>   0.0800 
 46 H      -16.3290     3.3020     1.7460 H     1 <1>   0.0800 
 47 H      -15.4760     5.7740    -0.9110 H     1 <1>   0.0800 
 48 H      -13.7660     5.8460    -0.5410 H     1 <1>   0.0800 
 49 H      -14.9230     6.5600     0.5470 H     1 <1>   0.0800 
@<TRIPOS>BOND
  1   1   2  1   
  2   1   3  1   
  3   2   4  1   
  4   2   5  1   
  5   2  22  1   
  6   3   6  1   
  7   3   7  1   
  8   3  23  1   
  9   4   8  1   
 10   4  24  1   
 11   4  25  1   
 12   5  26  1   
 13   5  27  1   
 14   5  28  1   
 15   6   8  1   
 16   6  29  1   
 17   6  30  1   
 18   7  31  1   
 19   7  32  1   
 20   7  33  1   
 21   8   9  1   
 22   8  34  1   
 23   9  10  1   
 24   9  35  1   
 25   9  36  1   
 26  10  11  1   
 27  10  37  1   
 28  10  38  1   
 29  11  12  1   
 30  12  13  ar  
 31  12  14  ar  
 32  13  15  ar  
 33  13  39  1   
 34  14  16  ar  
 35  14  40  1   
 36  15  17  1   
 37  15  18  ar  
 38  16  18  ar  
 39  16  41  1   
 40  17  19  1   
 41  18  42  1   
 42  19  20  1   
 43  19  21  1   
 44  19  43  1   
 45  20  44  1   
 46  20  45  1   
 47  20  46  1   
 48  21  47  1   
 49  21  48  1   
 50  21  49  1   
@<TRIPOS>SUBSTRUCTURE
  1 ****  11 GROUP 4 **** **** 0

# MOE 2024.06 (io_trps.svl 2023.06)
