@<TRIPOS>MOLECULE
NONAME
38 38 1 0 0 
SMALL
USER_CHARGES


@<TRIPOS>ATOM
  1 O        0.9970     1.4740     0.5200 O.2   1 <1>  -0.5700 
  2 C        0.4820     2.2000    -0.3090 C.2   1 <1>   0.5440 
  3 N        1.2320     2.5310    -1.4060 N.am  1 <1>  -0.7300 
  4 C       -0.8690     2.7030    -0.1370 C.ar  1 <1>   0.0860 
  5 C        2.4830     1.8470    -1.8570 C.3   1 <1>   0.1400 
  6 C       -1.8050     1.9960     0.6210 C.ar  1 <1>  -0.1500 
  7 C       -1.2950     3.9030    -0.7150 C.ar  1 <1>  -0.1500 
  8 C        3.7390     2.3480    -1.1110 C.3   1 <1>   0.3430 
  9 C       -3.1010     2.4480     0.7890 C.ar  1 <1>  -0.1500 
 10 C       -2.5890     4.3610    -0.5530 C.ar  1 <1>  -0.1500 
 11 N        3.6880     2.0120     0.3440 N.4   1 <1>  -0.9590 
 12 C       -3.5040     3.6400     0.1960 C.ar  1 <1>   0.0830 
 13 C        4.3820     3.0220     1.1930 C.3   1 <1>   0.2630 
 14 C        4.1550     0.6240     0.6340 C.3   1 <1>   0.2630 
 15 O       -4.7490     4.1550     0.3020 O.3   1 <1>  -0.3630 
 16 C       -5.7600     3.5120     1.0420 C.3   1 <1>   0.1200 
 17 C       -7.0250     4.3610     0.9520 C.3   1 <1>  -0.2400 
 18 H        0.7460     3.0530    -2.1430 H     1 <1>   0.3700 
 19 H        2.6110     2.0290    -2.9100 H     1 <1>   0.0800 
 20 H        2.3800     0.7840    -1.7230 H     1 <1>   0.0800 
 21 H       -1.5070     1.0720     1.0870 H     1 <1>   0.1500 
 22 H       -0.6110     4.4970    -1.2930 H     1 <1>   0.1500 
 23 H        3.7960     3.4170    -1.2360 H     1 <1>   0.0800 
 24 H        4.6210     1.9150    -1.5520 H     1 <1>   0.0800 
 25 H       -3.7810     1.8640     1.3800 H     1 <1>   0.1500 
 26 H       -2.9050     5.2850    -1.0040 H     1 <1>   0.1500 
 27 H        2.6690     2.0210     0.5870 H     1 <1>   0.4500 
 28 H        5.4360     3.0430     0.9660 H     1 <1>   0.0800 
 29 H        4.2570     2.7790     2.2360 H     1 <1>   0.0800 
 30 H        3.9680     4.0010     1.0190 H     1 <1>   0.0800 
 31 H        5.1940     0.5120     0.3720 H     1 <1>   0.0800 
 32 H        3.5720    -0.0880     0.0730 H     1 <1>   0.0800 
 33 H        4.0350     0.4050     1.6830 H     1 <1>   0.0800 
 34 H       -5.4320     3.4250     2.0640 H     1 <1>   0.0800 
 35 H       -5.9260     2.5370     0.6180 H     1 <1>   0.0800 
 36 H       -6.8430     5.3380     1.3640 H     1 <1>   0.0800 
 37 H       -7.8170     3.8960     1.5090 H     1 <1>   0.0800 
 38 H       -7.3340     4.4560    -0.0730 H     1 <1>   0.0800 
@<TRIPOS>BOND
  1   1   2  2   
  2   2   3  am  
  3   2   4  1   
  4   3   5  1   
  5   3  18  1   
  6   4   6  ar  
  7   4   7  ar  
  8   5   8  1   
  9   5  19  1   
 10   5  20  1   
 11   6   9  ar  
 12   6  21  1   
 13   7  10  ar  
 14   7  22  1   
 15   8  11  1   
 16   8  23  1   
 17   8  24  1   
 18   9  12  ar  
 19   9  25  1   
 20  10  12  ar  
 21  10  26  1   
 22  11  13  1   
 23  11  14  1   
 24  11  27  1   
 25  12  15  1   
 26  13  28  1   
 27  13  29  1   
 28  13  30  1   
 29  14  31  1   
 30  14  32  1   
 31  14  33  1   
 32  15  16  1   
 33  16  17  1   
 34  16  34  1   
 35  16  35  1   
 36  17  36  1   
 37  17  37  1   
 38  17  38  1   
@<TRIPOS>SUBSTRUCTURE
  1 ****   4 GROUP 4 **** **** 0

# MOE 2024.06 (io_trps.svl 2023.06)
