@<TRIPOS>MOLECULE
NONAME
48 51 1 0 0 
SMALL
USER_CHARGES


@<TRIPOS>ATOM
  1 O       -0.0760     0.3570    -1.9660 O.2   1 <1>  -0.5700 
  2 C        0.8780     0.8500    -1.4110 C.2   1 <1>   0.4950 
  3 C        0.9170     2.1690    -0.8680 C.2   1 <1>  -0.1240 
  4 C        2.1270    -0.0010    -1.2930 C.3   1 <1>  -0.0990 
  5 C        2.0360     2.7720    -0.3840 C.2   1 <1>  -0.0380 
  6 C       -0.4240     2.8940    -0.8300 C.3   1 <1>   0.3400 
  7 C        3.3880     0.8610    -1.4230 C.3   1 <1>  -0.1600 
  8 N        2.0110     4.0640     0.1480 N.pl3 1 <1>  -0.5690 
  9 C        3.3760     2.0280    -0.4250 C.3   1 <1>  -0.0220 
 10 C       -0.2620     4.3910    -0.5920 C.2   1 <1>  -0.1240 
 11 C       -1.2970     2.2930     0.2770 C.ar  1 <1>  -0.1440 
 12 C        0.9150     4.8870    -0.1200 C.2   1 <1>  -0.0380 
 13 C        3.0500     4.4900     1.1480 C.3   1 <1>   0.2090 
 14 C       -1.4180     5.1780    -0.8720 C.2   1 <1>   0.4950 
 15 C       -0.8880     2.3450     1.6040 C.ar  1 <1>  -0.1500 
 16 C       -2.5080     1.6890    -0.0340 C.ar  1 <1>  -0.1500 
 17 C        1.0600     6.3940     0.1180 C.3   1 <1>  -0.0220 
 18 C        2.6000     4.0780     2.5470 C.3   1 <1>  -0.2400 
 19 O       -2.4180     4.7720    -1.4160 O.2   1 <1>  -0.5700 
 20 C       -1.3950     6.6390    -0.4660 C.3   1 <1>  -0.0990 
 21 C       -1.6750     1.8030     2.6040 C.ar  1 <1>  -0.1500 
 22 C       -3.3000     1.1450     0.9620 C.ar  1 <1>  -0.1500 
 23 C        0.0110     7.2280    -0.6300 C.3   1 <1>  -0.1600 
 24 C       -2.8790     1.2050     2.2800 C.ar  1 <1>   0.0820 
 25 O       -3.6370     0.6810     3.2540 O.3   1 <1>  -0.5330 
 26 H        2.1190    -0.7510    -2.0640 H     1 <1>   0.0800 
 27 H        2.1110    -0.4970    -0.3400 H     1 <1>   0.0800 
 28 H       -0.9000     2.7610    -1.7870 H     1 <1>   0.0800 
 29 H        3.4280     1.2620    -2.4220 H     1 <1>   0.0800 
 30 H        4.2660     0.2580    -1.2730 H     1 <1>   0.0800 
 31 H        3.5990     1.6600     0.5600 H     1 <1>   0.0800 
 32 H        4.1560     2.7050    -0.7230 H     1 <1>   0.0800 
 33 H        3.2040     5.5510     1.1210 H     1 <1>   0.0800 
 34 H        4.0020     4.0460     0.9340 H     1 <1>   0.0800 
 35 H        0.0480     2.8100     1.8570 H     1 <1>   0.1500 
 36 H       -2.8370     1.6430    -1.0590 H     1 <1>   0.1500 
 37 H        2.0250     6.7230    -0.2230 H     1 <1>   0.0800 
 38 H        0.9860     6.5870     1.1740 H     1 <1>   0.0800 
 39 H        1.6660     4.5510     2.7910 H     1 <1>   0.0800 
 40 H        3.3370     4.3780     3.2700 H     1 <1>   0.0800 
 41 H        2.4830     3.0100     2.5990 H     1 <1>   0.0800 
 42 H       -1.7120     6.7120     0.5580 H     1 <1>   0.0800 
 43 H       -2.0920     7.1870    -1.0750 H     1 <1>   0.0800 
 44 H       -1.3630     1.8410     3.6310 H     1 <1>   0.1500 
 45 H       -4.2340     0.6820     0.7030 H     1 <1>   0.1500 
 46 H        0.2590     7.2350    -1.6780 H     1 <1>   0.0800 
 47 H        0.0290     8.2450    -0.2780 H     1 <1>   0.0800 
 48 H       -4.4600     0.2870     2.9160 H     1 <1>   0.4500 
@<TRIPOS>BOND
  1   1   2  2   
  2   2   3  1   
  3   2   4  1   
  4   3   5  2   
  5   3   6  1   
  6   4   7  1   
  7   4  26  1   
  8   4  27  1   
  9   5   8  1   
 10   5   9  1   
 11   6  10  1   
 12   6  11  1   
 13   6  28  1   
 14   7   9  1   
 15   7  29  1   
 16   7  30  1   
 17   8  12  1   
 18   8  13  1   
 19   9  31  1   
 20   9  32  1   
 21  10  12  2   
 22  10  14  1   
 23  11  15  ar  
 24  11  16  ar  
 25  12  17  1   
 26  13  18  1   
 27  13  33  1   
 28  13  34  1   
 29  14  19  2   
 30  14  20  1   
 31  15  21  ar  
 32  15  35  1   
 33  16  22  ar  
 34  16  36  1   
 35  17  23  1   
 36  17  37  1   
 37  17  38  1   
 38  18  39  1   
 39  18  40  1   
 40  18  41  1   
 41  20  23  1   
 42  20  42  1   
 43  20  43  1   
 44  21  24  ar  
 45  21  44  1   
 46  22  24  ar  
 47  22  45  1   
 48  23  46  1   
 49  23  47  1   
 50  24  25  1   
 51  25  48  1   
@<TRIPOS>SUBSTRUCTURE
  1 ****   6 GROUP 4 **** **** 0

# MOE 2024.06 (io_trps.svl 2023.06)
