@<TRIPOS>MOLECULE
NONAME
38 39 1 0 0 
SMALL
USER_CHARGES


@<TRIPOS>ATOM
  1 O       -8.0970     0.7080     0.2550 O.3   1 <1>  -0.3630 
  2 C       -6.8840     1.2530    -0.0010 C.ar  1 <1>   0.0830 
  3 C       -9.2930     1.4080    -0.0070 C.3   1 <1>   0.1200 
  4 C       -6.7010     2.5150    -0.5580 C.ar  1 <1>  -0.1500 
  5 C       -5.7750     0.4870     0.3190 C.ar  1 <1>  -0.1500 
  6 C      -10.4640     0.4980     0.3730 C.3   1 <1>   0.1100 
  7 C       -5.4210     2.9920    -0.7850 C.ar  1 <1>  -0.1500 
  8 C       -4.4990     0.9690     0.0900 C.ar  1 <1>  -0.1500 
  9 N      -11.7690     1.1510     0.1310 N.3   1 <1>  -0.8100 
 10 C       -4.3020     2.2290    -0.4660 C.ar  1 <1>   0.0730 
 11 C      -12.8510     0.1370     0.0660 C.3   1 <1>   0.1100 
 12 C      -12.0890     2.1700     1.1660 C.3   1 <1>   0.1100 
 13 C       -2.9790     2.7290    -0.7040 C.1   1 <1>   0.4840 
 14 C      -14.2450     0.7640    -0.1900 C.3   1 <1>   0.3430 
 15 C      -13.4910     2.8020     0.9730 C.3   1 <1>   0.3430 
 16 N       -1.9280     3.1290    -0.8940 N.1   1 <1>  -0.5570 
 17 N      -14.1670     2.2610    -0.2520 N.4   1 <1>  -0.9590 
 18 C      -15.4760     2.9110    -0.5480 C.3   1 <1>   0.2630 
 19 H       -9.3270     1.6400    -1.0560 H     1 <1>   0.0800 
 20 H       -9.2870     2.3040     0.5860 H     1 <1>   0.0800 
 21 H       -7.5360     3.1370    -0.8210 H     1 <1>   0.1500 
 22 H       -5.9200    -0.4890     0.7480 H     1 <1>   0.1500 
 23 H      -10.3790     0.2090     1.4070 H     1 <1>   0.0800 
 24 H      -10.3910    -0.3880    -0.2360 H     1 <1>   0.0800 
 25 H       -5.2890     3.9690    -1.2160 H     1 <1>   0.1500 
 26 H       -3.6490     0.3590     0.3450 H     1 <1>   0.1500 
 27 H      -12.8810    -0.4230     0.9860 H     1 <1>   0.0800 
 28 H      -12.6380    -0.5610    -0.7270 H     1 <1>   0.0800 
 29 H      -11.3560     2.9570     1.1350 H     1 <1>   0.0800 
 30 H      -12.0400     1.7250     2.1460 H     1 <1>   0.0800 
 31 H      -14.9170     0.4610     0.5960 H     1 <1>   0.0800 
 32 H      -14.6330     0.3790    -1.1180 H     1 <1>   0.0800 
 33 H      -13.3840     3.8710     0.8920 H     1 <1>   0.0800 
 34 H      -14.0920     2.5980     1.8430 H     1 <1>   0.0800 
 35 H      -13.4870     2.4390    -1.0100 H     1 <1>   0.4500 
 36 H      -16.1780     2.7180     0.2460 H     1 <1>   0.0800 
 37 H      -15.8830     2.5280    -1.4700 H     1 <1>   0.0800 
 38 H      -15.3490     3.9770    -0.6470 H     1 <1>   0.0800 
@<TRIPOS>BOND
  1   1   2  1   
  2   1   3  1   
  3   2   4  ar  
  4   2   5  ar  
  5   3   6  1   
  6   3  19  1   
  7   3  20  1   
  8   4   7  ar  
  9   4  21  1   
 10   5   8  ar  
 11   5  22  1   
 12   6   9  1   
 13   6  23  1   
 14   6  24  1   
 15   7  10  ar  
 16   7  25  1   
 17   8  10  ar  
 18   8  26  1   
 19   9  11  1   
 20   9  12  1   
 21  10  13  1   
 22  11  14  1   
 23  11  27  1   
 24  11  28  1   
 25  12  15  1   
 26  12  29  1   
 27  12  30  1   
 28  13  16  3   
 29  14  17  1   
 30  14  31  1   
 31  14  32  1   
 32  15  17  1   
 33  15  33  1   
 34  15  34  1   
 35  17  18  1   
 36  17  35  1   
 37  18  36  1   
 38  18  37  1   
 39  18  38  1   
@<TRIPOS>SUBSTRUCTURE
  1 ****   3 GROUP 4 **** **** 0

# MOE 2024.06 (io_trps.svl 2023.06)
