@<TRIPOS>MOLECULE
NONAME
45 47 1 0 0 
SMALL
USER_CHARGES


@<TRIPOS>ATOM
  1 N        1.1950     0.0460    -1.1530 N.ar  1 <1>  -0.6200 
  2 C        1.5000     0.5570     0.0320 C.ar  1 <1>   0.4100 
  3 C        0.0230     0.4120    -1.6470 C.ar  1 <1>   0.1600 
  4 N        2.7190     0.1870     0.5560 N.pl3 1 <1>  -0.8380 
  5 C        0.6730     1.4220     0.7400 C.ar  1 <1>  -0.1500 
  6 C       -0.8680     1.2660    -1.0200 C.ar  1 <1>  -0.1500 
  7 C        3.8860     0.7640    -0.1770 C.3   1 <1>   0.2090 
  8 C        2.8420    -1.2770     0.8280 C.3   1 <1>   0.2090 
  9 C       -0.5420     1.7930     0.2140 C.ar  1 <1>  -0.1500 
 10 C        5.2220     0.4020     0.5030 C.3   1 <1>   0.3430 
 11 C        4.1850    -1.6210     1.5030 C.3   1 <1>   0.3430 
 12 N        5.3630    -1.0820     0.7370 N.4   1 <1>  -0.9590 
 13 C        6.6600    -1.4230     1.3770 C.3   1 <1>   0.4860 
 14 C        7.7770    -0.9920     0.4470 C.ar  1 <1>  -0.1430 
 15 C        8.0950    -1.7060    -0.7060 C.ar  1 <1>  -0.1430 
 16 C        8.4870     0.1590     0.7630 C.ar  1 <1>  -0.1500 
 17 C        9.1040    -1.2360    -1.5310 C.ar  1 <1>  -0.1500 
 18 C        7.3860    -2.9950    -1.1050 C.3   1 <1>  -0.0970 
 19 C        9.4940     0.6210    -0.0650 C.ar  1 <1>  -0.1430 
 20 C        9.7970    -0.0820    -1.2160 C.ar  1 <1>  -0.1500 
 21 C       10.2700     1.8790     0.2830 C.3   1 <1>  -0.0970 
 22 H       -0.2460     0.0090    -2.6090 H     1 <1>   0.1500 
 23 H        0.9970     1.7890     1.6940 H     1 <1>   0.1500 
 24 H       -1.8030     1.5140    -1.4890 H     1 <1>   0.1500 
 25 H        3.7850     1.8350    -0.2140 H     1 <1>   0.0800 
 26 H        3.8880     0.4030    -1.1920 H     1 <1>   0.0800 
 27 H        2.7510    -1.8250    -0.0950 H     1 <1>   0.0800 
 28 H        2.0320    -1.5840     1.4690 H     1 <1>   0.0800 
 29 H       -1.2070     2.4600     0.7350 H     1 <1>   0.1500 
 30 H        5.2730     0.9240     1.4430 H     1 <1>   0.0800 
 31 H        6.0310     0.7550    -0.1160 H     1 <1>   0.0800 
 32 H        4.2640    -2.6920     1.5950 H     1 <1>   0.0800 
 33 H        4.1770    -1.2020     2.4950 H     1 <1>   0.0800 
 34 H        5.3780    -1.5140    -0.1940 H     1 <1>   0.4500 
 35 H        6.7260    -2.4850     1.5480 H     1 <1>   0.0800 
 36 H        6.7540    -0.9180     2.3240 H     1 <1>   0.0800 
 37 H        8.2650     0.7100     1.6610 H     1 <1>   0.1500 
 38 H        9.3660    -1.7670    -2.4310 H     1 <1>   0.1500 
 39 H        6.4390    -2.7780    -1.5640 H     1 <1>   0.0800 
 40 H        7.2370    -3.6350    -0.2550 H     1 <1>   0.0800 
 41 H        7.9800    -3.5430    -1.8160 H     1 <1>   0.0800 
 42 H       10.5800     0.2620    -1.8700 H     1 <1>   0.1500 
 43 H        9.6790     2.5390     0.8920 H     1 <1>   0.0800 
 44 H       10.5510     2.4060    -0.6110 H     1 <1>   0.0800 
 45 H       11.1630     1.6170     0.8220 H     1 <1>   0.0800 
@<TRIPOS>BOND
  1   1   2  ar  
  2   1   3  ar  
  3   2   4  1   
  4   2   5  ar  
  5   3   6  ar  
  6   3  22  1   
  7   4   7  1   
  8   4   8  1   
  9   5   9  ar  
 10   5  23  1   
 11   6   9  ar  
 12   6  24  1   
 13   7  10  1   
 14   7  25  1   
 15   7  26  1   
 16   8  11  1   
 17   8  27  1   
 18   8  28  1   
 19   9  29  1   
 20  10  12  1   
 21  10  30  1   
 22  10  31  1   
 23  11  12  1   
 24  11  32  1   
 25  11  33  1   
 26  12  13  1   
 27  12  34  1   
 28  13  14  1   
 29  13  35  1   
 30  13  36  1   
 31  14  15  ar  
 32  14  16  ar  
 33  15  17  ar  
 34  15  18  1   
 35  16  19  ar  
 36  16  37  1   
 37  17  20  ar  
 38  17  38  1   
 39  18  39  1   
 40  18  40  1   
 41  18  41  1   
 42  19  20  ar  
 43  19  21  1   
 44  20  42  1   
 45  21  43  1   
 46  21  44  1   
 47  21  45  1   
@<TRIPOS>SUBSTRUCTURE
  1 ****  10 GROUP 4 **** **** 0

# MOE 2024.06 (io_trps.svl 2023.06)
