@<TRIPOS>MOLECULE
NONAME
40 40 1 0 0 
SMALL
USER_CHARGES


@<TRIPOS>ATOM
  1 BR       0.0510     0.6760    -0.4370 Br    1 <1>  -0.1110 
  2 C       -1.8360     0.3180    -0.2960 C.ar  1 <1>   0.1110 
  3 C       -2.6950     1.3670    -0.0310 C.ar  1 <1>  -0.1500 
  4 C       -2.2810    -0.9780    -0.4640 C.ar  1 <1>  -0.1500 
  5 C       -4.0540     1.1140     0.0710 C.ar  1 <1>  -0.1440 
  6 C       -3.6380    -1.2300    -0.3620 C.ar  1 <1>  -0.1500 
  7 C       -4.5290    -0.1880    -0.0940 C.ar  1 <1>   0.0830 
  8 C       -5.0100     2.2620     0.3630 C.3   1 <1>  -0.0960 
  9 O       -5.8720    -0.3790     0.0160 O.3   1 <1>  -0.3630 
 10 C       -6.4550    -1.6480    -0.1270 C.3   1 <1>   0.1200 
 11 C       -7.9610    -1.4710     0.0640 C.3   1 <1>  -0.1600 
 12 C       -8.6890    -2.8020    -0.0720 C.3   1 <1>   0.3430 
 13 N      -10.1410    -2.5750     0.1260 N.4   1 <1>  -0.9060 
 14 C      -10.9680    -3.7860    -0.0160 C.3   1 <1>   0.4230 
 15 C      -12.4260    -3.3350    -0.1850 C.3   1 <1>  -0.1600 
 16 C      -10.7700    -4.6620     1.2220 C.3   1 <1>  -0.2400 
 17 C      -13.3830    -4.4890    -0.5230 C.3   1 <1>  -0.2400 
 18 H       -2.2980     2.3590     0.0910 H     1 <1>   0.1500 
 19 H       -1.5800    -1.7660    -0.6690 H     1 <1>   0.1500 
 20 H       -3.9740    -2.2400    -0.4940 H     1 <1>   0.1500 
 21 H       -4.4810     3.1930     0.4620 H     1 <1>   0.0800 
 22 H       -5.5400     2.0710     1.2780 H     1 <1>   0.0800 
 23 H       -5.7210     2.3570    -0.4370 H     1 <1>   0.0800 
 24 H       -6.0370    -2.2960     0.6250 H     1 <1>   0.0800 
 25 H       -6.2240    -2.0140    -1.1130 H     1 <1>   0.0800 
 26 H       -8.3180    -0.7820    -0.6810 H     1 <1>   0.0800 
 27 H       -8.1320    -1.0610     1.0440 H     1 <1>   0.0800 
 28 H       -8.3170    -3.4950     0.6660 H     1 <1>   0.0800 
 29 H       -8.5100    -3.2170    -1.0520 H     1 <1>   0.0800 
 30 H      -10.4670    -1.8780    -0.5540 H     1 <1>   0.4500 
 31 H      -10.3090    -2.1750     1.0560 H     1 <1>   0.4500 
 32 H      -10.6680    -4.3300    -0.8980 H     1 <1>   0.0800 
 33 H      -12.4850    -2.6250    -0.9920 H     1 <1>   0.0800 
 34 H      -12.7730    -2.8530     0.7140 H     1 <1>   0.0800 
 35 H      -11.0970    -4.1550     2.1130 H     1 <1>   0.0800 
 36 H       -9.7440    -4.9580     1.3340 H     1 <1>   0.0800 
 37 H      -11.3460    -5.5650     1.1270 H     1 <1>   0.0800 
 38 H      -13.0520    -5.0210    -1.3980 H     1 <1>   0.0800 
 39 H      -14.3670    -4.0990    -0.7220 H     1 <1>   0.0800 
 40 H      -13.4680    -5.1830     0.2950 H     1 <1>   0.0800 
@<TRIPOS>BOND
  1   1   2  1   
  2   2   3  ar  
  3   2   4  ar  
  4   3   5  ar  
  5   3  18  1   
  6   4   6  ar  
  7   4  19  1   
  8   5   7  ar  
  9   5   8  1   
 10   6   7  ar  
 11   6  20  1   
 12   7   9  1   
 13   8  21  1   
 14   8  22  1   
 15   8  23  1   
 16   9  10  1   
 17  10  11  1   
 18  10  24  1   
 19  10  25  1   
 20  11  12  1   
 21  11  26  1   
 22  11  27  1   
 23  12  13  1   
 24  12  28  1   
 25  12  29  1   
 26  13  14  1   
 27  13  30  1   
 28  13  31  1   
 29  14  15  1   
 30  14  16  1   
 31  14  32  1   
 32  15  17  1   
 33  15  33  1   
 34  15  34  1   
 35  16  35  1   
 36  16  36  1   
 37  16  37  1   
 38  17  38  1   
 39  17  39  1   
 40  17  40  1   
@<TRIPOS>SUBSTRUCTURE
  1 ****  10 GROUP 4 **** **** 0

# MOE 2024.06 (io_trps.svl 2023.06)
