@<TRIPOS>MOLECULE
NONAME
43 46 1 0 0 
SMALL
USER_CHARGES


@<TRIPOS>ATOM
  1 O        2.7390     2.6660     2.1470 O.2   1 <1>  -0.5700 
  2 C        2.2670     2.3940     1.0560 C.2   1 <1>   0.7150 
  3 N        1.7410     3.4260     0.3070 N.am  1 <1>  -0.6600 
  4 C        2.3240     1.0250     0.5810 C.2   1 <1>   0.0550 
  5 C        0.4550     3.2840    -0.4770 C.3   1 <1>   0.2200 
  6 C        2.6510     4.5710     0.0270 C.3   1 <1>   0.1400 
  7 O        2.0810     0.7000    -0.6890 O.3   1 <1>  -0.2800 
  8 C        2.6240    -0.1180     1.2600 C.2   1 <1>  -0.1500 
  9 C       -0.2120     4.6460    -0.8250 C.3   1 <1>  -0.0800 
 10 C       -0.6060     2.4220     0.2700 C.3   1 <1>  -0.0800 
 11 C        3.3140     4.3830    -1.3370 C.3   1 <1>  -0.2400 
 12 C        2.2120    -0.5990    -0.8290 C.2   1 <1>  -0.0100 
 13 C        2.5480    -1.1690     0.3460 C.2   1 <1>  -0.1500 
 14 C       -0.7070     5.3600     0.4540 C.3   1 <1>  -0.1600 
 15 C       -1.4230     4.4010    -1.7490 C.3   1 <1>  -0.1600 
 16 C       -1.0930     3.1390     1.5480 C.3   1 <1>  -0.1600 
 17 C       -1.8150     2.1820    -0.6570 C.3   1 <1>  -0.1600 
 18 C       -1.7430     4.4850     1.1810 C.3   1 <1>  -0.0800 
 19 C       -2.4660     3.5230    -1.0370 C.3   1 <1>  -0.0800 
 20 C       -2.9390     4.2350     0.2440 C.3   1 <1>  -0.1600 
 21 H        0.7010     2.7900    -1.4020 H     1 <1>   0.0800 
 22 H        3.4190     4.6140     0.7830 H     1 <1>   0.0800 
 23 H        2.1200     5.5040     0.0700 H     1 <1>   0.0800 
 24 H        2.8750    -0.2030     2.3030 H     1 <1>   0.1500 
 25 H        0.4730     5.2760    -1.3600 H     1 <1>   0.0800 
 26 H       -0.2120     1.4590     0.5290 H     1 <1>   0.0800 
 27 H        3.8640     3.4590    -1.3570 H     1 <1>   0.0800 
 28 H        3.9990     5.1910    -1.5180 H     1 <1>   0.0800 
 29 H        2.5810     4.3760    -2.1230 H     1 <1>   0.0800 
 30 H        2.0490    -1.0400    -1.7980 H     1 <1>   0.1500 
 31 H        2.7280    -2.2070     0.5650 H     1 <1>   0.1500 
 32 H        0.1170     5.5560     1.1180 H     1 <1>   0.0800 
 33 H       -1.1480     6.3070     0.1970 H     1 <1>   0.0800 
 34 H       -1.0990     3.9200    -2.6560 H     1 <1>   0.0800 
 35 H       -1.8680     5.3420    -2.0220 H     1 <1>   0.0800 
 36 H       -0.2660     3.3050     2.2160 H     1 <1>   0.0800 
 37 H       -1.8060     2.5200     2.0630 H     1 <1>   0.0800 
 38 H       -2.5360     1.5570    -0.1590 H     1 <1>   0.0800 
 39 H       -1.4960     1.6650    -1.5450 H     1 <1>   0.0800 
 40 H       -2.0770     4.9830     2.0750 H     1 <1>   0.0800 
 41 H       -3.3060     3.3500    -1.6890 H     1 <1>   0.0800 
 42 H       -3.4050     5.1710    -0.0100 H     1 <1>   0.0800 
 43 H       -3.6740     3.6300     0.7470 H     1 <1>   0.0800 
@<TRIPOS>BOND
  1   1   2  2   
  2   2   3  am  
  3   2   4  1   
  4   3   5  1   
  5   3   6  1   
  6   4   7  1   
  7   4   8  2   
  8   5   9  1   
  9   5  10  1   
 10   5  21  1   
 11   6  11  1   
 12   6  22  1   
 13   6  23  1   
 14   7  12  1   
 15   8  13  1   
 16   8  24  1   
 17   9  14  1   
 18   9  15  1   
 19   9  25  1   
 20  10  16  1   
 21  10  17  1   
 22  10  26  1   
 23  11  27  1   
 24  11  28  1   
 25  11  29  1   
 26  12  13  2   
 27  12  30  1   
 28  13  31  1   
 29  14  18  1   
 30  14  32  1   
 31  14  33  1   
 32  15  19  1   
 33  15  34  1   
 34  15  35  1   
 35  16  18  1   
 36  16  36  1   
 37  16  37  1   
 38  17  19  1   
 39  17  38  1   
 40  17  39  1   
 41  18  20  1   
 42  18  40  1   
 43  19  20  1   
 44  19  41  1   
 45  20  42  1   
 46  20  43  1   
@<TRIPOS>SUBSTRUCTURE
  1 ****   5 GROUP 4 **** **** 0

# MOE 2024.06 (io_trps.svl 2023.06)
