@<TRIPOS>MOLECULE
NONAME
48 52 1 0 0 
SMALL
USER_CHARGES


@<TRIPOS>ATOM
  1 O        3.9080    -0.8060     1.6100 O.2   1 <1>  -0.5700 
  2 C        3.0740    -1.6970     1.5300 C.2   1 <1>   0.6160 
  3 N        3.0780    -2.5530     0.4360 N.am  1 <1>  -0.4690 
  4 C        2.1130    -1.9060     2.5540 C.2   1 <1>  -0.1360 
  5 C        2.2350    -3.6650     0.4190 C.2   1 <1>  -0.0290 
  6 C        3.8020    -2.0830    -0.7950 C.3   1 <1>   0.1400 
  7 C        1.2510    -2.9550     2.5050 C.2   1 <1>  -0.1500 
  8 C        1.3310    -3.8580     1.4190 C.2   1 <1>  -0.1500 
  9 C        2.3790    -4.6830    -0.7140 C.3   1 <1>   0.0580 
 10 C        4.0130    -3.1900    -1.8440 C.3   1 <1>  -0.0800 
 11 C        3.5260    -5.6420    -0.3440 C.3   1 <1>   0.3430 
 12 C        2.7050    -3.9750    -2.0360 C.3   1 <1>  -0.1600 
 13 C        5.1610    -4.1270    -1.4270 C.3   1 <1>   0.3430 
 14 N        4.7870    -4.8570    -0.1780 N.4   1 <1>  -0.9590 
 15 C        5.9110    -5.6030     0.4400 C.3   1 <1>   0.4860 
 16 C        7.0210    -4.6110     0.7350 C.ar  1 <1>  -0.1440 
 17 C        8.2430    -4.7210     0.1260 C.ar  1 <1>  -0.1500 
 18 C        6.7870    -3.5490     1.6250 C.ar  1 <1>  -0.1500 
 19 C        9.2700    -3.7850     0.3570 C.ar  1 <1>   0.0000 
 20 C        7.7650    -2.6240     1.8610 C.ar  1 <1>  -0.1500 
 21 C        9.0240    -2.7110     1.2370 C.ar  1 <1>   0.0000 
 22 C       10.5330    -3.8770    -0.2620 C.ar  1 <1>  -0.1500 
 23 C       10.0460    -1.7660     1.4580 C.ar  1 <1>  -0.1500 
 24 C       11.5080    -2.9460    -0.0280 C.ar  1 <1>  -0.1500 
 25 C       11.2610    -1.8780     0.8410 C.ar  1 <1>  -0.1500 
 26 H        2.1080    -1.1930     3.3570 H     1 <1>   0.1500 
 27 H        4.7550    -1.6600    -0.5190 H     1 <1>   0.0800 
 28 H        3.2170    -1.2910    -1.2330 H     1 <1>   0.0800 
 29 H        0.5130    -3.1220     3.2720 H     1 <1>   0.1500 
 30 H        0.6560    -4.6980     1.4270 H     1 <1>   0.1500 
 31 H        1.4680    -5.2470    -0.8220 H     1 <1>   0.0800 
 32 H        4.2880    -2.7220    -2.7730 H     1 <1>   0.0800 
 33 H        3.6490    -6.3840    -1.1160 H     1 <1>   0.0800 
 34 H        3.2820    -6.1420     0.5790 H     1 <1>   0.0800 
 35 H        1.9040    -3.3030    -2.2980 H     1 <1>   0.0800 
 36 H        2.8100    -4.6940    -2.8310 H     1 <1>   0.0800 
 37 H        6.0520    -3.5410    -1.2610 H     1 <1>   0.0800 
 38 H        5.3620    -4.8310    -2.2180 H     1 <1>   0.0800 
 39 H        4.5430    -4.1010     0.4860 H     1 <1>   0.4500 
 40 H        6.2670    -6.3680    -0.2300 H     1 <1>   0.0800 
 41 H        5.5920    -6.0670     1.3590 H     1 <1>   0.0800 
 42 H        8.4580    -5.5280    -0.5540 H     1 <1>   0.1500 
 43 H        5.8390    -3.4510     2.1270 H     1 <1>   0.1500 
 44 H        7.5860    -1.8050     2.5370 H     1 <1>   0.1500 
 45 H       10.7250    -4.6980    -0.9290 H     1 <1>   0.1500 
 46 H        9.8520    -0.9480     2.1280 H     1 <1>   0.1500 
 47 H       12.4710    -3.0200    -0.5030 H     1 <1>   0.1500 
 48 H       12.0380    -1.1540     1.0150 H     1 <1>   0.1500 
@<TRIPOS>BOND
  1   1   2  2   
  2   2   3  am  
  3   2   4  1   
  4   3   5  1   
  5   3   6  1   
  6   4   7  2   
  7   4  26  1   
  8   5   8  2   
  9   5   9  1   
 10   6  10  1   
 11   6  27  1   
 12   6  28  1   
 13   7   8  1   
 14   7  29  1   
 15   8  30  1   
 16   9  11  1   
 17   9  12  1   
 18   9  31  1   
 19  10  12  1   
 20  10  13  1   
 21  10  32  1   
 22  11  14  1   
 23  11  33  1   
 24  11  34  1   
 25  12  35  1   
 26  12  36  1   
 27  13  14  1   
 28  13  37  1   
 29  13  38  1   
 30  14  15  1   
 31  14  39  1   
 32  15  16  1   
 33  15  40  1   
 34  15  41  1   
 35  16  17  ar  
 36  16  18  ar  
 37  17  19  ar  
 38  17  42  1   
 39  18  20  ar  
 40  18  43  1   
 41  19  21  ar  
 42  19  22  ar  
 43  20  21  ar  
 44  20  44  1   
 45  21  23  ar  
 46  22  24  ar  
 47  22  45  1   
 48  23  25  ar  
 49  23  46  1   
 50  24  25  ar  
 51  24  47  1   
 52  25  48  1   
@<TRIPOS>SUBSTRUCTURE
  1 ****  18 GROUP 4 **** **** 0

# MOE 2024.06 (io_trps.svl 2023.06)
