@<TRIPOS>MOLECULE
NONAME
49 51 1 0 0 
SMALL
USER_CHARGES


@<TRIPOS>ATOM
  1 S       -0.1490    -0.1160     0.3530 S.o2  1 <1>   1.4470 
  2 O        0.5130     0.2220     1.5950 O.2   1 <1>  -0.6500 
  3 O        0.2090     0.5830    -0.8600 O.2   1 <1>  -0.6500 
  4 N        0.1340    -1.7640     0.0750 N.am  1 <1>  -0.8490 
  5 C       -1.9470    -0.0420     0.5700 C.ar  1 <1>  -0.0090 
  6 C        1.4710    -1.9870    -0.4980 C.3   1 <1>   0.1960 
  7 C       -0.0130    -2.5810     1.2910 C.3   1 <1>   0.1960 
  8 C       -2.5160     0.5590     1.6890 C.ar  1 <1>  -0.1500 
  9 C       -2.8010    -0.5830    -0.3830 C.ar  1 <1>  -0.1500 
 10 C        1.7290    -3.4860    -0.7420 C.3   1 <1>   0.1200 
 11 C        0.2700    -4.0660     0.9950 C.3   1 <1>   0.1200 
 12 C       -3.8890     0.6170     1.8560 C.ar  1 <1>  -0.1500 
 13 C       -4.1740    -0.5310    -0.2260 C.ar  1 <1>  -0.1500 
 14 O        1.5440    -4.2190     0.4360 O.3   1 <1>  -0.5600 
 15 C       -4.7280     0.0700     0.8910 C.ar  1 <1>   0.0830 
 16 O       -6.0780     0.0860     0.9680 O.3   1 <1>  -0.3630 
 17 C       -6.7520     0.7510     2.0300 C.3   1 <1>   0.1810 
 18 C       -8.2640     0.6880     1.8530 C.2   1 <1>   0.5690 
 19 O       -8.9650     1.1670     2.7120 O.2   1 <1>  -0.5700 
 20 N       -8.7790     0.1030     0.7420 N.am  1 <1>  -0.7300 
 21 C      -10.2060    -0.0430     0.4170 C.3   1 <1>   0.2200 
 22 C      -10.5100    -1.5180     0.1930 C.3   1 <1>  -0.1600 
 23 C      -10.4630     0.5800    -0.9490 C.3   1 <1>  -0.1600 
 24 C      -10.0680    -1.8230    -1.2440 C.3   1 <1>  -0.1600 
 25 C      -10.0390    -0.4750    -1.9770 C.3   1 <1>  -0.1600 
 26 H        2.2270    -1.6010     0.1660 H     1 <1>   0.0800 
 27 H        1.5550    -1.4650    -1.4360 H     1 <1>   0.0800 
 28 H       -1.0150    -2.4850     1.6730 H     1 <1>   0.0800 
 29 H        0.6700    -2.2460     2.0540 H     1 <1>   0.0800 
 30 H       -1.8730     0.9880     2.4400 H     1 <1>   0.1500 
 31 H       -2.3820    -1.0500    -1.2590 H     1 <1>   0.1500 
 32 H        2.7420    -3.6410    -1.0690 H     1 <1>   0.0800 
 33 H        1.0590    -3.8650    -1.4930 H     1 <1>   0.0800 
 34 H       -0.4580    -4.4610     0.3090 H     1 <1>   0.0800 
 35 H        0.2390    -4.6390     1.9040 H     1 <1>   0.0800 
 36 H       -4.2790     1.0910     2.7380 H     1 <1>   0.1500 
 37 H       -4.8230    -0.9530    -0.9730 H     1 <1>   0.1500 
 38 H       -6.4430     1.7800     2.0390 H     1 <1>   0.0800 
 39 H       -6.4850     0.2750     2.9550 H     1 <1>   0.0800 
 40 H       -8.1320    -0.2900     0.0560 H     1 <1>   0.3700 
 41 H      -10.8190     0.3910     1.1900 H     1 <1>   0.0800 
 42 H      -11.5740    -1.6600     0.2680 H     1 <1>   0.0800 
 43 H      -10.0280    -2.1480     0.9200 H     1 <1>   0.0800 
 44 H       -9.9460     1.5160    -1.0730 H     1 <1>   0.0800 
 45 H      -11.5200     0.7570    -1.0470 H     1 <1>   0.0800 
 46 H      -10.7470    -2.5130    -1.7150 H     1 <1>   0.0800 
 47 H       -9.0820    -2.2540    -1.2390 H     1 <1>   0.0800 
 48 H       -9.0380    -0.2710    -2.3190 H     1 <1>   0.0800 
 49 H      -10.7020    -0.4730    -2.8250 H     1 <1>   0.0800 
@<TRIPOS>BOND
  1   1   2  2   
  2   1   3  2   
  3   1   4  am  
  4   1   5  1   
  5   4   6  1   
  6   4   7  1   
  7   5   8  ar  
  8   5   9  ar  
  9   6  10  1   
 10   6  26  1   
 11   6  27  1   
 12   7  11  1   
 13   7  28  1   
 14   7  29  1   
 15   8  12  ar  
 16   8  30  1   
 17   9  13  ar  
 18   9  31  1   
 19  10  14  1   
 20  10  32  1   
 21  10  33  1   
 22  11  14  1   
 23  11  34  1   
 24  11  35  1   
 25  12  15  ar  
 26  12  36  1   
 27  13  15  ar  
 28  13  37  1   
 29  15  16  1   
 30  16  17  1   
 31  17  18  1   
 32  17  38  1   
 33  17  39  1   
 34  18  19  2   
 35  18  20  am  
 36  20  21  1   
 37  20  40  1   
 38  21  22  1   
 39  21  23  1   
 40  21  41  1   
 41  22  24  1   
 42  22  42  1   
 43  22  43  1   
 44  23  25  1   
 45  23  44  1   
 46  23  45  1   
 47  24  25  1   
 48  24  46  1   
 49  24  47  1   
 50  25  48  1   
 51  25  49  1   
@<TRIPOS>SUBSTRUCTURE
  1 ****  13 GROUP 4 **** **** 0

# MOE 2024.06 (io_trps.svl 2023.06)
