@<TRIPOS>MOLECULE
NONAME
42 42 1 0 0 
SMALL
USER_CHARGES


@<TRIPOS>ATOM
  1 CL      -0.3440    -0.0650     1.4190 Cl    1 <1>  -0.1770 
  2 C       -1.7800    -0.8030     0.7610 C.ar  1 <1>   0.1770 
  3 C       -2.2120    -0.4400    -0.5000 C.ar  1 <1>  -0.1500 
  4 C       -2.4640    -1.7410     1.5090 C.ar  1 <1>  -0.1500 
  5 C       -3.3550    -1.0240    -1.0200 C.ar  1 <1>  -0.1500 
  6 C       -3.6070    -2.3240     0.9870 C.ar  1 <1>  -0.1500 
  7 C       -4.0630    -1.9610    -0.2760 C.ar  1 <1>  -0.1430 
  8 C       -5.3250    -2.5860    -0.8390 C.3   1 <1>   0.4870 
  9 N       -6.5040    -1.9670    -0.1510 N.4   1 <1>  -0.9590 
 10 C       -7.7550    -2.7770    -0.3880 C.3   1 <1>   0.3430 
 11 C       -6.6280    -0.5230    -0.5610 C.3   1 <1>   0.2630 
 12 C       -8.9840    -2.3270     0.4590 C.3   1 <1>   0.3430 
 13 N      -10.2470    -3.1200     0.2060 N.4   1 <1>  -0.9590 
 14 C      -11.4280    -2.4620     0.8500 C.3   1 <1>   0.3430 
 15 C      -10.1500    -4.5350     0.6760 C.3   1 <1>   0.3430 
 16 C      -11.8300    -1.2300     0.0480 C.3   1 <1>  -0.2400 
 17 C      -11.1520    -5.3900    -0.0900 C.3   1 <1>  -0.2400 
 18 H       -1.6520     0.2880    -1.0620 H     1 <1>   0.1500 
 19 H       -2.0960    -2.0080     2.4840 H     1 <1>   0.1500 
 20 H       -3.6750    -0.7360    -2.0090 H     1 <1>   0.1500 
 21 H       -4.1190    -3.0630     1.5800 H     1 <1>   0.1500 
 22 H       -5.2960    -3.6490    -0.6580 H     1 <1>   0.0800 
 23 H       -5.3750    -2.4220    -1.9040 H     1 <1>   0.0800 
 24 H       -6.2380    -1.9760     0.8470 H     1 <1>   0.4500 
 25 H       -7.5460    -3.8090    -0.1580 H     1 <1>   0.0800 
 26 H       -8.0150    -2.7150    -1.4320 H     1 <1>   0.0800 
 27 H       -6.8270    -0.4440    -1.6180 H     1 <1>   0.0800 
 28 H       -5.7110     0.0060    -0.3490 H     1 <1>   0.0800 
 29 H       -7.4230    -0.0370    -0.0200 H     1 <1>   0.0800 
 30 H       -9.1770    -1.2920     0.2360 H     1 <1>   0.0800 
 31 H       -8.7330    -2.3980     1.5050 H     1 <1>   0.0800 
 32 H      -10.4640    -3.1480    -0.8020 H     1 <1>   0.4500 
 33 H      -11.2020    -2.1890     1.8690 H     1 <1>   0.0800 
 34 H      -12.2650    -3.1430     0.8680 H     1 <1>   0.0800 
 35 H      -10.3450    -4.5960     1.7360 H     1 <1>   0.0800 
 36 H       -9.1620    -4.9260     0.4940 H     1 <1>   0.0800 
 37 H      -11.0780    -0.4630     0.0800 H     1 <1>   0.0800 
 38 H      -12.7270    -0.8160     0.4780 H     1 <1>   0.0800 
 39 H      -12.0500    -1.4880    -0.9720 H     1 <1>   0.0800 
 40 H      -12.1660    -5.0930     0.1100 H     1 <1>   0.0800 
 41 H      -11.0500    -6.4150     0.2220 H     1 <1>   0.0800 
 42 H      -10.9670    -5.3510    -1.1490 H     1 <1>   0.0800 
@<TRIPOS>BOND
  1   1   2  1   
  2   2   3  ar  
  3   2   4  ar  
  4   3   5  ar  
  5   3  18  1   
  6   4   6  ar  
  7   4  19  1   
  8   5   7  ar  
  9   5  20  1   
 10   6   7  ar  
 11   6  21  1   
 12   7   8  1   
 13   8   9  1   
 14   8  22  1   
 15   8  23  1   
 16   9  10  1   
 17   9  11  1   
 18   9  24  1   
 19  10  12  1   
 20  10  25  1   
 21  10  26  1   
 22  11  27  1   
 23  11  28  1   
 24  11  29  1   
 25  12  13  1   
 26  12  30  1   
 27  12  31  1   
 28  13  14  1   
 29  13  15  1   
 30  13  32  1   
 31  14  16  1   
 32  14  33  1   
 33  14  34  1   
 34  15  17  1   
 35  15  35  1   
 36  15  36  1   
 37  16  37  1   
 38  16  38  1   
 39  16  39  1   
 40  17  40  1   
 41  17  41  1   
 42  17  42  1   
@<TRIPOS>SUBSTRUCTURE
  1 ****   9 GROUP 4 **** **** 0

# MOE 2024.06 (io_trps.svl 2023.06)
