@<TRIPOS>MOLECULE
NONAME
33 34 1 0 0 
SMALL
USER_CHARGES


@<TRIPOS>ATOM
  1 F       -1.0290     1.3770     1.6440 F     1 <1>  -0.1900 
  2 C       -1.0740     2.0040     0.4950 C.ar  1 <1>   0.1900 
  3 C       -2.2740     2.1620    -0.2110 C.ar  1 <1>   0.0830 
  4 C        0.1270     2.4990     0.0200 C.ar  1 <1>  -0.1500 
  5 O       -3.5100     1.7190     0.1570 O.3   1 <1>  -0.3630 
  6 C       -2.2210     2.8410    -1.4200 C.ar  1 <1>  -0.1500 
  7 C        0.1500     3.1730    -1.1890 C.ar  1 <1>  -0.1500 
  8 C       -3.7490     1.0050     1.3660 C.3   1 <1>   0.1810 
  9 C       -1.0230     3.3420    -1.9060 C.ar  1 <1>  -0.1500 
 10 C       -5.2210     0.6350     1.5200 C.2   1 <1>   0.5690 
 11 O       -5.5630     0.0240     2.5050 O.2   1 <1>  -0.5700 
 12 N       -6.1070     0.9960     0.5560 N.am  1 <1>  -0.7300 
 13 C       -7.5510     0.7190     0.5530 C.3   1 <1>   0.2200 
 14 C       -7.9050    -0.0270    -0.7270 C.3   1 <1>  -0.1600 
 15 C       -8.3040     2.0360     0.4130 C.3   1 <1>  -0.1600 
 16 C       -8.0280     1.0470    -1.8150 C.3   1 <1>  -0.1600 
 17 C       -8.2850     2.3710    -1.0830 C.3   1 <1>  -0.1600 
 18 H        1.0280     2.3590     0.5900 H     1 <1>   0.1500 
 19 H       -3.1270     2.9770    -1.9840 H     1 <1>   0.1500 
 20 H        1.0780     3.5640    -1.5720 H     1 <1>   0.1500 
 21 H       -3.4570     1.6250     2.1920 H     1 <1>   0.0800 
 22 H       -3.1630     0.1050     1.3520 H     1 <1>   0.0800 
 23 H       -1.0050     3.8650    -2.8470 H     1 <1>   0.1500 
 24 H       -5.7590     1.5120    -0.2540 H     1 <1>   0.3700 
 25 H       -7.8360     0.1740     1.4390 H     1 <1>   0.0800 
 26 H       -8.8630    -0.4970    -0.5910 H     1 <1>   0.0800 
 27 H       -7.1810    -0.7850    -0.9690 H     1 <1>   0.0800 
 28 H       -7.8770     2.8140     1.0210 H     1 <1>   0.0800 
 29 H       -9.3220     1.8780     0.7230 H     1 <1>   0.0800 
 30 H       -8.8280     0.8120    -2.4960 H     1 <1>   0.0800 
 31 H       -7.1080     1.1120    -2.3700 H     1 <1>   0.0800 
 32 H       -7.4850     3.0610    -1.2920 H     1 <1>   0.0800 
 33 H       -9.2160     2.8160    -1.3880 H     1 <1>   0.0800 
@<TRIPOS>BOND
  1   1   2  1   
  2   2   3  ar  
  3   2   4  ar  
  4   3   5  1   
  5   3   6  ar  
  6   4   7  ar  
  7   4  18  1   
  8   5   8  1   
  9   6   9  ar  
 10   6  19  1   
 11   7   9  ar  
 12   7  20  1   
 13   8  10  1   
 14   8  21  1   
 15   8  22  1   
 16   9  23  1   
 17  10  11  2   
 18  10  12  am  
 19  12  13  1   
 20  12  24  1   
 21  13  14  1   
 22  13  15  1   
 23  13  25  1   
 24  14  16  1   
 25  14  26  1   
 26  14  27  1   
 27  15  17  1   
 28  15  28  1   
 29  15  29  1   
 30  16  17  1   
 31  16  30  1   
 32  16  31  1   
 33  17  32  1   
 34  17  33  1   
@<TRIPOS>SUBSTRUCTURE
  1 ****   5 GROUP 4 **** **** 0

# MOE 2024.06 (io_trps.svl 2023.06)
