@<TRIPOS>MOLECULE
NONAME
34 35 1 0 0 
SMALL
USER_CHARGES


@<TRIPOS>ATOM
  1 I       -2.0540    -2.7490     3.3040 I     1 <1>  -0.0810 
  2 C       -0.9770    -3.1160     1.4940 C.ar  1 <1>   0.0810 
  3 C       -1.5680    -2.8640     0.2600 C.ar  1 <1>   0.0830 
  4 C        0.3090    -3.6060     1.6200 C.ar  1 <1>  -0.1500 
  5 O       -2.8380    -2.3810     0.2150 O.3   1 <1>  -0.3630 
  6 C       -0.8100    -3.1250    -0.8770 C.ar  1 <1>  -0.1500 
  7 C        1.0650    -3.8630     0.4820 C.ar  1 <1>  -0.0090 
  8 C       -3.4960    -2.1340    -1.0080 C.3   1 <1>   0.0400 
  9 C        0.4820    -3.6150    -0.7570 C.ar  1 <1>  -0.1500 
 10 S        2.7610    -4.4970     0.6010 S.o2  1 <1>   1.4470 
 11 O        2.8380    -5.7550    -0.1080 O.2   1 <1>  -0.6500 
 12 O        3.2260    -4.4230     1.9700 O.2   1 <1>  -0.6500 
 13 N        3.6550    -3.3600    -0.2840 N.am  1 <1>  -0.8490 
 14 C        3.7680    -2.0800     0.4230 C.3   1 <1>   0.1960 
 15 C        4.9790    -3.8830    -0.6350 C.3   1 <1>   0.1960 
 16 C        4.4410    -1.0370    -0.4750 C.3   1 <1>  -0.1600 
 17 C        5.7100    -2.9050    -1.5610 C.3   1 <1>  -0.1600 
 18 C        5.8250    -1.5110    -0.9340 C.3   1 <1>  -0.1600 
 19 H        0.7250    -3.7880     2.5960 H     1 <1>   0.1500 
 20 H       -1.2040    -2.9540    -1.8620 H     1 <1>   0.1500 
 21 H       -4.4830    -1.7690    -0.7870 H     1 <1>   0.0800 
 22 H       -3.5620    -3.0540    -1.5620 H     1 <1>   0.0800 
 23 H       -2.9460    -1.3890    -1.5570 H     1 <1>   0.0800 
 24 H        1.0570    -3.8120    -1.6470 H     1 <1>   0.1500 
 25 H        4.3420    -2.2070     1.3270 H     1 <1>   0.0800 
 26 H        2.7880    -1.7240     0.6950 H     1 <1>   0.0800 
 27 H        4.8760    -4.8260    -1.1460 H     1 <1>   0.0800 
 28 H        5.5560    -4.0480     0.2610 H     1 <1>   0.0800 
 29 H        4.5370    -0.1110     0.0630 H     1 <1>   0.0800 
 30 H        3.8140    -0.8580    -1.3300 H     1 <1>   0.0800 
 31 H        5.1690    -2.8430    -2.4900 H     1 <1>   0.0800 
 32 H        6.6920    -3.2870    -1.7790 H     1 <1>   0.0800 
 33 H        6.4880    -1.5540    -0.0870 H     1 <1>   0.0800 
 34 H        6.2350    -0.8180    -1.6480 H     1 <1>   0.0800 
@<TRIPOS>BOND
  1   1   2  1   
  2   2   3  ar  
  3   2   4  ar  
  4   3   5  1   
  5   3   6  ar  
  6   4   7  ar  
  7   4  19  1   
  8   5   8  1   
  9   6   9  ar  
 10   6  20  1   
 11   7   9  ar  
 12   7  10  1   
 13   8  21  1   
 14   8  22  1   
 15   8  23  1   
 16   9  24  1   
 17  10  11  2   
 18  10  12  2   
 19  10  13  am  
 20  13  14  1   
 21  13  15  1   
 22  14  16  1   
 23  14  25  1   
 24  14  26  1   
 25  15  17  1   
 26  15  27  1   
 27  15  28  1   
 28  16  18  1   
 29  16  29  1   
 30  16  30  1   
 31  17  18  1   
 32  17  31  1   
 33  17  32  1   
 34  18  33  1   
 35  18  34  1   
@<TRIPOS>SUBSTRUCTURE
  1 ****   7 GROUP 4 **** **** 0

# MOE 2024.06 (io_trps.svl 2023.06)
