@<TRIPOS>MOLECULE
NONAME
40 41 1 0 0 
SMALL
USER_CHARGES


@<TRIPOS>ATOM
  1 O        0.6670    -0.2390     0.6410 O.2   1 <1>  -0.5700 
  2 C        0.5390    -1.3960     0.3830 C.2   1 <1>   0.4480 
  3 C        1.3570    -2.0390    -0.7130 C.3   1 <1>  -0.0380 
  4 C       -0.4420    -2.2760     1.1430 C.3   1 <1>  -0.0990 
  5 C        1.4260    -3.5350    -0.4700 C.2   1 <1>   0.3280 
  6 C       -1.0520    -3.3830     0.2570 C.3   1 <1>   0.0000 
  7 N        2.4800    -4.2140    -0.2880 N.2   1 <1>  -0.5120 
  8 C        0.0650    -4.2210    -0.4250 C.3   1 <1>  -0.0990 
  9 C       -1.9720    -2.7530    -0.8070 C.3   1 <1>  -0.2400 
 10 C       -1.9220    -4.3000     1.1330 C.3   1 <1>  -0.2400 
 11 N        3.7600    -3.6690    -0.2830 N.am  1 <1>  -0.3680 
 12 C        4.9610    -4.3420    -0.1330 C.2   1 <1>   0.5440 
 13 O        4.9900    -5.5580    -0.1030 O.2   1 <1>  -0.5700 
 14 C        6.1870    -3.5740    -0.0390 C.ar  1 <1>   0.0860 
 15 C        6.2420    -2.3470     0.6270 C.ar  1 <1>  -0.1500 
 16 C        7.3650    -4.0360    -0.6240 C.ar  1 <1>  -0.1500 
 17 C        7.4120    -1.6110     0.6850 C.ar  1 <1>  -0.1500 
 18 C        8.5370    -3.3040    -0.5670 C.ar  1 <1>  -0.1500 
 19 C        8.5660    -2.0830     0.0840 C.ar  1 <1>  -0.1440 
 20 C        9.8520    -1.2780     0.1480 C.3   1 <1>  -0.0970 
 21 H        2.3260    -1.5810    -0.7310 H     1 <1>   0.0800 
 22 H        0.8910    -1.8520    -1.6610 H     1 <1>   0.0800 
 23 H       -1.2180    -1.6560     1.5560 H     1 <1>   0.0800 
 24 H        0.0880    -2.7220     1.9660 H     1 <1>   0.0800 
 25 H        0.1970    -5.1490     0.1030 H     1 <1>   0.0800 
 26 H       -0.2220    -4.4810    -1.4280 H     1 <1>   0.0800 
 27 H       -1.4310    -2.1100    -1.4770 H     1 <1>   0.0800 
 28 H       -2.7440    -2.1670    -0.3380 H     1 <1>   0.0800 
 29 H       -2.4490    -3.5180    -1.3950 H     1 <1>   0.0800 
 30 H       -1.3330    -4.7560     1.9100 H     1 <1>   0.0800 
 31 H       -2.3620    -5.0840     0.5410 H     1 <1>   0.0800 
 32 H       -2.7160    -3.7420     1.5970 H     1 <1>   0.0800 
 33 H        3.8540    -2.6620    -0.4160 H     1 <1>   0.3700 
 34 H        5.3660    -1.9650     1.1190 H     1 <1>   0.1500 
 35 H        7.3550    -4.9870    -1.1290 H     1 <1>   0.1500 
 36 H        7.4240    -0.6690     1.2060 H     1 <1>   0.1500 
 37 H        9.4280    -3.6920    -1.0310 H     1 <1>   0.1500 
 38 H        9.6370    -0.2270     0.2180 H     1 <1>   0.0800 
 39 H       10.4430    -1.4450    -0.7350 H     1 <1>   0.0800 
 40 H       10.4240    -1.5740     1.0090 H     1 <1>   0.0800 
@<TRIPOS>BOND
  1   1   2  2   
  2   2   3  1   
  3   2   4  1   
  4   3   5  1   
  5   3  21  1   
  6   3  22  1   
  7   4   6  1   
  8   4  23  1   
  9   4  24  1   
 10   5   7  2   
 11   5   8  1   
 12   6   8  1   
 13   6   9  1   
 14   6  10  1   
 15   7  11  1   
 16   8  25  1   
 17   8  26  1   
 18   9  27  1   
 19   9  28  1   
 20   9  29  1   
 21  10  30  1   
 22  10  31  1   
 23  10  32  1   
 24  11  12  am  
 25  11  33  1   
 26  12  13  2   
 27  12  14  1   
 28  14  15  ar  
 29  14  16  ar  
 30  15  17  ar  
 31  15  34  1   
 32  16  18  ar  
 33  16  35  1   
 34  17  19  ar  
 35  17  36  1   
 36  18  19  ar  
 37  18  37  1   
 38  19  20  1   
 39  20  38  1   
 40  20  39  1   
 41  20  40  1   
@<TRIPOS>SUBSTRUCTURE
  1 ****  11 GROUP 4 **** **** 0

# MOE 2024.06 (io_trps.svl 2023.06)
