@<TRIPOS>MOLECULE
NONAME
43 43 1 0 0 
SMALL
USER_CHARGES


@<TRIPOS>ATOM
  1 O       -0.0610    -0.5900     0.1180 O.3   1 <1>  -0.3630 
  2 C       -1.2920    -1.0590     0.4430 C.ar  1 <1>   0.0830 
  3 C        1.0980    -1.3340     0.3880 C.3   1 <1>   0.1200 
  4 C       -2.3700    -0.2440     0.1340 C.ar  1 <1>  -0.1500 
  5 C       -1.5180    -2.2880     1.0570 C.ar  1 <1>  -0.1500 
  6 C        2.2850    -0.5060    -0.1040 C.3   1 <1>  -0.1600 
  7 C       -3.6650    -0.6360     0.4280 C.ar  1 <1>  -0.1440 
  8 C       -2.8100    -2.6840     1.3510 C.ar  1 <1>  -0.1500 
  9 C        3.6000    -1.2320     0.1510 C.3   1 <1>   0.3430 
 10 C       -3.8800    -1.8620     1.0380 C.ar  1 <1>  -0.1500 
 11 C       -4.8390     0.2670     0.0850 C.3   1 <1>  -0.0160 
 12 N        4.7130    -0.3860    -0.3420 N.4   1 <1>  -0.9060 
 13 C       -5.3730    -0.0550    -1.3120 C.3   1 <1>  -0.2400 
 14 C        6.0540    -0.9470    -0.1090 C.3   1 <1>   0.4230 
 15 C        7.0900     0.1620    -0.3300 C.3   1 <1>  -0.1600 
 16 C        6.2860    -2.1090    -1.0710 C.3   1 <1>  -0.2400 
 17 C        6.9140     1.3730     0.6020 C.3   1 <1>  -0.2400 
 18 H        1.0260    -2.2710    -0.1390 H     1 <1>   0.0800 
 19 H        1.1490    -1.5020     1.4510 H     1 <1>   0.0800 
 20 H       -2.1850     0.7020    -0.3420 H     1 <1>   0.1500 
 21 H       -0.7130    -2.9480     1.3120 H     1 <1>   0.1500 
 22 H        2.2800     0.4350     0.4180 H     1 <1>   0.0800 
 23 H        2.1630    -0.3330    -1.1590 H     1 <1>   0.0800 
 24 H       -2.9890    -3.6340     1.8240 H     1 <1>   0.1500 
 25 H        3.5970    -2.1800    -0.3640 H     1 <1>   0.0800 
 26 H        3.7160    -1.4150     1.2080 H     1 <1>   0.0800 
 27 H       -4.8810    -2.1810     1.2700 H     1 <1>   0.1500 
 28 H       -4.5290     1.2960     0.1240 H     1 <1>   0.0800 
 29 H       -5.6220     0.1350     0.8110 H     1 <1>   0.0800 
 30 H        4.6770     0.5280     0.1230 H     1 <1>   0.4500 
 31 H        4.6030    -0.2060    -1.3460 H     1 <1>   0.4500 
 32 H       -4.6010     0.0920    -2.0460 H     1 <1>   0.0800 
 33 H       -6.2030     0.5860    -1.5490 H     1 <1>   0.0800 
 34 H       -5.7010    -1.0780    -1.3580 H     1 <1>   0.0800 
 35 H        6.1330    -1.2970     0.9090 H     1 <1>   0.0800 
 36 H        7.0750     0.4890    -1.3560 H     1 <1>   0.0800 
 37 H        8.0670    -0.2540    -0.1490 H     1 <1>   0.0800 
 38 H        6.1930    -1.7930    -2.0950 H     1 <1>   0.0800 
 39 H        5.6030    -2.9160    -0.8810 H     1 <1>   0.0800 
 40 H        7.2810    -2.4940    -0.9340 H     1 <1>   0.0800 
 41 H        6.0200     1.9270     0.3790 H     1 <1>   0.0800 
 42 H        7.7480     2.0440     0.4770 H     1 <1>   0.0800 
 43 H        6.8930     1.0650     1.6340 H     1 <1>   0.0800 
@<TRIPOS>BOND
  1   1   2  1   
  2   1   3  1   
  3   2   4  ar  
  4   2   5  ar  
  5   3   6  1   
  6   3  18  1   
  7   3  19  1   
  8   4   7  ar  
  9   4  20  1   
 10   5   8  ar  
 11   5  21  1   
 12   6   9  1   
 13   6  22  1   
 14   6  23  1   
 15   7  10  ar  
 16   7  11  1   
 17   8  10  ar  
 18   8  24  1   
 19   9  12  1   
 20   9  25  1   
 21   9  26  1   
 22  10  27  1   
 23  11  13  1   
 24  11  28  1   
 25  11  29  1   
 26  12  14  1   
 27  12  30  1   
 28  12  31  1   
 29  13  32  1   
 30  13  33  1   
 31  13  34  1   
 32  14  15  1   
 33  14  16  1   
 34  14  35  1   
 35  15  17  1   
 36  15  36  1   
 37  15  37  1   
 38  16  38  1   
 39  16  39  1   
 40  16  40  1   
 41  17  41  1   
 42  17  42  1   
 43  17  43  1   
@<TRIPOS>SUBSTRUCTURE
  1 ****   3 GROUP 4 **** **** 0

# MOE 2024.06 (io_trps.svl 2023.06)
