@<TRIPOS>MOLECULE
NONAME
37 38 1 0 0 
SMALL
USER_CHARGES


@<TRIPOS>ATOM
  1 S       -0.1360     0.1420     1.0060 S.3   1 <1>  -0.3320 
  2 C       -1.6440    -0.8150     0.7610 C.ar  1 <1>   0.1020 
  3 C        0.9580    -0.2070    -0.4390 C.3   1 <1>  -0.0100 
  4 C       -2.6040    -0.7400     1.7520 C.ar  1 <1>  -0.1500 
  5 C       -1.8490    -1.5960    -0.3650 C.ar  1 <1>  -0.1500 
  6 C       -3.7830    -1.4530     1.6180 C.ar  1 <1>  -0.1500 
  7 C       -3.0300    -2.3070    -0.4930 C.ar  1 <1>  -0.1500 
  8 C       -4.0040    -2.2390     0.4960 C.ar  1 <1>  -0.1430 
  9 C       -5.3040    -3.0170     0.3550 C.3   1 <1>   0.2530 
 10 N       -6.4630    -2.1020     0.3000 N.3   1 <1>  -0.8100 
 11 C       -6.3760    -1.1540    -0.8420 C.3   1 <1>   0.1100 
 12 C       -7.7430    -2.8450     0.2660 C.3   1 <1>   0.1100 
 13 C       -7.6060    -0.2190    -0.9350 C.3   1 <1>   0.3430 
 14 C       -8.9720    -1.9010     0.2440 C.3   1 <1>   0.3430 
 15 N       -8.5540    -0.4590     0.2020 N.4   1 <1>  -0.9590 
 16 C       -9.6980     0.4960     0.2390 C.3   1 <1>   0.2630 
 17 H        1.8690     0.3450    -0.2960 H     1 <1>   0.0800 
 18 H        0.4500     0.1200    -1.3280 H     1 <1>   0.0800 
 19 H        1.1520    -1.2640    -0.4610 H     1 <1>   0.0800 
 20 H       -2.4260    -0.1300     2.6200 H     1 <1>   0.1500 
 21 H       -1.1090    -1.6610    -1.1380 H     1 <1>   0.1500 
 22 H       -4.5310    -1.3960     2.3900 H     1 <1>   0.1500 
 23 H       -3.1840    -2.9150    -1.3670 H     1 <1>   0.1500 
 24 H       -5.4040    -3.6700     1.2060 H     1 <1>   0.0800 
 25 H       -5.2750    -3.6280    -0.5320 H     1 <1>   0.0800 
 26 H       -6.2740    -1.6980    -1.7660 H     1 <1>   0.0800 
 27 H       -5.4970    -0.5400    -0.7350 H     1 <1>   0.0800 
 28 H       -7.8110    -3.4790     1.1340 H     1 <1>   0.0800 
 29 H       -7.7730    -3.4820    -0.6020 H     1 <1>   0.0800 
 30 H       -8.1070    -0.3860    -1.8740 H     1 <1>   0.0800 
 31 H       -7.2660     0.8040    -0.9220 H     1 <1>   0.0800 
 32 H       -9.5650    -2.0830     1.1250 H     1 <1>   0.0800 
 33 H       -9.5810    -2.1340    -0.6140 H     1 <1>   0.0800 
 34 H       -7.9560    -0.3530     1.0400 H     1 <1>   0.4500 
 35 H      -10.3120     0.3790    -0.6390 H     1 <1>   0.0800 
 36 H       -9.3350     1.5110     0.2740 H     1 <1>   0.0800 
 37 H      -10.3040     0.3190     1.1120 H     1 <1>   0.0800 
@<TRIPOS>BOND
  1   1   2  1   
  2   1   3  1   
  3   2   4  ar  
  4   2   5  ar  
  5   3  17  1   
  6   3  18  1   
  7   3  19  1   
  8   4   6  ar  
  9   4  20  1   
 10   5   7  ar  
 11   5  21  1   
 12   6   8  ar  
 13   6  22  1   
 14   7   8  ar  
 15   7  23  1   
 16   8   9  1   
 17   9  10  1   
 18   9  24  1   
 19   9  25  1   
 20  10  11  1   
 21  10  12  1   
 22  11  13  1   
 23  11  26  1   
 24  11  27  1   
 25  12  14  1   
 26  12  28  1   
 27  12  29  1   
 28  13  15  1   
 29  13  30  1   
 30  13  31  1   
 31  14  15  1   
 32  14  32  1   
 33  14  33  1   
 34  15  16  1   
 35  15  34  1   
 36  16  35  1   
 37  16  36  1   
 38  16  37  1   
@<TRIPOS>SUBSTRUCTURE
  1 ****   8 GROUP 4 **** **** 0

# MOE 2024.06 (io_trps.svl 2023.06)
