@<TRIPOS>MOLECULE
NONAME
40 40 1 0 0 
SMALL
USER_CHARGES


@<TRIPOS>ATOM
  1 O        1.0760     1.7620    -1.9850 O.2   1 <1>  -0.5700 
  2 C        0.9960     2.1880    -0.8640 C.2   1 <1>   0.6590 
  3 O        1.8340     1.7370     0.0660 O.3   1 <1>  -0.4300 
  4 C       -0.0340     3.2660    -0.5160 C.3   1 <1>  -0.0190 
  5 C        1.8200     2.0660     1.4350 C.3   1 <1>   0.1200 
  6 C       -1.3110     3.0670    -1.3430 C.3   1 <1>   0.1400 
  7 C        0.5410     4.6810    -0.7470 C.3   1 <1>  -0.1600 
  8 C        2.9980     1.3580     2.0960 C.3   1 <1>  -0.2400 
  9 N       -2.2940     4.1350    -0.9940 N.am  1 <1>  -0.6600 
 10 C       -0.5220     5.7650    -0.4980 C.3   1 <1>  -0.1600 
 11 C       -3.4690     3.8330    -0.3500 C.2   1 <1>   0.5690 
 12 C       -1.8020     5.5050    -1.3020 C.3   1 <1>   0.1400 
 13 O       -3.7180     2.7040     0.0040 O.2   1 <1>  -0.5700 
 14 C       -4.4840     4.9340    -0.0520 C.3   1 <1>  -0.0990 
 15 C       -5.8100     4.4380     0.5540 C.3   1 <1>  -0.1600 
 16 C       -6.7800     5.5980     0.8100 C.3   1 <1>  -0.1600 
 17 C       -8.0930     5.0920     1.4130 C.3   1 <1>  -0.2400 
 18 H       -0.3260     3.1620     0.5110 H     1 <1>   0.0800 
 19 H        0.8900     1.7290     1.8610 H     1 <1>   0.0800 
 20 H        1.9140     3.1330     1.5390 H     1 <1>   0.0800 
 21 H       -1.7210     2.0900    -1.1510 H     1 <1>   0.0800 
 22 H       -1.0870     3.1260    -2.3950 H     1 <1>   0.0800 
 23 H        0.8880     4.7560    -1.7640 H     1 <1>   0.0800 
 24 H        1.3850     4.8470    -0.1000 H     1 <1>   0.0800 
 25 H        2.9040     0.2930     1.9770 H     1 <1>   0.0800 
 26 H        3.0180     1.5850     3.1470 H     1 <1>   0.0800 
 27 H        3.9230     1.6870     1.6560 H     1 <1>   0.0800 
 28 H       -0.1240     6.7280    -0.7680 H     1 <1>   0.0800 
 29 H       -0.7720     5.7970     0.5480 H     1 <1>   0.0800 
 30 H       -2.5360     6.2530    -1.0640 H     1 <1>   0.0800 
 31 H       -1.5910     5.5720    -2.3560 H     1 <1>   0.0800 
 32 H       -4.6990     5.4460    -0.9710 H     1 <1>   0.0800 
 33 H       -4.0300     5.6290     0.6300 H     1 <1>   0.0800 
 34 H       -5.6070     3.9270     1.4800 H     1 <1>   0.0800 
 35 H       -6.2630     3.7300    -0.1190 H     1 <1>   0.0800 
 36 H       -6.9900     6.1070    -0.1160 H     1 <1>   0.0800 
 37 H       -6.3310     6.3050     1.4870 H     1 <1>   0.0800 
 38 H       -8.5710     4.3990     0.7430 H     1 <1>   0.0800 
 39 H       -8.7620     5.9170     1.5860 H     1 <1>   0.0800 
 40 H       -7.9100     4.5970     2.3500 H     1 <1>   0.0800 
@<TRIPOS>BOND
  1   1   2  2   
  2   2   3  1   
  3   2   4  1   
  4   3   5  1   
  5   4   6  1   
  6   4   7  1   
  7   4  18  1   
  8   5   8  1   
  9   5  19  1   
 10   5  20  1   
 11   6   9  1   
 12   6  21  1   
 13   6  22  1   
 14   7  10  1   
 15   7  23  1   
 16   7  24  1   
 17   8  25  1   
 18   8  26  1   
 19   8  27  1   
 20   9  11  am  
 21   9  12  1   
 22  10  12  1   
 23  10  28  1   
 24  10  29  1   
 25  11  13  2   
 26  11  14  1   
 27  12  30  1   
 28  12  31  1   
 29  14  15  1   
 30  14  32  1   
 31  14  33  1   
 32  15  16  1   
 33  15  34  1   
 34  15  35  1   
 35  16  17  1   
 36  16  36  1   
 37  16  37  1   
 38  17  38  1   
 39  17  39  1   
 40  17  40  1   
@<TRIPOS>SUBSTRUCTURE
  1 ****   9 GROUP 4 **** **** 0

# MOE 2024.06 (io_trps.svl 2023.06)
