@<TRIPOS>MOLECULE
NONAME
41 41 1 0 0 
SMALL
USER_CHARGES


@<TRIPOS>ATOM
  1 O       -0.4080    -0.3350     0.5450 O.2   1 <1>  -0.5700 
  2 C        0.2250    -1.2660     0.0770 C.2   1 <1>   0.5440 
  3 N        1.4760    -1.0150    -0.4160 N.am  1 <1>  -0.7300 
  4 C       -0.3300    -2.6070     0.0180 C.ar  1 <1>   0.0860 
  5 C        2.1720     0.2890    -0.3780 C.3   1 <1>   0.1400 
  6 C       -1.6980    -2.8370    -0.2280 C.ar  1 <1>   0.1170 
  7 C        0.5050    -3.7140     0.1990 C.ar  1 <1>  -0.1500 
  8 C        3.6260     0.0660     0.0350 C.3   1 <1>  -0.1600 
  9 N       -2.5640    -1.7440    -0.3820 N.am  1 <1>  -0.5470 
 10 C       -2.1650    -4.1480    -0.2970 C.ar  1 <1>  -0.1500 
 11 C        0.0250    -5.0060     0.1250 C.ar  1 <1>  -0.1500 
 12 C        4.3960     1.3910     0.0920 C.3   1 <1>  -0.1600 
 13 C       -3.8250    -1.6030    -0.8880 C.2   1 <1>   0.5690 
 14 C       -1.3170    -5.2230    -0.1270 C.ar  1 <1>  -0.1500 
 15 C        5.8520     1.1660     0.5080 C.3   1 <1>  -0.2400 
 16 O       -4.4650    -2.5040    -1.3700 O.2   1 <1>  -0.5700 
 17 C       -4.4350    -0.2150    -0.8500 C.3   1 <1>  -0.0990 
 18 C       -4.7320     0.2560     0.5840 C.3   1 <1>  -0.1600 
 19 C       -5.3650     1.6510     0.5910 C.3   1 <1>  -0.2400 
 20 H        1.9590    -1.7510    -0.9310 H     1 <1>   0.3700 
 21 H        1.6880     0.9450     0.3270 H     1 <1>   0.0800 
 22 H        2.1260     0.7440    -1.3530 H     1 <1>   0.0800 
 23 H        1.5480    -3.5610     0.4100 H     1 <1>   0.1500 
 24 H        4.1030    -0.5890    -0.6740 H     1 <1>   0.0800 
 25 H        3.6470    -0.3980     1.0060 H     1 <1>   0.0800 
 26 H       -2.1420    -0.8650    -0.0510 H     1 <1>   0.3700 
 27 H       -3.2060    -4.3390    -0.4810 H     1 <1>   0.1500 
 28 H        0.6870    -5.8440     0.2660 H     1 <1>   0.1500 
 29 H        3.9250     2.0520     0.8010 H     1 <1>   0.0800 
 30 H        4.3730     1.8680    -0.8730 H     1 <1>   0.0800 
 31 H       -1.7010    -6.2270    -0.1860 H     1 <1>   0.1500 
 32 H        5.9000     0.7110     1.4820 H     1 <1>   0.0800 
 33 H        6.3740     2.1060     0.5450 H     1 <1>   0.0800 
 34 H        6.3520     0.5260    -0.1990 H     1 <1>   0.0800 
 35 H       -5.3480    -0.2290    -1.4180 H     1 <1>   0.0800 
 36 H       -3.7590     0.4700    -1.3290 H     1 <1>   0.0800 
 37 H       -3.8210     0.2790     1.1590 H     1 <1>   0.0800 
 38 H       -5.4030    -0.4420     1.0550 H     1 <1>   0.0800 
 39 H       -4.6990     2.3700     0.1450 H     1 <1>   0.0800 
 40 H       -5.5670     1.9570     1.6030 H     1 <1>   0.0800 
 41 H       -6.2910     1.6480     0.0440 H     1 <1>   0.0800 
@<TRIPOS>BOND
  1   1   2  2   
  2   2   3  am  
  3   2   4  1   
  4   3   5  1   
  5   3  20  1   
  6   4   6  ar  
  7   4   7  ar  
  8   5   8  1   
  9   5  21  1   
 10   5  22  1   
 11   6   9  1   
 12   6  10  ar  
 13   7  11  ar  
 14   7  23  1   
 15   8  12  1   
 16   8  24  1   
 17   8  25  1   
 18   9  13  am  
 19   9  26  1   
 20  10  14  ar  
 21  10  27  1   
 22  11  14  ar  
 23  11  28  1   
 24  12  15  1   
 25  12  29  1   
 26  12  30  1   
 27  13  16  2   
 28  13  17  1   
 29  14  31  1   
 30  15  32  1   
 31  15  33  1   
 32  15  34  1   
 33  17  18  1   
 34  17  35  1   
 35  17  36  1   
 36  18  19  1   
 37  18  37  1   
 38  18  38  1   
 39  19  39  1   
 40  19  40  1   
 41  19  41  1   
@<TRIPOS>SUBSTRUCTURE
  1 ****   2 GROUP 4 **** **** 0

# MOE 2024.06 (io_trps.svl 2023.06)
