@<TRIPOS>MOLECULE
NONAME
38 39 1 0 0 
SMALL
USER_CHARGES


@<TRIPOS>ATOM
  1 S       -0.2110    -0.2160    -0.2100 S.o2  1 <1>   1.4470 
  2 O       -0.5240    -1.2020     0.7990 O.2   1 <1>  -0.6500 
  3 O       -0.3160    -0.5520    -1.6110 O.2   1 <1>  -0.6500 
  4 N       -1.2820     1.0620    -0.0400 N.am  1 <1>  -0.9140 
  5 C        1.3950     0.5460     0.1410 C.ar  1 <1>  -0.0090 
  6 C       -2.6430     0.6510     0.2030 C.3   1 <1>   0.2760 
  7 C        2.4320     0.5120    -0.7590 C.ar  1 <1>  -0.1500 
  8 C        1.6100     1.1990     1.3670 C.ar  1 <1>  -0.1500 
  9 C       -3.5530     1.5690    -0.6270 C.3   1 <1>  -0.1600 
 10 C       -2.9050     0.7760     1.7030 C.3   1 <1>  -0.2400 
 11 C        3.6830     1.1040    -0.4950 C.ar  1 <1>   0.0000 
 12 C        2.8110     1.7850     1.6580 C.ar  1 <1>  -0.1500 
 13 C       -5.0370     1.1740    -0.5630 C.3   1 <1>  -0.1600 
 14 C        3.8770     1.7560     0.7400 C.ar  1 <1>   0.0000 
 15 C        4.7470     1.0710    -1.4190 C.ar  1 <1>  -0.1500 
 16 C       -5.8780     2.0470    -1.4990 C.3   1 <1>  -0.2400 
 17 C        5.1280     2.3500     1.0040 C.ar  1 <1>  -0.1500 
 18 C        5.9500     1.6560    -1.1370 C.ar  1 <1>  -0.1500 
 19 C        6.1430     2.3040     0.0890 C.ar  1 <1>  -0.1500 
 20 H       -1.2780     1.4700    -0.9710 H     1 <1>   0.4200 
 21 H       -2.7950    -0.3690    -0.1170 H     1 <1>   0.0800 
 22 H        2.3000     0.0170    -1.7060 H     1 <1>   0.1500 
 23 H        0.8010     1.2280     2.0780 H     1 <1>   0.1500 
 24 H       -3.2420     1.5190    -1.6560 H     1 <1>   0.0800 
 25 H       -3.4420     2.5850    -0.2880 H     1 <1>   0.0800 
 26 H       -2.8130     1.8000     2.0180 H     1 <1>   0.0800 
 27 H       -2.2080     0.1750     2.2570 H     1 <1>   0.0800 
 28 H       -3.8930     0.4290     1.9420 H     1 <1>   0.0800 
 29 H        2.9600     2.2810     2.6010 H     1 <1>   0.1500 
 30 H       -5.4100     1.2880     0.4410 H     1 <1>   0.0800 
 31 H       -5.1510     0.1410    -0.8470 H     1 <1>   0.0800 
 32 H        4.5950     0.5720    -2.3590 H     1 <1>   0.1500 
 33 H       -5.7940     3.0840    -1.2240 H     1 <1>   0.0800 
 34 H       -6.9130     1.7600    -1.4380 H     1 <1>   0.0800 
 35 H       -5.5530     1.9300    -2.5180 H     1 <1>   0.0800 
 36 H        5.2700     2.8460     1.9480 H     1 <1>   0.1500 
 37 H        6.7590     1.6280    -1.8460 H     1 <1>   0.1500 
 38 H        7.0960     2.7590     0.2960 H     1 <1>   0.1500 
@<TRIPOS>BOND
  1   1   2  2   
  2   1   3  2   
  3   1   4  am  
  4   1   5  1   
  5   4   6  1   
  6   4  20  1   
  7   5   7  ar  
  8   5   8  ar  
  9   6   9  1   
 10   6  10  1   
 11   6  21  1   
 12   7  11  ar  
 13   7  22  1   
 14   8  12  ar  
 15   8  23  1   
 16   9  13  1   
 17   9  24  1   
 18   9  25  1   
 19  10  26  1   
 20  10  27  1   
 21  10  28  1   
 22  11  14  ar  
 23  11  15  ar  
 24  12  14  ar  
 25  12  29  1   
 26  13  16  1   
 27  13  30  1   
 28  13  31  1   
 29  14  17  ar  
 30  15  18  ar  
 31  15  32  1   
 32  16  33  1   
 33  16  34  1   
 34  16  35  1   
 35  17  19  ar  
 36  17  36  1   
 37  18  19  ar  
 38  18  37  1   
 39  19  38  1   
@<TRIPOS>SUBSTRUCTURE
  1 ****   5 GROUP 4 **** **** 0

# MOE 2024.06 (io_trps.svl 2023.06)
