@<TRIPOS>MOLECULE
NONAME
45 46 1 0 0 
SMALL
USER_CHARGES


@<TRIPOS>ATOM
  1 S        0.0940     0.0120    -1.1790 S.3   1 <1>  -0.0800 
  2 C       -0.6150     1.3030    -0.2210 C.2   1 <1>   0.1040 
  3 C        1.7260     0.4880    -0.7410 C.2   1 <1>  -0.1400 
  4 N       -1.9890     1.4720    -0.1530 N.am  1 <1>  -0.4940 
  5 C        0.3640     2.0390     0.3870 C.2   1 <1>  -0.0860 
  6 C        1.6860     1.5560     0.0760 C.2   1 <1>  -0.1500 
  7 C        2.8490    -0.3470    -1.3310 C.3   1 <1>   0.0200 
  8 C       -3.0460     0.8000    -0.7130 C.2   1 <1>   0.5690 
  9 C        0.1200     3.1660     1.2400 C.2   1 <1>   0.8060 
 10 C        4.2300     0.1460    -0.8900 C.3   1 <1>  -0.2400 
 11 O       -2.9260    -0.1620    -1.4300 O.2   1 <1>  -0.5700 
 12 C       -4.4450     1.3210    -0.3830 C.3   1 <1>  -0.0190 
 13 O       -1.0010     3.5700     1.5000 O.2   1 <1>  -0.5700 
 14 O        1.1730     3.8010     1.7710 O.3   1 <1>  -0.4300 
 15 C       -5.0020     0.6410     0.8810 C.3   1 <1>  -0.1600 
 16 C       -5.4350     1.1450    -1.5530 C.3   1 <1>  -0.1600 
 17 C        1.0200     4.9220     2.6200 C.3   1 <1>   0.0400 
 18 C       -6.4080     1.1410     1.2230 C.3   1 <1>   0.1400 
 19 C       -6.8330     1.6490    -1.1880 C.3   1 <1>   0.1400 
 20 N       -7.3030     0.9610     0.0460 N.am  1 <1>  -0.6600 
 21 C       -8.4420     0.2010     0.1390 C.2   1 <1>   0.5690 
 22 O       -8.8010    -0.3020     1.1770 O.2   1 <1>  -0.5700 
 23 C       -9.3100    -0.0420    -1.0740 C.3   1 <1>  -0.1790 
 24 H       -2.2610     2.2590     0.4450 H     1 <1>   0.3700 
 25 H        2.5540     2.0420     0.4870 H     1 <1>   0.1500 
 26 H        2.7820    -0.3120    -2.4040 H     1 <1>   0.0800 
 27 H        2.7200    -1.3700    -1.0240 H     1 <1>   0.0800 
 28 H        4.3810     1.1620    -1.2090 H     1 <1>   0.0800 
 29 H        4.9960    -0.4690    -1.3280 H     1 <1>   0.0800 
 30 H        4.3180     0.0970     0.1800 H     1 <1>   0.0800 
 31 H       -4.3650     2.3760    -0.1860 H     1 <1>   0.0800 
 32 H       -4.3500     0.8270     1.7160 H     1 <1>   0.0800 
 33 H       -5.0410    -0.4250     0.7310 H     1 <1>   0.0800 
 34 H       -5.5030     0.1040    -1.8210 H     1 <1>   0.0800 
 35 H       -5.0750     1.6790    -2.4140 H     1 <1>   0.0800 
 36 H        1.9970     5.2560     2.9220 H     1 <1>   0.0800 
 37 H        0.4470     4.6310     3.4840 H     1 <1>   0.0800 
 38 H        0.5130     5.7030     2.0810 H     1 <1>   0.0800 
 39 H       -6.3790     2.1840     1.4840 H     1 <1>   0.0800 
 40 H       -6.7830     0.5980     2.0740 H     1 <1>   0.0800 
 41 H       -7.5000     1.4770    -2.0130 H     1 <1>   0.0800 
 42 H       -6.8030     2.7090    -1.0050 H     1 <1>   0.0800 
 43 H       -8.7340    -0.5190    -1.8440 H     1 <1>   0.0800 
 44 H       -9.7060     0.8890    -1.4320 H     1 <1>   0.0800 
 45 H      -10.1280    -0.6860    -0.8100 H     1 <1>   0.0800 
@<TRIPOS>BOND
  1   1   2  1   
  2   1   3  1   
  3   2   4  1   
  4   2   5  2   
  5   3   6  2   
  6   3   7  1   
  7   4   8  am  
  8   4  24  1   
  9   5   6  1   
 10   5   9  1   
 11   6  25  1   
 12   7  10  1   
 13   7  26  1   
 14   7  27  1   
 15   8  11  2   
 16   8  12  1   
 17   9  13  2   
 18   9  14  1   
 19  10  28  1   
 20  10  29  1   
 21  10  30  1   
 22  12  15  1   
 23  12  16  1   
 24  12  31  1   
 25  14  17  1   
 26  15  18  1   
 27  15  32  1   
 28  15  33  1   
 29  16  19  1   
 30  16  34  1   
 31  16  35  1   
 32  17  36  1   
 33  17  37  1   
 34  17  38  1   
 35  18  20  1   
 36  18  39  1   
 37  18  40  1   
 38  19  20  1   
 39  19  41  1   
 40  19  42  1   
 41  20  21  am  
 42  21  22  2   
 43  21  23  1   
 44  23  43  1   
 45  23  44  1   
 46  23  45  1   
@<TRIPOS>SUBSTRUCTURE
  1 ****   4 GROUP 4 **** **** 0

# MOE 2024.06 (io_trps.svl 2023.06)
