@<TRIPOS>MOLECULE
NONAME
59 61 1 0 0 
SMALL
USER_CHARGES


@<TRIPOS>ATOM
  1 O        0.7800     0.5920    -2.4660 O.2   1 <1>  -0.5700 
  2 C        0.6120     1.5450    -1.7450 C.2   1 <1>   0.5690 
  3 N       -0.5490     1.7850    -1.0620 N.am  1 <1>  -0.5470 
  4 C        1.7650     2.5410    -1.5560 C.3   1 <1>   0.1710 
  5 C       -1.7390     1.0500    -0.9060 C.ar  1 <1>   0.1170 
  6 N        2.7470     2.1800    -0.4870 N.3   1 <1>  -0.8100 
  7 C       -2.6040     1.4240     0.1280 C.ar  1 <1>   0.0820 
  8 C       -2.0950    -0.0110    -1.7300 C.ar  1 <1>  -0.1500 
  9 C        3.8730     3.1400    -0.4100 C.3   1 <1>   0.1100 
 10 C        2.1430     1.9430     0.8480 C.3   1 <1>   0.1100 
 11 O       -2.2190     2.4780     0.9140 O.3   1 <1>  -0.3630 
 12 C       -3.7940     0.7330     0.3220 C.ar  1 <1>  -0.1500 
 13 C       -3.2810    -0.6970    -1.5340 C.ar  1 <1>  -0.1500 
 14 C        4.9180     2.7400     0.6620 C.3   1 <1>   0.3430 
 15 C        3.1880     1.4540     1.8810 C.3   1 <1>   0.3430 
 16 C       -3.1010     3.0140     1.8780 C.3   1 <1>   0.0400 
 17 C       -4.1370    -0.3250    -0.5020 C.ar  1 <1>   0.0820 
 18 N        4.5640     1.4220     1.2890 N.4   1 <1>  -0.9590 
 19 O       -5.3190    -0.9430    -0.2390 O.3   1 <1>  -0.3620 
 20 C        5.6070     0.8710     2.1920 C.3   1 <1>   0.4860 
 21 C       -5.7510    -2.0410    -1.0130 C.3   1 <1>   0.0400 
 22 C        6.9210     0.7980     1.4390 C.ar  1 <1>  -0.1440 
 23 C        7.0620    -0.0640     0.3620 C.ar  1 <1>  -0.1500 
 24 C        7.9900     1.6020     1.8110 C.ar  1 <1>  -0.1500 
 25 C        8.2480    -0.1210    -0.3490 C.ar  1 <1>   0.0820 
 26 C        9.1800     1.5470     1.1060 C.ar  1 <1>  -0.1500 
 27 O        8.2850    -0.9850    -1.3920 O.3   1 <1>  -0.3620 
 28 C        9.3130     0.6910     0.0270 C.ar  1 <1>  -0.1500 
 29 C        9.4530    -1.1550    -2.1640 C.3   1 <1>   0.0400 
 30 H       -0.5650     2.6200    -0.4750 H     1 <1>   0.3700 
 31 H        1.3520     3.5130    -1.3530 H     1 <1>   0.0800 
 32 H        2.2860     2.6000    -2.4950 H     1 <1>   0.0800 
 33 H       -1.4500    -0.3110    -2.5360 H     1 <1>   0.1500 
 34 H        3.5030     4.1280    -0.1920 H     1 <1>   0.0800 
 35 H        4.3660     3.1830    -1.3670 H     1 <1>   0.0800 
 36 H        1.3760     1.1890     0.7730 H     1 <1>   0.0800 
 37 H        1.6780     2.8450     1.2070 H     1 <1>   0.0800 
 38 H       -4.4790     0.9870     1.1060 H     1 <1>   0.1500 
 39 H       -3.5160    -1.5100    -2.1930 H     1 <1>   0.1500 
 40 H        4.9670     3.5070     1.4170 H     1 <1>   0.0800 
 41 H        5.8870     2.6800     0.1930 H     1 <1>   0.0800 
 42 H        2.9100     0.4660     2.2100 H     1 <1>   0.0800 
 43 H        3.1680     2.1040     2.7390 H     1 <1>   0.0800 
 44 H       -2.6280     3.8660     2.3320 H     1 <1>   0.0800 
 45 H       -3.3010     2.2670     2.6260 H     1 <1>   0.0800 
 46 H       -4.0100     3.3190     1.3900 H     1 <1>   0.0800 
 47 H        4.4770     0.7980     0.4710 H     1 <1>   0.4500 
 48 H        5.3290    -0.1180     2.5190 H     1 <1>   0.0800 
 49 H        5.7180     1.5010     3.0580 H     1 <1>   0.0800 
 50 H       -6.6980    -2.3700    -0.6250 H     1 <1>   0.0800 
 51 H       -5.0280    -2.8330    -0.9310 H     1 <1>   0.0800 
 52 H       -5.8650    -1.7250    -2.0350 H     1 <1>   0.0800 
 53 H        6.2600    -0.7110     0.0510 H     1 <1>   0.1500 
 54 H        7.9150     2.2740     2.6490 H     1 <1>   0.1500 
 55 H       10.0090     2.1700     1.3980 H     1 <1>   0.1500 
 56 H       10.2460     0.6690    -0.5040 H     1 <1>   0.1500 
 57 H        9.2510    -1.8960    -2.9160 H     1 <1>   0.0800 
 58 H       10.2490    -1.4930    -1.5240 H     1 <1>   0.0800 
 59 H        9.7040    -0.2200    -2.6310 H     1 <1>   0.0800 
@<TRIPOS>BOND
  1   1   2  2   
  2   2   3  am  
  3   2   4  1   
  4   3   5  1   
  5   3  30  1   
  6   4   6  1   
  7   4  31  1   
  8   4  32  1   
  9   5   7  ar  
 10   5   8  ar  
 11   6   9  1   
 12   6  10  1   
 13   7  11  1   
 14   7  12  ar  
 15   8  13  ar  
 16   8  33  1   
 17   9  14  1   
 18   9  34  1   
 19   9  35  1   
 20  10  15  1   
 21  10  36  1   
 22  10  37  1   
 23  11  16  1   
 24  12  17  ar  
 25  12  38  1   
 26  13  17  ar  
 27  13  39  1   
 28  14  18  1   
 29  14  40  1   
 30  14  41  1   
 31  15  18  1   
 32  15  42  1   
 33  15  43  1   
 34  16  44  1   
 35  16  45  1   
 36  16  46  1   
 37  17  19  1   
 38  18  20  1   
 39  18  47  1   
 40  19  21  1   
 41  20  22  1   
 42  20  48  1   
 43  20  49  1   
 44  21  50  1   
 45  21  51  1   
 46  21  52  1   
 47  22  23  ar  
 48  22  24  ar  
 49  23  25  ar  
 50  23  53  1   
 51  24  26  ar  
 52  24  54  1   
 53  25  27  1   
 54  25  28  ar  
 55  26  28  ar  
 56  26  55  1   
 57  27  29  1   
 58  28  56  1   
 59  29  57  1   
 60  29  58  1   
 61  29  59  1   
@<TRIPOS>SUBSTRUCTURE
  1 ****  10 GROUP 4 **** **** 0

# MOE 2024.06 (io_trps.svl 2023.06)
