@<TRIPOS>MOLECULE
NONAME
45 47 1 0 0 
SMALL
USER_CHARGES


@<TRIPOS>ATOM
  1 O        0.0180     0.1090     0.0570 O.2   1 <1>  -0.5700 
  2 C       -0.0460     1.3180     0.1560 C.2   1 <1>   0.5440 
  3 N        1.0960     2.0370    -0.0350 N.am  1 <1>  -0.7300 
  4 C       -1.3060     1.9680     0.4790 C.ar  1 <1>   0.0860 
  5 C        2.4030     1.4330    -0.3420 C.3   1 <1>   0.2840 
  6 C       -1.5900     3.2800     0.0960 C.ar  1 <1>  -0.1500 
  7 C       -2.2950     1.2890     1.1890 C.ar  1 <1>  -0.1500 
  8 C        3.4360     2.5400    -0.3970 C.ar  1 <1>  -0.1440 
  9 C       -2.7970     3.8820     0.4060 C.ar  1 <1>  -0.1500 
 10 C       -3.5040     1.8810     1.5050 C.ar  1 <1>  -0.1500 
 11 C        4.1510     2.8880     0.7400 C.ar  1 <1>   0.1600 
 12 C        3.6820     3.2220    -1.5720 C.ar  1 <1>  -0.1500 
 13 C       -3.7670     3.1830     1.1100 C.ar  1 <1>  -0.1430 
 14 N        5.0690     3.8400     0.7970 N.ar  1 <1>  -0.6200 
 15 C        4.6360     4.2150    -1.5310 C.ar  1 <1>  -0.1500 
 16 C       -5.1030     3.8250     1.4380 C.3   1 <1>   0.4860 
 17 C        5.2900     4.4800    -0.3400 C.ar  1 <1>   0.1600 
 18 N       -5.9260     3.8880     0.2000 N.4   1 <1>  -0.9590 
 19 C       -7.2240     4.6220     0.3780 C.3   1 <1>   0.3430 
 20 C       -6.1520     2.5510    -0.4500 C.3   1 <1>   0.3430 
 21 C       -8.0760     4.5930    -0.9130 C.3   1 <1>   0.1200 
 22 C       -6.9630     2.6960    -1.7590 C.3   1 <1>   0.1200 
 23 O       -7.3590     4.0260    -1.9750 O.3   1 <1>  -0.5600 
 24 H        1.1250     3.0400     0.1480 H     1 <1>   0.3700 
 25 H        2.3480     0.9190    -1.2870 H     1 <1>   0.0800 
 26 H        2.6550     0.7130     0.4190 H     1 <1>   0.0800 
 27 H       -0.8560     3.8370    -0.4610 H     1 <1>   0.1500 
 28 H       -2.1010     0.2740     1.4980 H     1 <1>   0.1500 
 29 H       -2.9650     4.8990     0.0930 H     1 <1>   0.1500 
 30 H       -4.2290     1.3110     2.0620 H     1 <1>   0.1500 
 31 H        3.9570     2.3560     1.6570 H     1 <1>   0.1500 
 32 H        3.1530     2.9910    -2.4820 H     1 <1>   0.1500 
 33 H        4.8740     4.7820    -2.4130 H     1 <1>   0.1500 
 34 H       -4.9370     4.8180     1.8240 H     1 <1>   0.0800 
 35 H       -5.6100     3.2460     2.1920 H     1 <1>   0.0800 
 36 H        6.0350     5.2570    -0.3210 H     1 <1>   0.1500 
 37 H       -5.4010     4.4220    -0.5060 H     1 <1>   0.4500 
 38 H       -7.0310     5.6490     0.6440 H     1 <1>   0.0800 
 39 H       -7.7950     4.1820     1.1790 H     1 <1>   0.0800 
 40 H       -6.6840     1.8990     0.2220 H     1 <1>   0.0800 
 41 H       -5.2070     2.0820    -0.6750 H     1 <1>   0.0800 
 42 H       -8.3540     5.5930    -1.1980 H     1 <1>   0.0800 
 43 H       -8.9780     4.0240    -0.7640 H     1 <1>   0.0800 
 44 H       -7.8410     2.0740    -1.7350 H     1 <1>   0.0800 
 45 H       -6.3620     2.3950    -2.6000 H     1 <1>   0.0800 
@<TRIPOS>BOND
  1   1   2  2   
  2   2   3  am  
  3   2   4  1   
  4   3   5  1   
  5   3  24  1   
  6   4   6  ar  
  7   4   7  ar  
  8   5   8  1   
  9   5  25  1   
 10   5  26  1   
 11   6   9  ar  
 12   6  27  1   
 13   7  10  ar  
 14   7  28  1   
 15   8  11  ar  
 16   8  12  ar  
 17   9  13  ar  
 18   9  29  1   
 19  10  13  ar  
 20  10  30  1   
 21  11  14  ar  
 22  11  31  1   
 23  12  15  ar  
 24  12  32  1   
 25  13  16  1   
 26  14  17  ar  
 27  15  17  ar  
 28  15  33  1   
 29  16  18  1   
 30  16  34  1   
 31  16  35  1   
 32  17  36  1   
 33  18  19  1   
 34  18  20  1   
 35  18  37  1   
 36  19  21  1   
 37  19  38  1   
 38  19  39  1   
 39  20  22  1   
 40  20  40  1   
 41  20  41  1   
 42  21  23  1   
 43  21  42  1   
 44  21  43  1   
 45  22  23  1   
 46  22  44  1   
 47  22  45  1   
@<TRIPOS>SUBSTRUCTURE
  1 ****   6 GROUP 4 **** **** 0

# MOE 2024.06 (io_trps.svl 2023.06)
