@<TRIPOS>MOLECULE
NONAME
34 34 1 0 0 
SMALL
USER_CHARGES


@<TRIPOS>ATOM
  1 F       -2.2590     1.5700     1.9170 F     1 <1>  -0.1900 
  2 C       -1.3210     2.1920     1.2530 C.ar  1 <1>   0.1900 
  3 C       -1.4990     2.4180    -0.1030 C.ar  1 <1>  -0.1440 
  4 C       -0.1960     2.6100     1.9370 C.ar  1 <1>  -0.1500 
  5 C       -0.4970     3.0890    -0.7910 C.ar  1 <1>  -0.1500 
  6 C       -2.7540     1.9370    -0.8020 C.3   1 <1>   0.4870 
  7 C        0.7920     3.2810     1.2370 C.ar  1 <1>  -0.1500 
  8 C        0.6390     3.5180    -0.1200 C.ar  1 <1>  -0.1500 
  9 N       -3.9280     2.6700    -0.2470 N.4   1 <1>  -0.9590 
 10 C       -5.2260     2.0280    -0.6410 C.3   1 <1>   0.3430 
 11 C       -3.8790     4.1130    -0.6160 C.3   1 <1>   0.3430 
 12 C       -5.4640     0.6890     0.0740 C.3   1 <1>   0.1200 
 13 C       -4.7580     4.9330     0.3300 C.3   1 <1>  -0.1600 
 14 O       -6.6520     0.1680    -0.4030 O.3   1 <1>  -0.6800 
 15 C       -4.6290     6.4310     0.0320 C.3   1 <1>  -0.2400 
 16 H       -0.0930     2.4160     2.9910 H     1 <1>   0.1500 
 17 H       -0.5810     3.2840    -1.8470 H     1 <1>   0.1500 
 18 H       -2.8580     0.8790    -0.6300 H     1 <1>   0.0800 
 19 H       -2.6760     2.1040    -1.8640 H     1 <1>   0.0800 
 20 H        1.6800     3.6180     1.7460 H     1 <1>   0.1500 
 21 H        1.4160     4.0380    -0.6570 H     1 <1>   0.1500 
 22 H       -3.8290     2.6190     0.7780 H     1 <1>   0.4500 
 23 H       -5.2430     1.8650    -1.7060 H     1 <1>   0.0800 
 24 H       -6.0440     2.6810    -0.3900 H     1 <1>   0.0800 
 25 H       -4.2020     4.2510    -1.6360 H     1 <1>   0.0800 
 26 H       -2.8660     4.4760    -0.5340 H     1 <1>   0.0800 
 27 H       -5.5640     0.8320     1.1370 H     1 <1>   0.0800 
 28 H       -4.6860    -0.0230    -0.1380 H     1 <1>   0.0800 
 29 H       -4.4550     4.7610     1.3480 H     1 <1>   0.0800 
 30 H       -5.7920     4.6550     0.2230 H     1 <1>   0.0800 
 31 H       -6.8860    -0.6750     0.0430 H     1 <1>   0.4000 
 32 H       -3.6120     6.7610     0.1570 H     1 <1>   0.0800 
 33 H       -5.2490     6.9950     0.7090 H     1 <1>   0.0800 
 34 H       -4.9450     6.6520    -0.9730 H     1 <1>   0.0800 
@<TRIPOS>BOND
  1   1   2  1   
  2   2   3  ar  
  3   2   4  ar  
  4   3   5  ar  
  5   3   6  1   
  6   4   7  ar  
  7   4  16  1   
  8   5   8  ar  
  9   5  17  1   
 10   6   9  1   
 11   6  18  1   
 12   6  19  1   
 13   7   8  ar  
 14   7  20  1   
 15   8  21  1   
 16   9  10  1   
 17   9  11  1   
 18   9  22  1   
 19  10  12  1   
 20  10  23  1   
 21  10  24  1   
 22  11  13  1   
 23  11  25  1   
 24  11  26  1   
 25  12  14  1   
 26  12  27  1   
 27  12  28  1   
 28  13  15  1   
 29  13  29  1   
 30  13  30  1   
 31  14  31  1   
 32  15  32  1   
 33  15  33  1   
 34  15  34  1   
@<TRIPOS>SUBSTRUCTURE
  1 ****   9 GROUP 4 **** **** 0

# MOE 2024.06 (io_trps.svl 2023.06)
