@<TRIPOS>MOLECULE
NONAME
25 24 1 0 0 
SMALL
USER_CHARGES


@<TRIPOS>ATOM
  1 O       -0.2000    -0.7390     1.2030 O.co2 1 <1>  -0.9000 
  2 C        0.0090    -1.5590     0.3210 C.2   1 <1>   0.9060 
  3 O        1.1130    -2.0680     0.0960 O.co2 1 <1>  -0.9000 
  4 C       -1.1600    -2.2060    -0.3390 C.3   1 <1>  -0.2660 
  5 C       -1.3910    -3.5000     0.4190 C.3   1 <1>   0.4230 
  6 N       -0.2000    -4.3420     0.2530 N.4   1 <1>  -0.8530 
  7 C       -2.6120    -4.2880    -0.0710 C.3   1 <1>  -0.1600 
  8 C       -3.9420    -3.5870     0.2530 C.3   1 <1>  -0.1600 
  9 C       -5.1370    -4.4580    -0.1520 C.3   1 <1>  -0.1600 
 10 C       -6.4600    -3.7560     0.1680 C.3   1 <1>  -0.2400 
 11 H       -0.9530    -2.3690    -1.3790 H     1 <1>   0.0800 
 12 H       -1.9980    -1.5430    -0.2440 H     1 <1>   0.0800 
 13 H       -1.5120    -3.2580     1.4650 H     1 <1>   0.0800 
 14 H       -0.1470    -4.7480    -0.6780 H     1 <1>   0.4500 
 15 H       -0.0860    -5.0310     0.9940 H     1 <1>   0.4500 
 16 H        0.6080    -3.6700     0.3100 H     1 <1>   0.4500 
 17 H       -2.6200    -5.2510     0.4100 H     1 <1>   0.0800 
 18 H       -2.5460    -4.4370    -1.1350 H     1 <1>   0.0800 
 19 H       -4.0050    -2.6490    -0.2710 H     1 <1>   0.0800 
 20 H       -3.9960    -3.3810     1.3100 H     1 <1>   0.0800 
 21 H       -5.1030    -5.3970     0.3740 H     1 <1>   0.0800 
 22 H       -5.0970    -4.6650    -1.2090 H     1 <1>   0.0800 
 23 H       -6.5370    -3.5580     1.2230 H     1 <1>   0.0800 
 24 H       -7.2870    -4.3800    -0.1220 H     1 <1>   0.0800 
 25 H       -6.5320    -2.8250    -0.3650 H     1 <1>   0.0800 
@<TRIPOS>BOND
  1   1   2  ar  
  2   2   3  ar  
  3   2   4  1   
  4   4   5  1   
  5   4  11  1   
  6   4  12  1   
  7   5   6  1   
  8   5   7  1   
  9   5  13  1   
 10   6  14  1   
 11   6  15  1   
 12   6  16  1   
 13   7   8  1   
 14   7  17  1   
 15   7  18  1   
 16   8   9  1   
 17   8  19  1   
 18   8  20  1   
 19   9  10  1   
 20   9  21  1   
 21   9  22  1   
 22  10  23  1   
 23  10  24  1   
 24  10  25  1   
@<TRIPOS>SUBSTRUCTURE
  1 ****   5 GROUP 4 **** **** 0

# MOE 2024.06 (io_trps.svl 2023.06)
