@<TRIPOS>MOLECULE
NONAME
46 47 1 0 0 
SMALL
USER_CHARGES


@<TRIPOS>ATOM
  1 O        1.2340     2.8290    -0.3380 O.2   1 <1>  -0.5700 
  2 C        0.5120     2.7600    -1.2840 C.2   1 <1>   0.4480 
  3 C       -0.8960     2.2200    -1.1430 C.3   1 <1>  -0.0990 
  4 C        0.9610     3.1990    -2.6590 C.3   1 <1>  -0.1790 
  5 C       -1.1400     1.8440     0.3200 C.3   1 <1>   0.3430 
  6 N       -2.4760     1.1960     0.4980 N.4   1 <1>  -0.9590 
  7 C       -3.6010     2.1920     0.4190 C.3   1 <1>   0.3430 
  8 C       -2.5370     0.3730     1.7460 C.3   1 <1>   0.3430 
  9 C       -4.7850     1.7190    -0.4390 C.3   1 <1>   0.2000 
 10 C       -1.7240    -0.9270     1.6230 C.3   1 <1>  -0.0990 
 11 O       -5.6360     2.8380    -0.5870 O.3   1 <1>  -0.3630 
 12 C       -5.5730     0.5450     0.1690 C.3   1 <1>   0.1200 
 13 C       -2.1180    -1.7750     0.4230 C.2   1 <1>   0.4480 
 14 C       -6.8860     2.6060    -1.0630 C.ar  1 <1>   0.0820 
 15 O       -6.7080     0.2580    -0.6200 O.3   1 <1>  -0.3630 
 16 O       -2.6750    -1.2940    -0.5180 O.2   1 <1>  -0.5700 
 17 C       -1.7580    -3.2430     0.4600 C.3   1 <1>  -0.1790 
 18 C       -7.4160     1.3150    -1.0920 C.ar  1 <1>   0.0820 
 19 C       -7.6360     3.6730    -1.5270 C.ar  1 <1>  -0.1500 
 20 C       -8.6830     1.0990    -1.6040 C.ar  1 <1>  -0.1500 
 21 C       -8.9070     3.4520    -2.0330 C.ar  1 <1>  -0.1500 
 22 C       -9.4280     2.1680    -2.0740 C.ar  1 <1>  -0.1500 
 23 H       -0.9930     1.3510    -1.7680 H     1 <1>   0.0800 
 24 H       -1.5870     2.9770    -1.4640 H     1 <1>   0.0800 
 25 H        0.3340     3.9950    -3.0170 H     1 <1>   0.0800 
 26 H        0.9180     2.3740    -3.3450 H     1 <1>   0.0800 
 27 H        1.9750     3.5550    -2.6110 H     1 <1>   0.0800 
 28 H       -1.0630     2.7230     0.9410 H     1 <1>   0.0800 
 29 H       -0.3600     1.1650     0.6220 H     1 <1>   0.0800 
 30 H       -2.5910     0.5050    -0.2770 H     1 <1>   0.4500 
 31 H       -3.2350     3.1040    -0.0230 H     1 <1>   0.0800 
 32 H       -3.9530     2.4270     1.4090 H     1 <1>   0.0800 
 33 H       -3.5620     0.1060     1.9440 H     1 <1>   0.0800 
 34 H       -2.1790     0.9500     2.5840 H     1 <1>   0.0800 
 35 H       -4.4400     1.4540    -1.4230 H     1 <1>   0.0800 
 36 H       -0.6740    -0.7080     1.5720 H     1 <1>   0.0800 
 37 H       -1.8850    -1.5020     2.5160 H     1 <1>   0.0800 
 38 H       -5.9160     0.7860     1.1600 H     1 <1>   0.0800 
 39 H       -4.9790    -0.3490     0.2040 H     1 <1>   0.0800 
 40 H       -2.0580    -3.7140    -0.4590 H     1 <1>   0.0800 
 41 H       -2.2610    -3.7300     1.2740 H     1 <1>   0.0800 
 42 H       -0.6960    -3.3620     0.5760 H     1 <1>   0.0800 
 43 H       -7.2280     4.6670    -1.4960 H     1 <1>   0.1500 
 44 H       -9.0810     0.1000    -1.6310 H     1 <1>   0.1500 
 45 H       -9.4910     4.2800    -2.3970 H     1 <1>   0.1500 
 46 H      -10.4140     2.0000    -2.4710 H     1 <1>   0.1500 
@<TRIPOS>BOND
  1   1   2  2   
  2   2   3  1   
  3   2   4  1   
  4   3   5  1   
  5   3  23  1   
  6   3  24  1   
  7   4  25  1   
  8   4  26  1   
  9   4  27  1   
 10   5   6  1   
 11   5  28  1   
 12   5  29  1   
 13   6   7  1   
 14   6   8  1   
 15   6  30  1   
 16   7   9  1   
 17   7  31  1   
 18   7  32  1   
 19   8  10  1   
 20   8  33  1   
 21   8  34  1   
 22   9  11  1   
 23   9  12  1   
 24   9  35  1   
 25  10  13  1   
 26  10  36  1   
 27  10  37  1   
 28  11  14  1   
 29  12  15  1   
 30  12  38  1   
 31  12  39  1   
 32  13  16  2   
 33  13  17  1   
 34  14  18  ar  
 35  14  19  ar  
 36  15  18  1   
 37  17  40  1   
 38  17  41  1   
 39  17  42  1   
 40  18  20  ar  
 41  19  21  ar  
 42  19  43  1   
 43  20  22  ar  
 44  20  44  1   
 45  21  22  ar  
 46  21  45  1   
 47  22  46  1   
@<TRIPOS>SUBSTRUCTURE
  1 ****   9 GROUP 4 **** **** 0

# MOE 2024.06 (io_trps.svl 2023.06)
