@<TRIPOS>MOLECULE
NONAME
32 32 1 0 0 
SMALL
USER_CHARGES


@<TRIPOS>ATOM
  1 O       -0.2990     0.5100    -0.1980 O.2   1 <1>  -0.5700 
  2 C       -1.2060     1.2780    -0.0010 C.2   1 <1>   0.4230 
  3 C       -1.0210     2.7150     0.0520 C.ar  1 <1>   0.0860 
  4 C       -2.5820     0.6530     0.2050 C.3   1 <1>  -0.0990 
  5 C        0.2690     3.2500     0.0900 C.ar  1 <1>  -0.1500 
  6 C       -2.0770     3.6340     0.0640 C.ar  1 <1>  -0.1500 
  7 C       -3.3750     0.5370    -1.1060 C.3   1 <1>  -0.2400 
  8 C        0.5000     4.6110     0.1370 C.ar  1 <1>   0.0830 
  9 C       -1.8630     4.9990     0.1210 C.ar  1 <1>  -0.1500 
 10 O        1.7930     5.0200     0.1720 O.3   1 <1>  -0.3620 
 11 C       -0.5690     5.5100     0.1650 C.ar  1 <1>   0.0830 
 12 C        2.2730     5.7170    -0.9560 C.3   1 <1>   0.0400 
 13 O       -0.3070     6.8400     0.2450 O.3   1 <1>  -0.3630 
 14 C       -1.3240     7.8160     0.3000 C.3   1 <1>   0.2580 
 15 C       -0.7060     9.2040     0.4050 C.2   1 <1>  -0.2880 
 16 C        0.5960     9.4960     0.5140 C.2   1 <1>  -0.3000 
 17 H       -3.1390     1.2140     0.9320 H     1 <1>   0.0800 
 18 H       -2.4440    -0.3340     0.6110 H     1 <1>   0.0800 
 19 H        1.1150     2.5860     0.0830 H     1 <1>   0.1500 
 20 H       -3.0930     3.2860     0.0250 H     1 <1>   0.1500 
 21 H       -3.5390     1.5040    -1.5460 H     1 <1>   0.0800 
 22 H       -4.3280     0.0740    -0.9230 H     1 <1>   0.0800 
 23 H       -2.8300    -0.0700    -1.8090 H     1 <1>   0.0800 
 24 H       -2.7170     5.6490     0.1320 H     1 <1>   0.1500 
 25 H        1.8040     6.6820    -1.0060 H     1 <1>   0.0800 
 26 H        3.3360     5.8340    -0.8490 H     1 <1>   0.0800 
 27 H        2.0510     5.1450    -1.8400 H     1 <1>   0.0800 
 28 H       -1.9100     7.7380    -0.5990 H     1 <1>   0.0800 
 29 H       -1.9360     7.6170     1.1620 H     1 <1>   0.0800 
 30 H       -1.4570     9.9740     0.3840 H     1 <1>   0.1500 
 31 H        0.9850    10.4960     0.5850 H     1 <1>   0.1500 
 32 H        1.3800     8.7580     0.5440 H     1 <1>   0.1500 
@<TRIPOS>BOND
  1   1   2  2   
  2   2   3  1   
  3   2   4  1   
  4   3   5  ar  
  5   3   6  ar  
  6   4   7  1   
  7   4  17  1   
  8   4  18  1   
  9   5   8  ar  
 10   5  19  1   
 11   6   9  ar  
 12   6  20  1   
 13   7  21  1   
 14   7  22  1   
 15   7  23  1   
 16   8  10  1   
 17   8  11  ar  
 18   9  11  ar  
 19   9  24  1   
 20  10  12  1   
 21  11  13  1   
 22  12  25  1   
 23  12  26  1   
 24  12  27  1   
 25  13  14  1   
 26  14  15  1   
 27  14  28  1   
 28  14  29  1   
 29  15  16  2   
 30  15  30  1   
 31  16  31  1   
 32  16  32  1   
@<TRIPOS>SUBSTRUCTURE
  1 ****  11 GROUP 4 **** **** 0

# MOE 2024.06 (io_trps.svl 2023.06)
