@<TRIPOS>MOLECULE
NONAME
43 45 1 0 0 
SMALL
USER_CHARGES


@<TRIPOS>ATOM
  1 N       -2.4420     1.6220     0.1250 N.2   1 <1>  -0.5650 
  2 C       -3.5350     2.2950    -0.0480 C.2   1 <1>   0.0060 
  3 C       -1.8480     2.2320     1.1660 C.2   1 <1>   0.0770 
  4 N       -3.6930     3.3150     0.8340 N.pl3 1 <1>   0.0480 
  5 C       -4.5370     1.9330    -1.1340 C.3   1 <1>   0.5230 
  6 C       -2.5990     3.2610     1.6110 C.2   1 <1>  -0.3020 
  7 C       -4.7920     4.2890     0.9850 C.3   1 <1>   0.0160 
  8 N       -5.6040     1.0370    -0.6060 N.4   1 <1>  -0.9590 
  9 C       -5.0940    -0.0730     0.2560 C.3   1 <1>   0.3430 
 10 C       -6.5390     0.5270    -1.6570 C.3   1 <1>   0.3430 
 11 C       -6.2580    -0.7260     1.0340 C.3   1 <1>   0.1100 
 12 C       -7.4860    -0.5800    -1.1210 C.3   1 <1>   0.1100 
 13 N       -7.5810    -0.6350     0.3580 N.3   1 <1>  -0.8100 
 14 C       -8.5580     0.2830     1.0040 C.3   1 <1>   0.2900 
 15 C       -8.6090     1.6930     0.4060 C.2   1 <1>   0.0070 
 16 N       -7.6940     2.6030     0.5720 N.2   1 <1>  -0.5650 
 17 N       -9.6590     2.1160    -0.3470 N.pl3 1 <1>   0.0480 
 18 C       -8.1800     3.6720    -0.0880 C.2   1 <1>   0.0770 
 19 C       -9.3660     3.3880    -0.6600 C.2   1 <1>  -0.3020 
 20 C      -10.9030     1.4100    -0.7180 C.3   1 <1>   0.0160 
 21 H       -0.8960     1.8960     1.5480 H     1 <1>   0.1500 
 22 H       -4.0020     1.4270    -1.9200 H     1 <1>   0.0800 
 23 H       -4.9730     2.8290    -1.5420 H     1 <1>   0.0800 
 24 H       -2.4090     3.9420     2.4220 H     1 <1>   0.1500 
 25 H       -5.5310     3.8900     1.6560 H     1 <1>   0.0800 
 26 H       -5.2370     4.4920     0.0300 H     1 <1>   0.0800 
 27 H       -4.4020     5.2040     1.3930 H     1 <1>   0.0800 
 28 H       -6.2140     1.5980     0.0220 H     1 <1>   0.4500 
 29 H       -4.3670     0.2900     0.9650 H     1 <1>   0.0800 
 30 H       -4.6090    -0.8150    -0.3560 H     1 <1>   0.0800 
 31 H       -5.9840     0.1340    -2.4920 H     1 <1>   0.0800 
 32 H       -7.1400     1.3460    -2.0180 H     1 <1>   0.0800 
 33 H       -6.3100    -0.2790     2.0120 H     1 <1>   0.0800 
 34 H       -6.0180    -1.7650     1.1850 H     1 <1>   0.0800 
 35 H       -7.1120    -1.5290    -1.4640 H     1 <1>   0.0800 
 36 H       -8.4650    -0.4620    -1.5520 H     1 <1>   0.0800 
 37 H       -8.3460     0.3630     2.0560 H     1 <1>   0.0800 
 38 H       -9.5310    -0.1690     0.9290 H     1 <1>   0.0800 
 39 H       -7.6580     4.6150    -0.1180 H     1 <1>   0.1500 
 40 H      -10.0110     4.0190    -1.2470 H     1 <1>   0.1500 
 41 H      -11.5340     1.3220     0.1480 H     1 <1>   0.0800 
 42 H      -10.6700     0.4320    -1.0960 H     1 <1>   0.0800 
 43 H      -11.4220     1.9680    -1.4760 H     1 <1>   0.0800 
@<TRIPOS>BOND
  1   1   2  2   
  2   1   3  1   
  3   2   4  1   
  4   2   5  1   
  5   3   6  2   
  6   3  21  1   
  7   4   6  1   
  8   4   7  1   
  9   5   8  1   
 10   5  22  1   
 11   5  23  1   
 12   6  24  1   
 13   7  25  1   
 14   7  26  1   
 15   7  27  1   
 16   8   9  1   
 17   8  10  1   
 18   8  28  1   
 19   9  11  1   
 20   9  29  1   
 21   9  30  1   
 22  10  12  1   
 23  10  31  1   
 24  10  32  1   
 25  11  13  1   
 26  11  33  1   
 27  11  34  1   
 28  12  13  1   
 29  12  35  1   
 30  12  36  1   
 31  13  14  1   
 32  14  15  1   
 33  14  37  1   
 34  14  38  1   
 35  15  16  2   
 36  15  17  1   
 37  16  18  1   
 38  17  19  1   
 39  17  20  1   
 40  18  19  2   
 41  18  39  1   
 42  19  40  1   
 43  20  41  1   
 44  20  42  1   
 45  20  43  1   
@<TRIPOS>SUBSTRUCTURE
  1 ****   8 GROUP 4 **** **** 0

# MOE 2024.06 (io_trps.svl 2023.06)
