@<TRIPOS>MOLECULE
NONAME
41 42 1 0 0 
SMALL
USER_CHARGES


@<TRIPOS>ATOM
  1 CL       0.0440    -0.1250     1.4850 Cl    1 <1>  -0.1770 
  2 C        1.5870    -0.8620     1.1440 C.ar  1 <1>   0.1770 
  3 C        1.6670    -2.1050     0.5370 C.ar  1 <1>  -0.0090 
  4 C        2.7190    -0.1510     1.4970 C.ar  1 <1>  -0.1500 
  5 S        0.1540    -2.9940     0.0900 S.o2  1 <1>   1.4470 
  6 C        2.9400    -2.6050     0.2810 C.ar  1 <1>  -0.1500 
  7 C        3.9690    -0.6810     1.2420 C.ar  1 <1>  -0.1500 
  8 O       -0.4170    -2.3750    -1.0860 O.2   1 <1>  -0.6500 
  9 O       -0.6750    -3.2040     1.2570 O.2   1 <1>  -0.6500 
 10 N        0.6990    -4.5270    -0.3910 N.am  1 <1>  -0.8490 
 11 C        4.1120    -1.9290     0.6320 C.ar  1 <1>   0.0860 
 12 C        0.9370    -5.4740     0.6880 C.3   1 <1>   0.1960 
 13 C       -0.2090    -5.2020    -1.3010 C.3   1 <1>   0.1960 
 14 C        5.4160    -2.5150     0.3620 C.2   1 <1>   0.5440 
 15 C        1.0800    -6.8110    -0.0250 C.3   1 <1>  -0.1600 
 16 C        0.2570    -6.6550    -1.3040 C.3   1 <1>  -0.1600 
 17 O        5.5440    -3.3660    -0.4950 O.2   1 <1>  -0.5700 
 18 N        6.5230    -2.1360     1.0700 N.am  1 <1>  -0.7300 
 19 C        7.8760    -2.7340     0.9100 C.3   1 <1>   0.1400 
 20 C        8.5400    -2.2380    -0.3750 C.3   1 <1>   0.1200 
 21 O        9.8760    -2.6340    -0.3620 O.3   1 <1>  -0.5600 
 22 C       10.5640    -2.3190    -1.5290 C.3   1 <1>   0.0400 
 23 H        2.6140     0.8130     1.9640 H     1 <1>   0.1500 
 24 H        3.0440    -3.5570    -0.2150 H     1 <1>   0.1500 
 25 H        4.8410    -0.1120     1.5120 H     1 <1>   0.1500 
 26 H        0.0860    -5.5140     1.3500 H     1 <1>   0.0800 
 27 H        1.8200    -5.2200     1.2500 H     1 <1>   0.0800 
 28 H       -0.1660    -4.7620    -2.2840 H     1 <1>   0.0800 
 29 H       -1.2170    -5.1390    -0.9240 H     1 <1>   0.0800 
 30 H        0.7290    -7.6190     0.5920 H     1 <1>   0.0800 
 31 H        2.1150    -6.9760    -0.2680 H     1 <1>   0.0800 
 32 H        0.8680    -6.8410    -2.1690 H     1 <1>   0.0800 
 33 H       -0.5890    -7.3190    -1.3210 H     1 <1>   0.0800 
 34 H        6.4230    -1.4960     1.8580 H     1 <1>   0.3700 
 35 H        7.7900    -3.8070     0.8710 H     1 <1>   0.0800 
 36 H        8.4850    -2.4620     1.7550 H     1 <1>   0.0800 
 37 H        8.5060    -1.1640    -0.4270 H     1 <1>   0.0800 
 38 H        8.0530    -2.6720    -1.2320 H     1 <1>   0.0800 
 39 H       11.5790    -2.6570    -1.4200 H     1 <1>   0.0800 
 40 H       10.5490    -1.2530    -1.6740 H     1 <1>   0.0800 
 41 H       10.1010    -2.8230    -2.3600 H     1 <1>   0.0800 
@<TRIPOS>BOND
  1   1   2  1   
  2   2   3  ar  
  3   2   4  ar  
  4   3   5  1   
  5   3   6  ar  
  6   4   7  ar  
  7   4  23  1   
  8   5   8  2   
  9   5   9  2   
 10   5  10  am  
 11   6  11  ar  
 12   6  24  1   
 13   7  11  ar  
 14   7  25  1   
 15  10  12  1   
 16  10  13  1   
 17  11  14  1   
 18  12  15  1   
 19  12  26  1   
 20  12  27  1   
 21  13  16  1   
 22  13  28  1   
 23  13  29  1   
 24  14  17  2   
 25  14  18  am  
 26  15  16  1   
 27  15  30  1   
 28  15  31  1   
 29  16  32  1   
 30  16  33  1   
 31  18  19  1   
 32  18  34  1   
 33  19  20  1   
 34  19  35  1   
 35  19  36  1   
 36  20  21  1   
 37  20  37  1   
 38  20  38  1   
 39  21  22  1   
 40  22  39  1   
 41  22  40  1   
 42  22  41  1   
@<TRIPOS>SUBSTRUCTURE
  1 ****   6 GROUP 4 **** **** 0

# MOE 2024.06 (io_trps.svl 2023.06)
