@<TRIPOS>MOLECULE
NONAME
47 48 1 0 0 
SMALL
USER_CHARGES


@<TRIPOS>ATOM
  1 O        0.0310    -0.1130     0.9430 O.2   1 <1>  -0.5700 
  2 C       -0.0310    -0.9540     0.0680 C.2   1 <1>   0.6900 
  3 N        1.0750    -1.4850    -0.5230 N.am  1 <1>  -0.5470 
  4 N       -1.2460    -1.3920    -0.3500 N.am  1 <1>  -0.7300 
  5 C        2.4330    -1.1550    -0.3870 C.ar  1 <1>   0.1170 
  6 C       -2.5070    -0.9290     0.2440 C.3   1 <1>   0.2200 
  7 C        2.8710     0.1050     0.0110 C.ar  1 <1>  -0.1500 
  8 C        3.3890    -2.1210    -0.6830 C.ar  1 <1>  -0.1500 
  9 C       -3.5680    -2.0170     0.1320 C.3   1 <1>  -0.1600 
 10 C       -2.9680     0.3380    -0.4670 C.3   1 <1>  -0.1600 
 11 C        4.2200     0.3920     0.1180 C.ar  1 <1>  -0.1500 
 12 C        4.7390    -1.8390    -0.5790 C.ar  1 <1>  -0.1500 
 13 C       -4.8960    -1.5140     0.6940 C.3   1 <1>   0.3430 
 14 C       -4.3000     0.8090     0.1080 C.3   1 <1>   0.3430 
 15 C        5.1660    -0.5850    -0.1780 C.ar  1 <1>   0.0830 
 16 N       -5.3370    -0.2690    -0.0190 N.4   1 <1>  -0.9590 
 17 O        6.5090    -0.3910    -0.1010 O.3   1 <1>  -0.3630 
 18 C       -6.6870     0.1920     0.4250 C.3   1 <1>   0.4230 
 19 C        7.0360     0.8420     0.3370 C.3   1 <1>   0.0400 
 20 C       -7.7180    -0.9200     0.2170 C.3   1 <1>  -0.2400 
 21 C       -7.1170     1.4170    -0.3860 C.3   1 <1>  -0.2400 
 22 H        0.8990    -2.3270    -1.0580 H     1 <1>   0.3700 
 23 H       -1.3030    -1.9330    -1.2100 H     1 <1>   0.3700 
 24 H       -2.3400    -0.7080     1.2880 H     1 <1>   0.0800 
 25 H        2.1550     0.8730     0.2390 H     1 <1>   0.1500 
 26 H        3.0810    -3.1020    -0.9930 H     1 <1>   0.1500 
 27 H       -3.2550    -2.8760     0.7000 H     1 <1>   0.0800 
 28 H       -3.7010    -2.3170    -0.8920 H     1 <1>   0.0800 
 29 H       -3.0670     0.1700    -1.5240 H     1 <1>   0.0800 
 30 H       -2.2360     1.1130    -0.3160 H     1 <1>   0.0800 
 31 H        4.5110     1.3760     0.4320 H     1 <1>   0.1500 
 32 H        5.4730    -2.5910    -0.8070 H     1 <1>   0.1500 
 33 H       -4.7870    -1.3100     1.7470 H     1 <1>   0.0800 
 34 H       -5.6320    -2.2920     0.5780 H     1 <1>   0.0800 
 35 H       -4.6080     1.6920    -0.4270 H     1 <1>   0.0800 
 36 H       -4.1700     1.0720     1.1460 H     1 <1>   0.0800 
 37 H       -5.4250    -0.4950    -1.0160 H     1 <1>   0.4500 
 38 H       -6.6600     0.4550     1.4720 H     1 <1>   0.0800 
 39 H        8.1080     0.7660     0.3350 H     1 <1>   0.0800 
 40 H        6.6840     1.0370     1.3340 H     1 <1>   0.0800 
 41 H        6.7230     1.6150    -0.3420 H     1 <1>   0.0800 
 42 H       -7.7040    -1.2790    -0.7970 H     1 <1>   0.0800 
 43 H       -8.7050    -0.5410     0.4180 H     1 <1>   0.0800 
 44 H       -7.5630    -1.7370     0.8960 H     1 <1>   0.0800 
 45 H       -7.0600     1.2240    -1.4430 H     1 <1>   0.0800 
 46 H       -6.5300     2.2820    -0.1410 H     1 <1>   0.0800 
 47 H       -8.1380     1.6660    -0.1520 H     1 <1>   0.0800 
@<TRIPOS>BOND
  1   1   2  2   
  2   2   3  am  
  3   2   4  am  
  4   3   5  1   
  5   3  22  1   
  6   4   6  1   
  7   4  23  1   
  8   5   7  ar  
  9   5   8  ar  
 10   6   9  1   
 11   6  10  1   
 12   6  24  1   
 13   7  11  ar  
 14   7  25  1   
 15   8  12  ar  
 16   8  26  1   
 17   9  13  1   
 18   9  27  1   
 19   9  28  1   
 20  10  14  1   
 21  10  29  1   
 22  10  30  1   
 23  11  15  ar  
 24  11  31  1   
 25  12  15  ar  
 26  12  32  1   
 27  13  16  1   
 28  13  33  1   
 29  13  34  1   
 30  14  16  1   
 31  14  35  1   
 32  14  36  1   
 33  15  17  1   
 34  16  18  1   
 35  16  37  1   
 36  17  19  1   
 37  18  20  1   
 38  18  21  1   
 39  18  38  1   
 40  19  39  1   
 41  19  40  1   
 42  19  41  1   
 43  20  42  1   
 44  20  43  1   
 45  20  44  1   
 46  21  45  1   
 47  21  46  1   
 48  21  47  1   
@<TRIPOS>SUBSTRUCTURE
  1 ****   2 GROUP 4 **** **** 0

# MOE 2024.06 (io_trps.svl 2023.06)
