@<TRIPOS>MOLECULE
NONAME
29 30 1 0 0 
SMALL
USER_CHARGES


@<TRIPOS>ATOM
  1 BR       1.0860    -0.6960    -0.3830 Br    1 <1>  -0.0570 
  2 C       -0.4200    -1.8510    -0.7250 C.2   1 <1>   0.0570 
  3 C       -0.7510    -2.3210    -1.9370 C.2   1 <1>  -0.1100 
  4 C       -1.2550    -2.2480     0.3630 C.2   1 <1>  -0.1500 
  5 S       -2.1850    -3.3260    -1.7820 S.3   1 <1>  -0.0800 
  6 C       -2.2630    -3.0500    -0.0370 C.2   1 <1>  -0.1400 
  7 C       -3.3960    -3.7190     0.7100 C.3   1 <1>   0.5230 
  8 N       -4.6840    -3.2270     0.1480 N.4   1 <1>  -0.9590 
  9 C       -4.8640    -1.7620     0.3930 C.3   1 <1>   0.3430 
 10 C       -5.8380    -4.0430     0.6280 C.3   1 <1>   0.3430 
 11 C       -6.1310    -1.2730    -0.3030 C.3   1 <1>  -0.1600 
 12 C       -7.1180    -3.5850    -0.0660 C.3   1 <1>  -0.1600 
 13 C       -7.3340    -2.0910     0.1590 C.3   1 <1>   0.2000 
 14 O       -8.4360    -1.6940    -0.5540 O.3   1 <1>  -0.6800 
 15 H       -0.3140    -2.1920    -2.9120 H     1 <1>   0.1500 
 16 H       -1.0400    -1.9090     1.3630 H     1 <1>   0.1500 
 17 H       -3.3320    -3.4900     1.7620 H     1 <1>   0.0800 
 18 H       -3.3180    -4.7860     0.5830 H     1 <1>   0.0800 
 19 H       -4.6000    -3.3520    -0.8710 H     1 <1>   0.4500 
 20 H       -4.0160    -1.2140     0.0130 H     1 <1>   0.0800 
 21 H       -4.9410    -1.5740     1.4520 H     1 <1>   0.0800 
 22 H       -5.9490    -3.9280     1.6950 H     1 <1>   0.0800 
 23 H       -5.6700    -5.0870     0.4140 H     1 <1>   0.0800 
 24 H       -6.0040    -1.3500    -1.3680 H     1 <1>   0.0800 
 25 H       -6.2880    -0.2380    -0.0540 H     1 <1>   0.0800 
 26 H       -7.9520    -4.1280     0.3450 H     1 <1>   0.0800 
 27 H       -7.0540    -3.8060    -1.1160 H     1 <1>   0.0800 
 28 H       -7.5410    -1.8960     1.2000 H     1 <1>   0.0800 
 29 H       -8.3220    -1.8260    -1.5150 H     1 <1>   0.4000 
@<TRIPOS>BOND
  1   1   2  1   
  2   2   3  2   
  3   2   4  1   
  4   3   5  1   
  5   3  15  1   
  6   4   6  2   
  7   4  16  1   
  8   5   6  1   
  9   6   7  1   
 10   7   8  1   
 11   7  17  1   
 12   7  18  1   
 13   8   9  1   
 14   8  10  1   
 15   8  19  1   
 16   9  11  1   
 17   9  20  1   
 18   9  21  1   
 19  10  12  1   
 20  10  22  1   
 21  10  23  1   
 22  11  13  1   
 23  11  24  1   
 24  11  25  1   
 25  12  13  1   
 26  12  26  1   
 27  12  27  1   
 28  13  14  1   
 29  13  28  1   
 30  14  29  1   
@<TRIPOS>SUBSTRUCTURE
  1 ****   8 GROUP 4 **** **** 0

# MOE 2024.06 (io_trps.svl 2023.06)
