@<TRIPOS>MOLECULE
NONAME
45 46 1 0 0 
SMALL
USER_CHARGES


@<TRIPOS>ATOM
  1 O       -1.4240    -0.0420     1.2290 O.3   1 <1>  -0.3630 
  2 C       -2.0800     0.7350     0.3210 C.ar  1 <1>   0.0830 
  3 C       -0.0260     0.0040     1.4130 C.3   1 <1>   0.0400 
  4 C       -1.5900     1.8910    -0.3140 C.ar  1 <1>   0.0830 
  5 C       -3.3610     0.2940     0.0350 C.ar  1 <1>  -0.1500 
  6 O       -0.3400     2.3560    -0.0260 O.3   1 <1>  -0.3630 
  7 C       -2.4100     2.5520    -1.2260 C.ar  1 <1>  -0.1500 
  8 C       -4.1760     0.9680    -0.8600 C.ar  1 <1>  -0.1430 
  9 C        0.2210     3.4830    -0.6650 C.3   1 <1>   0.0400 
 10 C       -3.6880     2.0970    -1.4970 C.ar  1 <1>  -0.1500 
 11 C       -5.5850     0.4760    -1.1220 C.3   1 <1>   0.4860 
 12 N       -6.4020     0.7130     0.0990 N.4   1 <1>  -0.9590 
 13 C       -7.7390     0.0360     0.0090 C.3   1 <1>   0.3430 
 14 C       -6.4550     2.1790     0.4270 C.3   1 <1>   0.3430 
 15 C       -8.8430     1.0230    -0.3980 C.3   1 <1>  -0.0800 
 16 C       -7.6490     2.4970     1.3370 C.3   1 <1>  -0.0800 
 17 C       -8.9830     2.1580     0.6380 C.3   1 <1>  -0.1600 
 18 C      -10.1850     0.3030    -0.5890 C.3   1 <1>  -0.2400 
 19 C       -7.6290     3.9650     1.7800 C.3   1 <1>  -0.2400 
 20 H        0.2600    -0.8320     2.0250 H     1 <1>   0.0800 
 21 H        0.2300     0.9220     1.9100 H     1 <1>   0.0800 
 22 H        0.4570    -0.0610     0.4540 H     1 <1>   0.0800 
 23 H       -3.7000    -0.5970     0.5330 H     1 <1>   0.1500 
 24 H       -2.0720     3.4320    -1.7400 H     1 <1>   0.1500 
 25 H        1.2150     3.6240    -0.2790 H     1 <1>   0.0800 
 26 H       -0.3800     4.3470    -0.4430 H     1 <1>   0.0800 
 27 H        0.2660     3.3010    -1.7240 H     1 <1>   0.0800 
 28 H       -4.2910     2.6360    -2.2090 H     1 <1>   0.1500 
 29 H       -5.5560    -0.5770    -1.3520 H     1 <1>   0.0800 
 30 H       -6.0110     0.9990    -1.9630 H     1 <1>   0.0800 
 31 H       -5.8810     0.2700     0.8670 H     1 <1>   0.4500 
 32 H       -7.9960    -0.3710     0.9730 H     1 <1>   0.0800 
 33 H       -7.6990    -0.7800    -0.6940 H     1 <1>   0.0800 
 34 H       -6.5580     2.7520    -0.4800 H     1 <1>   0.0800 
 35 H       -5.5360     2.4800     0.9070 H     1 <1>   0.0800 
 36 H       -8.5710     1.4510    -1.3490 H     1 <1>   0.0800 
 37 H       -7.5550     1.8920     2.2240 H     1 <1>   0.0800 
 38 H       -9.6980     1.8890     1.3970 H     1 <1>   0.0800 
 39 H       -9.3730     3.0260     0.1320 H     1 <1>   0.0800 
 40 H      -10.5060    -0.1670     0.3250 H     1 <1>   0.0800 
 41 H      -10.1070    -0.4520    -1.3520 H     1 <1>   0.0800 
 42 H      -10.9430     1.0050    -0.8920 H     1 <1>   0.0800 
 43 H       -7.6960     4.6270     0.9330 H     1 <1>   0.0800 
 44 H       -6.7210     4.1870     2.3150 H     1 <1>   0.0800 
 45 H       -8.4590     4.1680     2.4350 H     1 <1>   0.0800 
@<TRIPOS>BOND
  1   1   2  1   
  2   1   3  1   
  3   2   4  ar  
  4   2   5  ar  
  5   3  20  1   
  6   3  21  1   
  7   3  22  1   
  8   4   6  1   
  9   4   7  ar  
 10   5   8  ar  
 11   5  23  1   
 12   6   9  1   
 13   7  10  ar  
 14   7  24  1   
 15   8  10  ar  
 16   8  11  1   
 17   9  25  1   
 18   9  26  1   
 19   9  27  1   
 20  10  28  1   
 21  11  12  1   
 22  11  29  1   
 23  11  30  1   
 24  12  13  1   
 25  12  14  1   
 26  12  31  1   
 27  13  15  1   
 28  13  32  1   
 29  13  33  1   
 30  14  16  1   
 31  14  34  1   
 32  14  35  1   
 33  15  17  1   
 34  15  18  1   
 35  15  36  1   
 36  16  17  1   
 37  16  19  1   
 38  16  37  1   
 39  17  38  1   
 40  17  39  1   
 41  18  40  1   
 42  18  41  1   
 43  18  42  1   
 44  19  43  1   
 45  19  44  1   
 46  19  45  1   
@<TRIPOS>SUBSTRUCTURE
  1 ****   8 GROUP 4 **** **** 0

# MOE 2024.06 (io_trps.svl 2023.06)
