@<TRIPOS>MOLECULE
NONAME
32 32 1 0 0 
SMALL
USER_CHARGES


@<TRIPOS>ATOM
  1 S       -0.1840    -0.2350     0.1060 S.3   1 <1>  -0.3320 
  2 C       -1.6470     0.7820    -0.0050 C.ar  1 <1>   0.7220 
  3 C        1.2050     0.9610    -0.0600 C.3   1 <1>   0.0700 
  4 N       -1.4270     2.0780    -0.1660 N.ar  1 <1>  -0.6200 
  5 N       -2.7860     0.1230     0.0880 N.ar  1 <1>  -0.6200 
  6 C        2.5030     0.1600     0.0470 C.3   1 <1>   0.3430 
  7 C       -2.5190     2.8030    -0.2460 C.ar  1 <1>   0.1660 
  8 C       -3.8580     0.8740     0.0060 C.ar  1 <1>   0.1660 
  9 N        3.7200     1.0220    -0.1170 N.4   1 <1>  -0.9590 
 10 C       -3.7730     2.2380    -0.1640 C.ar  1 <1>  -0.1500 
 11 C       -2.3450     4.2960    -0.4330 C.3   1 <1>  -0.0970 
 12 C       -5.1950     0.1730     0.1050 C.3   1 <1>  -0.0970 
 13 C        4.9430     0.1680    -0.2340 C.3   1 <1>   0.2630 
 14 C        3.8760     2.0010     1.0080 C.3   1 <1>   0.2630 
 15 H        1.0950     1.6750     0.7360 H     1 <1>   0.0800 
 16 H        1.0970     1.4330    -1.0210 H     1 <1>   0.0800 
 17 H        2.4930    -0.5990    -0.7190 H     1 <1>   0.0800 
 18 H        2.5310    -0.3350     1.0040 H     1 <1>   0.0800 
 19 H        3.6180     1.5510    -0.9990 H     1 <1>   0.4500 
 20 H       -4.6580     2.8420    -0.2310 H     1 <1>   0.1500 
 21 H       -1.8020     4.4850    -1.3410 H     1 <1>   0.0800 
 22 H       -1.7920     4.7010     0.3940 H     1 <1>   0.0800 
 23 H       -3.2960     4.7920    -0.4890 H     1 <1>   0.0800 
 24 H       -5.2810    -0.5520    -0.6840 H     1 <1>   0.0800 
 25 H       -6.0070     0.8710     0.0270 H     1 <1>   0.0800 
 26 H       -5.2640    -0.3370     1.0490 H     1 <1>   0.0800 
 27 H        5.0860    -0.4080     0.6660 H     1 <1>   0.0800 
 28 H        5.8150     0.7810    -0.3930 H     1 <1>   0.0800 
 29 H        4.8470    -0.5110    -1.0660 H     1 <1>   0.0800 
 30 H        3.9620     1.4800     1.9480 H     1 <1>   0.0800 
 31 H        3.0240     2.6600     1.0560 H     1 <1>   0.0800 
 32 H        4.7610     2.6000     0.8630 H     1 <1>   0.0800 
@<TRIPOS>BOND
  1   1   2  1   
  2   1   3  1   
  3   2   4  ar  
  4   2   5  ar  
  5   3   6  1   
  6   3  15  1   
  7   3  16  1   
  8   4   7  ar  
  9   5   8  ar  
 10   6   9  1   
 11   6  17  1   
 12   6  18  1   
 13   7  10  ar  
 14   7  11  1   
 15   8  10  ar  
 16   8  12  1   
 17   9  13  1   
 18   9  14  1   
 19   9  19  1   
 20  10  20  1   
 21  11  21  1   
 22  11  22  1   
 23  11  23  1   
 24  12  24  1   
 25  12  25  1   
 26  12  26  1   
 27  13  27  1   
 28  13  28  1   
 29  13  29  1   
 30  14  30  1   
 31  14  31  1   
 32  14  32  1   
@<TRIPOS>SUBSTRUCTURE
  1 ****   2 GROUP 4 **** **** 0

# MOE 2024.06 (io_trps.svl 2023.06)
