@<TRIPOS>MOLECULE
NONAME
52 55 1 0 0 
SMALL
USER_CHARGES


@<TRIPOS>ATOM
  1 F        0.4460    -4.6050     0.9310 F     1 <1>  -0.1900 
  2 C       -0.0860    -3.4130     0.9090 C.ar  1 <1>   0.1900 
  3 C        0.7050    -2.2980     0.6190 C.ar  1 <1>   0.0860 
  4 C       -1.4370    -3.3340     1.1950 C.ar  1 <1>  -0.1500 
  5 C        2.1210    -2.3620     0.3070 C.2   1 <1>   0.5440 
  6 C        0.0460    -1.0650     0.6440 C.ar  1 <1>  -0.1500 
  7 C       -2.0520    -2.0960     1.2040 C.ar  1 <1>  -0.1500 
  8 O        2.8410    -1.4210     0.5870 O.2   1 <1>  -0.5700 
  9 N        2.6590    -3.4620    -0.3110 N.am  1 <1>  -0.5470 
 10 C       -1.3060    -0.9620     0.9290 C.ar  1 <1>  -0.1500 
 11 C        3.9680    -3.7860    -0.7000 C.ar  1 <1>   0.1170 
 12 C        4.2860    -5.1490    -0.7910 C.ar  1 <1>   0.1000 
 13 C        4.9270    -2.8350    -0.9980 C.ar  1 <1>  -0.1500 
 14 N        3.3110    -6.1190    -0.5270 N.pl3 1 <1>  -0.8380 
 15 C        5.5830    -5.5050    -1.1420 C.ar  1 <1>  -0.1500 
 16 C        6.2380    -3.1800    -1.3250 C.ar  1 <1>   0.0860 
 17 C        3.3810    -6.7770     0.8030 C.3   1 <1>   0.2090 
 18 C        3.0370    -7.1350    -1.5750 C.3   1 <1>   0.2090 
 19 C        6.5370    -4.5400    -1.4010 C.ar  1 <1>  -0.1500 
 20 C        7.2540    -2.1790    -1.5820 C.2   1 <1>   0.5440 
 21 C        2.9220    -8.2110     0.5720 C.3   1 <1>  -0.1600 
 22 C        3.2380    -8.4820    -0.8930 C.3   1 <1>  -0.1600 
 23 O        7.9840    -2.3030    -2.5500 O.2   1 <1>  -0.5700 
 24 N        7.4430    -1.0950    -0.7480 N.am  1 <1>  -0.6600 
 25 C        6.8850    -0.9670     0.6210 C.3   1 <1>   0.1400 
 26 C        8.5180    -0.1020    -0.9690 C.3   1 <1>   0.1400 
 27 C        7.5910     0.2400     1.2300 C.3   1 <1>  -0.1600 
 28 C        8.8770     0.3940     0.4250 C.3   1 <1>  -0.1600 
 29 H       -1.9950    -4.2280     1.4100 H     1 <1>   0.1500 
 30 H        0.6100    -0.1710     0.4360 H     1 <1>   0.1500 
 31 H       -3.1030    -2.0120     1.4240 H     1 <1>   0.1500 
 32 H        2.0850    -4.3140    -0.3030 H     1 <1>   0.3700 
 33 H       -1.7800     0.0050     0.9380 H     1 <1>   0.1500 
 34 H        4.6600    -1.7960    -0.9830 H     1 <1>   0.1500 
 35 H        5.8410    -6.5450    -1.2070 H     1 <1>   0.1500 
 36 H        2.7440    -6.2700     1.5080 H     1 <1>   0.0800 
 37 H        4.3950    -6.7610     1.1640 H     1 <1>   0.0800 
 38 H        3.6870    -7.0180    -2.4250 H     1 <1>   0.0800 
 39 H        2.0150    -7.0310    -1.8950 H     1 <1>   0.0800 
 40 H        7.5370    -4.8310    -1.6720 H     1 <1>   0.1500 
 41 H        1.8590    -8.2650     0.7340 H     1 <1>   0.0800 
 42 H        3.4140    -8.8990     1.2350 H     1 <1>   0.0800 
 43 H        4.2680    -8.7760    -0.9980 H     1 <1>   0.0800 
 44 H        2.6080    -9.2430    -1.3170 H     1 <1>   0.0800 
 45 H        7.1080    -1.8590     1.1810 H     1 <1>   0.0800 
 46 H        5.8200    -0.8090     0.5990 H     1 <1>   0.0800 
 47 H        8.1300     0.7010    -1.5710 H     1 <1>   0.0800 
 48 H        9.3680    -0.5440    -1.4620 H     1 <1>   0.0800 
 49 H        7.7760     0.1050     2.2810 H     1 <1>   0.0800 
 50 H        6.9690     1.1080     1.0940 H     1 <1>   0.0800 
 51 H        9.2350     1.4080     0.4090 H     1 <1>   0.0800 
 52 H        9.6430    -0.2430     0.8330 H     1 <1>   0.0800 
@<TRIPOS>BOND
  1   1   2  1   
  2   2   3  ar  
  3   2   4  ar  
  4   3   5  1   
  5   3   6  ar  
  6   4   7  ar  
  7   4  29  1   
  8   5   8  2   
  9   5   9  am  
 10   6  10  ar  
 11   6  30  1   
 12   7  10  ar  
 13   7  31  1   
 14   9  11  1   
 15   9  32  1   
 16  10  33  1   
 17  11  12  ar  
 18  11  13  ar  
 19  12  14  1   
 20  12  15  ar  
 21  13  16  ar  
 22  13  34  1   
 23  14  17  1   
 24  14  18  1   
 25  15  19  ar  
 26  15  35  1   
 27  16  19  ar  
 28  16  20  1   
 29  17  21  1   
 30  17  36  1   
 31  17  37  1   
 32  18  22  1   
 33  18  38  1   
 34  18  39  1   
 35  19  40  1   
 36  20  23  2   
 37  20  24  am  
 38  21  22  1   
 39  21  41  1   
 40  21  42  1   
 41  22  43  1   
 42  22  44  1   
 43  24  25  1   
 44  24  26  1   
 45  25  27  1   
 46  25  45  1   
 47  25  46  1   
 48  26  28  1   
 49  26  47  1   
 50  26  48  1   
 51  27  28  1   
 52  27  49  1   
 53  27  50  1   
 54  28  51  1   
 55  28  52  1   
@<TRIPOS>SUBSTRUCTURE
  1 ****  11 GROUP 4 **** **** 0

# MOE 2024.06 (io_trps.svl 2023.06)
