@<TRIPOS>MOLECULE
NONAME
48 49 1 0 0 
SMALL
USER_CHARGES


@<TRIPOS>ATOM
  1 S       -0.1220    -0.0490     1.4010 S.3   1 <1>  -0.0800 
  2 C       -0.2120     1.5230     0.6350 C.2   1 <1>   0.1040 
  3 C       -1.8330    -0.3340     1.1720 C.2   1 <1>  -0.1400 
  4 N        0.9310     2.3000     0.5080 N.am  1 <1>  -0.4940 
  5 C       -1.4940     1.8010     0.2320 C.2   1 <1>  -0.0860 
  6 C       -2.4090     0.7160     0.5510 C.2   1 <1>  -0.1810 
  7 C       -2.3250    -1.6690     1.7010 C.3   1 <1>  -0.0600 
  8 C        2.2410     2.1240     0.8760 C.2   1 <1>   0.5690 
  9 C       -1.8250     3.0450    -0.4260 C.2   1 <1>   0.8060 
 10 C       -3.8950     0.7630     0.2110 C.3   1 <1>  -0.0590 
 11 O        2.6600     1.1400     1.4320 O.2   1 <1>  -0.5700 
 12 C        3.2090     3.2590     0.5410 C.3   1 <1>  -0.0190 
 13 O       -0.9920     3.9050    -0.6680 O.2   1 <1>  -0.5700 
 14 O       -3.0870     3.2910    -0.7950 O.3   1 <1>  -0.4300 
 15 C        3.9570     2.9750    -0.7740 C.3   1 <1>  -0.1600 
 16 C        4.2210     3.5210     1.6750 C.3   1 <1>  -0.1600 
 17 C       -3.4650     4.4880    -1.4370 C.3   1 <1>   0.1200 
 18 C        4.9450     4.0930    -1.1190 C.3   1 <1>   0.1400 
 19 C        5.1990     4.6400     1.3090 C.3   1 <1>   0.1400 
 20 C       -4.9640     4.4230    -1.7090 C.3   1 <1>  -0.2400 
 21 N        5.8760     4.3080     0.0240 N.am  1 <1>  -0.6600 
 22 C        7.2330     4.1830    -0.1420 C.2   1 <1>   0.5690 
 23 O        7.7340     3.9570    -1.2180 O.2   1 <1>  -0.5700 
 24 C        8.1710     4.3250     1.0340 C.3   1 <1>  -0.1790 
 25 H        0.7450     3.1900     0.0350 H     1 <1>   0.3700 
 26 H       -2.1300    -1.7330     2.7560 H     1 <1>   0.0800 
 27 H       -1.8020    -2.4670     1.2060 H     1 <1>   0.0800 
 28 H       -3.3780    -1.7980     1.5400 H     1 <1>   0.0800 
 29 H       -4.4020    -0.1300     0.5210 H     1 <1>   0.0800 
 30 H       -4.0280     0.8650    -0.8510 H     1 <1>   0.0800 
 31 H       -4.3610     1.5950     0.7080 H     1 <1>   0.0800 
 32 H        2.6330     4.1580     0.4080 H     1 <1>   0.0800 
 33 H        3.2520     2.8660    -1.5800 H     1 <1>   0.0800 
 34 H        4.4990     2.0480    -0.6890 H     1 <1>   0.0800 
 35 H        4.7810     2.6250     1.8790 H     1 <1>   0.0800 
 36 H        3.6940     3.7860     2.5740 H     1 <1>   0.0800 
 37 H       -2.9100     4.5740    -2.3570 H     1 <1>   0.0800 
 38 H       -3.2250     5.3150    -0.7900 H     1 <1>   0.0800 
 39 H        4.4150     5.0090    -1.3170 H     1 <1>   0.0800 
 40 H        5.4890     3.8260    -2.0100 H     1 <1>   0.0800 
 41 H        5.9090     4.7670     2.1060 H     1 <1>   0.0800 
 42 H        4.6660     5.5680     1.1910 H     1 <1>   0.0800 
 43 H       -5.1910     3.5880    -2.3480 H     1 <1>   0.0800 
 44 H       -5.2830     5.3250    -2.2000 H     1 <1>   0.0800 
 45 H       -5.5060     4.3280    -0.7850 H     1 <1>   0.0800 
 46 H        8.1000     5.3160     1.4390 H     1 <1>   0.0800 
 47 H        9.1820     4.1560     0.7120 H     1 <1>   0.0800 
 48 H        7.9250     3.6000     1.7860 H     1 <1>   0.0800 
@<TRIPOS>BOND
  1   1   2  1   
  2   1   3  1   
  3   2   4  1   
  4   2   5  2   
  5   3   6  2   
  6   3   7  1   
  7   4   8  am  
  8   4  25  1   
  9   5   6  1   
 10   5   9  1   
 11   6  10  1   
 12   7  26  1   
 13   7  27  1   
 14   7  28  1   
 15   8  11  2   
 16   8  12  1   
 17   9  13  2   
 18   9  14  1   
 19  10  29  1   
 20  10  30  1   
 21  10  31  1   
 22  12  15  1   
 23  12  16  1   
 24  12  32  1   
 25  14  17  1   
 26  15  18  1   
 27  15  33  1   
 28  15  34  1   
 29  16  19  1   
 30  16  35  1   
 31  16  36  1   
 32  17  20  1   
 33  17  37  1   
 34  17  38  1   
 35  18  21  1   
 36  18  39  1   
 37  18  40  1   
 38  19  21  1   
 39  19  41  1   
 40  19  42  1   
 41  20  43  1   
 42  20  44  1   
 43  20  45  1   
 44  21  22  am  
 45  22  23  2   
 46  22  24  1   
 47  24  46  1   
 48  24  47  1   
 49  24  48  1   
@<TRIPOS>SUBSTRUCTURE
  1 ****   4 GROUP 4 **** **** 0

# MOE 2024.06 (io_trps.svl 2023.06)
