@<TRIPOS>MOLECULE
NONAME
32 33 1 0 0 
SMALL
USER_CHARGES


@<TRIPOS>ATOM
  1 S        0.2540    -0.0980     0.2130 S.o2  1 <1>   1.5760 
  2 O        0.0890    -0.6070    -1.1280 O.2   1 <1>  -0.6500 
  3 O        0.1970    -0.9380     1.3820 O.2   1 <1>  -0.6500 
  4 N        1.6560     0.8330     0.2730 N.am  1 <1>  -0.8490 
  5 N       -0.8600     1.1620     0.5020 N.am  1 <1>  -0.7570 
  6 C        1.8240     1.6420    -0.9400 C.3   1 <1>   0.1960 
  7 C        2.8320    -0.0070     0.5090 C.3   1 <1>   0.1960 
  8 C       -2.2070     1.1010     0.1890 C.ar  1 <1>   0.1990 
  9 C        3.0260     2.5800    -0.7890 C.3   1 <1>  -0.1600 
 10 C        4.0780     0.8650     0.7060 C.3   1 <1>  -0.1600 
 11 C       -2.6440     0.8400    -1.1090 C.ar  1 <1>  -0.1500 
 12 C       -3.1510     1.3230     1.1900 C.ar  1 <1>  -0.1500 
 13 C        4.3080     1.7960    -0.4910 C.3   1 <1>  -0.1600 
 14 C       -3.9950     0.7900    -1.4060 C.ar  1 <1>  -0.1500 
 15 C       -4.5060     1.2790     0.9090 C.ar  1 <1>  -0.1500 
 16 C       -4.9030     1.0120    -0.3880 C.ar  1 <1>   0.1900 
 17 F       -6.1820     0.9680    -0.6600 F     1 <1>  -0.1900 
 18 H       -0.6380     1.5100     1.4250 H     1 <1>   0.4200 
 19 H        0.9390     2.2330    -1.1100 H     1 <1>   0.0800 
 20 H        1.9670     1.0010    -1.7950 H     1 <1>   0.0800 
 21 H        2.9770    -0.6770    -0.3230 H     1 <1>   0.0800 
 22 H        2.6840    -0.6000     1.3980 H     1 <1>   0.0800 
 23 H        2.8260     3.2720     0.0110 H     1 <1>   0.0800 
 24 H        3.1510     3.1490    -1.6930 H     1 <1>   0.0800 
 25 H        4.9370     0.2330     0.8440 H     1 <1>   0.0800 
 26 H        3.9520     1.4480     1.6010 H     1 <1>   0.0800 
 27 H       -1.9240     0.6770    -1.8900 H     1 <1>   0.1500 
 28 H       -2.8240     1.5270     2.1930 H     1 <1>   0.1500 
 29 H        5.1160     2.4750    -0.2800 H     1 <1>   0.0800 
 30 H        4.5780     1.2100    -1.3530 H     1 <1>   0.0800 
 31 H       -4.3410     0.5860    -2.4030 H     1 <1>   0.1500 
 32 H       -5.2430     1.4460     1.6730 H     1 <1>   0.1500 
@<TRIPOS>BOND
  1   1   2  2   
  2   1   3  2   
  3   1   4  am  
  4   1   5  am  
  5   4   6  1   
  6   4   7  1   
  7   5   8  1   
  8   5  18  1   
  9   6   9  1   
 10   6  19  1   
 11   6  20  1   
 12   7  10  1   
 13   7  21  1   
 14   7  22  1   
 15   8  11  ar  
 16   8  12  ar  
 17   9  13  1   
 18   9  23  1   
 19   9  24  1   
 20  10  13  1   
 21  10  25  1   
 22  10  26  1   
 23  11  14  ar  
 24  11  27  1   
 25  12  15  ar  
 26  12  28  1   
 27  13  29  1   
 28  13  30  1   
 29  14  16  ar  
 30  14  31  1   
 31  15  16  ar  
 32  15  32  1   
 33  16  17  1   
@<TRIPOS>SUBSTRUCTURE
  1 ****   5 GROUP 4 **** **** 0

# MOE 2024.06 (io_trps.svl 2023.06)
