@<TRIPOS>MOLECULE
NONAME
40 40 1 0 0 
SMALL
USER_CHARGES


@<TRIPOS>ATOM
  1 O       -0.7980     1.0900    -0.7700 O.3   1 <1>  -0.6800 
  2 C       -0.4740     1.2270     0.5840 C.3   1 <1>   0.1200 
  3 C       -0.8530     2.6340     1.1010 C.3   1 <1>   0.3430 
  4 N       -0.9890     3.6010    -0.0390 N.4   1 <1>  -0.9590 
  5 C        0.1030     4.6040    -0.1850 C.3   1 <1>   0.4230 
  6 C       -2.3280     4.2470    -0.0910 C.3   1 <1>   0.3430 
  7 C        1.4210     3.9420    -0.6240 C.3   1 <1>  -0.1600 
  8 C        0.2930     5.4580     1.0770 C.3   1 <1>  -0.1600 
  9 C       -3.4010     3.2340    -0.4960 C.3   1 <1>  -0.1600 
 10 C        2.6670     4.7900    -0.2870 C.3   1 <1>  -0.0800 
 11 C        1.2670     6.6200     0.8040 C.3   1 <1>  -0.1600 
 12 C       -4.7700     3.9100    -0.6320 C.3   1 <1>  -0.2400 
 13 C        2.3300     6.2880    -0.2620 C.3   1 <1>  -0.1600 
 14 C        3.8040     4.5010    -1.2730 C.3   1 <1>  -0.2400 
 15 H       -0.6180     0.1750    -1.0830 H     1 <1>   0.4000 
 16 H        0.5850     1.0610     0.6940 H     1 <1>   0.0800 
 17 H       -0.9980     0.4710     1.1450 H     1 <1>   0.0800 
 18 H       -0.1150     2.9690     1.8090 H     1 <1>   0.0800 
 19 H       -1.7910     2.5590     1.6250 H     1 <1>   0.0800 
 20 H       -0.9360     2.9710    -0.8640 H     1 <1>   0.4500 
 21 H       -0.1750     5.2840    -0.9750 H     1 <1>   0.0800 
 22 H       -2.3150     5.0410    -0.8200 H     1 <1>   0.0800 
 23 H       -2.5690     4.6780     0.8680 H     1 <1>   0.0800 
 24 H        1.3660     3.7920    -1.6880 H     1 <1>   0.0800 
 25 H        1.5540     2.9820    -0.1640 H     1 <1>   0.0800 
 26 H        0.7060     4.8530     1.8640 H     1 <1>   0.0800 
 27 H       -0.6420     5.8660     1.4160 H     1 <1>   0.0800 
 28 H       -3.4780     2.4520     0.2370 H     1 <1>   0.0800 
 29 H       -3.1400     2.7920    -1.4430 H     1 <1>   0.0800 
 30 H        3.0120     4.5170     0.6980 H     1 <1>   0.0800 
 31 H        1.7580     6.8810     1.7270 H     1 <1>   0.0800 
 32 H        0.7190     7.4890     0.4810 H     1 <1>   0.0800 
 33 H       -5.0770     4.3460     0.3030 H     1 <1>   0.0800 
 34 H       -5.5100     3.1830    -0.9230 H     1 <1>   0.0800 
 35 H       -4.7440     4.6810    -1.3830 H     1 <1>   0.0800 
 36 H        1.9710     6.5850    -1.2330 H     1 <1>   0.0800 
 37 H        3.2190     6.8640    -0.0630 H     1 <1>   0.0800 
 38 H        3.5290     4.7880    -2.2730 H     1 <1>   0.0800 
 39 H        4.0470     3.4530    -1.2700 H     1 <1>   0.0800 
 40 H        4.6870     5.0490    -0.9950 H     1 <1>   0.0800 
@<TRIPOS>BOND
  1   1   2  1   
  2   1  15  1   
  3   2   3  1   
  4   2  16  1   
  5   2  17  1   
  6   3   4  1   
  7   3  18  1   
  8   3  19  1   
  9   4   5  1   
 10   4   6  1   
 11   4  20  1   
 12   5   7  1   
 13   5   8  1   
 14   5  21  1   
 15   6   9  1   
 16   6  22  1   
 17   6  23  1   
 18   7  10  1   
 19   7  24  1   
 20   7  25  1   
 21   8  11  1   
 22   8  26  1   
 23   8  27  1   
 24   9  12  1   
 25   9  28  1   
 26   9  29  1   
 27  10  13  1   
 28  10  14  1   
 29  10  30  1   
 30  11  13  1   
 31  11  31  1   
 32  11  32  1   
 33  12  33  1   
 34  12  34  1   
 35  12  35  1   
 36  13  36  1   
 37  13  37  1   
 38  14  38  1   
 39  14  39  1   
 40  14  40  1   
@<TRIPOS>SUBSTRUCTURE
  1 ****   5 GROUP 4 **** **** 0

# MOE 2024.06 (io_trps.svl 2023.06)
