@<TRIPOS>MOLECULE
NONAME
39 40 1 0 0 
SMALL
USER_CHARGES


@<TRIPOS>ATOM
  1 O       -0.2380    -1.0490    -1.7870 O.2   1 <1>  -0.5700 
  2 C       -0.7390    -1.9470    -1.1520 C.2   1 <1>   0.4950 
  3 C        0.0290    -2.9450    -0.4680 C.2   1 <1>   0.0290 
  4 C       -2.2580    -1.9640    -1.1290 C.3   1 <1>  -0.0990 
  5 C       -0.6740    -3.9890     0.2250 C.2   1 <1>   0.4950 
  6 C        1.4050    -2.8780    -0.4950 C.2   1 <1>  -0.0500 
  7 C       -2.8310    -2.6240     0.1330 C.3   1 <1>   0.0000 
  8 O       -0.1270    -4.9140     0.7840 O.2   1 <1>  -0.5700 
  9 C       -2.1940    -4.0120     0.2810 C.3   1 <1>  -0.0990 
 10 N        2.2670    -3.7260     0.1310 N.pl3 1 <1>  -0.6000 
 11 C       -4.3540    -2.7690    -0.0090 C.3   1 <1>  -0.2400 
 12 C       -2.5420    -1.7600     1.3750 C.3   1 <1>  -0.2400 
 13 C        3.6740    -3.6820     0.1360 C.ar  1 <1>   0.1000 
 14 C        4.4310    -4.8470    -0.0050 C.ar  1 <1>   0.0830 
 15 C        4.3460    -2.4780     0.3040 C.ar  1 <1>  -0.1500 
 16 O        3.8160    -6.0260    -0.2210 O.3   1 <1>  -0.5320 
 17 C        5.8110    -4.8110     0.0440 C.ar  1 <1>  -0.1500 
 18 C        5.7310    -2.4300     0.3470 C.ar  1 <1>  -0.1430 
 19 C        6.4620    -3.6010     0.2190 C.ar  1 <1>  -0.1500 
 20 C        6.4500    -1.1050     0.5320 C.3   1 <1>  -0.0970 
 21 H       -2.6180    -0.9530    -1.2040 H     1 <1>   0.0800 
 22 H       -2.5920    -2.4890    -2.0060 H     1 <1>   0.0800 
 23 H        1.8730    -2.0850    -1.0610 H     1 <1>   0.1500 
 24 H       -2.5370    -4.6610    -0.5060 H     1 <1>   0.0800 
 25 H       -2.5000    -4.4520     1.2140 H     1 <1>   0.0800 
 26 H        1.8410    -4.4670     0.7150 H     1 <1>   0.4000 
 27 H       -4.8180    -1.8040    -0.1240 H     1 <1>   0.0800 
 28 H       -4.7730    -3.2410     0.8630 H     1 <1>   0.0800 
 29 H       -4.6060    -3.3660    -0.8680 H     1 <1>   0.0800 
 30 H       -1.4880    -1.6210     1.5360 H     1 <1>   0.0800 
 31 H       -2.9530    -2.2200     2.2570 H     1 <1>   0.0800 
 32 H       -2.9910    -0.7880     1.2700 H     1 <1>   0.0800 
 33 H        3.7740    -1.5750     0.4090 H     1 <1>   0.1500 
 34 H        2.8690    -5.8880    -0.4080 H     1 <1>   0.4500 
 35 H        6.3690    -5.7240    -0.0620 H     1 <1>   0.1500 
 36 H        7.5370    -3.5770     0.2530 H     1 <1>   0.1500 
 37 H        7.2920    -1.2280     1.1900 H     1 <1>   0.0800 
 38 H        5.7910    -0.3710     0.9580 H     1 <1>   0.0800 
 39 H        6.8000    -0.7460    -0.4190 H     1 <1>   0.0800 
@<TRIPOS>BOND
  1   1   2  2   
  2   2   3  1   
  3   2   4  1   
  4   3   5  1   
  5   3   6  2   
  6   4   7  1   
  7   4  21  1   
  8   4  22  1   
  9   5   8  2   
 10   5   9  1   
 11   6  10  1   
 12   6  23  1   
 13   7   9  1   
 14   7  11  1   
 15   7  12  1   
 16   9  24  1   
 17   9  25  1   
 18  10  13  1   
 19  10  26  1   
 20  11  27  1   
 21  11  28  1   
 22  11  29  1   
 23  12  30  1   
 24  12  31  1   
 25  12  32  1   
 26  13  14  ar  
 27  13  15  ar  
 28  14  16  1   
 29  14  17  ar  
 30  15  18  ar  
 31  15  33  1   
 32  16  34  1   
 33  17  19  ar  
 34  17  35  1   
 35  18  19  ar  
 36  18  20  1   
 37  19  36  1   
 38  20  37  1   
 39  20  38  1   
 40  20  39  1   
@<TRIPOS>SUBSTRUCTURE
  1 ****   6 GROUP 4 **** **** 0

# MOE 2024.06 (io_trps.svl 2023.06)
