@<TRIPOS>MOLECULE
NONAME
19 18 1 0 0 
SMALL
USER_CHARGES


@<TRIPOS>ATOM
  1 P       -0.0630     0.2240    -0.3290 P.3   1 <1>   0.7000 
  2 O       -0.0280     1.3500    -1.2510 O.2   1 <1>  -0.7000 
  3 C        1.4440    -0.1000     0.5470 C.3   1 <1>  -0.1600 
  4 C       -1.2770     0.4350     0.9360 C.3   1 <1>  -0.2400 
  5 C       -0.5050    -1.2940    -1.1200 C.3   1 <1>  -0.2400 
  6 C        2.6570    -0.4840    -0.3230 C.3   1 <1>  -0.2660 
  7 C        3.8020    -0.9860     0.5220 C.2   1 <1>   0.9060 
  8 O        4.7750    -0.2530     0.7090 O.co2 1 <1>  -0.9000 
  9 O        3.7020    -2.1140     1.0140 O.co2 1 <1>  -0.9000 
 10 H        1.2940    -0.9030     1.2460 H     1 <1>   0.0800 
 11 H        1.7340     0.7540     1.1320 H     1 <1>   0.0800 
 12 H       -1.0710     1.3090     1.5240 H     1 <1>   0.0800 
 13 H       -1.3120    -0.4040     1.6050 H     1 <1>   0.0800 
 14 H       -2.2580     0.5590     0.5170 H     1 <1>   0.0800 
 15 H       -0.5020    -2.1190    -0.4330 H     1 <1>   0.0800 
 16 H        0.1820    -1.5310    -1.9100 H     1 <1>   0.0800 
 17 H       -1.4820    -1.2340    -1.5590 H     1 <1>   0.0800 
 18 H        2.9910     0.3640    -0.8910 H     1 <1>   0.0800 
 19 H        2.4030    -1.2720    -1.0030 H     1 <1>   0.0800 
@<TRIPOS>BOND
  1   1   2  2   
  2   1   3  1   
  3   1   4  1   
  4   1   5  1   
  5   3   6  1   
  6   3  10  1   
  7   3  11  1   
  8   4  12  1   
  9   4  13  1   
 10   4  14  1   
 11   5  15  1   
 12   5  16  1   
 13   5  17  1   
 14   6   7  1   
 15   6  18  1   
 16   6  19  1   
 17   7   8  ar  
 18   7   9  ar  
@<TRIPOS>SUBSTRUCTURE
  1 ****   3 GROUP 4 **** **** 0

# MOE 2024.06 (io_trps.svl 2023.06)
