@<TRIPOS>MOLECULE
NONAME
43 45 1 0 0 
SMALL
USER_CHARGES


@<TRIPOS>ATOM
  1 F       -2.7470    -5.3280    -0.6180 F     1 <1>  -0.3400 
  2 C       -2.6500    -4.0050    -0.6830 C.3   1 <1>   1.1640 
  3 F       -2.1510    -3.7190    -1.8820 F     1 <1>  -0.3400 
  4 F       -1.7030    -3.6560     0.1870 F     1 <1>  -0.3400 
  5 C       -3.9710    -3.2270    -0.4140 C.ar  1 <1>   0.1660 
  6 N       -5.1110    -3.8460    -0.2820 N.ar  1 <1>  -0.6200 
  7 C       -3.8860    -1.8260    -0.3160 C.ar  1 <1>  -0.1500 
  8 C       -6.2490    -3.1480    -0.0560 C.ar  1 <1>   0.3100 
  9 C       -4.9940    -1.0580    -0.0770 C.ar  1 <1>  -0.1440 
 10 C       -6.2370    -1.7330     0.0380 C.ar  1 <1>   0.0000 
 11 C       -7.4670    -3.8490     0.0840 C.ar  1 <1>  -0.1440 
 12 C       -4.9360     0.4680     0.0670 C.3   1 <1>   0.3440 
 13 C       -7.4730    -1.0730     0.2360 C.ar  1 <1>  -0.1500 
 14 C       -8.6390    -3.1580     0.2910 C.ar  1 <1>  -0.1500 
 15 C       -7.4550    -5.3810     0.0010 C.3   1 <1>   1.1640 
 16 O       -5.2090     0.7590     1.4020 O.3   1 <1>  -0.6800 
 17 C       -3.5810     1.1450    -0.3040 C.3   1 <1>   0.4230 
 18 C       -8.6410    -1.7670     0.3620 C.ar  1 <1>  -0.1500 
 19 F       -7.0360    -5.8400    -1.1740 F     1 <1>  -0.3400 
 20 F       -8.6680    -5.9000     0.1660 F     1 <1>  -0.3400 
 21 F       -6.7020    -5.9510     0.9350 F     1 <1>  -0.3400 
 22 N       -2.6140     1.0640     0.8400 N.4   1 <1>  -0.9060 
 23 C       -3.7830     2.6270    -0.6600 C.3   1 <1>  -0.1600 
 24 C       -1.2930     1.6980     0.5970 C.3   1 <1>   0.3430 
 25 C       -2.4560     3.3430    -0.9460 C.3   1 <1>  -0.1600 
 26 C       -1.4900     3.1700     0.2330 C.3   1 <1>  -0.1600 
 27 H       -2.9080    -1.4010    -0.4400 H     1 <1>   0.1500 
 28 H       -5.7120     0.9020    -0.5410 H     1 <1>   0.0800 
 29 H       -7.5270    -0.0010     0.2850 H     1 <1>   0.1500 
 30 H       -9.5860    -3.6640     0.4010 H     1 <1>   0.1500 
 31 H       -5.9690     0.2200     1.7110 H     1 <1>   0.4000 
 32 H       -3.1700     0.6490    -1.1680 H     1 <1>   0.0800 
 33 H       -9.5780    -1.2550     0.5150 H     1 <1>   0.1500 
 34 H       -3.0970     1.5360     1.6200 H     1 <1>   0.4500 
 35 H       -2.5160     0.0930     1.1530 H     1 <1>   0.4500 
 36 H       -4.4110     2.7020    -1.5320 H     1 <1>   0.0800 
 37 H       -4.2950     3.1270     0.1450 H     1 <1>   0.0800 
 38 H       -0.6760     1.6230     1.4790 H     1 <1>   0.0800 
 39 H       -0.7890     1.1940    -0.2130 H     1 <1>   0.0800 
 40 H       -2.0110     2.9400    -1.8410 H     1 <1>   0.0800 
 41 H       -2.6370     4.3920    -1.1160 H     1 <1>   0.0800 
 42 H       -1.8600     3.7040     1.0920 H     1 <1>   0.0800 
 43 H       -0.5360     3.6000    -0.0220 H     1 <1>   0.0800 
@<TRIPOS>BOND
  1   1   2  1   
  2   2   3  1   
  3   2   4  1   
  4   2   5  1   
  5   5   6  ar  
  6   5   7  ar  
  7   6   8  ar  
  8   7   9  ar  
  9   7  27  1   
 10   8  10  ar  
 11   8  11  ar  
 12   9  10  ar  
 13   9  12  1   
 14  10  13  ar  
 15  11  14  ar  
 16  11  15  1   
 17  12  16  1   
 18  12  17  1   
 19  12  28  1   
 20  13  18  ar  
 21  13  29  1   
 22  14  18  ar  
 23  14  30  1   
 24  15  19  1   
 25  15  20  1   
 26  15  21  1   
 27  16  31  1   
 28  17  22  1   
 29  17  23  1   
 30  17  32  1   
 31  18  33  1   
 32  22  24  1   
 33  22  34  1   
 34  22  35  1   
 35  23  25  1   
 36  23  36  1   
 37  23  37  1   
 38  24  26  1   
 39  24  38  1   
 40  24  39  1   
 41  25  26  1   
 42  25  40  1   
 43  25  41  1   
 44  26  42  1   
 45  26  43  1   
@<TRIPOS>SUBSTRUCTURE
  1 ****   9 GROUP 4 **** **** 0

# MOE 2024.06 (io_trps.svl 2023.06)
