@<TRIPOS>MOLECULE
NONAME
41 41 1 0 0 
SMALL
USER_CHARGES


@<TRIPOS>ATOM
  1 S       -0.0690     0.1200    -0.8390 S.3   1 <1>  -0.3320 
  2 C       -1.4900    -0.8270    -0.3240 C.ar  1 <1>   0.7220 
  3 C        1.3340    -1.0920    -0.7380 C.3   1 <1>   0.1310 
  4 N       -2.6120    -0.1800    -0.3110 N.ar  1 <1>  -0.6200 
  5 N       -1.2610    -2.0670    -0.0140 N.ar  1 <1>  -0.6200 
  6 C        2.6400    -0.4400    -1.1460 C.2   1 <1>   0.6590 
  7 C       -3.6270    -0.9210     0.0730 C.ar  1 <1>   0.7200 
  8 C       -2.3530    -2.6890     0.3500 C.ar  1 <1>   0.7200 
  9 O        3.2230    -0.7680    -2.1490 O.2   1 <1>  -0.5700 
 10 O        3.1200     0.4870    -0.3240 O.3   1 <1>  -0.4300 
 11 N       -3.5500    -2.1850     0.4130 N.ar  1 <1>  -0.6200 
 12 N       -4.8670    -0.3200     0.1190 N.pl3 1 <1>  -0.8380 
 13 N       -2.2670    -3.9910     0.6940 N.pl3 1 <1>  -0.8690 
 14 C        4.3290     1.1660    -0.5960 C.3   1 <1>   0.0400 
 15 C       -5.0390     1.1570     0.0030 C.3   1 <1>   0.1290 
 16 C       -6.1280    -1.0960     0.2900 C.3   1 <1>   0.1290 
 17 C       -1.1050    -4.8740     0.5520 C.3   1 <1>   0.2890 
 18 C       -1.1980    -5.5730    -0.8110 C.3   1 <1>  -0.1600 
 19 C       -1.1330    -5.8480     1.7260 C.3   1 <1>  -0.2400 
 20 C        0.0290    -6.4360    -1.1410 C.3   1 <1>  -0.2400 
 21 H        1.1000    -1.9060    -1.3970 H     1 <1>   0.0800 
 22 H        1.3880    -1.4370     0.2770 H     1 <1>   0.0800 
 23 H       -3.1610    -4.4380     0.8840 H     1 <1>   0.4000 
 24 H        4.5140     1.8660     0.2000 H     1 <1>   0.0800 
 25 H        4.2320     1.6860    -1.5330 H     1 <1>   0.0800 
 26 H        5.1280     0.4470    -0.6510 H     1 <1>   0.0800 
 27 H       -5.1670     1.4240    -1.0320 H     1 <1>   0.0800 
 28 H       -4.1760     1.6720     0.3910 H     1 <1>   0.0800 
 29 H       -5.9010     1.4760     0.5620 H     1 <1>   0.0800 
 30 H       -6.3860    -1.1380     1.3340 H     1 <1>   0.0800 
 31 H       -6.0130    -2.1000    -0.0820 H     1 <1>   0.0800 
 32 H       -6.9280    -0.6270    -0.2550 H     1 <1>   0.0800 
 33 H       -0.1990    -4.2910     0.5980 H     1 <1>   0.0800 
 34 H       -1.2890    -4.8170    -1.5720 H     1 <1>   0.0800 
 35 H       -2.0820    -6.1850    -0.8430 H     1 <1>   0.0800 
 36 H       -2.0010    -6.4800     1.6750 H     1 <1>   0.0800 
 37 H       -1.1440    -5.3010     2.6520 H     1 <1>   0.0800 
 38 H       -0.2560    -6.4660     1.7170 H     1 <1>   0.0800 
 39 H        0.9280    -5.8480    -1.0870 H     1 <1>   0.0800 
 40 H       -0.0610    -6.8280    -2.1390 H     1 <1>   0.0800 
 41 H        0.1110    -7.2650    -0.4620 H     1 <1>   0.0800 
@<TRIPOS>BOND
  1   1   2  1   
  2   1   3  1   
  3   2   4  ar  
  4   2   5  ar  
  5   3   6  1   
  6   3  21  1   
  7   3  22  1   
  8   4   7  ar  
  9   5   8  ar  
 10   6   9  2   
 11   6  10  1   
 12   7  11  ar  
 13   7  12  1   
 14   8  11  ar  
 15   8  13  1   
 16  10  14  1   
 17  12  15  1   
 18  12  16  1   
 19  13  17  1   
 20  13  23  1   
 21  14  24  1   
 22  14  25  1   
 23  14  26  1   
 24  15  27  1   
 25  15  28  1   
 26  15  29  1   
 27  16  30  1   
 28  16  31  1   
 29  16  32  1   
 30  17  18  1   
 31  17  19  1   
 32  17  33  1   
 33  18  20  1   
 34  18  34  1   
 35  18  35  1   
 36  19  36  1   
 37  19  37  1   
 38  19  38  1   
 39  20  39  1   
 40  20  40  1   
 41  20  41  1   
@<TRIPOS>SUBSTRUCTURE
  1 ****   5 GROUP 4 **** **** 0

# MOE 2024.06 (io_trps.svl 2023.06)
