@<TRIPOS>MOLECULE
NONAME
39 40 1 0 0 
SMALL
USER_CHARGES


@<TRIPOS>ATOM
  1 O        0.3260    -0.3640     1.4860 O.2   1 <1>  -0.5700 
  2 C        0.2760    -1.5730     1.4050 C.2   1 <1>   0.5690 
  3 N       -0.6640    -2.1840     0.5980 N.am  1 <1>  -0.6600 
  4 C        1.3090    -2.3360     2.2640 C.3   1 <1>   0.2610 
  5 C       -1.5530    -1.3810    -0.2880 C.3   1 <1>   0.1400 
  6 C       -0.8260    -3.6530     0.4050 C.3   1 <1>   0.1400 
  7 O        1.9740    -3.3800     1.5660 O.3   1 <1>  -0.3630 
  8 C        0.6930    -2.9450     3.5300 C.3   1 <1>  -0.2400 
  9 C       -1.2430    -1.7090    -1.7530 C.3   1 <1>  -0.1600 
 10 C       -0.5020    -4.0160    -1.0480 C.3   1 <1>  -0.1600 
 11 C        2.7730    -3.1490     0.4940 C.ar  1 <1>   0.0820 
 12 C       -1.3630    -3.2140    -2.0350 C.3   1 <1>  -0.1600 
 13 C        3.2630    -4.2680    -0.1610 C.ar  1 <1>  -0.1500 
 14 C        3.1100    -1.8810     0.0270 C.ar  1 <1>  -0.1500 
 15 C        4.0750    -4.1400    -1.2760 C.ar  1 <1>  -0.1440 
 16 C        3.9210    -1.7500    -1.0860 C.ar  1 <1>  -0.1500 
 17 C        4.4010    -2.8750    -1.7360 C.ar  1 <1>  -0.1500 
 18 C        4.6080    -5.3680    -1.9910 C.3   1 <1>  -0.0970 
 19 H        2.0670    -1.6380     2.5710 H     1 <1>   0.0800 
 20 H       -1.4160    -0.3270    -0.1200 H     1 <1>   0.0800 
 21 H       -2.5790    -1.6210    -0.0670 H     1 <1>   0.0800 
 22 H       -1.8450    -3.9210     0.6240 H     1 <1>   0.0800 
 23 H       -0.1950    -4.2150     1.0660 H     1 <1>   0.0800 
 24 H       -0.0650    -3.6630     3.2790 H     1 <1>   0.0800 
 25 H        0.2430    -2.1670     4.1180 H     1 <1>   0.0800 
 26 H        1.4580    -3.4200     4.1180 H     1 <1>   0.0800 
 27 H       -0.2420    -1.3780    -1.9730 H     1 <1>   0.0800 
 28 H       -1.9170    -1.1660    -2.3900 H     1 <1>   0.0800 
 29 H       -0.6640    -5.0680    -1.1980 H     1 <1>   0.0800 
 30 H        0.5390    -3.8160    -1.2330 H     1 <1>   0.0800 
 31 H       -1.0500    -3.4220    -3.0430 H     1 <1>   0.0800 
 32 H       -2.3920    -3.5140    -1.9360 H     1 <1>   0.0800 
 33 H        3.0000    -5.2390     0.2140 H     1 <1>   0.1500 
 34 H        2.7560    -0.9880     0.5060 H     1 <1>   0.1500 
 35 H        4.1790    -0.7710    -1.4480 H     1 <1>   0.1500 
 36 H        5.0320    -2.7600    -2.6000 H     1 <1>   0.1500 
 37 H        4.0670    -6.2480    -1.6930 H     1 <1>   0.0800 
 38 H        5.6470    -5.5040    -1.7540 H     1 <1>   0.0800 
 39 H        4.5050    -5.2500    -3.0550 H     1 <1>   0.0800 
@<TRIPOS>BOND
  1   1   2  2   
  2   2   3  am  
  3   2   4  1   
  4   3   5  1   
  5   3   6  1   
  6   4   7  1   
  7   4   8  1   
  8   4  19  1   
  9   5   9  1   
 10   5  20  1   
 11   5  21  1   
 12   6  10  1   
 13   6  22  1   
 14   6  23  1   
 15   7  11  1   
 16   8  24  1   
 17   8  25  1   
 18   8  26  1   
 19   9  12  1   
 20   9  27  1   
 21   9  28  1   
 22  10  12  1   
 23  10  29  1   
 24  10  30  1   
 25  11  13  ar  
 26  11  14  ar  
 27  12  31  1   
 28  12  32  1   
 29  13  15  ar  
 30  13  33  1   
 31  14  16  ar  
 32  14  34  1   
 33  15  17  ar  
 34  15  18  1   
 35  16  17  ar  
 36  16  35  1   
 37  17  36  1   
 38  18  37  1   
 39  18  38  1   
 40  18  39  1   
@<TRIPOS>SUBSTRUCTURE
  1 ****  11 GROUP 4 **** **** 0

# MOE 2024.06 (io_trps.svl 2023.06)
