@<TRIPOS>MOLECULE
NONAME
41 42 1 0 0 
SMALL
USER_CHARGES


@<TRIPOS>ATOM
  1 O       -0.0970     1.7580    -2.8210 O.2   1 <1>  -0.5700 
  2 C        0.2090     1.9470    -1.6570 C.2   1 <1>   0.5440 
  3 N       -0.7590     1.7620    -0.7160 N.am  1 <1>  -0.7300 
  4 C        1.5590     2.3700    -1.3060 C.ar  1 <1>   0.0860 
  5 C       -2.1550     1.3460    -0.9320 C.3   1 <1>   0.2200 
  6 C        2.1120     2.2620    -0.0180 C.ar  1 <1>   0.0830 
  7 C        2.3760     2.9150    -2.3000 C.ar  1 <1>  -0.1500 
  8 C       -3.0820     2.2820    -0.1190 C.3   1 <1>   0.2000 
  9 C       -2.2440    -0.1330    -0.5420 C.3   1 <1>  -0.2400 
 10 O        1.3770     1.7460     0.9980 O.3   1 <1>  -0.3630 
 11 C        3.4150     2.6960     0.2520 C.ar  1 <1>   0.0830 
 12 C        3.6650     3.3390    -2.0450 C.ar  1 <1>  -0.1500 
 13 O       -2.8270     2.1890     1.2500 O.3   1 <1>  -0.5600 
 14 C       -4.5810     2.0330    -0.2370 C.3   1 <1>  -0.1600 
 15 C        1.6240     0.4020     1.3420 C.3   1 <1>   0.0400 
 16 O        3.8850     2.5760     1.5280 O.3   1 <1>  -0.3630 
 17 C        4.1880     3.2310    -0.7700 C.ar  1 <1>  -0.1500 
 18 C       -3.9090     2.6720     1.9810 C.3   1 <1>   0.1200 
 19 C       -5.1160     2.6510     1.0440 C.3   1 <1>  -0.1600 
 20 C        5.0930     3.1790     1.9340 C.3   1 <1>   0.0400 
 21 H       -0.5100     1.9030     0.2710 H     1 <1>   0.3700 
 22 H       -2.3950     1.4480    -1.9770 H     1 <1>   0.0800 
 23 H        1.9870     3.0090    -3.3000 H     1 <1>   0.1500 
 24 H       -2.8780     3.2990    -0.4080 H     1 <1>   0.0800 
 25 H       -2.0610    -0.2550     0.5110 H     1 <1>   0.0800 
 26 H       -1.5180    -0.6980    -1.0970 H     1 <1>   0.0800 
 27 H       -3.2150    -0.5280    -0.7710 H     1 <1>   0.0800 
 28 H        4.2620     3.7530    -2.8390 H     1 <1>   0.1500 
 29 H       -4.7930     0.9800    -0.2460 H     1 <1>   0.0800 
 30 H       -4.9930     2.4860    -1.1210 H     1 <1>   0.0800 
 31 H        0.9590     0.1330     2.1430 H     1 <1>   0.0800 
 32 H        2.6460     0.3030     1.6630 H     1 <1>   0.0800 
 33 H        1.4370    -0.2170     0.4820 H     1 <1>   0.0800 
 34 H        5.1930     3.5670    -0.6010 H     1 <1>   0.1500 
 35 H       -3.6780     3.6720     2.3050 H     1 <1>   0.0800 
 36 H       -4.0500     2.0310     2.8340 H     1 <1>   0.0800 
 37 H       -5.9270     2.0790     1.4590 H     1 <1>   0.0800 
 38 H       -5.4500     3.6590     0.8710 H     1 <1>   0.0800 
 39 H        5.2030     3.0240     2.9920 H     1 <1>   0.0800 
 40 H        5.0450     4.2330     1.7220 H     1 <1>   0.0800 
 41 H        5.9100     2.7150     1.4110 H     1 <1>   0.0800 
@<TRIPOS>BOND
  1   1   2  2   
  2   2   3  am  
  3   2   4  1   
  4   3   5  1   
  5   3  21  1   
  6   4   6  ar  
  7   4   7  ar  
  8   5   8  1   
  9   5   9  1   
 10   5  22  1   
 11   6  10  1   
 12   6  11  ar  
 13   7  12  ar  
 14   7  23  1   
 15   8  13  1   
 16   8  14  1   
 17   8  24  1   
 18   9  25  1   
 19   9  26  1   
 20   9  27  1   
 21  10  15  1   
 22  11  16  1   
 23  11  17  ar  
 24  12  17  ar  
 25  12  28  1   
 26  13  18  1   
 27  14  19  1   
 28  14  29  1   
 29  14  30  1   
 30  15  31  1   
 31  15  32  1   
 32  15  33  1   
 33  16  20  1   
 34  17  34  1   
 35  18  19  1   
 36  18  35  1   
 37  18  36  1   
 38  19  37  1   
 39  19  38  1   
 40  20  39  1   
 41  20  40  1   
 42  20  41  1   
@<TRIPOS>SUBSTRUCTURE
  1 ****   3 GROUP 4 **** **** 0

# MOE 2024.06 (io_trps.svl 2023.06)
