@<TRIPOS>MOLECULE
NONAME
56 58 1 0 0 
SMALL
USER_CHARGES


@<TRIPOS>ATOM
  1 O       -0.6920    -0.2820    -1.0120 O.3   1 <1>  -0.3630 
  2 C       -1.7900    -0.7620    -0.3710 C.ar  1 <1>   0.0830 
  3 C        0.1510    -1.1130    -1.7800 C.3   1 <1>   0.0400 
  4 C       -2.4890     0.1150     0.4490 C.ar  1 <1>  -0.1440 
  5 C       -2.2290    -2.0760    -0.5010 C.ar  1 <1>  -0.1500 
  6 C       -3.6170    -0.3280     1.1160 C.ar  1 <1>  -0.1500 
  7 C       -2.0180     1.5540     0.6190 C.3   1 <1>  -0.0960 
  8 C       -3.3580    -2.5220     0.1680 C.ar  1 <1>  -0.1430 
  9 C       -4.0650    -1.6340     0.9740 C.ar  1 <1>  -0.1430 
 10 C       -3.7700    -3.9800    -0.0050 C.3   1 <1>  -0.0970 
 11 C       -5.3310    -2.0420     1.7030 C.3   1 <1>   0.4860 
 12 N       -6.4510    -2.0550     0.7250 N.4   1 <1>  -0.9590 
 13 C       -6.6920    -0.6880     0.1260 C.3   1 <1>   0.3430 
 14 C       -7.7150    -2.6200     1.3180 C.3   1 <1>   0.3430 
 15 C       -7.8490    -0.6740    -0.8970 C.3   1 <1>   0.2090 
 16 C       -8.8730    -2.6740     0.3000 C.3   1 <1>   0.2090 
 17 N       -9.0670    -1.3590    -0.3710 N.pl3 1 <1>  -0.8380 
 18 C      -10.1520    -0.5860     0.0470 C.ar  1 <1>   0.1000 
 19 C      -11.4140    -0.7190    -0.5430 C.ar  1 <1>  -0.1430 
 20 C       -9.9820     0.3200     1.0890 C.ar  1 <1>  -0.1500 
 21 C      -12.4830     0.0350    -0.0660 C.ar  1 <1>  -0.1430 
 22 C      -11.6170    -1.6930    -1.7060 C.3   1 <1>  -0.0970 
 23 C      -11.0390     1.0760     1.5500 C.ar  1 <1>  -0.1500 
 24 C      -12.2870     0.9310     0.9750 C.ar  1 <1>  -0.1500 
 25 C      -13.8860    -0.0840    -0.6480 C.3   1 <1>  -0.0970 
 26 H        0.9660    -0.5140    -2.1450 H     1 <1>   0.0800 
 27 H       -0.4090    -1.5110    -2.6080 H     1 <1>   0.0800 
 28 H        0.5300    -1.9010    -1.1530 H     1 <1>   0.0800 
 29 H       -1.6900    -2.7620    -1.1260 H     1 <1>   0.1500 
 30 H       -4.1440     0.3610     1.7530 H     1 <1>   0.1500 
 31 H       -1.0200     1.5620     1.0200 H     1 <1>   0.0800 
 32 H       -2.6570     2.1050     1.2830 H     1 <1>   0.0800 
 33 H       -2.0040     2.0480    -0.3360 H     1 <1>   0.0800 
 34 H       -2.9660    -4.5510    -0.4360 H     1 <1>   0.0800 
 35 H       -4.6170    -4.0580    -0.6610 H     1 <1>   0.0800 
 36 H       -4.0050    -4.4280     0.9430 H     1 <1>   0.0800 
 37 H       -5.5370    -1.3450     2.4980 H     1 <1>   0.0800 
 38 H       -5.1970    -3.0200     2.1330 H     1 <1>   0.0800 
 39 H       -6.1510    -2.6560    -0.0510 H     1 <1>   0.4500 
 40 H       -5.7970    -0.3370    -0.3630 H     1 <1>   0.0800 
 41 H       -6.9310     0.0100     0.9090 H     1 <1>   0.0800 
 42 H       -8.0320    -2.0060     2.1450 H     1 <1>   0.0800 
 43 H       -7.5360    -3.6140     1.6930 H     1 <1>   0.0800 
 44 H       -7.5360    -1.1640    -1.8020 H     1 <1>   0.0800 
 45 H       -8.0910     0.3440    -1.1500 H     1 <1>   0.0800 
 46 H       -9.7810    -2.9540     0.8070 H     1 <1>   0.0800 
 47 H       -8.6720    -3.4240    -0.4460 H     1 <1>   0.0800 
 48 H       -9.0230     0.4350     1.5480 H     1 <1>   0.1500 
 49 H      -10.7010    -1.8590    -2.2420 H     1 <1>   0.0800 
 50 H      -12.3260    -1.3080    -2.4140 H     1 <1>   0.0800 
 51 H      -11.9730    -2.6350    -1.3310 H     1 <1>   0.0800 
 52 H      -10.9010     1.7760     2.3550 H     1 <1>   0.1500 
 53 H      -13.1060     1.5230     1.3440 H     1 <1>   0.1500 
 54 H      -14.1790    -1.1160    -0.7070 H     1 <1>   0.0800 
 55 H      -13.9110     0.3480    -1.6320 H     1 <1>   0.0800 
 56 H      -14.6040     0.4300    -0.0350 H     1 <1>   0.0800 
@<TRIPOS>BOND
  1   1   2  1   
  2   1   3  1   
  3   2   4  ar  
  4   2   5  ar  
  5   3  26  1   
  6   3  27  1   
  7   3  28  1   
  8   4   6  ar  
  9   4   7  1   
 10   5   8  ar  
 11   5  29  1   
 12   6   9  ar  
 13   6  30  1   
 14   7  31  1   
 15   7  32  1   
 16   7  33  1   
 17   8   9  ar  
 18   8  10  1   
 19   9  11  1   
 20  10  34  1   
 21  10  35  1   
 22  10  36  1   
 23  11  12  1   
 24  11  37  1   
 25  11  38  1   
 26  12  13  1   
 27  12  14  1   
 28  12  39  1   
 29  13  15  1   
 30  13  40  1   
 31  13  41  1   
 32  14  16  1   
 33  14  42  1   
 34  14  43  1   
 35  15  17  1   
 36  15  44  1   
 37  15  45  1   
 38  16  17  1   
 39  16  46  1   
 40  16  47  1   
 41  17  18  1   
 42  18  19  ar  
 43  18  20  ar  
 44  19  21  ar  
 45  19  22  1   
 46  20  23  ar  
 47  20  48  1   
 48  21  24  ar  
 49  21  25  1   
 50  22  49  1   
 51  22  50  1   
 52  22  51  1   
 53  23  24  ar  
 54  23  52  1   
 55  24  53  1   
 56  25  54  1   
 57  25  55  1   
 58  25  56  1   
@<TRIPOS>SUBSTRUCTURE
  1 ****  13 GROUP 4 **** **** 0

# MOE 2024.06 (io_trps.svl 2023.06)
