@<TRIPOS>MOLECULE
NONAME
41 41 1 0 0 
SMALL
USER_CHARGES


@<TRIPOS>ATOM
  1 CL       0.6370    -0.1050     0.2420 Cl    1 <1>  -0.1770 
  2 C        0.4810     1.6380     0.3010 C.ar  1 <1>   0.1770 
  3 C        1.6160     2.4440     0.2880 C.ar  1 <1>   0.0830 
  4 C       -0.7890     2.1810     0.3590 C.ar  1 <1>  -0.1500 
  5 O        2.8330     1.8390     0.2290 O.3   1 <1>  -0.3630 
  6 C        1.4500     3.8270     0.3360 C.ar  1 <1>  -0.1500 
  7 C       -0.9400     3.5560     0.4070 C.ar  1 <1>  -0.1500 
  8 C        4.0310     2.5810     0.2130 C.3   1 <1>   0.1200 
  9 C        0.1780     4.3740     0.3950 C.ar  1 <1>  -0.1500 
 10 C        5.1900     1.5920     0.1440 C.3   1 <1>   0.1200 
 11 O        6.3930     2.3040     0.1260 O.3   1 <1>  -0.5600 
 12 C        7.5250     1.5050     0.0640 C.3   1 <1>   0.1200 
 13 C        8.7400     2.4380     0.0520 C.3   1 <1>   0.3430 
 14 N       10.0270     1.6740    -0.0140 N.4   1 <1>  -0.9060 
 15 C       11.2550     2.4730    -0.0300 C.3   1 <1>   0.5030 
 16 C       12.4100     1.4790    -0.0980 C.3   1 <1>  -0.2400 
 17 C       11.3550     3.2960     1.2540 C.3   1 <1>  -0.2400 
 18 C       11.2720     3.3730    -1.2640 C.3   1 <1>  -0.2400 
 19 H       -1.6460     1.5310     0.3680 H     1 <1>   0.1500 
 20 H        2.2920     4.4930     0.3290 H     1 <1>   0.1500 
 21 H       -1.9250     3.9890     0.4520 H     1 <1>   0.1500 
 22 H        4.0840     3.1620     1.1170 H     1 <1>   0.0800 
 23 H        4.0250     3.2160    -0.6560 H     1 <1>   0.0800 
 24 H        0.0560     5.4430     0.4310 H     1 <1>   0.1500 
 25 H        5.1180     1.0060    -0.7570 H     1 <1>   0.0800 
 26 H        5.1760     0.9520     1.0100 H     1 <1>   0.0800 
 27 H        7.4790     0.9210    -0.8400 H     1 <1>   0.0800 
 28 H        7.5370     0.8660     0.9310 H     1 <1>   0.0800 
 29 H        8.7170     3.0380     0.9470 H     1 <1>   0.0800 
 30 H        8.6590     3.0910    -0.8000 H     1 <1>   0.0800 
 31 H       10.0380     1.0920    -0.8570 H     1 <1>   0.4500 
 32 H       10.0930     1.0410     0.7900 H     1 <1>   0.4500 
 33 H       12.3600     0.8840    -0.9930 H     1 <1>   0.0800 
 34 H       12.4180     0.8300     0.7600 H     1 <1>   0.0800 
 35 H       13.3470     2.0080    -0.1130 H     1 <1>   0.0800 
 36 H       11.2920     2.6690     2.1250 H     1 <1>   0.0800 
 37 H       10.5920     4.0520     1.3020 H     1 <1>   0.0800 
 38 H       12.3040     3.8030     1.2850 H     1 <1>   0.0800 
 39 H       12.2180     3.8830    -1.3270 H     1 <1>   0.0800 
 40 H       11.1510     2.8000    -2.1660 H     1 <1>   0.0800 
 41 H       10.5090     4.1290    -1.2170 H     1 <1>   0.0800 
@<TRIPOS>BOND
  1   1   2  1   
  2   2   3  ar  
  3   2   4  ar  
  4   3   5  1   
  5   3   6  ar  
  6   4   7  ar  
  7   4  19  1   
  8   5   8  1   
  9   6   9  ar  
 10   6  20  1   
 11   7   9  ar  
 12   7  21  1   
 13   8  10  1   
 14   8  22  1   
 15   8  23  1   
 16   9  24  1   
 17  10  11  1   
 18  10  25  1   
 19  10  26  1   
 20  11  12  1   
 21  12  13  1   
 22  12  27  1   
 23  12  28  1   
 24  13  14  1   
 25  13  29  1   
 26  13  30  1   
 27  14  15  1   
 28  14  31  1   
 29  14  32  1   
 30  15  16  1   
 31  15  17  1   
 32  15  18  1   
 33  16  33  1   
 34  16  34  1   
 35  16  35  1   
 36  17  36  1   
 37  17  37  1   
 38  17  38  1   
 39  18  39  1   
 40  18  40  1   
 41  18  41  1   
@<TRIPOS>SUBSTRUCTURE
  1 ****  10 GROUP 4 **** **** 0

# MOE 2024.06 (io_trps.svl 2023.06)
