@<TRIPOS>MOLECULE
NONAME
47 49 1 0 0 
SMALL
USER_CHARGES


@<TRIPOS>ATOM
  1 CL      -0.3590    -0.6970     2.5790 Cl    1 <1>  -0.1770 
  2 C       -0.4480    -1.5650     1.0670 C.ar  1 <1>   0.1770 
  3 C        0.7200    -1.8960     0.4030 C.ar  1 <1>  -0.1440 
  4 C       -1.6930    -1.8920     0.5550 C.ar  1 <1>  -0.1500 
  5 C        0.5940    -2.5610    -0.8030 C.ar  1 <1>   0.1900 
  6 C        2.0830    -1.5570     0.9660 C.3   1 <1>   0.4860 
  7 C       -1.7860    -2.5650    -0.6540 C.ar  1 <1>  -0.1500 
  8 F        1.6780    -2.8700    -1.4620 F     1 <1>  -0.1900 
  9 C       -0.6330    -2.9040    -1.3440 C.ar  1 <1>  -0.1500 
 10 N        2.6680    -0.4150     0.2100 N.4   1 <1>  -0.9590 
 11 C        4.1050    -0.2290     0.5480 C.3   1 <1>   0.3430 
 12 C        1.8780     0.8380     0.3920 C.3   1 <1>   0.3430 
 13 C        4.7080     0.8380    -0.3640 C.3   1 <1>  -0.1600 
 14 C        2.4330     1.9260    -0.5230 C.3   1 <1>  -0.1600 
 15 C        3.9380     2.1710    -0.2980 C.3   1 <1>  -0.0190 
 16 C        4.4790     3.1550    -1.3390 C.2   1 <1>   0.5690 
 17 O        4.4170     2.8450    -2.5000 O.2   1 <1>  -0.5700 
 18 N        5.0170     4.3470    -0.9990 N.am  1 <1>  -0.7300 
 19 C        5.2700     4.9440     0.3220 C.3   1 <1>   0.2840 
 20 C        6.1310     6.1750     0.1300 C.ar  1 <1>  -0.1430 
 21 C        5.5830     7.4450     0.2460 C.ar  1 <1>   0.1600 
 22 C        7.4750     6.0560    -0.1660 C.ar  1 <1>  -0.1500 
 23 N        6.2530     8.5750     0.1000 N.ar  1 <1>  -0.6200 
 24 C        8.1880     7.2250    -0.3230 C.ar  1 <1>  -0.1500 
 25 C        7.5390     8.4390    -0.1810 C.ar  1 <1>   0.1600 
 26 H       -2.5840    -1.6240     1.0990 H     1 <1>   0.1500 
 27 H        2.7200    -2.4220     0.8700 H     1 <1>   0.0800 
 28 H        2.0070    -1.3110     2.0130 H     1 <1>   0.0800 
 29 H       -2.7520    -2.8240    -1.0560 H     1 <1>   0.1500 
 30 H       -0.6850    -3.4250    -2.2850 H     1 <1>   0.1500 
 31 H        2.6150    -0.6700    -0.7880 H     1 <1>   0.4500 
 32 H        4.6410    -1.1560     0.4140 H     1 <1>   0.0800 
 33 H        4.2030     0.0760     1.5770 H     1 <1>   0.0800 
 34 H        1.9330     1.1610     1.4190 H     1 <1>   0.0800 
 35 H        0.8420     0.6640     0.1480 H     1 <1>   0.0800 
 36 H        4.7160     0.4670    -1.3750 H     1 <1>   0.0800 
 37 H        5.7330     1.0050    -0.0810 H     1 <1>   0.0800 
 38 H        1.8930     2.8410    -0.3500 H     1 <1>   0.0800 
 39 H        2.2550     1.6440    -1.5470 H     1 <1>   0.0800 
 40 H        4.0650     2.5860     0.6840 H     1 <1>   0.0800 
 41 H        5.3390     4.9240    -1.7830 H     1 <1>   0.3700 
 42 H        5.7850     4.2390     0.9530 H     1 <1>   0.0800 
 43 H        4.3340     5.2100     0.7840 H     1 <1>   0.0800 
 44 H        4.5340     7.5430     0.4710 H     1 <1>   0.1500 
 45 H        7.9510     5.0960    -0.2730 H     1 <1>   0.1500 
 46 H        9.2370     7.1990    -0.5550 H     1 <1>   0.1500 
 47 H        8.1070     9.3460    -0.3060 H     1 <1>   0.1500 
@<TRIPOS>BOND
  1   1   2  1   
  2   2   3  ar  
  3   2   4  ar  
  4   3   5  ar  
  5   3   6  1   
  6   4   7  ar  
  7   4  26  1   
  8   5   8  1   
  9   5   9  ar  
 10   6  10  1   
 11   6  27  1   
 12   6  28  1   
 13   7   9  ar  
 14   7  29  1   
 15   9  30  1   
 16  10  11  1   
 17  10  12  1   
 18  10  31  1   
 19  11  13  1   
 20  11  32  1   
 21  11  33  1   
 22  12  14  1   
 23  12  34  1   
 24  12  35  1   
 25  13  15  1   
 26  13  36  1   
 27  13  37  1   
 28  14  15  1   
 29  14  38  1   
 30  14  39  1   
 31  15  16  1   
 32  15  40  1   
 33  16  17  2   
 34  16  18  am  
 35  18  19  1   
 36  18  41  1   
 37  19  20  1   
 38  19  42  1   
 39  19  43  1   
 40  20  21  ar  
 41  20  22  ar  
 42  21  23  ar  
 43  21  44  1   
 44  22  24  ar  
 45  22  45  1   
 46  23  25  ar  
 47  24  25  ar  
 48  24  46  1   
 49  25  47  1   
@<TRIPOS>SUBSTRUCTURE
  1 ****  15 GROUP 4 **** **** 0

# MOE 2024.06 (io_trps.svl 2023.06)
