@<TRIPOS>MOLECULE
NONAME
41 42 1 0 0 
SMALL
USER_CHARGES


@<TRIPOS>ATOM
  1 O        2.4670     3.9610     0.7570 O.2   1 <1>  -0.5700 
  2 C        2.4380     2.7920     0.4330 C.2   1 <1>   0.6340 
  3 O        1.2400     2.2420     0.1940 O.3   1 <1>  -0.4300 
  4 C        3.6230     1.9680     0.2910 C.ar  1 <1>   0.0860 
  5 C        0.0590     3.0070     0.3280 C.3   1 <1>   0.1200 
  6 C        4.8950     2.4950     0.5280 C.ar  1 <1>  -0.1500 
  7 C        3.5560     0.6220    -0.0860 C.ar  1 <1>  -0.1500 
  8 C       -1.1410     2.1290    -0.0400 C.3   1 <1>   0.3430 
  9 C        6.0350     1.7250     0.3970 C.ar  1 <1>  -0.1500 
 10 C        4.6920    -0.1550    -0.2190 C.ar  1 <1>  -0.1500 
 11 N       -2.4500     2.8360     0.1490 N.4   1 <1>  -0.9590 
 12 C        5.9470     0.3950     0.0230 C.ar  1 <1>   0.0830 
 13 C       -3.5820     1.8690     0.0260 C.3   1 <1>   0.3430 
 14 C       -2.6180     3.9890    -0.7910 C.3   1 <1>   0.3430 
 15 O        7.1050    -0.2910    -0.0840 O.3   1 <1>  -0.3630 
 16 C       -4.8990     2.5690     0.3680 C.3   1 <1>  -0.1600 
 17 C       -3.9150     4.7340    -0.4680 C.3   1 <1>  -0.1600 
 18 C        7.1360    -1.6510    -0.4570 C.3   1 <1>   0.0400 
 19 C       -5.1330     3.8020    -0.5140 C.3   1 <1>  -0.1600 
 20 H        0.1420     3.8540    -0.3320 H     1 <1>   0.0800 
 21 H       -0.0040     3.3390     1.3500 H     1 <1>   0.0800 
 22 H        4.9910     3.5280     0.8200 H     1 <1>   0.1500 
 23 H        2.5990     0.1720    -0.2790 H     1 <1>   0.1500 
 24 H       -1.1180     1.2530     0.5870 H     1 <1>   0.0800 
 25 H       -1.0440     1.8150    -1.0670 H     1 <1>   0.0800 
 26 H        7.0060     2.1500     0.5840 H     1 <1>   0.1500 
 27 H        4.5880    -1.1830    -0.5110 H     1 <1>   0.1500 
 28 H       -2.4880     3.2140     1.1060 H     1 <1>   0.4500 
 29 H       -3.4350     1.0380     0.6960 H     1 <1>   0.0800 
 30 H       -3.6290     1.4890    -0.9820 H     1 <1>   0.0800 
 31 H       -2.6540     3.6300    -1.8070 H     1 <1>   0.0800 
 32 H       -1.7880     4.6710    -0.7000 H     1 <1>   0.0800 
 33 H       -4.8950     2.8530     1.4060 H     1 <1>   0.0800 
 34 H       -5.7110     1.8750     0.2300 H     1 <1>   0.0800 
 35 H       -4.0500     5.5290    -1.1810 H     1 <1>   0.0800 
 36 H       -3.8350     5.1870     0.5050 H     1 <1>   0.0800 
 37 H        8.1630    -1.9690    -0.4710 H     1 <1>   0.0800 
 38 H        6.7080    -1.7540    -1.4390 H     1 <1>   0.0800 
 39 H        6.5860    -2.2250     0.2670 H     1 <1>   0.0800 
 40 H       -6.0110     4.3300    -0.1790 H     1 <1>   0.0800 
 41 H       -5.3080     3.4890    -1.5300 H     1 <1>   0.0800 
@<TRIPOS>BOND
  1   1   2  2   
  2   2   3  1   
  3   2   4  1   
  4   3   5  1   
  5   4   6  ar  
  6   4   7  ar  
  7   5   8  1   
  8   5  20  1   
  9   5  21  1   
 10   6   9  ar  
 11   6  22  1   
 12   7  10  ar  
 13   7  23  1   
 14   8  11  1   
 15   8  24  1   
 16   8  25  1   
 17   9  12  ar  
 18   9  26  1   
 19  10  12  ar  
 20  10  27  1   
 21  11  13  1   
 22  11  14  1   
 23  11  28  1   
 24  12  15  1   
 25  13  16  1   
 26  13  29  1   
 27  13  30  1   
 28  14  17  1   
 29  14  31  1   
 30  14  32  1   
 31  15  18  1   
 32  16  19  1   
 33  16  33  1   
 34  16  34  1   
 35  17  19  1   
 36  17  35  1   
 37  17  36  1   
 38  18  37  1   
 39  18  38  1   
 40  18  39  1   
 41  19  40  1   
 42  19  41  1   
@<TRIPOS>SUBSTRUCTURE
  1 ****   3 GROUP 4 **** **** 0

# MOE 2024.06 (io_trps.svl 2023.06)
