@<TRIPOS>MOLECULE
NONAME
24 24 1 0 0 
SMALL
USER_CHARGES


@<TRIPOS>ATOM
  1 CL      -0.4920     0.0380     0.0150 Cl    1 <1>  -0.1770 
  2 C        1.1180     0.7140     0.0060 C.ar  1 <1>   0.1770 
  3 C        1.2770     2.0870     0.0010 C.ar  1 <1>  -0.1500 
  4 C        2.2090    -0.1350     0.0040 C.ar  1 <1>  -0.1500 
  5 C        2.5550     2.6180    -0.0060 C.ar  1 <1>  -0.1500 
  6 C        3.4880     0.3980    -0.0030 C.ar  1 <1>  -0.1500 
  7 C        3.6640     1.7820    -0.0080 C.ar  1 <1>   0.0820 
  8 O        4.8780     2.3870    -0.0150 O.3   1 <1>  -0.3630 
  9 C        6.0710     1.6410    -0.0180 C.3   1 <1>   0.1200 
 10 C        7.2420     2.6240    -0.0260 C.3   1 <1>  -0.1600 
 11 C        8.5800     1.8830    -0.0290 C.3   1 <1>   0.0700 
 12 S        9.9320     3.1370    -0.0390 S.3   1 <1>  -0.2660 
 13 C       11.4180     2.1150    -0.0420 C.1   1 <1>   0.5930 
 14 N       12.3330     1.4400    -0.0440 N.1   1 <1>  -0.5570 
 15 H        0.4120     2.7270     0.0030 H     1 <1>   0.1500 
 16 H        2.0540    -1.1990     0.0070 H     1 <1>   0.1500 
 17 H        2.7020     3.6830    -0.0100 H     1 <1>   0.1500 
 18 H        4.3250    -0.2740    -0.0050 H     1 <1>   0.1500 
 19 H        6.0830     1.0250    -0.9000 H     1 <1>   0.0800 
 20 H        6.0900     1.0300     0.8680 H     1 <1>   0.0800 
 21 H        7.1830     3.2490     0.8490 H     1 <1>   0.0800 
 22 H        7.1760     3.2430    -0.9030 H     1 <1>   0.0800 
 23 H        8.6990     1.2780    -0.9110 H     1 <1>   0.0800 
 24 H        8.7060     1.2830     0.8560 H     1 <1>   0.0800 
@<TRIPOS>BOND
  1   1   2  1   
  2   2   3  ar  
  3   2   4  ar  
  4   3   5  ar  
  5   3  15  1   
  6   4   6  ar  
  7   4  16  1   
  8   5   7  ar  
  9   5  17  1   
 10   6   7  ar  
 11   6  18  1   
 12   7   8  1   
 13   8   9  1   
 14   9  10  1   
 15   9  19  1   
 16   9  20  1   
 17  10  11  1   
 18  10  21  1   
 19  10  22  1   
 20  11  12  1   
 21  11  23  1   
 22  11  24  1   
 23  12  13  1   
 24  13  14  3   
@<TRIPOS>SUBSTRUCTURE
  1 ****   9 GROUP 4 **** **** 0

# MOE 2024.06 (io_trps.svl 2023.06)
