@<TRIPOS>MOLECULE
NONAME
35 36 1 0 0 
SMALL
USER_CHARGES


@<TRIPOS>ATOM
  1 F        0.8440    -1.3020    -2.2910 F     1 <1>  -0.1900 
  2 C        1.8510    -1.4920    -1.4810 C.ar  1 <1>   0.1900 
  3 C        1.9450    -2.6950    -0.8090 C.ar  1 <1>  -0.1500 
  4 C        2.7840    -0.4860    -1.3300 C.ar  1 <1>  -0.1500 
  5 C        3.0140    -2.9080     0.0490 C.ar  1 <1>  -0.1440 
  6 C        3.8500    -0.6960    -0.4730 C.ar  1 <1>  -0.1500 
  7 C        3.9710    -1.9030     0.2190 C.ar  1 <1>   0.0830 
  8 C        3.1040    -4.2430     0.7840 C.3   1 <1>  -0.0160 
  9 O        5.0090    -2.1500     1.0640 O.3   1 <1>  -0.3630 
 10 C        3.7420    -5.3400    -0.0900 C.3   1 <1>  -0.0800 
 11 C        5.8350    -1.1060     1.5340 C.3   1 <1>   0.0400 
 12 C        3.7590    -6.6850     0.6580 C.3   1 <1>  -0.1600 
 13 C        5.1710    -4.9670    -0.5310 C.3   1 <1>  -0.1600 
 14 C        4.4580    -7.7800    -0.1500 C.3   1 <1>   0.3430 
 15 C        5.8440    -6.0920    -1.3140 C.3   1 <1>   0.3430 
 16 N        5.8340    -7.3360    -0.4990 N.4   1 <1>  -0.9060 
 17 H        1.1870    -3.4410    -0.9610 H     1 <1>   0.1500 
 18 H        2.6740     0.4360    -1.8720 H     1 <1>   0.1500 
 19 H        4.5740     0.0890    -0.3620 H     1 <1>   0.1500 
 20 H        2.1100    -4.5440     1.0670 H     1 <1>   0.0800 
 21 H        3.6610    -4.1260     1.6980 H     1 <1>   0.0800 
 22 H        3.1340    -5.4500    -0.9740 H     1 <1>   0.0800 
 23 H        6.4920    -1.5100     2.2840 H     1 <1>   0.0800 
 24 H        5.2180    -0.3380     1.9670 H     1 <1>   0.0800 
 25 H        6.4140    -0.7190     0.7150 H     1 <1>   0.0800 
 26 H        2.7470    -6.9950     0.8560 H     1 <1>   0.0800 
 27 H        4.2520    -6.5750     1.6080 H     1 <1>   0.0800 
 28 H        5.7710    -4.7170     0.3270 H     1 <1>   0.0800 
 29 H        5.1380    -4.0950    -1.1610 H     1 <1>   0.0800 
 30 H        3.8980    -7.9750    -1.0510 H     1 <1>   0.0800 
 31 H        4.4960    -8.6890     0.4300 H     1 <1>   0.0800 
 32 H        6.8580    -5.8100    -1.5520 H     1 <1>   0.0800 
 33 H        5.3120    -6.2540    -2.2380 H     1 <1>   0.0800 
 34 H        6.3280    -8.0850    -1.0010 H     1 <1>   0.4500 
 35 H        6.3530    -7.1580     0.3690 H     1 <1>   0.4500 
@<TRIPOS>BOND
  1   1   2  1   
  2   2   3  ar  
  3   2   4  ar  
  4   3   5  ar  
  5   3  17  1   
  6   4   6  ar  
  7   4  18  1   
  8   5   7  ar  
  9   5   8  1   
 10   6   7  ar  
 11   6  19  1   
 12   7   9  1   
 13   8  10  1   
 14   8  20  1   
 15   8  21  1   
 16   9  11  1   
 17  10  12  1   
 18  10  13  1   
 19  10  22  1   
 20  11  23  1   
 21  11  24  1   
 22  11  25  1   
 23  12  14  1   
 24  12  26  1   
 25  12  27  1   
 26  13  15  1   
 27  13  28  1   
 28  13  29  1   
 29  14  16  1   
 30  14  30  1   
 31  14  31  1   
 32  15  16  1   
 33  15  32  1   
 34  15  33  1   
 35  16  34  1   
 36  16  35  1   
@<TRIPOS>SUBSTRUCTURE
  1 ****   5 GROUP 4 **** **** 0

# MOE 2024.06 (io_trps.svl 2023.06)
