@<TRIPOS>MOLECULE
NONAME
44 46 1 0 0 
SMALL
USER_CHARGES


@<TRIPOS>ATOM
  1 F       -0.1890    -2.3290     1.9040 F     1 <1>  -0.1900 
  2 C       -1.1680    -2.0780     1.0650 C.ar  1 <1>   0.1900 
  3 C       -1.0740    -2.5290    -0.2580 C.ar  1 <1>   0.1000 
  4 C       -2.2540    -1.3720     1.5420 C.ar  1 <1>  -0.1500 
  5 N        0.0100    -3.2480    -0.7820 N.pl3 1 <1>  -0.8380 
  6 C       -2.1400    -2.2330    -1.0970 C.ar  1 <1>  -0.1500 
  7 C       -3.3010    -1.0940     0.6790 C.ar  1 <1>  -0.1500 
  8 C        1.2810    -2.4960    -1.0240 C.3   1 <1>   0.2090 
  9 C        0.1570    -4.6740    -0.3600 C.3   1 <1>   0.2090 
 10 C       -3.2400    -1.5250    -0.6380 C.ar  1 <1>  -0.1500 
 11 C        2.3190    -2.7230     0.0960 C.3   1 <1>   0.3430 
 12 C        1.2180    -4.8520     0.7480 C.3   1 <1>   0.3430 
 13 N        2.5280    -4.1840     0.4180 N.4   1 <1>  -0.9590 
 14 C        3.5200    -4.3600     1.5110 C.3   1 <1>   0.4860 
 15 C        4.8610    -3.8380     1.0340 C.ar  1 <1>  -0.1430 
 16 C        5.6290    -4.5760     0.1430 C.ar  1 <1>  -0.1500 
 17 C        5.3300    -2.6110     1.4830 C.ar  1 <1>  -0.1500 
 18 C        6.8440    -4.0880    -0.3060 C.ar  1 <1>  -0.1500 
 19 C        6.5440    -2.1240     1.0340 C.ar  1 <1>  -0.1500 
 20 C        7.3070    -2.8540     0.1380 C.ar  1 <1>   0.0830 
 21 O        8.4820    -2.3020    -0.2510 O.3   1 <1>  -0.3620 
 22 C        9.3810    -2.9910    -1.0910 C.3   1 <1>   0.0400 
 23 H       -2.2840    -1.0460     2.5660 H     1 <1>   0.1500 
 24 H       -2.1020    -2.5630    -2.1200 H     1 <1>   0.1500 
 25 H       -4.1600    -0.5450     1.0270 H     1 <1>   0.1500 
 26 H        1.0640    -1.4430    -1.0970 H     1 <1>   0.0800 
 27 H        1.6950    -2.8050    -1.9680 H     1 <1>   0.0800 
 28 H        0.4260    -5.2650    -1.2180 H     1 <1>   0.0800 
 29 H       -0.7920    -5.0390    -0.0030 H     1 <1>   0.0800 
 30 H       -4.0540    -1.3090    -1.3090 H     1 <1>   0.1500 
 31 H        1.9790    -2.2050     0.9770 H     1 <1>   0.0800 
 32 H        3.2520    -2.2760    -0.2040 H     1 <1>   0.0800 
 33 H        1.3730    -5.9050     0.9130 H     1 <1>   0.0800 
 34 H        0.8220    -4.4340     1.6580 H     1 <1>   0.0800 
 35 H        2.9200    -4.6190    -0.4250 H     1 <1>   0.4500 
 36 H        3.6160    -5.4040     1.7630 H     1 <1>   0.0800 
 37 H        3.2070    -3.8230     2.3910 H     1 <1>   0.0800 
 38 H        5.2980    -5.5380    -0.2100 H     1 <1>   0.1500 
 39 H        4.7650    -2.0210     2.1860 H     1 <1>   0.1500 
 40 H        7.4200    -4.6780    -0.9950 H     1 <1>   0.1500 
 41 H        6.9150    -1.1740     1.3760 H     1 <1>   0.1500 
 42 H       10.2470    -2.3700    -1.2340 H     1 <1>   0.0800 
 43 H        8.9050    -3.1740    -2.0380 H     1 <1>   0.0800 
 44 H        9.6680    -3.9120    -0.6170 H     1 <1>   0.0800 
@<TRIPOS>BOND
  1   1   2  1   
  2   2   3  ar  
  3   2   4  ar  
  4   3   5  1   
  5   3   6  ar  
  6   4   7  ar  
  7   4  23  1   
  8   5   8  1   
  9   5   9  1   
 10   6  10  ar  
 11   6  24  1   
 12   7  10  ar  
 13   7  25  1   
 14   8  11  1   
 15   8  26  1   
 16   8  27  1   
 17   9  12  1   
 18   9  28  1   
 19   9  29  1   
 20  10  30  1   
 21  11  13  1   
 22  11  31  1   
 23  11  32  1   
 24  12  13  1   
 25  12  33  1   
 26  12  34  1   
 27  13  14  1   
 28  13  35  1   
 29  14  15  1   
 30  14  36  1   
 31  14  37  1   
 32  15  16  ar  
 33  15  17  ar  
 34  16  18  ar  
 35  16  38  1   
 36  17  19  ar  
 37  17  39  1   
 38  18  20  ar  
 39  18  40  1   
 40  19  20  ar  
 41  19  41  1   
 42  20  21  1   
 43  21  22  1   
 44  22  42  1   
 45  22  43  1   
 46  22  44  1   
@<TRIPOS>SUBSTRUCTURE
  1 ****  11 GROUP 4 **** **** 0

# MOE 2024.06 (io_trps.svl 2023.06)
