@<TRIPOS>MOLECULE
NONAME
35 36 1 0 0 
SMALL
USER_CHARGES


@<TRIPOS>ATOM
  1 O        0.3180    -0.2790     0.2870 O.3   1 <1>  -0.5600 
  2 C        0.4700    -1.6370     0.5790 C.3   1 <1>   0.1200 
  3 C        1.4000     0.5280     0.6500 C.3   1 <1>   0.1200 
  4 C        1.7040    -2.2040    -0.1510 C.3   1 <1>   0.3430 
  5 C        2.6780     0.0630    -0.0750 C.3   1 <1>   0.3430 
  6 N        2.9430    -1.4040     0.1500 N.4   1 <1>  -0.9590 
  7 C        4.1020    -1.9050    -0.6390 C.3   1 <1>   0.3430 
  8 C        5.4040    -1.3110    -0.1050 C.3   1 <1>  -0.1600 
  9 C        6.6230    -1.9050    -0.8200 C.3   1 <1>  -0.0170 
 10 C        7.8870    -1.2720    -0.2680 C.ar  1 <1>  -0.1440 
 11 C        8.5180    -1.8200     0.8380 C.ar  1 <1>  -0.1500 
 12 C        8.4160    -0.1350    -0.8590 C.ar  1 <1>  -0.1500 
 13 C        9.6630    -1.2350     1.3510 C.ar  1 <1>  -0.1500 
 14 C        9.5610     0.4510    -0.3470 C.ar  1 <1>  -0.1500 
 15 C       10.1840    -0.0990     0.7590 C.ar  1 <1>  -0.1500 
 16 H       -0.4210    -2.1430     0.2490 H     1 <1>   0.0800 
 17 H        0.5560    -1.7560     1.6450 H     1 <1>   0.0800 
 18 H        1.5210     0.4890     1.7180 H     1 <1>   0.0800 
 19 H        1.1620     1.5390     0.3690 H     1 <1>   0.0800 
 20 H        1.5060    -2.1840    -1.2100 H     1 <1>   0.0800 
 21 H        1.8470    -3.2320     0.1400 H     1 <1>   0.0800 
 22 H        3.5130     0.6490     0.2740 H     1 <1>   0.0800 
 23 H        2.5570     0.2540    -1.1290 H     1 <1>   0.0800 
 24 H        3.1560    -1.5300     1.1490 H     1 <1>   0.4500 
 25 H        3.9810    -1.6500    -1.6800 H     1 <1>   0.0800 
 26 H        4.1540    -2.9800    -0.5610 H     1 <1>   0.0800 
 27 H        5.4950    -1.5170     0.9480 H     1 <1>   0.0800 
 28 H        5.4190    -0.2460    -0.2510 H     1 <1>   0.0800 
 29 H        6.5650    -1.7200    -1.8800 H     1 <1>   0.0800 
 30 H        6.6650    -2.9710    -0.6730 H     1 <1>   0.0800 
 31 H        8.1270    -2.7050     1.3080 H     1 <1>   0.1500 
 32 H        7.9460     0.3040    -1.7210 H     1 <1>   0.1500 
 33 H       10.1500    -1.6640     2.2090 H     1 <1>   0.1500 
 34 H        9.9690     1.3330    -0.8090 H     1 <1>   0.1500 
 35 H       11.0740     0.3560     1.1580 H     1 <1>   0.1500 
@<TRIPOS>BOND
  1   1   2  1   
  2   1   3  1   
  3   2   4  1   
  4   2  16  1   
  5   2  17  1   
  6   3   5  1   
  7   3  18  1   
  8   3  19  1   
  9   4   6  1   
 10   4  20  1   
 11   4  21  1   
 12   5   6  1   
 13   5  22  1   
 14   5  23  1   
 15   6   7  1   
 16   6  24  1   
 17   7   8  1   
 18   7  25  1   
 19   7  26  1   
 20   8   9  1   
 21   8  27  1   
 22   8  28  1   
 23   9  10  1   
 24   9  29  1   
 25   9  30  1   
 26  10  11  ar  
 27  10  12  ar  
 28  11  13  ar  
 29  11  31  1   
 30  12  14  ar  
 31  12  32  1   
 32  13  15  ar  
 33  13  33  1   
 34  14  15  ar  
 35  14  34  1   
 36  15  35  1   
@<TRIPOS>SUBSTRUCTURE
  1 ****   8 GROUP 4 **** **** 0

# MOE 2024.06 (io_trps.svl 2023.06)
