@<TRIPOS>MOLECULE
NONAME
47 49 1 0 0 
SMALL
USER_CHARGES


@<TRIPOS>ATOM
  1 CL       4.0840    -0.7440    -3.5530 Cl    1 <1>  -0.1770 
  2 C        3.8850    -0.0920    -1.9410 C.ar  1 <1>   0.1770 
  3 C        2.8320    -0.4900    -1.1360 C.ar  1 <1>   0.1900 
  4 C        4.7980     0.8340    -1.4730 C.ar  1 <1>  -0.1500 
  5 F        1.9650    -1.3680    -1.5750 F     1 <1>  -0.1900 
  6 C        2.6710     0.0230     0.1370 C.ar  1 <1>  -0.1500 
  7 C        4.6630     1.3660    -0.1940 C.ar  1 <1>   0.1170 
  8 C        3.5900     0.9510     0.5990 C.ar  1 <1>  -0.1500 
  9 N        5.6130     2.3030     0.2380 N.am  1 <1>  -0.5470 
 10 C        5.9030     2.8480     1.4560 C.2   1 <1>   0.5690 
 11 O        5.3300     2.5750     2.4830 O.2   1 <1>  -0.5700 
 12 C        7.0460     3.8640     1.4840 C.3   1 <1>   0.1710 
 13 N        8.0020     3.7130     0.3460 N.3   1 <1>  -0.8100 
 14 C        8.9010     2.5500     0.5650 C.3   1 <1>   0.1100 
 15 C        8.8270     4.9330     0.1870 C.3   1 <1>   0.1100 
 16 C        9.8940     2.3460    -0.5950 C.3   1 <1>   0.2090 
 17 C        9.8360     4.8190    -0.9750 C.3   1 <1>   0.2090 
 18 N       10.6750     3.5880    -0.8670 N.pl3 1 <1>  -0.8380 
 19 C       12.0010     3.6420    -0.4370 C.ar  1 <1>   0.1000 
 20 C       12.9380     2.7860    -1.0000 C.ar  1 <1>  -0.1500 
 21 C       12.4260     4.5250     0.5530 C.ar  1 <1>  -0.1500 
 22 C       14.2600     2.7940    -0.5950 C.ar  1 <1>   0.0820 
 23 C       13.7460     4.5480     0.9650 C.ar  1 <1>  -0.1500 
 24 O       15.0940     1.9130    -1.2050 O.3   1 <1>  -0.3620 
 25 C       14.6670     3.6850     0.3960 C.ar  1 <1>  -0.1500 
 26 C       16.4670     1.8660    -0.8860 C.3   1 <1>   0.0400 
 27 H        5.6100     1.1370    -2.1070 H     1 <1>   0.1500 
 28 H        1.8460    -0.2960     0.7490 H     1 <1>   0.1500 
 29 H        3.4630     1.3550     1.5880 H     1 <1>   0.1500 
 30 H        6.2860     2.6310    -0.4650 H     1 <1>   0.3700 
 31 H        7.5680     3.7810     2.4210 H     1 <1>   0.0800 
 32 H        6.5960     4.8400     1.4440 H     1 <1>   0.0800 
 33 H        8.3190     1.6520     0.6770 H     1 <1>   0.0800 
 34 H        9.4670     2.6900     1.4710 H     1 <1>   0.0800 
 35 H        9.3690     5.1260     1.0970 H     1 <1>   0.0800 
 36 H        8.1850     5.7760    -0.0020 H     1 <1>   0.0800 
 37 H        9.3550     2.0690    -1.4840 H     1 <1>   0.0800 
 38 H       10.5650     1.5410    -0.3500 H     1 <1>   0.0800 
 39 H       10.4680     5.6890    -0.9970 H     1 <1>   0.0800 
 40 H        9.2960     4.7880    -1.9050 H     1 <1>   0.0800 
 41 H       12.6290     2.1070    -1.7710 H     1 <1>   0.1500 
 42 H       11.7210     5.1910     1.0070 H     1 <1>   0.1500 
 43 H       14.0590     5.2360     1.7300 H     1 <1>   0.1500 
 44 H       15.6850     3.7200     0.7330 H     1 <1>   0.1500 
 45 H       16.9250     1.1100    -1.4970 H     1 <1>   0.0800 
 46 H       16.5750     1.6130     0.1530 H     1 <1>   0.0800 
 47 H       16.9070     2.8240    -1.1000 H     1 <1>   0.0800 
@<TRIPOS>BOND
  1   1   2  1   
  2   2   3  ar  
  3   2   4  ar  
  4   3   5  1   
  5   3   6  ar  
  6   4   7  ar  
  7   4  27  1   
  8   6   8  ar  
  9   6  28  1   
 10   7   8  ar  
 11   7   9  1   
 12   8  29  1   
 13   9  10  am  
 14   9  30  1   
 15  10  11  2   
 16  10  12  1   
 17  12  13  1   
 18  12  31  1   
 19  12  32  1   
 20  13  14  1   
 21  13  15  1   
 22  14  16  1   
 23  14  33  1   
 24  14  34  1   
 25  15  17  1   
 26  15  35  1   
 27  15  36  1   
 28  16  18  1   
 29  16  37  1   
 30  16  38  1   
 31  17  18  1   
 32  17  39  1   
 33  17  40  1   
 34  18  19  1   
 35  19  20  ar  
 36  19  21  ar  
 37  20  22  ar  
 38  20  41  1   
 39  21  23  ar  
 40  21  42  1   
 41  22  24  1   
 42  22  25  ar  
 43  23  25  ar  
 44  23  43  1   
 45  24  26  1   
 46  25  44  1   
 47  26  45  1   
 48  26  46  1   
 49  26  47  1   
@<TRIPOS>SUBSTRUCTURE
  1 ****  14 GROUP 4 **** **** 0

# MOE 2024.06 (io_trps.svl 2023.06)
