@<TRIPOS>MOLECULE
NONAME
35 36 1 0 0 
SMALL
USER_CHARGES


@<TRIPOS>ATOM
  1 S        0.4780     1.0780     0.1950 S.3   1 <1>  -0.2860 
  2 C       -1.2730     0.7010     0.2710 C.2   1 <1>   0.2420 
  3 C        1.1570     0.1070     1.6330 C.3   1 <1>   0.1310 
  4 N       -1.8060    -0.1040     1.1180 N.2   1 <1>  -0.3380 
  5 N       -2.1480     1.2440    -0.5630 N.pl3 1 <1>   0.0330 
  6 C        2.6690     0.2290     1.7310 C.2   1 <1>   0.5690 
  7 N       -3.1160    -0.1040     0.8390 N.2   1 <1>  -0.3380 
  8 C       -3.2990     0.7000    -0.1570 C.2   1 <1>   0.0060 
  9 O        3.1810     0.0230     2.8040 O.2   1 <1>  -0.5700 
 10 N        3.3720     0.5630     0.6040 N.am  1 <1>  -0.5470 
 11 C       -4.6450     0.9950    -0.7940 C.3   1 <1>   0.0200 
 12 C        4.7450     0.7350     0.3590 C.ar  1 <1>   0.1170 
 13 C       -5.0450     2.4620    -0.6060 C.3   1 <1>  -0.2400 
 14 C        5.1540     1.4850    -0.7470 C.ar  1 <1>  -0.1430 
 15 C        5.7170     0.1650     1.1760 C.ar  1 <1>  -0.1500 
 16 C        6.5060     1.6500    -1.0090 C.ar  1 <1>  -0.1500 
 17 C        4.1410     2.1370    -1.6810 C.3   1 <1>  -0.0970 
 18 C        7.0620     0.3350     0.9100 C.ar  1 <1>  -0.1500 
 19 C        7.4590     1.0790    -0.1850 C.ar  1 <1>  -0.1500 
 20 H        0.8740    -0.9190     1.4900 H     1 <1>   0.0800 
 21 H        0.6920     0.4900     2.5220 H     1 <1>   0.0800 
 22 H       -1.9700     1.9100    -1.3130 H     1 <1>   0.2700 
 23 H        2.7820     0.8010    -0.1920 H     1 <1>   0.3700 
 24 H       -5.3900     0.3650    -0.3390 H     1 <1>   0.0800 
 25 H       -4.6070     0.7550    -1.8420 H     1 <1>   0.0800 
 26 H       -5.0770     2.7020     0.4430 H     1 <1>   0.0800 
 27 H       -6.0200     2.6330    -1.0260 H     1 <1>   0.0800 
 28 H       -4.3430     3.1170    -1.0910 H     1 <1>   0.0800 
 29 H        5.4280    -0.4220     2.0280 H     1 <1>   0.1500 
 30 H        6.8300     2.2260    -1.8570 H     1 <1>   0.1500 
 31 H        3.4890     2.7860    -1.1220 H     1 <1>   0.0800 
 32 H        3.5560     1.3840    -2.1750 H     1 <1>   0.0800 
 33 H        4.6350     2.7270    -2.4320 H     1 <1>   0.0800 
 34 H        7.7980    -0.1120     1.5550 H     1 <1>   0.1500 
 35 H        8.5050     1.2130    -0.3950 H     1 <1>   0.1500 
@<TRIPOS>BOND
  1   1   2  1   
  2   1   3  1   
  3   2   4  2   
  4   2   5  1   
  5   3   6  1   
  6   3  20  1   
  7   3  21  1   
  8   4   7  1   
  9   5   8  1   
 10   5  22  1   
 11   6   9  2   
 12   6  10  am  
 13   7   8  2   
 14   8  11  1   
 15  10  12  1   
 16  10  23  1   
 17  11  13  1   
 18  11  24  1   
 19  11  25  1   
 20  12  14  ar  
 21  12  15  ar  
 22  13  26  1   
 23  13  27  1   
 24  13  28  1   
 25  14  16  ar  
 26  14  17  1   
 27  15  18  ar  
 28  15  29  1   
 29  16  19  ar  
 30  16  30  1   
 31  17  31  1   
 32  17  32  1   
 33  17  33  1   
 34  18  19  ar  
 35  18  34  1   
 36  19  35  1   
@<TRIPOS>SUBSTRUCTURE
  1 ****   1 GROUP 4 **** **** 0

# MOE 2024.06 (io_trps.svl 2023.06)
