@<TRIPOS>MOLECULE
NONAME
29 30 1 0 0 
SMALL
USER_CHARGES


@<TRIPOS>ATOM
  1 F        0.1800     0.3750     0.4760 F     1 <1>  -0.1900 
  2 C       -0.4930     1.4940     0.4600 C.ar  1 <1>   0.1900 
  3 C        0.0540     2.6120    -0.1670 C.ar  1 <1>   0.0860 
  4 C       -1.7300     1.4950     1.0820 C.ar  1 <1>  -0.1500 
  5 C       -0.7380     3.7580    -0.1150 C.ar  1 <1>   0.1900 
  6 C        1.3400     2.5840    -0.8190 C.2   1 <1>   0.5440 
  7 C       -2.4820     2.6570     1.0980 C.ar  1 <1>  -0.1500 
  8 F       -0.3010     4.8660    -0.6460 F     1 <1>  -0.1900 
  9 C       -1.9810     3.7990     0.4950 C.ar  1 <1>  -0.1500 
 10 O        1.4530     2.9240    -1.9800 O.2   1 <1>  -0.5700 
 11 N        2.4490     2.1650    -0.1430 N.am  1 <1>  -0.7300 
 12 C        3.8060     2.0510    -0.7010 C.3   1 <1>   0.2200 
 13 C        4.2060     0.5810    -0.7100 C.3   1 <1>  -0.1600 
 14 C        4.7910     2.6760     0.2780 C.3   1 <1>  -0.1600 
 15 C        4.6650     0.2660     0.7180 C.3   1 <1>  -0.1600 
 16 C        5.0490     1.6100     1.3500 C.3   1 <1>  -0.1600 
 17 H       -2.0980     0.5960     1.5460 H     1 <1>   0.1500 
 18 H       -3.4480     2.6750     1.5760 H     1 <1>   0.1500 
 19 H       -2.5440     4.7160     0.4960 H     1 <1>   0.1500 
 20 H        2.3530     1.7630     0.7890 H     1 <1>   0.3700 
 21 H        3.8600     2.4990    -1.6810 H     1 <1>   0.0800 
 22 H        5.0390     0.4610    -1.3800 H     1 <1>   0.0800 
 23 H        3.4050    -0.0550    -1.0430 H     1 <1>   0.0800 
 24 H        4.4240     3.6010     0.6870 H     1 <1>   0.0800 
 25 H        5.7090     2.8740    -0.2460 H     1 <1>   0.0800 
 26 H        5.4960    -0.4190     0.7120 H     1 <1>   0.0800 
 27 H        3.8550    -0.1770     1.2720 H     1 <1>   0.0800 
 28 H        4.4300     1.7970     2.2110 H     1 <1>   0.0800 
 29 H        6.0810     1.6200     1.6570 H     1 <1>   0.0800 
@<TRIPOS>BOND
  1   1   2  1   
  2   2   3  ar  
  3   2   4  ar  
  4   3   5  ar  
  5   3   6  1   
  6   4   7  ar  
  7   4  17  1   
  8   5   8  1   
  9   5   9  ar  
 10   6  10  2   
 11   6  11  am  
 12   7   9  ar  
 13   7  18  1   
 14   9  19  1   
 15  11  12  1   
 16  11  20  1   
 17  12  13  1   
 18  12  14  1   
 19  12  21  1   
 20  13  15  1   
 21  13  22  1   
 22  13  23  1   
 23  14  16  1   
 24  14  24  1   
 25  14  25  1   
 26  15  16  1   
 27  15  26  1   
 28  15  27  1   
 29  16  28  1   
 30  16  29  1   
@<TRIPOS>SUBSTRUCTURE
  1 ****   6 GROUP 4 **** **** 0

# MOE 2024.06 (io_trps.svl 2023.06)
