@<TRIPOS>MOLECULE
NONAME
50 52 1 0 0 
SMALL
USER_CHARGES


@<TRIPOS>ATOM
  1 O        0.8140    -0.5990     1.1390 O.3   1 <1>  -0.3630 
  2 C        0.1420    -1.5690     0.4440 C.ar  1 <1>   0.0830 
  3 C        0.1730     0.1930     2.1120 C.3   1 <1>   0.0400 
  4 C        0.8250    -2.2590    -0.5750 C.ar  1 <1>   0.1000 
  5 C       -1.1860    -1.8860     0.7190 C.ar  1 <1>  -0.1500 
  6 N        2.1590    -2.0260    -0.9380 N.pl3 1 <1>  -0.8380 
  7 C        0.1470    -3.2420    -1.2820 C.ar  1 <1>  -0.1500 
  8 C       -1.8390    -2.8720    -0.0020 C.ar  1 <1>  -0.1500 
  9 C        3.1780    -2.3540     0.1000 C.3   1 <1>   0.2090 
 10 C        2.4440    -0.6840    -1.5240 C.3   1 <1>   0.2090 
 11 C       -1.1720    -3.5510    -1.0040 C.ar  1 <1>  -0.1500 
 12 C        4.5950    -2.3630    -0.4960 C.3   1 <1>   0.1100 
 13 C        3.8350    -0.6570    -2.1770 C.3   1 <1>   0.1100 
 14 N        4.9050    -1.0920    -1.2330 N.pl3 1 <1>  -0.4870 
 15 N        5.6820    -0.1220    -0.6740 N.2   1 <1>  -0.5030 
 16 C        6.8810    -0.3540    -0.2760 C.2   1 <1>   0.3030 
 17 C        7.6570    -1.5670    -0.4150 C.ar  1 <1>   0.0860 
 18 C        7.5920     0.8030     0.4040 C.3   1 <1>  -0.1790 
 19 C        8.3820    -2.0980     0.6530 C.ar  1 <1>  -0.1500 
 20 C        7.7250    -2.2520    -1.6300 C.ar  1 <1>  -0.1500 
 21 C        9.1380    -3.2490     0.5240 C.ar  1 <1>   0.0830 
 22 C        8.4750    -3.4050    -1.7750 C.ar  1 <1>  -0.1500 
 23 O        9.8010    -3.6680     1.6310 O.3   1 <1>  -0.3630 
 24 C        9.1850    -3.9090    -0.7000 C.ar  1 <1>  -0.1500 
 25 C       10.6240    -4.8140     1.6030 C.3   1 <1>   0.0400 
 26 H        0.8880     0.9020     2.4870 H     1 <1>   0.0800 
 27 H       -0.1660    -0.4420     2.9110 H     1 <1>   0.0800 
 28 H       -0.6500     0.7130     1.6530 H     1 <1>   0.0800 
 29 H       -1.7340    -1.3820     1.4900 H     1 <1>   0.1500 
 30 H        0.6740    -3.7650    -2.0590 H     1 <1>   0.1500 
 31 H       -2.8650    -3.1100     0.2180 H     1 <1>   0.1500 
 32 H        3.1390    -1.6250     0.8900 H     1 <1>   0.0800 
 33 H        2.9580    -3.3180     0.5230 H     1 <1>   0.0800 
 34 H        1.6950    -0.4490    -2.2590 H     1 <1>   0.0800 
 35 H        2.4070     0.0660    -0.7530 H     1 <1>   0.0800 
 36 H       -1.6740    -4.3170    -1.5670 H     1 <1>   0.1500 
 37 H        4.6850    -3.1890    -1.1770 H     1 <1>   0.0800 
 38 H        5.3000    -2.5080     0.3010 H     1 <1>   0.0800 
 39 H        4.0500     0.3400    -2.5170 H     1 <1>   0.0800 
 40 H        3.8360    -1.3110    -3.0290 H     1 <1>   0.0800 
 41 H        8.6130     0.8570     0.0740 H     1 <1>   0.0800 
 42 H        7.5660     0.6730     1.4690 H     1 <1>   0.0800 
 43 H        7.1060     1.7310     0.1610 H     1 <1>   0.0800 
 44 H        8.3560    -1.6120     1.6100 H     1 <1>   0.1500 
 45 H        7.1730    -1.8640    -2.4690 H     1 <1>   0.1500 
 46 H        8.5040    -3.9100    -2.7250 H     1 <1>   0.1500 
 47 H        9.7610    -4.8040    -0.8340 H     1 <1>   0.1500 
 48 H       11.0500    -4.9430     2.5820 H     1 <1>   0.0800 
 49 H       11.4070    -4.6640     0.8820 H     1 <1>   0.0800 
 50 H       10.0230    -5.6690     1.3510 H     1 <1>   0.0800 
@<TRIPOS>BOND
  1   1   2  1   
  2   1   3  1   
  3   2   4  ar  
  4   2   5  ar  
  5   3  26  1   
  6   3  27  1   
  7   3  28  1   
  8   4   6  1   
  9   4   7  ar  
 10   5   8  ar  
 11   5  29  1   
 12   6   9  1   
 13   6  10  1   
 14   7  11  ar  
 15   7  30  1   
 16   8  11  ar  
 17   8  31  1   
 18   9  12  1   
 19   9  32  1   
 20   9  33  1   
 21  10  13  1   
 22  10  34  1   
 23  10  35  1   
 24  11  36  1   
 25  12  14  1   
 26  12  37  1   
 27  12  38  1   
 28  13  14  1   
 29  13  39  1   
 30  13  40  1   
 31  14  15  1   
 32  15  16  2   
 33  16  17  1   
 34  16  18  1   
 35  17  19  ar  
 36  17  20  ar  
 37  18  41  1   
 38  18  42  1   
 39  18  43  1   
 40  19  21  ar  
 41  19  44  1   
 42  20  22  ar  
 43  20  45  1   
 44  21  23  1   
 45  21  24  ar  
 46  22  24  ar  
 47  22  46  1   
 48  23  25  1   
 49  24  47  1   
 50  25  48  1   
 51  25  49  1   
 52  25  50  1   
@<TRIPOS>SUBSTRUCTURE
  1 ****  12 GROUP 4 **** **** 0

# MOE 2024.06 (io_trps.svl 2023.06)
