@<TRIPOS>MOLECULE
NONAME
46 48 1 0 0 
SMALL
USER_CHARGES


@<TRIPOS>ATOM
  1 CL       0.1300     0.2980    -0.2790 Cl    1 <1>  -0.1770 
  2 C        1.7670    -0.2990    -0.1610 C.ar  1 <1>   0.1770 
  3 C        2.4150    -0.2660     1.0590 C.ar  1 <1>  -0.1500 
  4 C        2.3930    -0.7960    -1.2880 C.ar  1 <1>  -0.1500 
  5 C        3.7130    -0.7400     1.1490 C.ar  1 <1>  -0.1500 
  6 C        3.6910    -1.2670    -1.1890 C.ar  1 <1>  -0.1500 
  7 C        4.3670    -1.2490     0.0300 C.ar  1 <1>   0.1170 
  8 N        5.6860    -1.7070     0.1730 N.am  1 <1>  -0.5470 
  9 C        6.4100    -2.6030    -0.5720 C.2   1 <1>   0.5690 
 10 O        5.9420    -3.2180    -1.5000 O.2   1 <1>  -0.5700 
 11 C        7.8620    -2.8860    -0.1590 C.3   1 <1>   0.1710 
 12 N        8.8840    -1.8860    -0.5850 N.3   1 <1>  -0.8100 
 13 C        8.7070    -0.5460     0.0170 C.3   1 <1>   0.1100 
 14 C       10.2460    -2.4030    -0.3280 C.3   1 <1>   0.1100 
 15 C        9.7770     0.4540    -0.4600 C.3   1 <1>   0.1400 
 16 C       11.3350    -1.4390    -0.8260 C.3   1 <1>   0.1400 
 17 N       11.1510    -0.0840    -0.2300 N.am  1 <1>  -0.6600 
 18 C       12.1780     0.5850     0.3980 C.2   1 <1>   0.5690 
 19 O       13.2640     0.0580     0.5220 O.2   1 <1>  -0.5700 
 20 C       11.9680     2.0070     0.9860 C.3   1 <1>   0.2610 
 21 O       11.5720     2.9210    -0.0030 O.3   1 <1>  -0.5600 
 22 C       13.2120     2.6720     1.5780 C.3   1 <1>  -0.1600 
 23 C       12.6950     3.4420    -0.6400 C.3   1 <1>   0.1200 
 24 C       13.8270     3.3880     0.3850 C.3   1 <1>  -0.1600 
 25 H        1.9060     0.1250     1.9210 H     1 <1>   0.1500 
 26 H        1.8710    -0.8130    -2.2280 H     1 <1>   0.1500 
 27 H        4.2150    -0.7180     2.0980 H     1 <1>   0.1500 
 28 H        4.1770    -1.6470    -2.0700 H     1 <1>   0.1500 
 29 H        6.1820    -1.3260     0.9730 H     1 <1>   0.3700 
 30 H        8.1200    -3.8370    -0.5910 H     1 <1>   0.0800 
 31 H        7.8990    -3.0020     0.9090 H     1 <1>   0.0800 
 32 H        8.7520    -0.6180     1.0900 H     1 <1>   0.0800 
 33 H        7.7460    -0.1510    -0.2610 H     1 <1>   0.0800 
 34 H       10.3710    -3.3450    -0.8330 H     1 <1>   0.0800 
 35 H       10.3850    -2.5670     0.7270 H     1 <1>   0.0800 
 36 H        9.6320     1.3860     0.0520 H     1 <1>   0.0800 
 37 H        9.6450     0.6340    -1.5130 H     1 <1>   0.0800 
 38 H       11.2780    -1.3640    -1.8970 H     1 <1>   0.0800 
 39 H       12.3020    -1.8380    -0.5740 H     1 <1>   0.0800 
 40 H       11.1890     1.9560     1.7240 H     1 <1>   0.0800 
 41 H       13.8860     1.9710     2.0380 H     1 <1>   0.0800 
 42 H       12.9010     3.3890     2.3170 H     1 <1>   0.0800 
 43 H       12.4770     4.4470    -0.9560 H     1 <1>   0.0800 
 44 H       12.9150     2.8230    -1.4940 H     1 <1>   0.0800 
 45 H       14.6500     2.8250    -0.0180 H     1 <1>   0.0800 
 46 H       14.1680     4.3750     0.6450 H     1 <1>   0.0800 
@<TRIPOS>BOND
  1   1   2  1   
  2   2   3  ar  
  3   2   4  ar  
  4   3   5  ar  
  5   3  25  1   
  6   4   6  ar  
  7   4  26  1   
  8   5   7  ar  
  9   5  27  1   
 10   6   7  ar  
 11   6  28  1   
 12   7   8  1   
 13   8   9  am  
 14   8  29  1   
 15   9  10  2   
 16   9  11  1   
 17  11  12  1   
 18  11  30  1   
 19  11  31  1   
 20  12  13  1   
 21  12  14  1   
 22  13  15  1   
 23  13  32  1   
 24  13  33  1   
 25  14  16  1   
 26  14  34  1   
 27  14  35  1   
 28  15  17  1   
 29  15  36  1   
 30  15  37  1   
 31  16  17  1   
 32  16  38  1   
 33  16  39  1   
 34  17  18  am  
 35  18  19  2   
 36  18  20  1   
 37  20  21  1   
 38  20  22  1   
 39  20  40  1   
 40  21  23  1   
 41  22  24  1   
 42  22  41  1   
 43  22  42  1   
 44  23  24  1   
 45  23  43  1   
 46  23  44  1   
 47  24  45  1   
 48  24  46  1   
@<TRIPOS>SUBSTRUCTURE
  1 ****  13 GROUP 4 **** **** 0

# MOE 2024.06 (io_trps.svl 2023.06)
