@<TRIPOS>MOLECULE
NONAME
28 29 1 0 0 
SMALL
USER_CHARGES


@<TRIPOS>ATOM
  1 BR       0.0940    -0.0510    -0.4230 Br    1 <1>  -0.1110 
  2 C       -1.8270    -0.0170    -0.2310 C.ar  1 <1>   0.1110 
  3 C       -2.5070    -1.1630     0.1530 C.ar  1 <1>  -0.1440 
  4 C       -2.4750     1.1760    -0.4880 C.ar  1 <1>  -0.1500 
  5 C       -3.8860    -1.0850     0.2760 C.ar  1 <1>  -0.1500 
  6 C       -1.7770    -2.4670     0.4360 C.3   1 <1>  -0.0960 
  7 C       -3.8510     1.2270    -0.3600 C.ar  1 <1>  -0.1500 
  8 C       -4.5770     0.1010     0.0210 C.ar  1 <1>   0.1170 
  9 N       -5.9810     0.1520     0.1380 N.am  1 <1>  -0.4770 
 10 C       -6.7680     1.1880     0.5600 C.2   1 <1>   0.5690 
 11 C       -6.8230    -1.0100    -0.2330 C.3   1 <1>   0.1400 
 12 O       -6.3920     2.2720     0.9390 O.2   1 <1>  -0.5700 
 13 C       -8.2280     0.8290     0.4950 C.3   1 <1>  -0.0990 
 14 C       -8.2380    -0.4460    -0.3660 C.3   1 <1>  -0.1860 
 15 C       -9.2910    -1.4650     0.0130 C.2   1 <1>   0.9060 
 16 O      -10.3850    -1.0660     0.4180 O.co2 1 <1>  -0.9000 
 17 O       -9.0200    -2.6630    -0.1090 O.co2 1 <1>  -0.9000 
 18 H       -1.9150     2.0460    -0.7810 H     1 <1>   0.1500 
 19 H       -4.4390    -1.9540     0.5800 H     1 <1>   0.1500 
 20 H       -1.0740    -2.3280     1.2380 H     1 <1>   0.0800 
 21 H       -1.2460    -2.7890    -0.4420 H     1 <1>   0.0800 
 22 H       -2.4680    -3.2400     0.7190 H     1 <1>   0.0800 
 23 H       -4.3690     2.1470    -0.5580 H     1 <1>   0.1500 
 24 H       -6.7820    -1.7410     0.5570 H     1 <1>   0.0800 
 25 H       -6.4950    -1.4560    -1.1560 H     1 <1>   0.0800 
 26 H       -8.8120     1.6120     0.0510 H     1 <1>   0.0800 
 27 H       -8.5840     0.6260     1.4890 H     1 <1>   0.0800 
 28 H       -8.4040    -0.1800    -1.3910 H     1 <1>   0.0800 
@<TRIPOS>BOND
  1   1   2  1   
  2   2   3  ar  
  3   2   4  ar  
  4   3   5  ar  
  5   3   6  1   
  6   4   7  ar  
  7   4  18  1   
  8   5   8  ar  
  9   5  19  1   
 10   6  20  1   
 11   6  21  1   
 12   6  22  1   
 13   7   8  ar  
 14   7  23  1   
 15   8   9  1   
 16   9  10  am  
 17   9  11  1   
 18  10  12  2   
 19  10  13  1   
 20  11  14  1   
 21  11  24  1   
 22  11  25  1   
 23  13  14  1   
 24  13  26  1   
 25  13  27  1   
 26  14  15  1   
 27  14  28  1   
 28  15  16  ar  
 29  15  17  ar  
@<TRIPOS>SUBSTRUCTURE
  1 ****   9 GROUP 4 **** **** 0

# MOE 2024.06 (io_trps.svl 2023.06)
