@<TRIPOS>MOLECULE
NONAME
41 42 1 0 0 
SMALL
USER_CHARGES


@<TRIPOS>ATOM
  1 S       -0.4730     0.7640     1.5760 S.o2  1 <1>   1.4470 
  2 O       -0.1600     1.0120     2.9660 O.2   1 <1>  -0.6500 
  3 O       -0.9820    -0.5280     1.1750 O.2   1 <1>  -0.6500 
  4 N       -1.6670     1.8930     1.1580 N.am  1 <1>  -0.8490 
  5 C        0.9330     1.2020     0.5150 C.ar  1 <1>  -0.0090 
  6 C       -2.9610     1.5270     1.8150 C.3   1 <1>   0.2570 
  7 C       -1.2610     3.2620     1.5100 C.3   1 <1>   0.1960 
  8 C        0.8150     1.1750    -0.8700 C.ar  1 <1>  -0.1500 
  9 C        2.1560     1.5860     1.0560 C.ar  1 <1>  -0.1500 
 10 C       -4.2040     1.8480     0.9820 C.2   1 <1>   0.5690 
 11 C       -2.1420     4.3010     0.8190 C.3   1 <1>  -0.2400 
 12 C        1.8760     1.5260    -1.6860 C.ar  1 <1>  -0.1500 
 13 C        3.2240     1.9380     0.2480 C.ar  1 <1>  -0.1500 
 14 O       -5.2360     2.1260     1.5480 O.2   1 <1>  -0.5700 
 15 N       -4.0930     1.8130    -0.3730 N.am  1 <1>  -0.5790 
 16 C        3.0860     1.9110    -1.1360 C.ar  1 <1>   0.0830 
 17 C       -5.1490     2.1090    -1.3460 C.3   1 <1>   0.0490 
 18 O        4.0740     2.2420    -2.0010 O.3   1 <1>  -0.3630 
 19 C       -5.0970     1.4180    -2.6670 C.3   1 <1>  -0.2000 
 20 C       -4.7770     2.8800    -2.5680 C.3   1 <1>  -0.2000 
 21 C        5.3580     2.6100    -1.5480 C.3   1 <1>   0.0400 
 22 H       -3.0450     2.0110     2.7720 H     1 <1>   0.0800 
 23 H       -3.0040     0.4690     2.0000 H     1 <1>   0.0800 
 24 H       -0.2490     3.4320     1.1840 H     1 <1>   0.0800 
 25 H       -1.2850     3.4010     2.5800 H     1 <1>   0.0800 
 26 H       -0.1180     0.8730    -1.3140 H     1 <1>   0.1500 
 27 H        2.2750     1.6100     2.1260 H     1 <1>   0.1500 
 28 H       -2.1870     4.1130    -0.2380 H     1 <1>   0.0800 
 29 H       -1.7210     5.2790     0.9700 H     1 <1>   0.0800 
 30 H       -3.1350     4.3090     1.2300 H     1 <1>   0.0800 
 31 H        1.7740     1.5010    -2.7570 H     1 <1>   0.1500 
 32 H        4.1490     2.2280     0.7090 H     1 <1>   0.1500 
 33 H       -3.1610     1.6350    -0.7530 H     1 <1>   0.3700 
 34 H       -6.1110     2.2900    -0.8910 H     1 <1>   0.1000 
 35 H       -6.0230     1.1300    -3.1340 H     1 <1>   0.1000 
 36 H       -4.3030     0.7170    -2.8550 H     1 <1>   0.1000 
 37 H       -3.7580     3.2030    -2.6880 H     1 <1>   0.1000 
 38 H       -5.4850     3.5840    -2.9670 H     1 <1>   0.1000 
 39 H        5.9700     2.8110    -2.4090 H     1 <1>   0.0800 
 40 H        5.7760     1.7960    -0.9840 H     1 <1>   0.0800 
 41 H        5.2740     3.4970    -0.9450 H     1 <1>   0.0800 
@<TRIPOS>BOND
  1   1   2  2   
  2   1   3  2   
  3   1   4  am  
  4   1   5  1   
  5   4   6  1   
  6   4   7  1   
  7   5   8  ar  
  8   5   9  ar  
  9   6  10  1   
 10   6  22  1   
 11   6  23  1   
 12   7  11  1   
 13   7  24  1   
 14   7  25  1   
 15   8  12  ar  
 16   8  26  1   
 17   9  13  ar  
 18   9  27  1   
 19  10  14  2   
 20  10  15  am  
 21  11  28  1   
 22  11  29  1   
 23  11  30  1   
 24  12  16  ar  
 25  12  31  1   
 26  13  16  ar  
 27  13  32  1   
 28  15  17  1   
 29  15  33  1   
 30  16  18  1   
 31  17  19  1   
 32  17  20  1   
 33  17  34  1   
 34  18  21  1   
 35  19  20  1   
 36  19  35  1   
 37  19  36  1   
 38  20  37  1   
 39  20  38  1   
 40  21  39  1   
 41  21  40  1   
 42  21  41  1   
@<TRIPOS>SUBSTRUCTURE
  1 ****   4 GROUP 4 **** **** 0

# MOE 2024.06 (io_trps.svl 2023.06)
