@<TRIPOS>MOLECULE
NONAME
29 30 1 0 0 
SMALL
USER_CHARGES


@<TRIPOS>ATOM
  1 S       -1.1610     0.8640    -1.8410 S.3   1 <1>  -0.0800 
  2 C       -1.7150     0.9640    -0.1750 C.2   1 <1>  -0.1400 
  3 C        0.0430     2.1050    -1.5630 C.2   1 <1>  -0.1100 
  4 C       -1.0010     1.8810     0.5080 C.2   1 <1>  -0.1810 
  5 C       -2.8450     0.0380     0.2200 C.3   1 <1>   0.5230 
  6 C       -0.0040     2.5310    -0.2880 C.2   1 <1>  -0.1500 
  7 C       -1.1420     2.2630     1.9720 C.3   1 <1>  -0.0590 
  8 N       -4.1340     0.7550     0.0320 N.4   1 <1>  -0.9590 
  9 C       -5.2710     0.0480     0.7140 C.3   1 <1>   0.3430 
 10 C       -4.4430     0.9860    -1.4240 C.3   1 <1>   0.3430 
 11 C       -6.6200     0.7340     0.4220 C.3   1 <1>   0.1200 
 12 C       -5.8350     1.6170    -1.6170 C.3   1 <1>   0.1200 
 13 O       -6.8070     0.8590    -0.9570 O.3   1 <1>  -0.5600 
 14 H        0.6700     2.3870    -2.3910 H     1 <1>   0.1500 
 15 H       -2.7240    -0.2280     1.2570 H     1 <1>   0.0800 
 16 H       -2.8130    -0.8630    -0.3720 H     1 <1>   0.0800 
 17 H        0.6380     3.2880     0.1310 H     1 <1>   0.1500 
 18 H       -1.9150     1.6950     2.4550 H     1 <1>   0.0800 
 19 H       -1.3750     3.3100     2.0570 H     1 <1>   0.0800 
 20 H       -0.2140     2.0800     2.4850 H     1 <1>   0.0800 
 21 H       -4.0110     1.6810     0.4590 H     1 <1>   0.4500 
 22 H       -5.1090     0.0240     1.7790 H     1 <1>   0.0800 
 23 H       -5.3310    -0.9690     0.3640 H     1 <1>   0.0800 
 24 H       -4.4180     0.0500    -1.9570 H     1 <1>   0.0800 
 25 H       -3.7010     1.6350    -1.8610 H     1 <1>   0.0800 
 26 H       -6.6680     1.7120     0.8700 H     1 <1>   0.0800 
 27 H       -7.4300     0.1400     0.8080 H     1 <1>   0.0800 
 28 H       -6.0900     1.6380    -2.6630 H     1 <1>   0.0800 
 29 H       -5.8620     2.6250    -1.2390 H     1 <1>   0.0800 
@<TRIPOS>BOND
  1   1   2  1   
  2   1   3  1   
  3   2   4  2   
  4   2   5  1   
  5   3   6  2   
  6   3  14  1   
  7   4   6  1   
  8   4   7  1   
  9   5   8  1   
 10   5  15  1   
 11   5  16  1   
 12   6  17  1   
 13   7  18  1   
 14   7  19  1   
 15   7  20  1   
 16   8   9  1   
 17   8  10  1   
 18   8  21  1   
 19   9  11  1   
 20   9  22  1   
 21   9  23  1   
 22  10  12  1   
 23  10  24  1   
 24  10  25  1   
 25  11  13  1   
 26  11  26  1   
 27  11  27  1   
 28  12  13  1   
 29  12  28  1   
 30  12  29  1   
@<TRIPOS>SUBSTRUCTURE
  1 ****   8 GROUP 4 **** **** 0

# MOE 2024.06 (io_trps.svl 2023.06)
