@<TRIPOS>MOLECULE
NONAME
38 39 1 0 0 
SMALL
USER_CHARGES


@<TRIPOS>ATOM
  1 O        0.3830     0.8590    -0.5230 O.2   1 <1>  -0.5700 
  2 C       -0.0080     1.4560     0.4600 C.2   1 <1>   0.6900 
  3 N       -1.3180     1.7850     0.6330 N.am  1 <1>  -0.5470 
  4 N        0.8530     1.8410     1.4350 N.am  1 <1>  -0.7300 
  5 C       -2.4630     1.4450    -0.1050 C.ar  1 <1>   0.1170 
  6 C        2.3250     1.6180     1.4720 C.3   1 <1>   0.2200 
  7 C       -3.5710     2.2970    -0.0990 C.ar  1 <1>  -0.1430 
  8 C       -2.5370     0.2590    -0.8310 C.ar  1 <1>  -0.1500 
  9 C        3.0430     1.9870     0.1510 C.3   1 <1>   0.2000 
 10 C        2.5800     0.1690     1.8890 C.3   1 <1>  -0.2400 
 11 C       -4.7110     1.9530    -0.8090 C.ar  1 <1>  -0.1500 
 12 C       -3.5550     3.6120     0.6710 C.3   1 <1>  -0.0970 
 13 C       -3.6760    -0.0770    -1.5370 C.ar  1 <1>  -0.1500 
 14 O        4.4220     2.0010     0.3490 O.3   1 <1>  -0.5600 
 15 C        2.7400     3.3840    -0.3810 C.3   1 <1>  -0.1600 
 16 C       -4.7670     0.7720    -1.5270 C.ar  1 <1>  -0.1500 
 17 C        5.0310     2.7130    -0.6770 C.3   1 <1>   0.1200 
 18 C        4.0190     3.7720    -1.1080 C.3   1 <1>  -0.1600 
 19 H       -1.4710     2.4990     1.3330 H     1 <1>   0.3700 
 20 H        0.4570     2.0840     2.3380 H     1 <1>   0.3700 
 21 H        2.7260     2.2660     2.2330 H     1 <1>   0.0800 
 22 H       -1.6970    -0.4120    -0.8430 H     1 <1>   0.1500 
 23 H        2.8400     1.2470    -0.6050 H     1 <1>   0.0800 
 24 H        2.2020    -0.5060     1.1420 H     1 <1>   0.0800 
 25 H        2.1110    -0.0410     2.8320 H     1 <1>   0.0800 
 26 H        3.6380     0.0020     1.9900 H     1 <1>   0.0800 
 27 H       -5.5690     2.6030    -0.8110 H     1 <1>   0.1500 
 28 H       -4.4560     4.1710     0.4950 H     1 <1>   0.0800 
 29 H       -2.7220     4.2140     0.3540 H     1 <1>   0.0800 
 30 H       -3.4770     3.4210     1.7260 H     1 <1>   0.0800 
 31 H       -3.7110    -0.9960    -2.0940 H     1 <1>   0.1500 
 32 H        2.5560     4.0570     0.4370 H     1 <1>   0.0800 
 33 H        1.8820     3.3720    -1.0310 H     1 <1>   0.0800 
 34 H       -5.6560     0.5140    -2.0760 H     1 <1>   0.1500 
 35 H        5.2410     2.0270    -1.4790 H     1 <1>   0.0800 
 36 H        5.9450     3.1430    -0.3060 H     1 <1>   0.0800 
 37 H        4.3480     4.7550    -0.8200 H     1 <1>   0.0800 
 38 H        3.8900     3.7420    -2.1750 H     1 <1>   0.0800 
@<TRIPOS>BOND
  1   1   2  2   
  2   2   3  am  
  3   2   4  am  
  4   3   5  1   
  5   3  19  1   
  6   4   6  1   
  7   4  20  1   
  8   5   7  ar  
  9   5   8  ar  
 10   6   9  1   
 11   6  10  1   
 12   6  21  1   
 13   7  11  ar  
 14   7  12  1   
 15   8  13  ar  
 16   8  22  1   
 17   9  14  1   
 18   9  15  1   
 19   9  23  1   
 20  10  24  1   
 21  10  25  1   
 22  10  26  1   
 23  11  16  ar  
 24  11  27  1   
 25  12  28  1   
 26  12  29  1   
 27  12  30  1   
 28  13  16  ar  
 29  13  31  1   
 30  14  17  1   
 31  15  18  1   
 32  15  32  1   
 33  15  33  1   
 34  16  34  1   
 35  17  18  1   
 36  17  35  1   
 37  17  36  1   
 38  18  37  1   
 39  18  38  1   
@<TRIPOS>SUBSTRUCTURE
  1 ****   2 GROUP 4 **** **** 0

# MOE 2024.06 (io_trps.svl 2023.06)
