@<TRIPOS>MOLECULE
NONAME
36 37 1 0 0 
SMALL
USER_CHARGES


@<TRIPOS>ATOM
  1 CL       0.4310    -1.7460     1.7800 Cl    1 <1>  -0.1770 
  2 C        1.9470    -1.9040     0.9310 C.ar  1 <1>   0.1770 
  3 C        2.0300    -2.5380    -0.3000 C.ar  1 <1>  -0.0090 
  4 C        3.0650    -1.3710     1.5440 C.ar  1 <1>  -0.1500 
  5 S        0.5680    -3.2400    -1.0990 S.o2  1 <1>   1.4470 
  6 C        3.2840    -2.6200    -0.8950 C.ar  1 <1>  -0.1500 
  7 C        4.2980    -1.4680     0.9290 C.ar  1 <1>  -0.1500 
  8 O       -0.4780    -2.2450    -1.1750 O.2   1 <1>  -0.6500 
  9 O        0.9630    -3.9140    -2.3170 O.2   1 <1>  -0.6500 
 10 N        0.0630    -4.4420    -0.0190 N.am  1 <1>  -0.8490 
 11 C        4.4410    -2.0980    -0.3100 C.ar  1 <1>   0.0860 
 12 C       -1.3300    -4.8100    -0.1820 C.3   1 <1>   0.1960 
 13 C        0.8090    -5.6880    -0.0750 C.3   1 <1>   0.1960 
 14 C        5.7300    -2.2140    -0.9690 C.2   1 <1>   0.6340 
 15 C       -1.4750    -6.1210     0.5850 C.3   1 <1>  -0.1600 
 16 C       -0.0520    -6.6670     0.7110 C.3   1 <1>  -0.1600 
 17 O        5.8850    -2.7990    -2.0200 O.2   1 <1>  -0.5700 
 18 O        6.7880    -1.6500    -0.3820 O.3   1 <1>  -0.4300 
 19 C        8.0740    -1.7160    -0.9550 C.3   1 <1>   0.1200 
 20 C        9.0410    -0.9780    -0.0350 C.3   1 <1>  -0.2400 
 21 H        2.9650    -0.8840     2.4990 H     1 <1>   0.1500 
 22 H        3.3720    -3.1090    -1.8530 H     1 <1>   0.1500 
 23 H        5.1620    -1.0480     1.4170 H     1 <1>   0.1500 
 24 H       -1.5470    -4.9680    -1.2260 H     1 <1>   0.0800 
 25 H       -1.9780    -4.0410     0.2070 H     1 <1>   0.0800 
 26 H        1.7900    -5.5780     0.3550 H     1 <1>   0.0800 
 27 H        0.8950    -6.0300    -1.0950 H     1 <1>   0.0800 
 28 H       -2.1210    -6.7970     0.0530 H     1 <1>   0.0800 
 29 H       -1.8920    -5.9300     1.5580 H     1 <1>   0.0800 
 30 H        0.2550    -6.6640     1.7420 H     1 <1>   0.0800 
 31 H        0.0390    -7.6640     0.3190 H     1 <1>   0.0800 
 32 H        8.0380    -1.2550    -1.9290 H     1 <1>   0.0800 
 33 H        8.3500    -2.7520    -1.0570 H     1 <1>   0.0800 
 34 H        8.7480     0.0520     0.0630 H     1 <1>   0.0800 
 35 H       10.0320    -1.0130    -0.4500 H     1 <1>   0.0800 
 36 H        9.0600    -1.4430     0.9340 H     1 <1>   0.0800 
@<TRIPOS>BOND
  1   1   2  1   
  2   2   3  ar  
  3   2   4  ar  
  4   3   5  1   
  5   3   6  ar  
  6   4   7  ar  
  7   4  21  1   
  8   5   8  2   
  9   5   9  2   
 10   5  10  am  
 11   6  11  ar  
 12   6  22  1   
 13   7  11  ar  
 14   7  23  1   
 15  10  12  1   
 16  10  13  1   
 17  11  14  1   
 18  12  15  1   
 19  12  24  1   
 20  12  25  1   
 21  13  16  1   
 22  13  26  1   
 23  13  27  1   
 24  14  17  2   
 25  14  18  1   
 26  15  16  1   
 27  15  28  1   
 28  15  29  1   
 29  16  30  1   
 30  16  31  1   
 31  18  19  1   
 32  19  20  1   
 33  19  32  1   
 34  19  33  1   
 35  20  34  1   
 36  20  35  1   
 37  20  36  1   
@<TRIPOS>SUBSTRUCTURE
  1 ****   3 GROUP 4 **** **** 0

# MOE 2024.06 (io_trps.svl 2023.06)
