@<TRIPOS>MOLECULE
NONAME
63 66 1 0 0 
SMALL
USER_CHARGES


@<TRIPOS>ATOM
  1 S       -0.0110     0.0530    -0.2360 S.o2  1 <1>   1.4470 
  2 O       -0.5660     0.6130    -1.4460 O.2   1 <1>  -0.6500 
  3 O       -0.7650     0.0930     0.9970 O.2   1 <1>  -0.6500 
  4 N        1.3730     0.9860     0.0880 N.am  1 <1>  -0.8490 
  5 C        0.6630    -1.6010    -0.5440 C.ar  1 <1>  -0.0090 
  6 C        1.0270     2.4240     0.0840 C.3   1 <1>   0.1960 
  7 C        2.0040     0.6330     1.3770 C.3   1 <1>   0.1960 
  8 C        0.5170    -2.6260     0.3860 C.ar  1 <1>  -0.1500 
  9 C        1.3700    -1.8780    -1.7090 C.ar  1 <1>  -0.1500 
 10 C        2.2430     3.3230     0.4230 C.3   1 <1>   0.3430 
 11 C        3.2900     1.4610     1.6320 C.3   1 <1>   0.3430 
 12 C        1.0630    -3.8790     0.1710 C.ar  1 <1>  -0.1500 
 13 C        1.9210    -3.1270    -1.9320 C.ar  1 <1>  -0.1500 
 14 N        3.5140     2.5120     0.5620 N.4   1 <1>  -0.9590 
 15 C        1.7760    -4.1350    -0.9950 C.ar  1 <1>   0.0830 
 16 C        4.7770     3.3080     0.6950 C.3   1 <1>   0.4230 
 17 O        2.3470    -5.3280    -1.2860 O.3   1 <1>  -0.3620 
 18 C        4.9340     4.2570    -0.5050 C.3   1 <1>  -0.1600 
 19 C        5.9890     2.3670     0.7790 C.3   1 <1>  -0.1600 
 20 C        2.1980    -6.4450    -0.4380 C.3   1 <1>   0.0400 
 21 C        6.2760     4.9910    -0.4940 C.3   1 <1>   0.3430 
 22 C        7.3140     3.1300     0.7740 C.3   1 <1>   0.3430 
 23 N        7.3860     4.0080    -0.4270 N.4   1 <1>  -0.9590 
 24 C        8.7150     4.6900    -0.5100 C.3   1 <1>   0.4860 
 25 C        9.7780     3.6250    -0.6830 C.ar  1 <1>  -0.1430 
 26 C       10.6180     3.2990     0.3740 C.ar  1 <1>  -0.1500 
 27 C        9.9130     2.9590    -1.8940 C.ar  1 <1>  -0.1500 
 28 C       11.5690     2.3050     0.2250 C.ar  1 <1>  -0.1500 
 29 C       10.8650     1.9660    -2.0390 C.ar  1 <1>  -0.1500 
 30 C       11.6910     1.6370    -0.9790 C.ar  1 <1>  -0.1500 
 31 H        0.2330     2.6180     0.7870 H     1 <1>   0.0800 
 32 H        0.6590     2.7020    -0.8910 H     1 <1>   0.0800 
 33 H        2.2590    -0.4140     1.3850 H     1 <1>   0.0800 
 34 H        1.3130     0.7990     2.1890 H     1 <1>   0.0800 
 35 H       -0.0380    -2.4440     1.2920 H     1 <1>   0.1500 
 36 H        1.4860    -1.1080    -2.4540 H     1 <1>   0.1500 
 37 H        2.0400     3.8540     1.3390 H     1 <1>   0.0800 
 38 H        2.3420     4.0540    -0.3620 H     1 <1>   0.0800 
 39 H        4.1220     0.7780     1.6600 H     1 <1>   0.0800 
 40 H        3.2180     1.9260     2.6020 H     1 <1>   0.0800 
 41 H        0.9240    -4.6410     0.9160 H     1 <1>   0.1500 
 42 H        2.4630    -3.3330    -2.8380 H     1 <1>   0.1500 
 43 H        3.5400     1.9600    -0.3120 H     1 <1>   0.4500 
 44 H        4.7310     3.8950     1.5990 H     1 <1>   0.0800 
 45 H        4.1660     5.0090    -0.4850 H     1 <1>   0.0800 
 46 H        4.8470     3.7120    -1.4290 H     1 <1>   0.0800 
 47 H        5.9890     1.6760    -0.0460 H     1 <1>   0.0800 
 48 H        5.9600     1.8020     1.6920 H     1 <1>   0.0800 
 49 H        2.7140    -7.2750    -0.8860 H     1 <1>   0.0800 
 50 H        1.1520    -6.6740    -0.3420 H     1 <1>   0.0800 
 51 H        2.6340    -6.2180     0.5190 H     1 <1>   0.0800 
 52 H        6.3230     5.6540     0.3570 H     1 <1>   0.0800 
 53 H        6.3660     5.5900    -1.3880 H     1 <1>   0.0800 
 54 H        8.1310     2.4240     0.7640 H     1 <1>   0.0800 
 55 H        7.4000     3.7260     1.6690 H     1 <1>   0.0800 
 56 H        7.3660     3.4000    -1.2590 H     1 <1>   0.4500 
 57 H        8.9060     5.2630     0.3830 H     1 <1>   0.0800 
 58 H        8.7440     5.3560    -1.3570 H     1 <1>   0.0800 
 59 H       10.5520     3.8100     1.3200 H     1 <1>   0.1500 
 60 H        9.2940     3.2020    -2.7400 H     1 <1>   0.1500 
 61 H       12.2230     2.0510     1.0440 H     1 <1>   0.1500 
 62 H       10.9720     1.4480    -2.9770 H     1 <1>   0.1500 
 63 H       12.4330     0.8640    -1.0940 H     1 <1>   0.1500 
@<TRIPOS>BOND
  1   1   2  2   
  2   1   3  2   
  3   1   4  am  
  4   1   5  1   
  5   4   6  1   
  6   4   7  1   
  7   5   8  ar  
  8   5   9  ar  
  9   6  10  1   
 10   6  31  1   
 11   6  32  1   
 12   7  11  1   
 13   7  33  1   
 14   7  34  1   
 15   8  12  ar  
 16   8  35  1   
 17   9  13  ar  
 18   9  36  1   
 19  10  14  1   
 20  10  37  1   
 21  10  38  1   
 22  11  14  1   
 23  11  39  1   
 24  11  40  1   
 25  12  15  ar  
 26  12  41  1   
 27  13  15  ar  
 28  13  42  1   
 29  14  16  1   
 30  14  43  1   
 31  15  17  1   
 32  16  18  1   
 33  16  19  1   
 34  16  44  1   
 35  17  20  1   
 36  18  21  1   
 37  18  45  1   
 38  18  46  1   
 39  19  22  1   
 40  19  47  1   
 41  19  48  1   
 42  20  49  1   
 43  20  50  1   
 44  20  51  1   
 45  21  23  1   
 46  21  52  1   
 47  21  53  1   
 48  22  23  1   
 49  22  54  1   
 50  22  55  1   
 51  23  24  1   
 52  23  56  1   
 53  24  25  1   
 54  24  57  1   
 55  24  58  1   
 56  25  26  ar  
 57  25  27  ar  
 58  26  28  ar  
 59  26  59  1   
 60  27  29  ar  
 61  27  60  1   
 62  28  30  ar  
 63  28  61  1   
 64  29  30  ar  
 65  29  62  1   
 66  30  63  1   
@<TRIPOS>SUBSTRUCTURE
  1 ****  14 GROUP 4 **** **** 0

# MOE 2024.06 (io_trps.svl 2023.06)
