@<TRIPOS>MOLECULE
NONAME
41 42 1 0 0 
SMALL
USER_CHARGES


@<TRIPOS>ATOM
  1 BR       0.2310     0.4360    -0.7110 Br    1 <1>  -0.1110 
  2 C        0.9420    -1.3330    -0.3870 C.ar  1 <1>   0.1110 
  3 C        2.3180    -1.5050    -0.4470 C.ar  1 <1>  -0.1500 
  4 C        0.0810    -2.3570    -0.1020 C.ar  1 <1>  -0.1500 
  5 C        2.8500    -2.7450    -0.2110 C.ar  1 <1>   0.0830 
  6 C        0.5750    -3.6480     0.1350 C.ar  1 <1>   0.0280 
  7 O        4.2190    -2.7920    -0.2890 O.3   1 <1>  -0.3630 
  8 C        1.9820    -3.8510     0.0840 C.ar  1 <1>  -0.1710 
  9 C       -0.2830    -4.7420     0.4390 C.2   1 <1>  -0.1780 
 10 C        4.9110    -3.9880    -0.0200 C.3   1 <1>   0.0400 
 11 O        2.4060    -5.0190     0.2900 O.3   1 <1>  -0.8290 
 12 C       -1.5250    -5.0680    -0.0350 C.2   1 <1>   0.0790 
 13 C       -2.1690    -4.3060    -1.0530 C.1   1 <1>   0.4920 
 14 C       -2.2820    -6.2010     0.4160 C.2   1 <1>   0.6160 
 15 N       -2.7620    -3.7510    -1.8570 N.1   1 <1>  -0.5570 
 16 O       -2.0410    -6.7330     1.4870 O.2   1 <1>  -0.5700 
 17 N       -3.3180    -6.7240    -0.3240 N.am  1 <1>  -0.7300 
 18 C       -4.1400    -7.8890     0.0420 C.3   1 <1>   0.2200 
 19 C       -3.9590    -8.9740    -1.0240 C.3   1 <1>  -0.1600 
 20 C       -5.6030    -7.4460     0.1410 C.3   1 <1>  -0.1600 
 21 C       -4.8810   -10.1730    -0.7590 C.3   1 <1>  -0.1600 
 22 C       -6.5290    -8.6420     0.4080 C.3   1 <1>  -0.1600 
 23 C       -6.3480    -9.7330    -0.6560 C.3   1 <1>  -0.1600 
 24 H        2.9540    -0.6730    -0.6720 H     1 <1>   0.1500 
 25 H       -0.9690    -2.1560    -0.0470 H     1 <1>   0.1500 
 26 H        0.1690    -5.4280     1.1360 H     1 <1>   0.1500 
 27 H        5.9640    -3.8000    -0.1000 H     1 <1>   0.0800 
 28 H        4.6040    -4.7280    -0.7380 H     1 <1>   0.0800 
 29 H        4.6600    -4.3120     0.9750 H     1 <1>   0.0800 
 30 H       -3.5500    -6.3060    -1.2260 H     1 <1>   0.3700 
 31 H       -3.8260    -8.2800     0.9970 H     1 <1>   0.0800 
 32 H       -4.1830    -8.5690    -1.9950 H     1 <1>   0.0800 
 33 H       -2.9350    -9.3060    -1.0200 H     1 <1>   0.0800 
 34 H       -5.7030    -6.7340     0.9420 H     1 <1>   0.0800 
 35 H       -5.9000    -6.9720    -0.7780 H     1 <1>   0.0800 
 36 H       -4.7750   -10.8930    -1.5520 H     1 <1>   0.0800 
 37 H       -4.5880   -10.6510     0.1600 H     1 <1>   0.0800 
 38 H       -6.3090    -9.0520     1.3790 H     1 <1>   0.0800 
 39 H       -7.5540    -8.3110     0.4160 H     1 <1>   0.0800 
 40 H       -6.9620   -10.5820    -0.4100 H     1 <1>   0.0800 
 41 H       -6.6750    -9.3570    -1.6110 H     1 <1>   0.0800 
@<TRIPOS>BOND
  1   1   2  1   
  2   2   3  ar  
  3   2   4  ar  
  4   3   5  ar  
  5   3  24  1   
  6   4   6  ar  
  7   4  25  1   
  8   5   7  1   
  9   5   8  ar  
 10   6   8  ar  
 11   6   9  1   
 12   7  10  1   
 13   8  11  1   
 14   9  12  2   
 15   9  26  1   
 16  10  27  1   
 17  10  28  1   
 18  10  29  1   
 19  12  13  1   
 20  12  14  1   
 21  13  15  3   
 22  14  16  2   
 23  14  17  am  
 24  17  18  1   
 25  17  30  1   
 26  18  19  1   
 27  18  20  1   
 28  18  31  1   
 29  19  21  1   
 30  19  32  1   
 31  19  33  1   
 32  20  22  1   
 33  20  34  1   
 34  20  35  1   
 35  21  23  1   
 36  21  36  1   
 37  21  37  1   
 38  22  23  1   
 39  22  38  1   
 40  22  39  1   
 41  23  40  1   
 42  23  41  1   
@<TRIPOS>SUBSTRUCTURE
  1 ****  12 GROUP 4 **** **** 0

# MOE 2024.06 (io_trps.svl 2023.06)
