@<TRIPOS>MOLECULE
NONAME
45 48 1 0 0 
SMALL
USER_CHARGES


@<TRIPOS>ATOM
  1 O       -3.0710    -0.7200     0.7040 O.2   1 <1>  -0.5700 
  2 C       -3.1000    -1.4330    -0.2640 C.2   1 <1>   0.6590 
  3 O       -4.1320    -2.1920    -0.6060 O.3   1 <1>  -0.4300 
  4 C       -1.8860    -1.5350    -1.1670 C.3   1 <1>   0.3890 
  5 C       -5.3700    -2.3090     0.0730 C.3   1 <1>   0.2800 
  6 N       -0.8650    -2.4570    -0.5850 N.ar  1 <1>  -0.2100 
  7 C       -6.2140    -3.3100    -0.7380 C.3   1 <1>  -0.1600 
  8 C       -5.1690    -2.8660     1.4990 C.3   1 <1>  -0.1600 
  9 C       -6.1100    -0.9550     0.1200 C.3   1 <1>  -0.1600 
 10 C       -0.2260    -2.1100     0.5570 C.ar  1 <1>   0.2110 
 11 C       -0.5880    -3.6410    -1.1780 C.ar  1 <1>   0.2110 
 12 C       -7.5890    -3.5080    -0.0740 C.3   1 <1>  -0.0800 
 13 C       -6.5410    -3.0490     2.1770 C.3   1 <1>  -0.0800 
 14 C       -7.4800    -1.1420     0.8000 C.3   1 <1>  -0.0800 
 15 C        0.7180    -2.9460     1.1220 C.ar  1 <1>  -0.1500 
 16 C        0.3500    -4.5000    -0.6410 C.ar  1 <1>  -0.1500 
 17 C       -7.3850    -4.0420     1.3560 C.3   1 <1>  -0.1600 
 18 C       -8.3160    -2.1520    -0.0080 C.3   1 <1>  -0.1600 
 19 C       -7.2680    -1.6900     2.2260 C.3   1 <1>  -0.1600 
 20 C        1.0210    -4.1580     0.5230 C.ar  1 <1>  -0.1430 
 21 C        2.0550    -5.0910     1.1310 C.3   1 <1>  -0.0970 
 22 H       -1.4570    -0.5560    -1.2800 H     1 <1>   0.0800 
 23 H       -2.1960    -1.8820    -2.1360 H     1 <1>   0.0800 
 24 H       -6.3540    -2.9430    -1.7400 H     1 <1>   0.0800 
 25 H       -5.7070    -4.2570    -0.7920 H     1 <1>   0.0800 
 26 H       -4.5870    -2.1860     2.0940 H     1 <1>   0.0800 
 27 H       -4.6600    -3.8120     1.4590 H     1 <1>   0.0800 
 28 H       -6.2530    -0.5770    -0.8770 H     1 <1>   0.0800 
 29 H       -5.5490    -0.2330     0.6830 H     1 <1>   0.0800 
 30 H       -0.4590    -1.1700     1.0340 H     1 <1>   0.1500 
 31 H       -1.1060    -3.9190    -2.0830 H     1 <1>   0.1500 
 32 H       -8.1760    -4.2090    -0.6440 H     1 <1>   0.0800 
 33 H       -6.4070    -3.4250     3.1770 H     1 <1>   0.0800 
 34 H       -7.9960    -0.1980     0.8470 H     1 <1>   0.0800 
 35 H        1.2170    -2.6530     2.0320 H     1 <1>   0.1500 
 36 H        0.5600    -5.4390    -1.1260 H     1 <1>   0.1500 
 37 H       -6.8950    -5.0000     1.3240 H     1 <1>   0.0800 
 38 H       -8.3410    -4.1840     1.8300 H     1 <1>   0.0800 
 39 H       -9.2800    -2.2780     0.4550 H     1 <1>   0.0800 
 40 H       -8.4820    -1.7760    -1.0030 H     1 <1>   0.0800 
 41 H       -6.6920    -0.9880     2.8040 H     1 <1>   0.0800 
 42 H       -8.2200    -1.8060     2.7140 H     1 <1>   0.0800 
 43 H        2.8100    -4.5320     1.6560 H     1 <1>   0.0800 
 44 H        2.5410    -5.6710     0.3660 H     1 <1>   0.0800 
 45 H        1.5820    -5.7640     1.8240 H     1 <1>   0.0800 
@<TRIPOS>BOND
  1   1   2  2   
  2   2   3  1   
  3   2   4  1   
  4   3   5  1   
  5   4   6  1   
  6   4  22  1   
  7   4  23  1   
  8   5   7  1   
  9   5   8  1   
 10   5   9  1   
 11   6  10  ar  
 12   6  11  ar  
 13   7  12  1   
 14   7  24  1   
 15   7  25  1   
 16   8  13  1   
 17   8  26  1   
 18   8  27  1   
 19   9  14  1   
 20   9  28  1   
 21   9  29  1   
 22  10  15  ar  
 23  10  30  1   
 24  11  16  ar  
 25  11  31  1   
 26  12  17  1   
 27  12  18  1   
 28  12  32  1   
 29  13  17  1   
 30  13  19  1   
 31  13  33  1   
 32  14  18  1   
 33  14  19  1   
 34  14  34  1   
 35  15  20  ar  
 36  15  35  1   
 37  16  20  ar  
 38  16  36  1   
 39  17  37  1   
 40  17  38  1   
 41  18  39  1   
 42  18  40  1   
 43  19  41  1   
 44  19  42  1   
 45  20  21  1   
 46  21  43  1   
 47  21  44  1   
 48  21  45  1   
@<TRIPOS>SUBSTRUCTURE
  1 ****   3 GROUP 4 **** **** 0

# MOE 2024.06 (io_trps.svl 2023.06)
