@<TRIPOS>MOLECULE
NONAME
39 39 1 0 0 
SMALL
USER_CHARGES


@<TRIPOS>ATOM
  1 O        1.5540     2.7430    -1.2440 O.2   1 <1>  -0.5700 
  2 C        1.5970     3.9370    -1.0180 C.2   1 <1>   0.8050 
  3 O        2.6710     4.6360    -1.4030 O.3   1 <1>  -0.4300 
  4 C        0.5350     4.6580    -0.3590 C.2   1 <1>   0.0550 
  5 C        3.7650     4.0210    -2.0580 C.3   1 <1>   0.0400 
  6 O       -0.5400     4.0210     0.0990 O.3   1 <1>  -0.2800 
  7 C        0.3840     5.9850    -0.0840 C.2   1 <1>  -0.1500 
  8 C       -1.3610     4.8870     0.6490 C.2   1 <1>  -0.0400 
  9 C       -0.8430     6.1330     0.5640 C.2   1 <1>  -0.1500 
 10 C       -2.6670     4.3690     1.2240 C.3   1 <1>   0.5230 
 11 N       -3.1780     3.3100     0.2990 N.4   1 <1>  -0.9590 
 12 C       -4.2530     3.7830    -0.6220 C.3   1 <1>   0.4230 
 13 C       -3.4680     2.0230     0.9920 C.3   1 <1>   0.4230 
 14 C       -4.6070     2.6870    -1.6290 C.3   1 <1>  -0.2400 
 15 C       -3.7960     5.0230    -1.3940 C.3   1 <1>  -0.2400 
 16 C       -4.5370     2.1950     2.0720 C.3   1 <1>  -0.2400 
 17 C       -2.1790     1.4390     1.5660 C.3   1 <1>  -0.2400 
 18 H        4.5050     4.7730    -2.2660 H     1 <1>   0.0800 
 19 H        3.4190     3.5780    -2.9760 H     1 <1>   0.0800 
 20 H        4.1780     3.2640    -1.4140 H     1 <1>   0.0800 
 21 H        1.0710     6.7830    -0.3160 H     1 <1>   0.1500 
 22 H       -1.2510     7.0690     0.9080 H     1 <1>   0.1500 
 23 H       -3.3800     5.1670     1.3340 H     1 <1>   0.0800 
 24 H       -2.4680     3.9530     2.1970 H     1 <1>   0.0800 
 25 H       -2.3560     3.1220    -0.2950 H     1 <1>   0.4500 
 26 H       -5.1360     4.0330    -0.0530 H     1 <1>   0.0800 
 27 H       -3.8330     1.3120     0.2690 H     1 <1>   0.0800 
 28 H       -3.7290     2.3300    -2.1380 H     1 <1>   0.0800 
 29 H       -5.2820     3.0780    -2.3700 H     1 <1>   0.0800 
 30 H       -5.1160     1.8670    -1.1580 H     1 <1>   0.0800 
 31 H       -2.8740     4.8350    -1.9170 H     1 <1>   0.0800 
 32 H       -3.6790     5.8740    -0.7490 H     1 <1>   0.0800 
 33 H       -4.5400     5.2920    -2.1230 H     1 <1>   0.0800 
 34 H       -4.2010     2.8220     2.8780 H     1 <1>   0.0800 
 35 H       -4.7710     1.2320     2.4900 H     1 <1>   0.0800 
 36 H       -5.4440     2.5940     1.6580 H     1 <1>   0.0800 
 37 H       -1.7870     2.0240     2.3770 H     1 <1>   0.0800 
 38 H       -1.4310     1.3460     0.7990 H     1 <1>   0.0800 
 39 H       -2.3770     0.4520     1.9470 H     1 <1>   0.0800 
@<TRIPOS>BOND
  1   1   2  2   
  2   2   3  1   
  3   2   4  1   
  4   3   5  1   
  5   4   6  1   
  6   4   7  2   
  7   5  18  1   
  8   5  19  1   
  9   5  20  1   
 10   6   8  1   
 11   7   9  1   
 12   7  21  1   
 13   8   9  2   
 14   8  10  1   
 15   9  22  1   
 16  10  11  1   
 17  10  23  1   
 18  10  24  1   
 19  11  12  1   
 20  11  13  1   
 21  11  25  1   
 22  12  14  1   
 23  12  15  1   
 24  12  26  1   
 25  13  16  1   
 26  13  17  1   
 27  13  27  1   
 28  14  28  1   
 29  14  29  1   
 30  14  30  1   
 31  15  31  1   
 32  15  32  1   
 33  15  33  1   
 34  16  34  1   
 35  16  35  1   
 36  16  36  1   
 37  17  37  1   
 38  17  38  1   
 39  17  39  1   
@<TRIPOS>SUBSTRUCTURE
  1 ****   6 GROUP 4 **** **** 0

# MOE 2024.06 (io_trps.svl 2023.06)
