@<TRIPOS>MOLECULE
NONAME
27 28 1 0 0 
SMALL
USER_CHARGES


@<TRIPOS>ATOM
  1 S       -0.1660     0.1640    -0.6300 S.o2  1 <1>   1.3330 
  2 O       -0.9800    -1.0020    -0.8570 O.2   1 <1>  -0.6500 
  3 O       -0.3750     1.3870    -1.3630 O.2   1 <1>  -0.6500 
  4 N        1.4350    -0.3810    -0.9130 N.am  1 <1>  -0.7570 
  5 C       -0.1400     0.5030     1.1170 C.3   1 <1>  -0.1350 
  6 C        2.6340     0.2840    -0.6890 C.ar  1 <1>   0.1990 
  7 C        3.7690    -0.4670    -0.3960 C.ar  1 <1>  -0.1500 
  8 C        2.7430     1.6730    -0.7430 C.ar  1 <1>  -0.1500 
  9 C        4.9690     0.1700    -0.1470 C.ar  1 <1>  -0.1430 
 10 C        3.9500     2.3060    -0.4920 C.ar  1 <1>  -0.1500 
 11 C        5.0590     1.5380    -0.1910 C.ar  1 <1>  -0.1430 
 12 C        6.3010    -0.4540     0.1900 C.3   1 <1>  -0.0170 
 13 C        6.4590     2.0080     0.1120 C.3   1 <1>  -0.0170 
 14 C        7.1510     0.7430     0.6510 C.3   1 <1>  -0.1600 
 15 H        1.4470    -1.3870    -1.0370 H     1 <1>   0.4200 
 16 H        0.1350    -0.3780     1.6630 H     1 <1>   0.0800 
 17 H       -1.1110     0.8220     1.4430 H     1 <1>   0.0800 
 18 H        0.5670     1.2800     1.3330 H     1 <1>   0.0800 
 19 H        3.7130    -1.5380    -0.3600 H     1 <1>   0.1500 
 20 H        1.8890     2.2730    -0.9930 H     1 <1>   0.1500 
 21 H        4.0250     3.3780    -0.5350 H     1 <1>   0.1500 
 22 H        6.7220    -0.8990    -0.6950 H     1 <1>   0.0800 
 23 H        6.2090    -1.1950     0.9640 H     1 <1>   0.0800 
 24 H        6.4630     2.8010     0.8390 H     1 <1>   0.0800 
 25 H        6.9300     2.3410    -0.7960 H     1 <1>   0.0800 
 26 H        8.1680     0.6680     0.3100 H     1 <1>   0.0800 
 27 H        7.1440     0.7780     1.7260 H     1 <1>   0.0800 
@<TRIPOS>BOND
  1   1   2  2   
  2   1   3  2   
  3   1   4  am  
  4   1   5  1   
  5   4   6  1   
  6   4  15  1   
  7   5  16  1   
  8   5  17  1   
  9   5  18  1   
 10   6   7  ar  
 11   6   8  ar  
 12   7   9  ar  
 13   7  19  1   
 14   8  10  ar  
 15   8  20  1   
 16   9  11  ar  
 17   9  12  1   
 18  10  11  ar  
 19  10  21  1   
 20  11  13  1   
 21  12  14  1   
 22  12  22  1   
 23  12  23  1   
 24  13  14  1   
 25  13  24  1   
 26  13  25  1   
 27  14  26  1   
 28  14  27  1   
@<TRIPOS>SUBSTRUCTURE
  1 ****   6 GROUP 4 **** **** 0

# MOE 2024.06 (io_trps.svl 2023.06)
