@<TRIPOS>MOLECULE
NONAME
57 59 1 0 0 
SMALL
USER_CHARGES


@<TRIPOS>ATOM
  1 O       -0.3740    -1.0390     0.8900 O.3   1 <1>  -0.3630 
  2 C       -1.5890    -1.6020     0.6880 C.ar  1 <1>   0.0830 
  3 C        0.4450    -0.6410    -0.1860 C.3   1 <1>   0.1200 
  4 C       -2.2620    -2.0470     1.8140 C.ar  1 <1>  -0.1500 
  5 C       -2.1780    -1.7550    -0.5630 C.ar  1 <1>  -0.1500 
  6 C        1.7550    -0.0980     0.3860 C.3   1 <1>  -0.1600 
  7 C       -3.5090    -2.6340     1.7030 C.ar  1 <1>  -0.1500 
  8 C       -3.4270    -2.3410    -0.6750 C.ar  1 <1>  -0.1500 
  9 C        2.7030     0.3570    -0.7310 C.3   1 <1>  -0.1600 
 10 C       -4.1030    -2.7790     0.4570 C.ar  1 <1>  -0.1430 
 11 C        4.0130     0.8990    -0.1530 C.3   1 <1>  -0.2400 
 12 C       -5.4780    -3.4060     0.3380 C.3   1 <1>   0.4860 
 13 N       -6.4730    -2.3280     0.0980 N.4   1 <1>  -0.9590 
 14 C       -6.5380    -1.3540     1.2530 C.3   1 <1>   0.3430 
 15 C       -7.8410    -2.8810    -0.2130 C.3   1 <1>   0.3430 
 16 C       -7.5740    -0.2370     1.0240 C.3   1 <1>   0.2090 
 17 C       -8.8840    -1.7710    -0.4550 C.3   1 <1>   0.2090 
 18 N       -8.9120    -0.8060     0.6820 N.pl3 1 <1>  -0.8380 
 19 C       -9.9430     0.1420     0.6110 C.ar  1 <1>   0.1000 
 20 C      -10.0180     1.1480    -0.3700 C.ar  1 <1>   0.0830 
 21 C      -10.9410     0.0690     1.5720 C.ar  1 <1>  -0.1500 
 22 O       -9.0270     1.2130    -1.3160 O.3   1 <1>  -0.3630 
 23 C      -11.0860     2.0420    -0.3550 C.ar  1 <1>  -0.1500 
 24 C      -11.9960     0.9610     1.5790 C.ar  1 <1>  -0.1500 
 25 C       -9.0290     2.2180    -2.3080 C.3   1 <1>   0.0400 
 26 C      -12.0690     1.9480     0.6150 C.ar  1 <1>  -0.1500 
 27 H       -0.0710     0.1230    -0.7420 H     1 <1>   0.0800 
 28 H        0.6300    -1.4990    -0.8090 H     1 <1>   0.0800 
 29 H       -1.7940    -1.9300     2.7760 H     1 <1>   0.1500 
 30 H       -1.6760    -1.4250    -1.4540 H     1 <1>   0.1500 
 31 H        2.2300    -0.8700     0.9660 H     1 <1>   0.0800 
 32 H        1.5370     0.7350     1.0320 H     1 <1>   0.0800 
 33 H       -4.0000    -2.9760     2.5980 H     1 <1>   0.1500 
 34 H       -3.8570    -2.4540    -1.6560 H     1 <1>   0.1500 
 35 H        2.2310     1.1280    -1.3170 H     1 <1>   0.0800 
 36 H        2.9210    -0.4720    -1.3830 H     1 <1>   0.0800 
 37 H        3.8220     1.7430     0.4850 H     1 <1>   0.0800 
 38 H        4.6650     1.2130    -0.9490 H     1 <1>   0.0800 
 39 H        4.5150     0.1380     0.4190 H     1 <1>   0.0800 
 40 H       -5.7180    -3.9410     1.2420 H     1 <1>   0.0800 
 41 H       -5.4800    -4.1040    -0.4830 H     1 <1>   0.0800 
 42 H       -6.1510    -1.7890    -0.7140 H     1 <1>   0.4500 
 43 H       -5.5710    -0.9040     1.4080 H     1 <1>   0.0800 
 44 H       -6.8070    -1.8790     2.1540 H     1 <1>   0.0800 
 45 H       -8.1840    -3.4810     0.6130 H     1 <1>   0.0800 
 46 H       -7.7950    -3.5120    -1.0850 H     1 <1>   0.0800 
 47 H       -7.2370     0.4120     0.2350 H     1 <1>   0.0800 
 48 H       -7.6640     0.3560     1.9190 H     1 <1>   0.0800 
 49 H       -9.8590    -2.2140    -0.5630 H     1 <1>   0.0800 
 50 H       -8.6550    -1.2550    -1.3710 H     1 <1>   0.0800 
 51 H      -10.8840    -0.6980     2.3220 H     1 <1>   0.1500 
 52 H      -11.1800     2.8220    -1.0860 H     1 <1>   0.1500 
 53 H      -12.7600     0.8870     2.3340 H     1 <1>   0.1500 
 54 H       -8.1600     2.0850    -2.9250 H     1 <1>   0.0800 
 55 H       -8.9920     3.1820    -1.8300 H     1 <1>   0.0800 
 56 H       -9.9180     2.1190    -2.9050 H     1 <1>   0.0800 
 57 H      -12.8910     2.6440     0.6190 H     1 <1>   0.1500 
@<TRIPOS>BOND
  1   1   2  1   
  2   1   3  1   
  3   2   4  ar  
  4   2   5  ar  
  5   3   6  1   
  6   3  27  1   
  7   3  28  1   
  8   4   7  ar  
  9   4  29  1   
 10   5   8  ar  
 11   5  30  1   
 12   6   9  1   
 13   6  31  1   
 14   6  32  1   
 15   7  10  ar  
 16   7  33  1   
 17   8  10  ar  
 18   8  34  1   
 19   9  11  1   
 20   9  35  1   
 21   9  36  1   
 22  10  12  1   
 23  11  37  1   
 24  11  38  1   
 25  11  39  1   
 26  12  13  1   
 27  12  40  1   
 28  12  41  1   
 29  13  14  1   
 30  13  15  1   
 31  13  42  1   
 32  14  16  1   
 33  14  43  1   
 34  14  44  1   
 35  15  17  1   
 36  15  45  1   
 37  15  46  1   
 38  16  18  1   
 39  16  47  1   
 40  16  48  1   
 41  17  18  1   
 42  17  49  1   
 43  17  50  1   
 44  18  19  1   
 45  19  20  ar  
 46  19  21  ar  
 47  20  22  1   
 48  20  23  ar  
 49  21  24  ar  
 50  21  51  1   
 51  22  25  1   
 52  23  26  ar  
 53  23  52  1   
 54  24  26  ar  
 55  24  53  1   
 56  25  54  1   
 57  25  55  1   
 58  25  56  1   
 59  26  57  1   
@<TRIPOS>SUBSTRUCTURE
  1 ****  14 GROUP 4 **** **** 0

# MOE 2024.06 (io_trps.svl 2023.06)
