@<TRIPOS>MOLECULE
NONAME
46 48 1 0 0 
SMALL
USER_CHARGES


@<TRIPOS>ATOM
  1 S        0.3090    -0.8640    -1.1660 S.o2  1 <1>   1.4470 
  2 O        0.9650    -1.4790    -2.3020 O.2   1 <1>  -0.6500 
  3 O       -0.2720     0.4500    -1.3490 O.2   1 <1>  -0.6500 
  4 N        1.4950    -0.7290     0.0350 N.am  1 <1>  -0.8490 
  5 C       -0.9240    -2.0100    -0.4990 C.ar  1 <1>  -0.0090 
  6 C        2.4710     0.3230    -0.2940 C.3   1 <1>   0.1960 
  7 C        2.2110    -1.9960     0.2700 C.3   1 <1>   0.1960 
  8 C       -1.5860    -1.7530     0.6970 C.ar  1 <1>   0.0820 
  9 C       -1.2440    -3.1830    -1.1750 C.ar  1 <1>  -0.1500 
 10 C        3.4910     0.5440     0.8390 C.3   1 <1>   0.2090 
 11 C        3.2430    -1.8870     1.4120 C.3   1 <1>   0.2090 
 12 O       -1.3130    -0.6390     1.4040 O.3   1 <1>  -0.3630 
 13 C       -2.5210    -2.6420     1.2040 C.ar  1 <1>  -0.1500 
 14 C       -2.1810    -4.0780    -0.6810 C.ar  1 <1>  -0.1440 
 15 N        4.1730    -0.7250     1.2410 N.pl3 1 <1>  -0.8380 
 16 C       -2.2400     0.4180     1.2980 C.3   1 <1>   0.0400 
 17 C       -2.8200    -3.8010     0.5150 C.ar  1 <1>  -0.1500 
 18 C       -2.5100    -5.3480    -1.4440 C.3   1 <1>  -0.0970 
 19 C        5.5220    -0.9070     0.8920 C.ar  1 <1>   0.1000 
 20 C        6.0080    -1.8090    -0.0660 C.ar  1 <1>   0.1900 
 21 C        6.4730    -0.1270     1.5420 C.ar  1 <1>  -0.1500 
 22 F        5.1770    -2.5750    -0.7330 F     1 <1>  -0.1900 
 23 C        7.3500    -1.9360    -0.3660 C.ar  1 <1>  -0.1500 
 24 C        7.8240    -0.2400     1.2550 C.ar  1 <1>  -0.1500 
 25 C        8.2670    -1.1420     0.3020 C.ar  1 <1>  -0.1500 
 26 H        1.9530     1.2510    -0.4680 H     1 <1>   0.0800 
 27 H        2.9980     0.0640    -1.1970 H     1 <1>   0.0800 
 28 H        2.7150    -2.3020    -0.6310 H     1 <1>   0.0800 
 29 H        1.5050    -2.7660     0.5270 H     1 <1>   0.0800 
 30 H       -0.7500    -3.3980    -2.1080 H     1 <1>   0.1500 
 31 H        2.9800     0.9500     1.6940 H     1 <1>   0.0800 
 32 H        4.2240     1.2630     0.5170 H     1 <1>   0.0800 
 33 H        3.8090    -2.8000     1.4750 H     1 <1>   0.0800 
 34 H        2.7150    -1.7680     2.3420 H     1 <1>   0.0800 
 35 H       -3.0080    -2.4240     2.1380 H     1 <1>   0.1500 
 36 H       -1.8640     1.2510     1.8630 H     1 <1>   0.0800 
 37 H       -3.1860     0.0980     1.6940 H     1 <1>   0.0800 
 38 H       -2.3390     0.6940     0.2630 H     1 <1>   0.0800 
 39 H       -3.5490    -4.4860     0.9120 H     1 <1>   0.1500 
 40 H       -1.7010    -5.6190    -2.0990 H     1 <1>   0.0800 
 41 H       -3.3970    -5.2000    -2.0330 H     1 <1>   0.0800 
 42 H       -2.6790    -6.1610    -0.7610 H     1 <1>   0.0800 
 43 H        6.1400     0.5700     2.2890 H     1 <1>   0.1500 
 44 H        7.6700    -2.6430    -1.1100 H     1 <1>   0.1500 
 45 H        8.5340     0.3770     1.7790 H     1 <1>   0.1500 
 46 H        9.3170    -1.2270     0.0820 H     1 <1>   0.1500 
@<TRIPOS>BOND
  1   1   2  2   
  2   1   3  2   
  3   1   4  am  
  4   1   5  1   
  5   4   6  1   
  6   4   7  1   
  7   5   8  ar  
  8   5   9  ar  
  9   6  10  1   
 10   6  26  1   
 11   6  27  1   
 12   7  11  1   
 13   7  28  1   
 14   7  29  1   
 15   8  12  1   
 16   8  13  ar  
 17   9  14  ar  
 18   9  30  1   
 19  10  15  1   
 20  10  31  1   
 21  10  32  1   
 22  11  15  1   
 23  11  33  1   
 24  11  34  1   
 25  12  16  1   
 26  13  17  ar  
 27  13  35  1   
 28  14  17  ar  
 29  14  18  1   
 30  15  19  1   
 31  16  36  1   
 32  16  37  1   
 33  16  38  1   
 34  17  39  1   
 35  18  40  1   
 36  18  41  1   
 37  18  42  1   
 38  19  20  ar  
 39  19  21  ar  
 40  20  22  1   
 41  20  23  ar  
 42  21  24  ar  
 43  21  43  1   
 44  23  25  ar  
 45  23  44  1   
 46  24  25  ar  
 47  24  45  1   
 48  25  46  1   
@<TRIPOS>SUBSTRUCTURE
  1 ****   7 GROUP 4 **** **** 0

# MOE 2024.06 (io_trps.svl 2023.06)
