@<TRIPOS>MOLECULE
NONAME
42 43 1 0 0 
SMALL
USER_CHARGES


@<TRIPOS>ATOM
  1 O       -1.1980    -0.6100     1.7650 O.2   1 <1>  -0.5700 
  2 C       -1.8060    -1.3320     1.0150 C.2   1 <1>   0.5690 
  3 N       -1.3340    -1.8840    -0.1250 N.am  1 <1>  -0.6600 
  4 C       -3.2330    -1.7350     1.2500 C.3   1 <1>  -0.0990 
  5 C       -2.3430    -2.7120    -0.8080 C.3   1 <1>   0.1400 
  6 C        0.0050    -1.6580    -0.7190 C.3   1 <1>   0.0600 
  7 C       -3.4370    -2.9000     0.2590 C.3   1 <1>  -0.0190 
  8 C       -4.8420    -3.0060    -0.3180 C.2   1 <1>   0.5690 
  9 O       -4.9700    -3.2310    -1.4960 O.2   1 <1>  -0.5700 
 10 N       -5.8970    -2.8740     0.5460 N.am  1 <1>  -0.5470 
 11 C       -7.2830    -2.9070     0.3270 C.ar  1 <1>   0.1170 
 12 C       -8.1210    -3.1550     1.4080 C.ar  1 <1>  -0.1500 
 13 C       -7.8660    -2.6840    -0.9170 C.ar  1 <1>  -0.1500 
 14 C       -9.4950    -3.1870     1.2530 C.ar  1 <1>  -0.1500 
 15 C       -9.2400    -2.7170    -1.0740 C.ar  1 <1>  -0.1500 
 16 C      -10.0650    -2.9700     0.0090 C.ar  1 <1>  -0.1430 
 17 C      -11.5750    -3.0050    -0.1650 C.3   1 <1>  -0.0170 
 18 C      -12.1740    -1.6110     0.0520 C.3   1 <1>  -0.1600 
 19 C      -13.6980    -1.6200    -0.1210 C.3   1 <1>  -0.1600 
 20 C      -14.2850    -0.2220     0.0980 C.3   1 <1>  -0.2400 
 21 H       -3.8620    -0.8970     1.0120 H     1 <1>   0.0800 
 22 H       -3.3790    -2.0370     2.2700 H     1 <1>   0.0800 
 23 H       -1.9300    -3.6570    -1.1180 H     1 <1>   0.0800 
 24 H       -2.7140    -2.1760    -1.6660 H     1 <1>   0.0800 
 25 H        0.5800    -1.0040    -0.0870 H     1 <1>   0.0800 
 26 H       -0.0980    -1.2040    -1.6890 H     1 <1>   0.0800 
 27 H        0.5240    -2.5950    -0.8160 H     1 <1>   0.0800 
 28 H       -3.2240    -3.8230     0.7680 H     1 <1>   0.0800 
 29 H       -5.6400    -2.7650     1.5240 H     1 <1>   0.3700 
 30 H       -7.7010    -3.3290     2.3810 H     1 <1>   0.1500 
 31 H       -7.2510    -2.4810    -1.7730 H     1 <1>   0.1500 
 32 H      -10.1250    -3.3820     2.1040 H     1 <1>   0.1500 
 33 H       -9.6640    -2.5430    -2.0470 H     1 <1>   0.1500 
 34 H      -12.0020    -3.6990     0.5370 H     1 <1>   0.0800 
 35 H      -11.8130    -3.3540    -1.1550 H     1 <1>   0.0800 
 36 H      -11.7350    -0.9260    -0.6540 H     1 <1>   0.0800 
 37 H      -11.9250    -1.2700     1.0420 H     1 <1>   0.0800 
 38 H      -14.1390    -2.3020     0.5860 H     1 <1>   0.0800 
 39 H      -13.9490    -1.9570    -1.1120 H     1 <1>   0.0800 
 40 H      -14.0650     0.1270     1.0910 H     1 <1>   0.0800 
 41 H      -15.3530    -0.2470    -0.0270 H     1 <1>   0.0800 
 42 H      -13.8730     0.4730    -0.6130 H     1 <1>   0.0800 
@<TRIPOS>BOND
  1   1   2  2   
  2   2   3  am  
  3   2   4  1   
  4   3   5  1   
  5   3   6  1   
  6   4   7  1   
  7   4  21  1   
  8   4  22  1   
  9   5   7  1   
 10   5  23  1   
 11   5  24  1   
 12   6  25  1   
 13   6  26  1   
 14   6  27  1   
 15   7   8  1   
 16   7  28  1   
 17   8   9  2   
 18   8  10  am  
 19  10  11  1   
 20  10  29  1   
 21  11  12  ar  
 22  11  13  ar  
 23  12  14  ar  
 24  12  30  1   
 25  13  15  ar  
 26  13  31  1   
 27  14  16  ar  
 28  14  32  1   
 29  15  16  ar  
 30  15  33  1   
 31  16  17  1   
 32  17  18  1   
 33  17  34  1   
 34  17  35  1   
 35  18  19  1   
 36  18  36  1   
 37  18  37  1   
 38  19  20  1   
 39  19  38  1   
 40  19  39  1   
 41  20  40  1   
 42  20  41  1   
 43  20  42  1   
@<TRIPOS>SUBSTRUCTURE
  1 ****  11 GROUP 4 **** **** 0

# MOE 2024.06 (io_trps.svl 2023.06)
