@<TRIPOS>MOLECULE
NONAME
33 35 1 0 0 
SMALL
USER_CHARGES


@<TRIPOS>ATOM
  1 CL      -1.4720    -1.4560     0.2470 Cl    1 <1>  -0.1770 
  2 C       -2.7070    -0.2600    -0.0650 C.ar  1 <1>   0.1770 
  3 C       -3.8920    -0.3130     0.6300 C.ar  1 <1>  -0.1500 
  4 C       -2.4500     0.7270    -1.0230 C.ar  1 <1>  -0.1500 
  5 C       -4.8570     0.6530     0.3580 C.ar  1 <1>   0.2270 
  6 C       -3.4010     1.6860    -1.2950 C.ar  1 <1>  -0.1500 
  7 N       -6.0960     0.8090     0.9040 N.2   1 <1>  -0.5650 
  8 C       -4.6070     1.6360    -0.5910 C.ar  1 <1>  -0.1520 
  9 C       -6.5500     1.8470     0.2960 C.2   1 <1>   0.2420 
 10 N       -5.7260     2.4070    -0.6140 N.pl3 1 <1>   0.0330 
 11 S       -8.1650     2.5580     0.5790 S.3   1 <1>  -0.2860 
 12 C       -8.9470     1.4740     1.8720 C.3   1 <1>   0.1310 
 13 C      -10.1410     0.7270     1.2940 C.2   1 <1>   0.5690 
 14 O      -11.2460     1.1370     1.5690 O.2   1 <1>  -0.5700 
 15 N       -9.9700    -0.3830     0.5100 N.am  1 <1>  -0.6600 
 16 C       -8.6790    -0.9830     0.1060 C.3   1 <1>   0.1400 
 17 C      -11.1070    -1.1150    -0.0850 C.3   1 <1>   0.1400 
 18 C       -9.0570    -2.2960    -0.5690 C.3   1 <1>  -0.1600 
 19 C      -10.4730    -2.0660    -1.0930 C.3   1 <1>  -0.1600 
 20 H       -4.0850    -1.0700     1.3640 H     1 <1>   0.1500 
 21 H       -1.5040     0.7190    -1.5350 H     1 <1>   0.1500 
 22 H       -3.2250     2.4550    -2.0270 H     1 <1>   0.1500 
 23 H       -5.9230     3.2320    -1.1840 H     1 <1>   0.2700 
 24 H       -9.2720     2.1250     2.6620 H     1 <1>   0.0800 
 25 H       -8.2110     0.7940     2.2520 H     1 <1>   0.0800 
 26 H       -8.0390    -1.1480     0.9550 H     1 <1>   0.0800 
 27 H       -8.1920    -0.3300    -0.5980 H     1 <1>   0.0800 
 28 H      -11.7980    -0.4350    -0.5540 H     1 <1>   0.0800 
 29 H      -11.6130    -1.6640     0.6910 H     1 <1>   0.0800 
 30 H       -9.0630    -3.0780     0.1690 H     1 <1>   0.0800 
 31 H       -8.3660    -2.5560    -1.3510 H     1 <1>   0.0800 
 32 H      -10.4330    -1.5800    -2.0520 H     1 <1>   0.0800 
 33 H      -11.0310    -2.9810    -1.1860 H     1 <1>   0.0800 
@<TRIPOS>BOND
  1   1   2  1   
  2   2   3  ar  
  3   2   4  ar  
  4   3   5  ar  
  5   3  20  1   
  6   4   6  ar  
  7   4  21  1   
  8   5   7  1   
  9   5   8  ar  
 10   6   8  ar  
 11   6  22  1   
 12   7   9  2   
 13   8  10  1   
 14   9  10  1   
 15   9  11  1   
 16  10  23  1   
 17  11  12  1   
 18  12  13  1   
 19  12  24  1   
 20  12  25  1   
 21  13  14  2   
 22  13  15  am  
 23  15  16  1   
 24  15  17  1   
 25  16  18  1   
 26  16  26  1   
 27  16  27  1   
 28  17  19  1   
 29  17  28  1   
 30  17  29  1   
 31  18  19  1   
 32  18  30  1   
 33  18  31  1   
 34  19  32  1   
 35  19  33  1   
@<TRIPOS>SUBSTRUCTURE
  1 ****   7 GROUP 4 **** **** 0

# MOE 2024.06 (io_trps.svl 2023.06)
