@<TRIPOS>MOLECULE
NONAME
40 41 1 0 0 
SMALL
USER_CHARGES


@<TRIPOS>ATOM
  1 CL       2.1690    -1.3880     1.7160 Cl    1 <1>  -0.1770 
  2 C        2.4780     0.0540     0.7830 C.ar  1 <1>   0.1770 
  3 C        2.3400     1.2910     1.3830 C.ar  1 <1>  -0.1500 
  4 C        2.8530    -0.0660    -0.5410 C.ar  1 <1>  -0.1500 
  5 C        2.5780     2.4570     0.6640 C.ar  1 <1>  -0.0090 
  6 C        3.0940     1.0820    -1.2720 C.ar  1 <1>  -0.1500 
  7 S        2.4100     4.0790     1.4540 S.o2  1 <1>   1.4470 
  8 C        2.9620     2.3270    -0.6700 C.ar  1 <1>   0.0830 
  9 O        3.6830     4.7700     1.4220 O.2   1 <1>  -0.6500 
 10 O        1.7560     3.9140     2.7350 O.2   1 <1>  -0.6500 
 11 N        1.3250     4.9470     0.4850 N.am  1 <1>  -0.8490 
 12 O        3.1890     3.4200    -1.4220 O.3   1 <1>  -0.3620 
 13 C       -0.0530     4.4780     0.5890 C.3   1 <1>   0.1960 
 14 C        1.4310     6.3930     0.7090 C.3   1 <1>   0.1960 
 15 C        4.5300     3.8130    -1.5880 C.3   1 <1>   0.1200 
 16 C       -0.8930     5.0500    -0.5650 C.3   1 <1>  -0.1600 
 17 C        0.2870     7.1840     0.0460 C.3   1 <1>  -0.1600 
 18 C        4.5330     5.1980    -2.2260 C.3   1 <1>  -0.2400 
 19 C       -0.3690     6.3980    -1.0970 C.3   1 <1>  -0.0800 
 20 C       -1.4850     7.2060    -1.7680 C.3   1 <1>  -0.2400 
 21 H        2.0480     1.3410     2.4180 H     1 <1>   0.1500 
 22 H        2.9500    -1.0400    -0.9870 H     1 <1>   0.1500 
 23 H        3.3790     1.0210    -2.3070 H     1 <1>   0.1500 
 24 H       -0.4640     4.7900     1.5360 H     1 <1>   0.0800 
 25 H       -0.0880     3.4020     0.5490 H     1 <1>   0.0800 
 26 H        2.3710     6.7270     0.3020 H     1 <1>   0.0800 
 27 H        1.4390     6.6020     1.7670 H     1 <1>   0.0800 
 28 H        5.0220     3.0940    -2.2190 H     1 <1>   0.0800 
 29 H        5.0070     3.8400    -0.6230 H     1 <1>   0.0800 
 30 H       -1.9050     5.1520    -0.2170 H     1 <1>   0.0800 
 31 H       -0.9040     4.3410    -1.3740 H     1 <1>   0.0800 
 32 H        0.6740     8.1190    -0.3170 H     1 <1>   0.0800 
 33 H       -0.4530     7.4110     0.7930 H     1 <1>   0.0800 
 34 H        4.0400     5.1690    -3.1810 H     1 <1>   0.0800 
 35 H        5.5440     5.5330    -2.3670 H     1 <1>   0.0800 
 36 H        4.0270     5.8960    -1.5820 H     1 <1>   0.0800 
 37 H        0.3940     6.1930    -1.8320 H     1 <1>   0.0800 
 38 H       -2.2580     7.4500    -1.0610 H     1 <1>   0.0800 
 39 H       -1.9190     6.6390    -2.5730 H     1 <1>   0.0800 
 40 H       -1.0890     8.1200    -2.1740 H     1 <1>   0.0800 
@<TRIPOS>BOND
  1   1   2  1   
  2   2   3  ar  
  3   2   4  ar  
  4   3   5  ar  
  5   3  21  1   
  6   4   6  ar  
  7   4  22  1   
  8   5   7  1   
  9   5   8  ar  
 10   6   8  ar  
 11   6  23  1   
 12   7   9  2   
 13   7  10  2   
 14   7  11  am  
 15   8  12  1   
 16  11  13  1   
 17  11  14  1   
 18  12  15  1   
 19  13  16  1   
 20  13  24  1   
 21  13  25  1   
 22  14  17  1   
 23  14  26  1   
 24  14  27  1   
 25  15  18  1   
 26  15  28  1   
 27  15  29  1   
 28  16  19  1   
 29  16  30  1   
 30  16  31  1   
 31  17  19  1   
 32  17  32  1   
 33  17  33  1   
 34  18  34  1   
 35  18  35  1   
 36  18  36  1   
 37  19  20  1   
 38  19  37  1   
 39  20  38  1   
 40  20  39  1   
 41  20  40  1   
@<TRIPOS>SUBSTRUCTURE
  1 ****   5 GROUP 4 **** **** 0

# MOE 2024.06 (io_trps.svl 2023.06)
