@<TRIPOS>MOLECULE
NONAME
43 44 1 0 0 
SMALL
USER_CHARGES


@<TRIPOS>ATOM
  1 S        0.0740     0.4000     2.0130 S.o2  1 <1>   1.3330 
  2 O        0.6080    -0.7000     1.2490 O.2   1 <1>  -0.6500 
  3 O        0.6480     0.7450     3.2910 O.2   1 <1>  -0.6500 
  4 N        0.1820     1.8180     1.0280 N.am  1 <1>  -0.6930 
  5 C       -1.6830     0.2120     2.2270 C.3   1 <1>  -0.1350 
  6 C       -0.5250     1.9930    -0.1640 C.ar  1 <1>   0.1990 
  7 C        1.2700     2.7830     1.4020 C.3   1 <1>   0.2570 
  8 C       -1.1630     3.2080    -0.4140 C.ar  1 <1>  -0.1500 
  9 C       -0.6120     0.9820    -1.1230 C.ar  1 <1>  -0.1500 
 10 C        1.9800     3.4650     0.2260 C.2   1 <1>   0.5690 
 11 C       -1.8790     3.4140    -1.5810 C.ar  1 <1>  -0.1500 
 12 C       -1.3260     1.1700    -2.2940 C.ar  1 <1>  -0.1500 
 13 O        1.7680     4.6470     0.0680 O.2   1 <1>  -0.5700 
 14 N        2.8360     2.7680    -0.5960 N.am  1 <1>  -0.6600 
 15 C       -1.9480     2.3860    -2.5000 C.ar  1 <1>   0.1900 
 16 C        3.5620     3.4430    -1.7030 C.3   1 <1>   0.1400 
 17 C        3.1180     1.3120    -0.4880 C.3   1 <1>   0.1400 
 18 F       -2.6250     2.5690    -3.6040 F     1 <1>  -0.1900 
 19 C        5.0010     3.7770    -1.2940 C.3   1 <1>  -0.1600 
 20 C        4.2480     1.0200     0.5080 C.3   1 <1>  -0.1600 
 21 C        5.8440     2.5840    -0.8040 C.3   1 <1>  -0.1600 
 22 C        5.3890     2.0530     0.5660 C.3   1 <1>  -0.1600 
 23 H       -1.8870    -0.6290     2.8600 H     1 <1>   0.0800 
 24 H       -2.1590     0.0530     1.2800 H     1 <1>   0.0800 
 25 H       -2.0960     1.0920     2.6800 H     1 <1>   0.0800 
 26 H        2.0230     2.2800     1.9790 H     1 <1>   0.0800 
 27 H        0.8470     3.5460     2.0310 H     1 <1>   0.0800 
 28 H       -1.0930     4.0000     0.3100 H     1 <1>   0.1500 
 29 H       -0.1130     0.0440    -0.9660 H     1 <1>   0.1500 
 30 H       -2.3690     4.3500    -1.7780 H     1 <1>   0.1500 
 31 H       -1.3980     0.3950    -3.0360 H     1 <1>   0.1500 
 32 H        3.0520     4.3520    -1.9750 H     1 <1>   0.0800 
 33 H        3.5660     2.8080    -2.5720 H     1 <1>   0.0800 
 34 H        3.4040     0.9380    -1.4560 H     1 <1>   0.0800 
 35 H        2.2340     0.7740    -0.2010 H     1 <1>   0.0800 
 36 H        4.9730     4.5380    -0.5340 H     1 <1>   0.0800 
 37 H        5.4900     4.2100    -2.1490 H     1 <1>   0.0800 
 38 H        4.6620     0.0600     0.2520 H     1 <1>   0.0800 
 39 H        3.8280     0.9140     1.4920 H     1 <1>   0.0800 
 40 H        6.8600     2.9260    -0.7030 H     1 <1>   0.0800 
 41 H        5.8450     1.7940    -1.5350 H     1 <1>   0.0800 
 42 H        6.2290     1.5900     1.0550 H     1 <1>   0.0800 
 43 H        5.0870     2.8820     1.1830 H     1 <1>   0.0800 
@<TRIPOS>BOND
  1   1   2  2   
  2   1   3  2   
  3   1   4  am  
  4   1   5  1   
  5   4   6  1   
  6   4   7  1   
  7   5  23  1   
  8   5  24  1   
  9   5  25  1   
 10   6   8  ar  
 11   6   9  ar  
 12   7  10  1   
 13   7  26  1   
 14   7  27  1   
 15   8  11  ar  
 16   8  28  1   
 17   9  12  ar  
 18   9  29  1   
 19  10  13  2   
 20  10  14  am  
 21  11  15  ar  
 22  11  30  1   
 23  12  15  ar  
 24  12  31  1   
 25  14  16  1   
 26  14  17  1   
 27  15  18  1   
 28  16  19  1   
 29  16  32  1   
 30  16  33  1   
 31  17  20  1   
 32  17  34  1   
 33  17  35  1   
 34  19  21  1   
 35  19  36  1   
 36  19  37  1   
 37  20  22  1   
 38  20  38  1   
 39  20  39  1   
 40  21  22  1   
 41  21  40  1   
 42  21  41  1   
 43  22  42  1   
 44  22  43  1   
@<TRIPOS>SUBSTRUCTURE
  1 ****   4 GROUP 4 **** **** 0

# MOE 2024.06 (io_trps.svl 2023.06)
