@<TRIPOS>MOLECULE
NONAME
46 47 1 0 0 
SMALL
USER_CHARGES


@<TRIPOS>ATOM
  1 O       -1.6960     0.3600    -1.0660 O.2   1 <1>  -0.5700 
  2 C       -2.4620     0.3950    -0.1230 C.2   1 <1>   0.7800 
  3 O       -2.8050    -0.7150     0.5330 O.3   1 <1>  -0.4300 
  4 N       -2.9930     1.5710     0.3210 N.am  1 <1>  -0.6600 
  5 C       -2.3610    -2.0310     0.2820 C.3   1 <1>   0.2800 
  6 C       -2.8280     2.8760    -0.4040 C.3   1 <1>   0.2810 
  7 C       -4.1290     1.6290     1.2660 C.3   1 <1>   0.1400 
  8 C       -2.8040    -2.4820    -1.1150 C.3   1 <1>  -0.2400 
  9 C       -0.8430    -2.1250     0.4750 C.3   1 <1>  -0.2400 
 10 C       -3.0580    -2.8930     1.3350 C.3   1 <1>  -0.2400 
 11 C       -1.4200     3.5230    -0.3290 C.2   1 <1>   0.5690 
 12 C       -3.9430     3.7620     0.1810 C.3   1 <1>  -0.1600 
 13 C       -4.9670     2.7980     0.7710 C.3   1 <1>  -0.1600 
 14 O       -1.3290     4.7210    -0.1860 O.2   1 <1>  -0.5700 
 15 N       -0.3250     2.7130    -0.4720 N.am  1 <1>  -0.5470 
 16 C        1.0560     2.9510    -0.4350 C.ar  1 <1>   0.1170 
 17 C        1.6240     4.1220     0.0570 C.ar  1 <1>  -0.1500 
 18 C        1.9030     1.9540    -0.9030 C.ar  1 <1>  -0.1500 
 19 C        2.9980     4.3010     0.0760 C.ar  1 <1>  -0.1440 
 20 C        3.2760     2.1210    -0.8860 C.ar  1 <1>  -0.1500 
 21 C        3.8230     3.2940    -0.3970 C.ar  1 <1>  -0.1500 
 22 C        3.6020     5.5860     0.6120 C.3   1 <1>  -0.0970 
 23 H       -3.0450     2.7010    -1.4440 H     1 <1>   0.0800 
 24 H       -3.7520     1.8260     2.2550 H     1 <1>   0.0800 
 25 H       -4.6970     0.7140     1.2690 H     1 <1>   0.0800 
 26 H       -2.2810    -1.9420    -1.8830 H     1 <1>   0.0800 
 27 H       -3.8620    -2.3370    -1.2370 H     1 <1>   0.0800 
 28 H       -2.5860    -3.5260    -1.2480 H     1 <1>   0.0800 
 29 H       -0.3180    -1.5930    -0.2970 H     1 <1>   0.0800 
 30 H       -0.5310    -3.1520     0.4280 H     1 <1>   0.0800 
 31 H       -0.5620    -1.7280     1.4340 H     1 <1>   0.0800 
 32 H       -4.1250    -2.8200     1.2310 H     1 <1>   0.0800 
 33 H       -2.7780    -2.5740     2.3230 H     1 <1>   0.0800 
 34 H       -2.7760    -3.9250     1.2200 H     1 <1>   0.0800 
 35 H       -4.3650     4.4090    -0.5670 H     1 <1>   0.0800 
 36 H       -3.5430     4.3710     0.9730 H     1 <1>   0.0800 
 37 H       -5.5410     3.2440     1.5640 H     1 <1>   0.0800 
 38 H       -5.6370     2.4530     0.0020 H     1 <1>   0.0800 
 39 H       -0.5750     1.7410    -0.6950 H     1 <1>   0.3700 
 40 H        0.9880     4.9010     0.4310 H     1 <1>   0.1500 
 41 H        1.4840     1.0400    -1.2860 H     1 <1>   0.1500 
 42 H        3.9180     1.3400    -1.2530 H     1 <1>   0.1500 
 43 H        4.8910     3.4210    -0.3860 H     1 <1>   0.1500 
 44 H        2.8450     6.3370     0.7450 H     1 <1>   0.0800 
 45 H        4.3380     5.9620    -0.0760 H     1 <1>   0.0800 
 46 H        4.0730     5.3990     1.5600 H     1 <1>   0.0800 
@<TRIPOS>BOND
  1   1   2  2   
  2   2   3  1   
  3   2   4  am  
  4   3   5  1   
  5   4   6  1   
  6   4   7  1   
  7   5   8  1   
  8   5   9  1   
  9   5  10  1   
 10   6  11  1   
 11   6  12  1   
 12   6  23  1   
 13   7  13  1   
 14   7  24  1   
 15   7  25  1   
 16   8  26  1   
 17   8  27  1   
 18   8  28  1   
 19   9  29  1   
 20   9  30  1   
 21   9  31  1   
 22  10  32  1   
 23  10  33  1   
 24  10  34  1   
 25  11  14  2   
 26  11  15  am  
 27  12  13  1   
 28  12  35  1   
 29  12  36  1   
 30  13  37  1   
 31  13  38  1   
 32  15  16  1   
 33  15  39  1   
 34  16  17  ar  
 35  16  18  ar  
 36  17  19  ar  
 37  17  40  1   
 38  18  20  ar  
 39  18  41  1   
 40  19  21  ar  
 41  19  22  1   
 42  20  21  ar  
 43  20  42  1   
 44  21  43  1   
 45  22  44  1   
 46  22  45  1   
 47  22  46  1   
@<TRIPOS>SUBSTRUCTURE
  1 ****  15 GROUP 4 **** **** 0

# MOE 2024.06 (io_trps.svl 2023.06)
