@<TRIPOS>MOLECULE
NONAME
44 46 1 0 0 
SMALL
USER_CHARGES


@<TRIPOS>ATOM
  1 S       -0.0050    -0.4130     2.1480 S.3   1 <1>  -0.3710 
  2 C       -1.1670     0.5430     1.1800 C.2   1 <1>   0.6510 
  3 C        1.4850     0.7040     2.2960 C.3   1 <1>   0.1310 
  4 N       -0.9340     1.7950     1.1020 N.2   1 <1>  -0.6210 
  5 N       -2.2140    -0.1370     0.5870 N.am  1 <1>  -0.2370 
  6 C        2.4740     0.4540     1.1580 C.2   1 <1>   0.5690 
  7 C       -1.7420     2.5490     0.3110 C.2   1 <1>   0.0210 
  8 C       -3.1420     0.6510    -0.0910 C.2   1 <1>   0.6160 
  9 C       -2.2110    -1.5400     0.4360 C.ar  1 <1>   0.1170 
 10 O        3.2990    -0.4130     1.3500 O.2   1 <1>  -0.5700 
 11 N        2.4750     1.1730    -0.0170 N.am  1 <1>  -0.6600 
 12 O       -1.3840     3.7080     0.1050 O.3   1 <1>  -0.8500 
 13 C       -2.8770     2.0000    -0.2490 C.2   1 <1>  -0.1360 
 14 O       -4.1610     0.1160    -0.5650 O.2   1 <1>  -0.5700 
 15 C       -1.3300    -2.2170    -0.4250 C.ar  1 <1>   0.0830 
 16 C       -3.1090    -2.2900     1.1880 C.ar  1 <1>  -0.1500 
 17 C        1.6220     2.3720    -0.3210 C.3   1 <1>   0.1400 
 18 C        3.2760     0.7230    -1.1910 C.3   1 <1>   0.1400 
 19 O       -0.4100    -1.6040    -1.2200 O.3   1 <1>  -0.3630 
 20 C       -1.3490    -3.6010    -0.4830 C.ar  1 <1>  -0.1500 
 21 C       -3.1300    -3.6710     1.1130 C.ar  1 <1>  -0.1500 
 22 C        2.3890     3.4470    -1.1090 C.3   1 <1>   0.1200 
 23 C        4.0010     1.9080    -1.8420 C.3   1 <1>   0.1200 
 24 C       -0.7960    -0.5340    -2.0580 C.3   1 <1>   0.0400 
 25 C       -2.2450    -4.3300     0.2780 C.ar  1 <1>  -0.1500 
 26 O        3.0890     2.9040    -2.1980 O.3   1 <1>  -0.5600 
 27 H        1.9520     0.4470     3.2280 H     1 <1>   0.0800 
 28 H        1.1620     1.7240     2.3490 H     1 <1>   0.0800 
 29 H       -3.5350     2.6220    -0.8170 H     1 <1>   0.1500 
 30 H       -3.7980    -1.7810     1.8380 H     1 <1>   0.1500 
 31 H        1.2610     2.8320     0.5800 H     1 <1>   0.0800 
 32 H        0.7670     2.0700    -0.8980 H     1 <1>   0.0800 
 33 H        2.6160     0.2700    -1.9100 H     1 <1>   0.0800 
 34 H        4.0000    -0.0160    -0.8960 H     1 <1>   0.0800 
 35 H       -0.6560    -4.1040    -1.1330 H     1 <1>   0.1500 
 36 H       -3.8330    -4.2320     1.7040 H     1 <1>   0.1500 
 37 H        3.0900     3.9480    -0.4660 H     1 <1>   0.0800 
 38 H        1.6920     4.1750    -1.4870 H     1 <1>   0.0800 
 39 H        4.5030     1.5880    -2.7370 H     1 <1>   0.0800 
 40 H        4.7260     2.3260    -1.1650 H     1 <1>   0.0800 
 41 H       -0.1580    -0.5400    -2.9220 H     1 <1>   0.0800 
 42 H       -0.6670     0.3930    -1.5290 H     1 <1>   0.0800 
 43 H       -1.8220    -0.6650    -2.3570 H     1 <1>   0.0800 
 44 H       -2.2530    -5.4040     0.2210 H     1 <1>   0.1500 
@<TRIPOS>BOND
  1   1   2  1   
  2   1   3  1   
  3   2   4  2   
  4   2   5  1   
  5   3   6  1   
  6   3  27  1   
  7   3  28  1   
  8   4   7  1   
  9   5   8  am  
 10   5   9  1   
 11   6  10  2   
 12   6  11  am  
 13   7  12  1   
 14   7  13  2   
 15   8  13  1   
 16   8  14  2   
 17   9  15  ar  
 18   9  16  ar  
 19  11  17  1   
 20  11  18  1   
 21  13  29  1   
 22  15  19  1   
 23  15  20  ar  
 24  16  21  ar  
 25  16  30  1   
 26  17  22  1   
 27  17  31  1   
 28  17  32  1   
 29  18  23  1   
 30  18  33  1   
 31  18  34  1   
 32  19  24  1   
 33  20  25  ar  
 34  20  35  1   
 35  21  25  ar  
 36  21  36  1   
 37  22  26  1   
 38  22  37  1   
 39  22  38  1   
 40  23  26  1   
 41  23  39  1   
 42  23  40  1   
 43  24  41  1   
 44  24  42  1   
 45  24  43  1   
 46  25  44  1   
@<TRIPOS>SUBSTRUCTURE
  1 ****   2 GROUP 4 **** **** 0

# MOE 2024.06 (io_trps.svl 2023.06)
