@<TRIPOS>MOLECULE
NONAME
42 43 1 0 0 
SMALL
USER_CHARGES


@<TRIPOS>ATOM
  1 O        0.3820     0.4060    -2.5000 O.2   1 <1>  -0.5700 
  2 C        0.2600     1.5270    -2.0720 C.2   1 <1>   0.5690 
  3 N        1.2580     2.4390    -2.1470 N.am  1 <1>  -0.7300 
  4 C       -1.0470     1.9340    -1.4220 C.3   1 <1>  -0.0990 
  5 C        2.6310     2.1420    -2.5850 C.3   1 <1>   0.2840 
  6 C       -1.1220     1.5600     0.0720 C.3   1 <1>  -0.0800 
  7 C        3.5740     2.6470    -1.5090 C.ar  1 <1>  -0.1440 
  8 C       -2.5290     1.8620     0.6190 C.3   1 <1>  -0.1600 
  9 C       -0.0530     2.2930     0.9080 C.3   1 <1>  -0.1600 
 10 C        4.2290     3.8620    -1.6510 C.ar  1 <1>  -0.1500 
 11 C        3.7780     1.8950    -0.3620 C.ar  1 <1>  -0.1500 
 12 C       -2.6420     1.5170     2.1100 C.3   1 <1>  -0.1600 
 13 C       -0.1700     1.9530     2.3990 C.3   1 <1>  -0.1600 
 14 C        5.0760     4.3150    -0.6560 C.ar  1 <1>  -0.1500 
 15 C        4.6250     2.3460     0.6350 C.ar  1 <1>  -0.1500 
 16 C       -1.5760     2.2530     2.9310 C.3   1 <1>  -0.1600 
 17 C        5.2810     3.5660     0.4910 C.ar  1 <1>   0.0820 
 18 O        6.1250     4.0840     1.4180 O.3   1 <1>  -0.3620 
 19 C        6.4090     3.3970     2.6160 C.3   1 <1>   0.0400 
 20 H        1.1550     3.3400    -1.6820 H     1 <1>   0.3700 
 21 H       -1.8390     1.4350    -1.9510 H     1 <1>   0.0800 
 22 H       -1.1920     2.9920    -1.5440 H     1 <1>   0.0800 
 23 H        2.8240     2.6360    -3.5210 H     1 <1>   0.0800 
 24 H        2.7620     1.0820    -2.7250 H     1 <1>   0.0800 
 25 H       -0.9490     0.4990     0.1570 H     1 <1>   0.0800 
 26 H       -3.2610     1.2920     0.0720 H     1 <1>   0.0800 
 27 H       -2.7530     2.9060     0.4830 H     1 <1>   0.0800 
 28 H       -0.1600     3.3560     0.7810 H     1 <1>   0.0800 
 29 H        0.9310     2.0160     0.5740 H     1 <1>   0.0800 
 30 H        4.0820     4.4600    -2.5330 H     1 <1>   0.1500 
 31 H        3.2700     0.9520    -0.2440 H     1 <1>   0.1500 
 32 H       -2.5220     0.4550     2.2410 H     1 <1>   0.0800 
 33 H       -3.6210     1.7850     2.4690 H     1 <1>   0.0800 
 34 H        0.5550     2.5210     2.9560 H     1 <1>   0.0800 
 35 H        0.0490     0.9080     2.5430 H     1 <1>   0.0800 
 36 H        5.5860     5.2560    -0.7610 H     1 <1>   0.1500 
 37 H        4.7600     1.7400     1.5100 H     1 <1>   0.1500 
 38 H       -1.6440     1.9540     3.9620 H     1 <1>   0.0800 
 39 H       -1.7570     3.3140     2.8820 H     1 <1>   0.0800 
 40 H        7.0990     3.9910     3.1860 H     1 <1>   0.0800 
 41 H        6.8550     2.4480     2.3760 H     1 <1>   0.0800 
 42 H        5.4950     3.2660     3.1680 H     1 <1>   0.0800 
@<TRIPOS>BOND
  1   1   2  2   
  2   2   3  am  
  3   2   4  1   
  4   3   5  1   
  5   3  20  1   
  6   4   6  1   
  7   4  21  1   
  8   4  22  1   
  9   5   7  1   
 10   5  23  1   
 11   5  24  1   
 12   6   8  1   
 13   6   9  1   
 14   6  25  1   
 15   7  10  ar  
 16   7  11  ar  
 17   8  12  1   
 18   8  26  1   
 19   8  27  1   
 20   9  13  1   
 21   9  28  1   
 22   9  29  1   
 23  10  14  ar  
 24  10  30  1   
 25  11  15  ar  
 26  11  31  1   
 27  12  16  1   
 28  12  32  1   
 29  12  33  1   
 30  13  16  1   
 31  13  34  1   
 32  13  35  1   
 33  14  17  ar  
 34  14  36  1   
 35  15  17  ar  
 36  15  37  1   
 37  16  38  1   
 38  16  39  1   
 39  17  18  1   
 40  18  19  1   
 41  19  40  1   
 42  19  41  1   
 43  19  42  1   
@<TRIPOS>SUBSTRUCTURE
  1 ****  11 GROUP 4 **** **** 0

# MOE 2024.06 (io_trps.svl 2023.06)
