@<TRIPOS>MOLECULE
NONAME
51 53 1 0 0 
SMALL
USER_CHARGES


@<TRIPOS>ATOM
  1 O       -0.8560    -1.0110     1.5100 O.2   1 <1>  -0.5700 
  2 C        0.0850    -1.1080     0.7410 C.2   1 <1>   0.5440 
  3 N        0.4840     0.0140     0.0460 N.am  1 <1>  -0.6600 
  4 C        0.7310    -2.3910     0.5650 C.ar  1 <1>   0.0860 
  5 C       -0.0510     1.3710     0.3630 C.3   1 <1>   0.1400 
  6 C        1.2970    -0.0130    -1.2060 C.3   1 <1>   0.1400 
  7 C       -0.0050    -3.5210     0.1740 C.ar  1 <1>   0.1170 
  8 C        2.1040    -2.5270     0.7770 C.ar  1 <1>  -0.1500 
  9 C        1.0660     2.4240     0.2810 C.3   1 <1>   0.1200 
 10 C        2.3450     1.1120    -1.1900 C.3   1 <1>   0.1200 
 11 N       -1.3920    -3.4070     0.0010 N.am  1 <1>  -0.5470 
 12 C        0.6580    -4.7310    -0.0160 C.ar  1 <1>  -0.1500 
 13 C        2.7470    -3.7340     0.5870 C.ar  1 <1>  -0.1500 
 14 O        1.7380     2.3490    -0.9460 O.3   1 <1>  -0.5600 
 15 C       -2.3070    -4.1270    -0.7190 C.2   1 <1>   0.5690 
 16 C        2.0200    -4.8390     0.1850 C.ar  1 <1>  -0.1500 
 17 O       -2.0220    -5.0890    -1.3900 O.2   1 <1>  -0.5700 
 18 C       -3.7620    -3.6770    -0.6840 C.3   1 <1>   0.1810 
 19 O       -3.8930    -2.4430     0.0060 O.3   1 <1>  -0.3630 
 20 C       -5.0970    -1.8490     0.1790 C.ar  1 <1>   0.0830 
 21 C       -5.1100    -0.6880     0.9340 C.ar  1 <1>  -0.1500 
 22 C       -6.2870    -2.3390    -0.3520 C.ar  1 <1>  -0.1500 
 23 C       -6.2950    -0.0120     1.1670 C.ar  1 <1>  -0.1430 
 24 C       -7.4770    -1.6650    -0.1270 C.ar  1 <1>  -0.1430 
 25 C       -7.4740    -0.5060     0.6320 C.ar  1 <1>  -0.1500 
 26 C       -6.3060     1.2590     1.9960 C.3   1 <1>  -0.0970 
 27 C       -8.7810    -2.1890    -0.7010 C.3   1 <1>  -0.0970 
 28 H       -0.4780     1.3850     1.3510 H     1 <1>   0.0800 
 29 H       -0.8280     1.6180    -0.3390 H     1 <1>   0.0800 
 30 H        0.6440     0.1320    -2.0500 H     1 <1>   0.0800 
 31 H        1.7890    -0.9600    -1.3330 H     1 <1>   0.0800 
 32 H        2.6680    -1.6680     1.0970 H     1 <1>   0.1500 
 33 H        1.7790     2.2790     1.0740 H     1 <1>   0.0800 
 34 H        0.6510     3.4120     0.3680 H     1 <1>   0.0800 
 35 H        2.8400     1.1730    -2.1430 H     1 <1>   0.0800 
 36 H        3.0830     0.9340    -0.4280 H     1 <1>   0.0800 
 37 H       -1.8050    -2.5890     0.4760 H     1 <1>   0.3700 
 38 H        0.1050    -5.6020    -0.3160 H     1 <1>   0.1500 
 39 H        3.8080    -3.8200     0.7520 H     1 <1>   0.1500 
 40 H        2.5130    -5.7840     0.0330 H     1 <1>   0.1500 
 41 H       -4.3530    -4.4160    -0.1760 H     1 <1>   0.0800 
 42 H       -4.1170    -3.5440    -1.6890 H     1 <1>   0.0800 
 43 H       -4.1820    -0.3240     1.3370 H     1 <1>   0.1500 
 44 H       -6.3040    -3.2360    -0.9390 H     1 <1>   0.1500 
 45 H       -8.3980     0.0170     0.8090 H     1 <1>   0.1500 
 46 H       -5.4310     1.3130     2.6180 H     1 <1>   0.0800 
 47 H       -7.1750     1.2830     2.6290 H     1 <1>   0.0800 
 48 H       -6.3240     2.1160     1.3460 H     1 <1>   0.0800 
 49 H       -8.5960    -2.8440    -1.5330 H     1 <1>   0.0800 
 50 H       -9.3910    -1.3720    -1.0420 H     1 <1>   0.0800 
 51 H       -9.3190    -2.7320     0.0560 H     1 <1>   0.0800 
@<TRIPOS>BOND
  1   1   2  2   
  2   2   3  am  
  3   2   4  1   
  4   3   5  1   
  5   3   6  1   
  6   4   7  ar  
  7   4   8  ar  
  8   5   9  1   
  9   5  28  1   
 10   5  29  1   
 11   6  10  1   
 12   6  30  1   
 13   6  31  1   
 14   7  11  1   
 15   7  12  ar  
 16   8  13  ar  
 17   8  32  1   
 18   9  14  1   
 19   9  33  1   
 20   9  34  1   
 21  10  14  1   
 22  10  35  1   
 23  10  36  1   
 24  11  15  am  
 25  11  37  1   
 26  12  16  ar  
 27  12  38  1   
 28  13  16  ar  
 29  13  39  1   
 30  15  17  2   
 31  15  18  1   
 32  16  40  1   
 33  18  19  1   
 34  18  41  1   
 35  18  42  1   
 36  19  20  1   
 37  20  21  ar  
 38  20  22  ar  
 39  21  23  ar  
 40  21  43  1   
 41  22  24  ar  
 42  22  44  1   
 43  23  25  ar  
 44  23  26  1   
 45  24  25  ar  
 46  24  27  1   
 47  25  45  1   
 48  26  46  1   
 49  26  47  1   
 50  26  48  1   
 51  27  49  1   
 52  27  50  1   
 53  27  51  1   
@<TRIPOS>SUBSTRUCTURE
  1 ****   1 GROUP 4 **** **** 0

# MOE 2024.06 (io_trps.svl 2023.06)
