@<TRIPOS>MOLECULE
NONAME
53 55 1 0 0 
SMALL
USER_CHARGES


@<TRIPOS>ATOM
  1 S       -0.0510    -0.3610     1.3750 S.o2  1 <1>   1.4470 
  2 O        0.1970    -1.7350     1.7550 O.2   1 <1>  -0.6500 
  3 O       -0.5700     0.5600     2.3650 O.2   1 <1>  -0.6500 
  4 N        1.4250     0.2890     0.8470 N.am  1 <1>  -0.8490 
  5 C       -1.0820    -0.3280    -0.1180 C.ar  1 <1>  -0.0090 
  6 C        2.5020     0.0050     1.7990 C.3   1 <1>   0.1960 
  7 C        1.3200     1.7230     0.5600 C.3   1 <1>   0.1960 
  8 C       -2.3720     0.1900    -0.0920 C.ar  1 <1>  -0.1500 
  9 C       -0.6040    -0.8250    -1.3260 C.ar  1 <1>  -0.1500 
 10 C        3.8470     0.4740     1.2380 C.3   1 <1>  -0.1600 
 11 C        2.6230     2.2390    -0.0530 C.3   1 <1>  -0.1600 
 12 C       -3.1570     0.2180    -1.2320 C.ar  1 <1>  -0.1500 
 13 C       -1.3820    -0.8010    -2.4710 C.ar  1 <1>  -0.1500 
 14 C        3.8170     1.9680     0.8770 C.3   1 <1>  -0.0190 
 15 C       -2.6610    -0.2780    -2.4240 C.ar  1 <1>  -0.1500 
 16 C        5.1360     2.4230     0.2550 C.2   1 <1>   0.5690 
 17 O        5.4710     1.9640    -0.8100 O.2   1 <1>  -0.5700 
 18 N        5.8870     3.3310     0.9380 N.am  1 <1>  -0.7300 
 19 C        7.1910     3.9090     0.5380 C.3   1 <1>   0.2200 
 20 C        7.0480     4.6550    -0.7990 C.3   1 <1>  -0.1600 
 21 C        8.2640     2.8130     0.5690 C.3   1 <1>  -0.1600 
 22 C        8.2100     5.6300    -1.0530 C.3   1 <1>  -0.1600 
 23 C        9.6790     3.2850     0.1920 C.3   1 <1>  -0.1600 
 24 C        9.4410     5.0060    -1.7300 C.3   1 <1>  -0.1600 
 25 C        9.8140     3.5760    -1.3100 C.3   1 <1>  -0.1600 
 26 H        2.5590    -1.0560     1.9780 H     1 <1>   0.0800 
 27 H        2.2970     0.4930     2.7380 H     1 <1>   0.0800 
 28 H        1.1010     2.2660     1.4660 H     1 <1>   0.0800 
 29 H        0.5160     1.8970    -0.1370 H     1 <1>   0.0800 
 30 H       -2.7680     0.5760     0.8320 H     1 <1>   0.1500 
 31 H        0.3920    -1.2350    -1.3670 H     1 <1>   0.1500 
 32 H        4.0780    -0.1070     0.3620 H     1 <1>   0.0800 
 33 H        4.6200     0.2910     1.9630 H     1 <1>   0.0800 
 34 H        2.5400     3.2950    -0.2380 H     1 <1>   0.0800 
 35 H        2.7790     1.7510    -1.0000 H     1 <1>   0.0800 
 36 H       -4.1540     0.6240    -1.1910 H     1 <1>   0.1500 
 37 H       -0.9920    -1.1900    -3.3950 H     1 <1>   0.1500 
 38 H        3.6630     2.5260     1.7840 H     1 <1>   0.0800 
 39 H       -3.2690    -0.2580    -3.3120 H     1 <1>   0.1500 
 40 H        5.5490     3.6640     1.8390 H     1 <1>   0.3700 
 41 H        7.4520     4.6370     1.2870 H     1 <1>   0.0800 
 42 H        6.1420     5.2330    -0.7600 H     1 <1>   0.0800 
 43 H        6.9590     3.9610    -1.6160 H     1 <1>   0.0800 
 44 H        7.9790     2.0120    -0.0910 H     1 <1>   0.0800 
 45 H        8.3010     2.4130     1.5660 H     1 <1>   0.0800 
 46 H        8.5070     6.0850    -0.1240 H     1 <1>   0.0800 
 47 H        7.8570     6.4260    -1.6860 H     1 <1>   0.0800 
 48 H       10.3600     2.4870     0.4340 H     1 <1>   0.0800 
 49 H        9.9690     4.1410     0.7760 H     1 <1>   0.0800 
 50 H       10.2820     5.6520    -1.5470 H     1 <1>   0.0800 
 51 H        9.2790     5.0010    -2.7950 H     1 <1>   0.0800 
 52 H        9.2160     2.8740    -1.8650 H     1 <1>   0.0800 
 53 H       10.8360     3.4060    -1.6020 H     1 <1>   0.0800 
@<TRIPOS>BOND
  1   1   2  2   
  2   1   3  2   
  3   1   4  am  
  4   1   5  1   
  5   4   6  1   
  6   4   7  1   
  7   5   8  ar  
  8   5   9  ar  
  9   6  10  1   
 10   6  26  1   
 11   6  27  1   
 12   7  11  1   
 13   7  28  1   
 14   7  29  1   
 15   8  12  ar  
 16   8  30  1   
 17   9  13  ar  
 18   9  31  1   
 19  10  14  1   
 20  10  32  1   
 21  10  33  1   
 22  11  14  1   
 23  11  34  1   
 24  11  35  1   
 25  12  15  ar  
 26  12  36  1   
 27  13  15  ar  
 28  13  37  1   
 29  14  16  1   
 30  14  38  1   
 31  15  39  1   
 32  16  17  2   
 33  16  18  am  
 34  18  19  1   
 35  18  40  1   
 36  19  20  1   
 37  19  21  1   
 38  19  41  1   
 39  20  22  1   
 40  20  42  1   
 41  20  43  1   
 42  21  23  1   
 43  21  44  1   
 44  21  45  1   
 45  22  24  1   
 46  22  46  1   
 47  22  47  1   
 48  23  25  1   
 49  23  48  1   
 50  23  49  1   
 51  24  25  1   
 52  24  50  1   
 53  24  51  1   
 54  25  52  1   
 55  25  53  1   
@<TRIPOS>SUBSTRUCTURE
  1 ****  11 GROUP 4 **** **** 0

# MOE 2024.06 (io_trps.svl 2023.06)
