@<TRIPOS>MOLECULE
NONAME
36 38 1 0 0 
SMALL
USER_CHARGES


@<TRIPOS>ATOM
  1 O        3.8000     6.0730     1.6230 O.2   1 <1>  -0.5700 
  2 C        3.1290     5.8310     0.6650 C.2   1 <1>   0.4480 
  3 C        3.6940     5.3750    -0.6740 C.3   1 <1>  -0.0190 
  4 C        1.6240     5.9210     0.7230 C.3   1 <1>  -0.0990 
  5 C        3.0250     4.0390    -1.0330 C.3   1 <1>   0.3700 
  6 C        5.2390     5.3140    -0.7600 C.3   1 <1>  -0.1600 
  7 C        1.0290     4.5880     0.2830 C.3   1 <1>   0.3700 
  8 N        1.5690     4.2130    -1.0320 N.3   1 <1>  -0.9000 
  9 C        3.3800     2.8420    -0.1480 C.2   1 <1>  -0.0400 
 10 C        5.8820     6.7070    -0.7630 C.3   1 <1>  -0.2400 
 11 C       -0.4880     4.6840     0.2110 C.2   1 <1>  -0.0400 
 12 O        2.9940     1.6490    -0.5640 O.3   1 <1>  -0.2800 
 13 C        4.0220     2.7320     1.0390 C.2   1 <1>  -0.1500 
 14 O       -1.1650     4.8420     1.3340 O.3   1 <1>  -0.2800 
 15 C       -1.3360     4.6370    -0.8420 C.2   1 <1>  -0.1500 
 16 C        3.3790     0.7630     0.3310 C.2   1 <1>  -0.0100 
 17 C        4.0230     1.3670     1.3510 C.2   1 <1>  -0.1500 
 18 C       -2.4460     4.8980     1.0260 C.2   1 <1>  -0.0100 
 19 C       -2.6220     4.7770    -0.3060 C.2   1 <1>  -0.1500 
 20 H        3.3680     6.0840    -1.4130 H     1 <1>   0.0800 
 21 H        1.2790     6.7070     0.0770 H     1 <1>   0.0800 
 22 H        1.3110     6.1430     1.7270 H     1 <1>   0.0800 
 23 H        3.3230     3.7860    -2.0370 H     1 <1>   0.0800 
 24 H        5.5250     4.8100    -1.6670 H     1 <1>   0.0800 
 25 H        5.6380     4.7500     0.0640 H     1 <1>   0.0800 
 26 H        1.2770     3.8280     1.0060 H     1 <1>   0.0800 
 27 H        1.1800     3.2840    -1.2380 H     1 <1>   0.3600 
 28 H        5.5250     7.2910    -1.5930 H     1 <1>   0.0800 
 29 H        6.9510     6.6170    -0.8450 H     1 <1>   0.0800 
 30 H        5.6610     7.2320     0.1500 H     1 <1>   0.0800 
 31 H        4.4540     3.4980     1.6600 H     1 <1>   0.1500 
 32 H       -1.0990     4.5200    -1.8850 H     1 <1>   0.1500 
 33 H        3.1550    -0.2760     0.1650 H     1 <1>   0.1500 
 34 H        4.4560     0.9280     2.2320 H     1 <1>   0.1500 
 35 H       -3.1640     5.0250     1.8170 H     1 <1>   0.1500 
 36 H       -3.5370     4.7830    -0.8700 H     1 <1>   0.1500 
@<TRIPOS>BOND
  1   1   2  2   
  2   2   3  1   
  3   2   4  1   
  4   3   5  1   
  5   3   6  1   
  6   3  20  1   
  7   4   7  1   
  8   4  21  1   
  9   4  22  1   
 10   5   8  1   
 11   5   9  1   
 12   5  23  1   
 13   6  10  1   
 14   6  24  1   
 15   6  25  1   
 16   7   8  1   
 17   7  11  1   
 18   7  26  1   
 19   8  27  1   
 20   9  12  1   
 21   9  13  2   
 22  10  28  1   
 23  10  29  1   
 24  10  30  1   
 25  11  14  1   
 26  11  15  2   
 27  12  16  1   
 28  13  17  1   
 29  13  31  1   
 30  14  18  1   
 31  15  19  1   
 32  15  32  1   
 33  16  17  2   
 34  16  33  1   
 35  17  34  1   
 36  18  19  2   
 37  18  35  1   
 38  19  36  1   
@<TRIPOS>SUBSTRUCTURE
  1 ****   7 GROUP 4 **** **** 0

# MOE 2024.06 (io_trps.svl 2023.06)
