@<TRIPOS>MOLECULE
NONAME
47 47 1 0 0 
SMALL
USER_CHARGES


@<TRIPOS>ATOM
  1 S        0.6440    -0.5560    -0.9130 S.o2  1 <1>   1.4470 
  2 O        1.2130    -1.1530    -2.1040 O.2   1 <1>  -0.6500 
  3 O        0.6290     0.8880    -0.8260 O.2   1 <1>  -0.6500 
  4 N        1.5390    -1.1230     0.4130 N.am  1 <1>  -0.8490 
  5 C       -1.0560    -1.1310    -0.6450 C.ar  1 <1>  -0.0090 
  6 C        2.7240    -0.2890     0.6010 C.3   1 <1>   0.3340 
  7 C        1.9240    -2.5290     0.2610 C.3   1 <1>   0.3340 
  8 C       -1.7890    -1.7260    -1.6660 C.ar  1 <1>  -0.1500 
  9 C       -1.6800    -0.9760     0.5870 C.ar  1 <1>  -0.1500 
 10 C        3.4270    -0.6620     1.8940 C.2   1 <1>  -0.2880 
 11 C        0.7000    -3.4180     0.3290 C.2   1 <1>  -0.2880 
 12 C       -3.0870    -2.1580    -1.4620 C.ar  1 <1>  -0.1500 
 13 C       -2.9780    -1.4070     0.7960 C.ar  1 <1>  -0.1500 
 14 C        4.6920    -1.0800     2.0030 C.2   1 <1>  -0.3000 
 15 C        0.2830    -4.2380    -0.6400 C.2   1 <1>  -0.3000 
 16 C       -3.7030    -2.0100    -0.2250 C.ar  1 <1>   0.1170 
 17 N       -5.0220    -2.4540    -0.0690 N.am  1 <1>  -0.5470 
 18 C       -5.7300    -2.8160     1.0480 C.2   1 <1>   0.5690 
 19 O       -5.2350    -2.8330     2.1510 O.2   1 <1>  -0.5700 
 20 C       -7.2120    -3.2280     0.8540 C.3   1 <1>   0.0610 
 21 C       -8.0140    -2.0680     0.2300 C.3   1 <1>  -0.2400 
 22 C       -7.8860    -3.5970     2.1920 C.3   1 <1>  -0.2400 
 23 C       -7.3110    -4.4530    -0.0760 C.3   1 <1>  -0.2400 
 24 H        2.4440     0.7480     0.6790 H     1 <1>   0.0800 
 25 H        3.3920    -0.3930    -0.2400 H     1 <1>   0.0800 
 26 H        2.5770    -2.8300     1.0620 H     1 <1>   0.0800 
 27 H        2.4540    -2.6830    -0.6650 H     1 <1>   0.0800 
 28 H       -1.3310    -1.8540    -2.6330 H     1 <1>   0.1500 
 29 H       -1.1390    -0.5120     1.3940 H     1 <1>   0.1500 
 30 H        2.7750    -0.5500     2.7450 H     1 <1>   0.1500 
 31 H        0.1820    -3.3190     1.2680 H     1 <1>   0.1500 
 32 H       -3.6230    -2.6180    -2.2720 H     1 <1>   0.1500 
 33 H       -3.4260    -1.2660     1.7630 H     1 <1>   0.1500 
 34 H        5.1590    -1.3370     2.9390 H     1 <1>   0.1500 
 35 H        5.3690    -1.2010     1.1740 H     1 <1>   0.1500 
 36 H       -0.5950    -4.8570    -0.5620 H     1 <1>   0.1500 
 37 H        0.7750    -4.3570    -1.5910 H     1 <1>   0.1500 
 38 H       -5.5420    -2.5580    -0.9370 H     1 <1>   0.3700 
 39 H       -7.6330    -1.8080    -0.7410 H     1 <1>   0.0800 
 40 H       -7.9540    -1.1980     0.8610 H     1 <1>   0.0800 
 41 H       -9.0500    -2.3370     0.1230 H     1 <1>   0.0800 
 42 H       -7.8550    -2.7610     2.8690 H     1 <1>   0.0800 
 43 H       -7.3680    -4.4190     2.6560 H     1 <1>   0.0800 
 44 H       -8.9130    -3.8800     2.0450 H     1 <1>   0.0800 
 45 H       -6.9210    -4.2350    -1.0540 H     1 <1>   0.0800 
 46 H       -8.3350    -4.7650    -0.1850 H     1 <1>   0.0800 
 47 H       -6.7510    -5.2740     0.3370 H     1 <1>   0.0800 
@<TRIPOS>BOND
  1   1   2  2   
  2   1   3  2   
  3   1   4  am  
  4   1   5  1   
  5   4   6  1   
  6   4   7  1   
  7   5   8  ar  
  8   5   9  ar  
  9   6  10  1   
 10   6  24  1   
 11   6  25  1   
 12   7  11  1   
 13   7  26  1   
 14   7  27  1   
 15   8  12  ar  
 16   8  28  1   
 17   9  13  ar  
 18   9  29  1   
 19  10  14  2   
 20  10  30  1   
 21  11  15  2   
 22  11  31  1   
 23  12  16  ar  
 24  12  32  1   
 25  13  16  ar  
 26  13  33  1   
 27  14  34  1   
 28  14  35  1   
 29  15  36  1   
 30  15  37  1   
 31  16  17  1   
 32  17  18  am  
 33  17  38  1   
 34  18  19  2   
 35  18  20  1   
 36  20  21  1   
 37  20  22  1   
 38  20  23  1   
 39  21  39  1   
 40  21  40  1   
 41  21  41  1   
 42  22  42  1   
 43  22  43  1   
 44  22  44  1   
 45  23  45  1   
 46  23  46  1   
 47  23  47  1   
@<TRIPOS>SUBSTRUCTURE
  1 ****   9 GROUP 4 **** **** 0

# MOE 2024.06 (io_trps.svl 2023.06)
