@<TRIPOS>MOLECULE
NONAME
47 49 1 0 0 
SMALL
USER_CHARGES


@<TRIPOS>ATOM
  1 O        2.2980    -4.8990     0.0520 O.3   1 <1>  -0.3630 
  2 C        3.6530    -4.8680     0.0350 C.ar  1 <1>   0.0830 
  3 C        1.5900    -6.1150     0.0670 C.3   1 <1>   0.1200 
  4 C        4.4560    -6.0050     0.0270 C.ar  1 <1>  -0.1500 
  5 C        4.2520    -3.6190     0.0260 C.ar  1 <1>  -0.1500 
  6 C        0.0970    -5.7910     0.0850 C.3   1 <1>  -0.1600 
  7 C        5.8330    -5.8790     0.0090 C.ar  1 <1>  -0.1500 
  8 C        5.6290    -3.5020     0.0080 C.ar  1 <1>  -0.1500 
  9 C       -0.7410    -7.0710     0.0460 C.3   1 <1>   0.1100 
 10 C        6.4460    -4.6290     0.0000 C.ar  1 <1>   0.0000 
 11 N       -2.1670    -6.7700     0.2650 N.3   1 <1>  -0.8100 
 12 C        7.8850    -4.5060    -0.0170 C.ar  1 <1>   0.0000 
 13 C       -2.8020    -6.1130    -0.8980 C.3   1 <1>   0.1100 
 14 C       -2.9070    -7.9770     0.6810 C.3   1 <1>   0.1100 
 15 C        8.6400    -5.0560    -1.0490 C.ar  1 <1>  -0.1500 
 16 C        8.5580    -3.8330     0.9990 C.ar  1 <1>  -0.1500 
 17 C       -4.2750    -5.7610    -0.6050 C.3   1 <1>   0.3430 
 18 C       -4.3800    -7.6490     0.9980 C.3   1 <1>   0.3430 
 19 C       10.0180    -4.9400    -1.0670 C.ar  1 <1>  -0.1500 
 20 C        9.9360    -3.7140     0.9870 C.ar  1 <1>  -0.1500 
 21 N       -5.0520    -6.9640    -0.1550 N.4   1 <1>  -0.9060 
 22 C       10.6700    -4.2680    -0.0470 C.ar  1 <1>  -0.1500 
 23 H        1.8750    -6.6620     0.9500 H     1 <1>   0.0800 
 24 H        1.8530    -6.6680    -0.8180 H     1 <1>   0.0800 
 25 H        4.0310    -6.9900     0.0350 H     1 <1>   0.1500 
 26 H        3.6310    -2.7420     0.0320 H     1 <1>   0.1500 
 27 H       -0.1220    -5.1760    -0.7690 H     1 <1>   0.0800 
 28 H       -0.1270    -5.2470     0.9860 H     1 <1>   0.0800 
 29 H        6.4500    -6.7600     0.0080 H     1 <1>   0.1500 
 30 H        6.0820    -2.5260    -0.0030 H     1 <1>   0.1500 
 31 H       -0.3940    -7.7190     0.8340 H     1 <1>   0.0800 
 32 H       -0.6050    -7.5830    -0.8930 H     1 <1>   0.0800 
 33 H       -2.7420    -6.7530    -1.7630 H     1 <1>   0.0800 
 34 H       -2.2830    -5.1990    -1.1280 H     1 <1>   0.0800 
 35 H       -2.4500    -8.3850     1.5680 H     1 <1>   0.0800 
 36 H       -2.8560    -8.7270    -0.0910 H     1 <1>   0.0800 
 37 H        8.1380    -5.5750    -1.8460 H     1 <1>   0.1500 
 38 H        7.9930    -3.4050     1.8070 H     1 <1>   0.1500 
 39 H       -4.7240    -5.3390    -1.4890 H     1 <1>   0.0800 
 40 H       -4.2910    -5.0100     0.1680 H     1 <1>   0.0800 
 41 H       -4.4010    -7.0060     1.8640 H     1 <1>   0.0800 
 42 H       -4.9040    -8.5570     1.2460 H     1 <1>   0.0800 
 43 H       10.5850    -5.3720    -1.8740 H     1 <1>   0.1500 
 44 H       10.4390    -3.1910     1.7820 H     1 <1>   0.1500 
 45 H       -5.1230    -7.6240    -0.9370 H     1 <1>   0.4500 
 46 H       -6.0040    -6.6860     0.1090 H     1 <1>   0.4500 
 47 H       11.7420    -4.1770    -0.0590 H     1 <1>   0.1500 
@<TRIPOS>BOND
  1   1   2  1   
  2   1   3  1   
  3   2   4  ar  
  4   2   5  ar  
  5   3   6  1   
  6   3  23  1   
  7   3  24  1   
  8   4   7  ar  
  9   4  25  1   
 10   5   8  ar  
 11   5  26  1   
 12   6   9  1   
 13   6  27  1   
 14   6  28  1   
 15   7  10  ar  
 16   7  29  1   
 17   8  10  ar  
 18   8  30  1   
 19   9  11  1   
 20   9  31  1   
 21   9  32  1   
 22  10  12  1   
 23  11  13  1   
 24  11  14  1   
 25  12  15  ar  
 26  12  16  ar  
 27  13  17  1   
 28  13  33  1   
 29  13  34  1   
 30  14  18  1   
 31  14  35  1   
 32  14  36  1   
 33  15  19  ar  
 34  15  37  1   
 35  16  20  ar  
 36  16  38  1   
 37  17  21  1   
 38  17  39  1   
 39  17  40  1   
 40  18  21  1   
 41  18  41  1   
 42  18  42  1   
 43  19  22  ar  
 44  19  43  1   
 45  20  22  ar  
 46  20  44  1   
 47  21  45  1   
 48  21  46  1   
 49  22  47  1   
@<TRIPOS>SUBSTRUCTURE
  1 ****   2 GROUP 4 **** **** 0

# MOE 2024.06 (io_trps.svl 2023.06)
