@<TRIPOS>MOLECULE
NONAME
50 52 1 0 0 
SMALL
USER_CHARGES


@<TRIPOS>ATOM
  1 O        0.4830     1.0570    -1.7050 O.2   1 <1>  -0.5700 
  2 C        0.9610     1.7390    -0.8160 C.2   1 <1>   0.5440 
  3 N        0.1060     2.3840     0.0540 N.am  1 <1>  -0.6600 
  4 C        2.4020     1.8570    -0.7130 C.ar  1 <1>   0.0860 
  5 C       -1.3490     2.0510     0.1290 C.3   1 <1>   0.1400 
  6 C        0.4610     3.6290     0.8010 C.3   1 <1>   0.1400 
  7 C        3.1880     2.0630    -1.8470 C.ar  1 <1>  -0.1500 
  8 C        3.0660     1.7580     0.5100 C.ar  1 <1>  -0.1500 
  9 C       -2.2040     3.2850    -0.1980 C.3   1 <1>   0.1200 
 10 C       -0.5090     4.7700     0.4480 C.3   1 <1>   0.1200 
 11 C        4.5620     2.1860    -1.7620 C.ar  1 <1>  -0.1500 
 12 C        4.4390     1.8810     0.5980 C.ar  1 <1>  -0.1500 
 13 O       -1.8390     4.3660     0.6140 O.3   1 <1>  -0.5600 
 14 C        5.2130     2.1040    -0.5370 C.ar  1 <1>   0.1170 
 15 N        6.6050     2.2240    -0.5010 N.am  1 <1>  -0.5470 
 16 C        7.4640     2.5820     0.5110 C.2   1 <1>   0.5440 
 17 O        7.0390     2.9600     1.5850 O.2   1 <1>  -0.5700 
 18 C        8.8870     2.5160     0.2500 C.ar  1 <1>   0.0860 
 19 C        9.5770     1.3010     0.3480 C.ar  1 <1>  -0.1430 
 20 C        9.6000     3.6580    -0.1340 C.ar  1 <1>  -0.1430 
 21 C       10.9270     1.2370     0.0510 C.ar  1 <1>  -0.1500 
 22 C        8.8580     0.0320     0.7910 C.3   1 <1>  -0.0970 
 23 C       10.9500     3.5750    -0.4250 C.ar  1 <1>  -0.1500 
 24 C        8.9030     5.0100    -0.2300 C.3   1 <1>  -0.0970 
 25 C       11.6200     2.3690    -0.3400 C.ar  1 <1>  -0.1430 
 26 C       13.1020     2.2890    -0.6610 C.3   1 <1>  -0.0970 
 27 H       -1.5820     1.7140     1.1240 H     1 <1>   0.0800 
 28 H       -1.5950     1.2560    -0.5520 H     1 <1>   0.0800 
 29 H        1.4630     3.9420     0.5670 H     1 <1>   0.0800 
 30 H        0.4080     3.4350     1.8580 H     1 <1>   0.0800 
 31 H        2.7010     2.1250    -2.8050 H     1 <1>   0.1500 
 32 H        2.4930     1.5760     1.4020 H     1 <1>   0.1500 
 33 H       -3.2430     3.0750    -0.0190 H     1 <1>   0.0800 
 34 H       -2.0800     3.5660    -1.2290 H     1 <1>   0.0800 
 35 H       -0.3690     5.0820    -0.5730 H     1 <1>   0.0800 
 36 H       -0.3400     5.6140     1.0920 H     1 <1>   0.0800 
 37 H        5.1340     2.3480    -2.6570 H     1 <1>   0.1500 
 38 H        4.9140     1.7960     1.5590 H     1 <1>   0.1500 
 39 H        7.0790     2.0400    -1.3840 H     1 <1>   0.3700 
 40 H       11.4510     0.3010     0.1270 H     1 <1>   0.1500 
 41 H        9.5530    -0.7770     0.9340 H     1 <1>   0.0800 
 42 H        8.3480     0.2030     1.7230 H     1 <1>   0.0800 
 43 H        8.1370    -0.2670     0.0510 H     1 <1>   0.0800 
 44 H       11.4920     4.4580    -0.7190 H     1 <1>   0.1500 
 45 H        8.1090     4.9710    -0.9540 H     1 <1>   0.0800 
 46 H        9.5910     5.7830    -0.5220 H     1 <1>   0.0800 
 47 H        8.4860     5.2750     0.7270 H     1 <1>   0.0800 
 48 H       13.3530     1.3170    -1.0470 H     1 <1>   0.0800 
 49 H       13.6760     2.4670     0.2300 H     1 <1>   0.0800 
 50 H       13.3680     3.0250    -1.3980 H     1 <1>   0.0800 
@<TRIPOS>BOND
  1   1   2  2   
  2   2   3  am  
  3   2   4  1   
  4   3   5  1   
  5   3   6  1   
  6   4   7  ar  
  7   4   8  ar  
  8   5   9  1   
  9   5  27  1   
 10   5  28  1   
 11   6  10  1   
 12   6  29  1   
 13   6  30  1   
 14   7  11  ar  
 15   7  31  1   
 16   8  12  ar  
 17   8  32  1   
 18   9  13  1   
 19   9  33  1   
 20   9  34  1   
 21  10  13  1   
 22  10  35  1   
 23  10  36  1   
 24  11  14  ar  
 25  11  37  1   
 26  12  14  ar  
 27  12  38  1   
 28  14  15  1   
 29  15  16  am  
 30  15  39  1   
 31  16  17  2   
 32  16  18  1   
 33  18  19  ar  
 34  18  20  ar  
 35  19  21  ar  
 36  19  22  1   
 37  20  23  ar  
 38  20  24  1   
 39  21  25  ar  
 40  21  40  1   
 41  22  41  1   
 42  22  42  1   
 43  22  43  1   
 44  23  25  ar  
 45  23  44  1   
 46  24  45  1   
 47  24  46  1   
 48  24  47  1   
 49  25  26  1   
 50  26  48  1   
 51  26  49  1   
 52  26  50  1   
@<TRIPOS>SUBSTRUCTURE
  1 ****  14 GROUP 4 **** **** 0

# MOE 2024.06 (io_trps.svl 2023.06)
