@<TRIPOS>MOLECULE
NONAME
30 30 1 0 0 
SMALL
USER_CHARGES


@<TRIPOS>ATOM
  1 O       -1.8870     3.1360     0.7070 O.2   1 <1>  -0.5700 
  2 C       -2.9010     2.5520     0.4380 C.2   1 <1>   0.4950 
  3 C       -4.0380     3.1210    -0.2400 C.2   1 <1>  -0.1240 
  4 C       -3.0310     1.0780     0.8180 C.3   1 <1>   0.4040 
  5 C       -5.1170     2.3820    -0.5610 C.2   1 <1>  -0.2880 
  6 C       -3.9720     4.6070    -0.5710 C.3   1 <1>  -0.1020 
  7 N       -3.9070     0.2710    -0.1340 N.4   1 <1>  -0.9590 
  8 C       -5.2630     0.8970    -0.2800 C.3   1 <1>   0.4810 
  9 C       -3.9290    -1.1900     0.1410 C.3   1 <1>   0.5030 
 10 C       -4.7360    -1.8960    -0.9540 C.3   1 <1>  -0.2400 
 11 C       -2.4960    -1.7270     0.0930 C.3   1 <1>  -0.2400 
 12 C       -4.5470    -1.4820     1.5120 C.3   1 <1>  -0.2400 
 13 H       -3.4330     1.0270     1.8150 H     1 <1>   0.0800 
 14 H       -2.0370     0.6700     0.8410 H     1 <1>   0.0800 
 15 H       -5.9850     2.7990    -1.0450 H     1 <1>   0.1500 
 16 H       -3.8520     5.1820     0.3310 H     1 <1>   0.0800 
 17 H       -4.8650     4.9390    -1.0700 H     1 <1>   0.0800 
 18 H       -3.1300     4.8070    -1.2110 H     1 <1>   0.0800 
 19 H       -3.4700     0.3670    -1.0580 H     1 <1>   0.4500 
 20 H       -5.7860     0.4370    -1.1030 H     1 <1>   0.0800 
 21 H       -5.8470     0.7540     0.6150 H     1 <1>   0.0800 
 22 H       -4.3620    -1.6490    -1.9320 H     1 <1>   0.0800 
 23 H       -5.7840    -1.6620    -0.8990 H     1 <1>   0.0800 
 24 H       -4.6540    -2.9630    -0.8360 H     1 <1>   0.0800 
 25 H       -2.5060    -2.8010     0.1620 H     1 <1>   0.0800 
 26 H       -1.9040    -1.3740     0.9180 H     1 <1>   0.0800 
 27 H       -2.0140    -1.4660    -0.8320 H     1 <1>   0.0800 
 28 H       -4.5500    -2.5450     1.6840 H     1 <1>   0.0800 
 29 H       -5.5670    -1.1500     1.5690 H     1 <1>   0.0800 
 30 H       -3.9810    -1.0350     2.3080 H     1 <1>   0.0800 
@<TRIPOS>BOND
  1   1   2  2   
  2   2   3  1   
  3   2   4  1   
  4   3   5  2   
  5   3   6  1   
  6   4   7  1   
  7   4  13  1   
  8   4  14  1   
  9   5   8  1   
 10   5  15  1   
 11   6  16  1   
 12   6  17  1   
 13   6  18  1   
 14   7   8  1   
 15   7   9  1   
 16   7  19  1   
 17   8  20  1   
 18   8  21  1   
 19   9  10  1   
 20   9  11  1   
 21   9  12  1   
 22  10  22  1   
 23  10  23  1   
 24  10  24  1   
 25  11  25  1   
 26  11  26  1   
 27  11  27  1   
 28  12  28  1   
 29  12  29  1   
 30  12  30  1   
@<TRIPOS>SUBSTRUCTURE
  1 ****   7 GROUP 4 **** **** 0

# MOE 2024.06 (io_trps.svl 2023.06)
