@<TRIPOS>MOLECULE
NONAME
25 25 1 0 0 
SMALL
USER_CHARGES


@<TRIPOS>ATOM
  1 F        7.6980    -3.0030     0.7600 F     1 <1>  -0.3400 
  2 C        7.3940    -3.4640    -0.4550 C.3   1 <1>   1.0810 
  3 F        7.6530    -2.4630    -1.2940 F     1 <1>  -0.3400 
  4 F        8.2900    -4.4140    -0.7130 F     1 <1>  -0.3400 
  5 C        5.9090    -3.9720    -0.5300 C.2   1 <1>   0.5690 
  6 O        5.4710    -4.4240    -1.5700 O.2   1 <1>  -0.5700 
  7 N        5.0770    -3.9140     0.5760 N.am  1 <1>  -0.7300 
  8 C        3.6650    -4.3450     0.6790 C.3   1 <1>   0.2200 
  9 C        3.5510    -5.8560     0.4230 C.3   1 <1>  -0.1600 
 10 C        2.7870    -3.5180    -0.2720 C.3   1 <1>  -0.1600 
 11 C        2.0960    -6.3090     0.3460 C.3   1 <1>   0.3430 
 12 C        1.3570    -4.0470    -0.3270 C.3   1 <1>   0.3430 
 13 N        1.3850    -5.4920    -0.6720 N.4   1 <1>  -0.9060 
 14 H        5.4700    -3.5280     1.4440 H     1 <1>   0.3700 
 15 H        3.3340    -4.1540     1.6870 H     1 <1>   0.0800 
 16 H        4.0400    -6.3880     1.2190 H     1 <1>   0.0800 
 17 H        4.0330    -6.1310    -0.4970 H     1 <1>   0.0800 
 18 H        3.1830    -3.5270    -1.2710 H     1 <1>   0.0800 
 19 H        2.7680    -2.4960     0.0620 H     1 <1>   0.0800 
 20 H        1.6240    -6.1890     1.3080 H     1 <1>   0.0800 
 21 H        2.0580    -7.3530     0.0770 H     1 <1>   0.0800 
 22 H        0.7980    -3.4980    -1.0690 H     1 <1>   0.0800 
 23 H        0.8780    -3.9070     0.6300 H     1 <1>   0.0800 
 24 H        0.4270    -5.8440    -0.8020 H     1 <1>   0.4500 
 25 H        1.8690    -5.6030    -1.5750 H     1 <1>   0.4500 
@<TRIPOS>BOND
  1   1   2  1   
  2   2   3  1   
  3   2   4  1   
  4   2   5  1   
  5   5   6  2   
  6   5   7  am  
  7   7   8  1   
  8   7  14  1   
  9   8   9  1   
 10   8  10  1   
 11   8  15  1   
 12   9  11  1   
 13   9  16  1   
 14   9  17  1   
 15  10  12  1   
 16  10  18  1   
 17  10  19  1   
 18  11  13  1   
 19  11  20  1   
 20  11  21  1   
 21  12  13  1   
 22  12  22  1   
 23  12  23  1   
 24  13  24  1   
 25  13  25  1   
@<TRIPOS>SUBSTRUCTURE
  1 ****   7 GROUP 4 **** **** 0

# MOE 2024.06 (io_trps.svl 2023.06)
