@<TRIPOS>MOLECULE
NONAME
43 44 1 0 0 
SMALL
USER_CHARGES


@<TRIPOS>ATOM
  1 O        0.5990     1.5290     1.5800 O.2   1 <1>  -0.5700 
  2 C        0.2220     2.0110     0.5410 C.2   1 <1>   0.5690 
  3 N        0.9680     1.9760    -0.5910 N.am  1 <1>  -0.7300 
  4 C       -1.1340     2.6790     0.4930 C.3   1 <1>  -0.0990 
  5 C        2.2880     1.3170    -0.7170 C.3   1 <1>   0.2200 
  6 C       -2.2510     1.6410     0.3430 C.3   1 <1>  -0.0160 
  7 C        3.4280     2.3570    -0.6140 C.3   1 <1>   0.2000 
  8 C        2.2920     0.5680    -2.0500 C.3   1 <1>  -0.2400 
  9 C       -3.6040     2.3280     0.2470 C.ar  1 <1>  -0.1440 
 10 O        4.6720     1.7490    -0.8150 O.3   1 <1>  -0.5600 
 11 C        3.5300     3.0520     0.7390 C.3   1 <1>  -0.1600 
 12 C       -4.2780     2.6990     1.4000 C.ar  1 <1>  -0.1500 
 13 C       -4.1750     2.5910    -0.9890 C.ar  1 <1>  -0.1500 
 14 C        5.6520     2.2700     0.0310 C.3   1 <1>   0.1200 
 15 C        5.0000     3.4010     0.8150 C.3   1 <1>  -0.1600 
 16 C       -5.5080     3.3270     1.3160 C.ar  1 <1>  -0.1500 
 17 C       -5.4060     3.2190    -1.0750 C.ar  1 <1>  -0.1500 
 18 C       -6.0820     3.5910     0.0840 C.ar  1 <1>   0.0820 
 19 O       -7.2910     4.2080     0.0900 O.3   1 <1>  -0.3620 
 20 C       -7.9710     4.5000    -1.1100 C.3   1 <1>   0.0400 
 21 H        0.6160     2.4020    -1.4460 H     1 <1>   0.3700 
 22 H       -1.1690     3.3740    -0.3260 H     1 <1>   0.0800 
 23 H       -1.2760     3.2310     1.4030 H     1 <1>   0.0800 
 24 H        2.4040     0.6070     0.0860 H     1 <1>   0.0800 
 25 H       -2.2410     0.9770     1.1910 H     1 <1>   0.0800 
 26 H       -2.0800     1.0460    -0.5370 H     1 <1>   0.0800 
 27 H        3.3210     3.0910    -1.3930 H     1 <1>   0.0800 
 28 H        2.2130     1.2530    -2.8740 H     1 <1>   0.0800 
 29 H        1.4820    -0.1380    -2.0820 H     1 <1>   0.0800 
 30 H        3.2140     0.0220    -2.1530 H     1 <1>   0.0800 
 31 H        3.2680     2.3630     1.5240 H     1 <1>   0.0800 
 32 H        2.8890     3.9140     0.7990 H     1 <1>   0.0800 
 33 H       -3.8490     2.5020     2.3660 H     1 <1>   0.1500 
 34 H       -3.6630     2.3080    -1.8910 H     1 <1>   0.1500 
 35 H        6.4840     2.6110    -0.5620 H     1 <1>   0.0800 
 36 H        5.9680     1.4780     0.6880 H     1 <1>   0.0800 
 37 H        5.3630     3.4520     1.8270 H     1 <1>   0.0800 
 38 H        5.1920     4.3360     0.3190 H     1 <1>   0.0800 
 39 H       -6.0330     3.6160     2.2090 H     1 <1>   0.1500 
 40 H       -5.8210     3.4080    -2.0460 H     1 <1>   0.1500 
 41 H       -8.9020     4.9760    -0.8580 H     1 <1>   0.0800 
 42 H       -8.1620     3.5810    -1.6350 H     1 <1>   0.0800 
 43 H       -7.3680     5.1660    -1.7000 H     1 <1>   0.0800 
@<TRIPOS>BOND
  1   1   2  2   
  2   2   3  am  
  3   2   4  1   
  4   3   5  1   
  5   3  21  1   
  6   4   6  1   
  7   4  22  1   
  8   4  23  1   
  9   5   7  1   
 10   5   8  1   
 11   5  24  1   
 12   6   9  1   
 13   6  25  1   
 14   6  26  1   
 15   7  10  1   
 16   7  11  1   
 17   7  27  1   
 18   8  28  1   
 19   8  29  1   
 20   8  30  1   
 21   9  12  ar  
 22   9  13  ar  
 23  10  14  1   
 24  11  15  1   
 25  11  31  1   
 26  11  32  1   
 27  12  16  ar  
 28  12  33  1   
 29  13  17  ar  
 30  13  34  1   
 31  14  15  1   
 32  14  35  1   
 33  14  36  1   
 34  15  37  1   
 35  15  38  1   
 36  16  18  ar  
 37  16  39  1   
 38  17  18  ar  
 39  17  40  1   
 40  18  19  1   
 41  19  20  1   
 42  20  41  1   
 43  20  42  1   
 44  20  43  1   
@<TRIPOS>SUBSTRUCTURE
  1 ****   4 GROUP 4 **** **** 0

# MOE 2024.06 (io_trps.svl 2023.06)
