@<TRIPOS>MOLECULE
NONAME
49 52 1 0 0 
SMALL
USER_CHARGES


@<TRIPOS>ATOM
  1 O        0.3270     0.0780    -0.0960 O.2   1 <1>  -0.5700 
  2 C        0.7050    -1.0730     0.0340 C.2   1 <1>   0.7150 
  3 N       -0.2070    -2.0930     0.0660 N.am  1 <1>  -0.5470 
  4 C        2.1080    -1.4060     0.1580 C.2   1 <1>   0.0550 
  5 C       -1.6060    -2.1900    -0.0190 C.ar  1 <1>   0.1170 
  6 O        3.0500    -0.4660     0.1360 O.3   1 <1>  -0.2800 
  7 C        2.7230    -2.6160     0.3090 C.2   1 <1>  -0.1500 
  8 C       -2.1350    -3.4860     0.0630 C.ar  1 <1>   0.1000 
  9 C       -2.4620    -1.1090    -0.1750 C.ar  1 <1>  -0.1500 
 10 C        4.2270    -1.0320     0.2660 C.2   1 <1>  -0.0100 
 11 C        4.0950    -2.3700     0.3790 C.2   1 <1>  -0.1500 
 12 N       -1.2680    -4.5870     0.2220 N.pl3 1 <1>  -0.8380 
 13 C       -3.5100    -3.6580    -0.0130 C.ar  1 <1>  -0.1500 
 14 C       -3.8300    -1.3030    -0.2490 C.ar  1 <1>  -0.1500 
 15 C       -1.2620    -5.5440    -0.9280 C.3   1 <1>   0.2090 
 16 C       -1.4260    -5.3210     1.5150 C.3   1 <1>   0.2090 
 17 C       -4.3680    -2.5810    -0.1690 C.ar  1 <1>   0.1000 
 18 C       -0.2360    -6.6690    -0.7020 C.3   1 <1>   0.1200 
 19 C       -0.3920    -6.4560     1.6330 C.3   1 <1>   0.1200 
 20 N       -5.7420    -2.8090    -0.2400 N.pl3 1 <1>  -0.8380 
 21 O       -0.4550    -7.3110     0.5240 O.3   1 <1>  -0.5600 
 22 C       -6.3780    -2.4860    -1.5510 C.3   1 <1>   0.2090 
 23 C       -6.5420    -2.2630     0.8960 C.3   1 <1>   0.2090 
 24 C       -7.8650    -2.8860    -1.5540 C.3   1 <1>   0.1200 
 25 C       -8.0210    -2.6740     0.7740 C.3   1 <1>   0.1200 
 26 O       -8.5440    -2.3060    -0.4730 O.3   1 <1>  -0.5600 
 27 H        0.1760    -3.0340     0.1770 H     1 <1>   0.3700 
 28 H        2.2710    -3.5900     0.3680 H     1 <1>   0.1500 
 29 H       -2.0700    -0.1110    -0.2400 H     1 <1>   0.1500 
 30 H        5.1070    -0.4120     0.2690 H     1 <1>   0.1500 
 31 H        4.8660    -3.1110     0.4980 H     1 <1>   0.1500 
 32 H       -3.9360    -4.6400     0.0480 H     1 <1>   0.1500 
 33 H       -4.4830    -0.4590    -0.3700 H     1 <1>   0.1500 
 34 H       -1.0210    -5.0120    -1.8320 H     1 <1>   0.0800 
 35 H       -2.2400    -5.9790    -1.0470 H     1 <1>   0.0800 
 36 H       -2.4150    -5.7390     1.5810 H     1 <1>   0.0800 
 37 H       -1.2990    -4.6320     2.3320 H     1 <1>   0.0800 
 38 H        0.7640    -6.2710    -0.7070 H     1 <1>   0.0800 
 39 H       -0.3190    -7.4070    -1.4780 H     1 <1>   0.0800 
 40 H       -0.5850    -7.0430     2.5120 H     1 <1>   0.0800 
 41 H        0.6030    -6.0510     1.6980 H     1 <1>   0.0800 
 42 H       -5.8630    -3.0150    -2.3340 H     1 <1>   0.0800 
 43 H       -6.2960    -1.4320    -1.7480 H     1 <1>   0.0800 
 44 H       -6.4740    -1.1900     0.9090 H     1 <1>   0.0800 
 45 H       -6.1410    -2.6370     1.8220 H     1 <1>   0.0800 
 46 H       -7.9620    -3.9560    -1.4870 H     1 <1>   0.0800 
 47 H       -8.3380    -2.5500    -2.4590 H     1 <1>   0.0800 
 48 H       -8.6050    -2.1870     1.5330 H     1 <1>   0.0800 
 49 H       -8.1210    -3.7400     0.8890 H     1 <1>   0.0800 
@<TRIPOS>BOND
  1   1   2  2   
  2   2   3  am  
  3   2   4  1   
  4   3   5  1   
  5   3  27  1   
  6   4   6  1   
  7   4   7  2   
  8   5   8  ar  
  9   5   9  ar  
 10   6  10  1   
 11   7  11  1   
 12   7  28  1   
 13   8  12  1   
 14   8  13  ar  
 15   9  14  ar  
 16   9  29  1   
 17  10  11  2   
 18  10  30  1   
 19  11  31  1   
 20  12  15  1   
 21  12  16  1   
 22  13  17  ar  
 23  13  32  1   
 24  14  17  ar  
 25  14  33  1   
 26  15  18  1   
 27  15  34  1   
 28  15  35  1   
 29  16  19  1   
 30  16  36  1   
 31  16  37  1   
 32  17  20  1   
 33  18  21  1   
 34  18  38  1   
 35  18  39  1   
 36  19  21  1   
 37  19  40  1   
 38  19  41  1   
 39  20  22  1   
 40  20  23  1   
 41  22  24  1   
 42  22  42  1   
 43  22  43  1   
 44  23  25  1   
 45  23  44  1   
 46  23  45  1   
 47  24  26  1   
 48  24  46  1   
 49  24  47  1   
 50  25  26  1   
 51  25  48  1   
 52  25  49  1   
@<TRIPOS>SUBSTRUCTURE
  1 ****   8 GROUP 4 **** **** 0

# MOE 2024.06 (io_trps.svl 2023.06)
