@<TRIPOS>MOLECULE
NONAME
39 41 1 0 0 
SMALL
USER_CHARGES


@<TRIPOS>ATOM
  1 F        0.4850     0.8380     0.9210 F     1 <1>  -0.1900 
  2 C        1.6650     1.3020     0.6160 C.ar  1 <1>   0.1900 
  3 C        2.7110     0.4290     0.4670 C.ar  1 <1>  -0.1500 
  4 C        1.8070     2.6750     0.4550 C.ar  1 <1>  -0.1500 
  5 C        3.9880     0.9170     0.1380 C.ar  1 <1>   0.0000 
  6 C        3.0500     3.1710     0.1350 C.ar  1 <1>  -0.1500 
  7 C        4.1440     2.3090    -0.0260 C.ar  1 <1>   0.3610 
  8 C        5.1400     0.0920    -0.0430 C.ar  1 <1>  -0.1440 
  9 N        5.3960     2.8040    -0.3410 N.ar  1 <1>  -0.1790 
 10 C        6.3370     0.6630    -0.3530 C.ar  1 <1>  -0.1500 
 11 C        5.0260    -1.4210     0.1020 C.3   1 <1>  -0.0970 
 12 C        6.4970     2.0670    -0.5000 C.ar  1 <1>   0.4610 
 13 N        7.6710     2.6810    -0.7770 N.pl3 1 <1>  -0.8380 
 14 C        7.7840     4.0950    -1.2630 C.3   1 <1>   0.2090 
 15 C        8.9890     1.9620    -0.6820 C.3   1 <1>   0.2090 
 16 C        7.8790     5.0600    -0.0750 C.3   1 <1>  -0.1600 
 17 C       10.1460     2.8180    -0.1460 C.3   1 <1>  -0.1600 
 18 C        9.2580     5.0950     0.6000 C.3   1 <1>  -0.1600 
 19 C        9.7860     3.7240     1.0440 C.3   1 <1>  -0.1600 
 20 H        2.5350    -0.6230     0.6040 H     1 <1>   0.1500 
 21 H        0.9490     3.3130     0.5850 H     1 <1>   0.1500 
 22 H        3.1720     4.2330     0.0080 H     1 <1>   0.1500 
 23 H        5.5230     3.8070    -0.4130 H     1 <1>   0.4570 
 24 H        7.1940     0.0370    -0.5090 H     1 <1>   0.1500 
 25 H        4.6980    -1.6780     1.0950 H     1 <1>   0.0800 
 26 H        5.9730    -1.9020    -0.0690 H     1 <1>   0.0800 
 27 H        4.3210    -1.8130    -0.6100 H     1 <1>   0.0800 
 28 H        6.9260     4.3430    -1.8630 H     1 <1>   0.0800 
 29 H        8.6440     4.2070    -1.9050 H     1 <1>   0.0800 
 30 H        9.2550     1.5750    -1.6520 H     1 <1>   0.0800 
 31 H        8.8950     1.1290    -0.0090 H     1 <1>   0.0800 
 32 H        7.1340     4.8210     0.6620 H     1 <1>   0.0800 
 33 H        7.6700     6.0540    -0.4310 H     1 <1>   0.0800 
 34 H       10.5730     3.4010    -0.9430 H     1 <1>   0.0800 
 35 H       10.9190     2.1390     0.1700 H     1 <1>   0.0800 
 36 H        9.1960     5.7330     1.4650 H     1 <1>   0.0800 
 37 H        9.9710     5.5470    -0.0690 H     1 <1>   0.0800 
 38 H       10.6820     3.8920     1.6190 H     1 <1>   0.0800 
 39 H        9.0790     3.2350     1.6930 H     1 <1>   0.0800 
@<TRIPOS>BOND
  1   1   2  1   
  2   2   3  ar  
  3   2   4  ar  
  4   3   5  ar  
  5   3  20  1   
  6   4   6  ar  
  7   4  21  1   
  8   5   7  ar  
  9   5   8  ar  
 10   6   7  ar  
 11   6  22  1   
 12   7   9  ar  
 13   8  10  ar  
 14   8  11  1   
 15   9  12  ar  
 16   9  23  1   
 17  10  12  ar  
 18  10  24  1   
 19  11  25  1   
 20  11  26  1   
 21  11  27  1   
 22  12  13  1   
 23  13  14  1   
 24  13  15  1   
 25  14  16  1   
 26  14  28  1   
 27  14  29  1   
 28  15  17  1   
 29  15  30  1   
 30  15  31  1   
 31  16  18  1   
 32  16  32  1   
 33  16  33  1   
 34  17  19  1   
 35  17  34  1   
 36  17  35  1   
 37  18  19  1   
 38  18  36  1   
 39  18  37  1   
 40  19  38  1   
 41  19  39  1   
@<TRIPOS>SUBSTRUCTURE
  1 ****   9 GROUP 4 **** **** 0

# MOE 2024.06 (io_trps.svl 2023.06)
