@<TRIPOS>MOLECULE
NONAME
43 44 1 0 0 
SMALL
USER_CHARGES


@<TRIPOS>ATOM
  1 BR       4.3060    -2.1530    -3.0310 Br    1 <1>  -0.1110 
  2 C        4.1460    -0.5720    -1.9460 C.ar  1 <1>   0.1110 
  3 C        4.8910    -0.4850    -0.7890 C.ar  1 <1>  -0.1500 
  4 C        3.2920     0.4320    -2.3610 C.ar  1 <1>  -0.1500 
  5 C        4.7850     0.6530     0.0050 C.ar  1 <1>   0.1990 
  6 C        3.1880     1.5680    -1.5770 C.ar  1 <1>  -0.1500 
  7 N        5.5090     0.7980     1.1900 N.am  1 <1>  -0.6930 
  8 C        3.9280     1.6710    -0.4110 C.ar  1 <1>  -0.1500 
  9 S        5.6580    -0.4460     2.3810 S.o2  1 <1>   1.3330 
 10 C        6.4530     1.9550     1.3530 C.3   1 <1>   0.2570 
 11 O        6.1640     0.1910     3.5720 O.2   1 <1>  -0.6500 
 12 O        6.3810    -1.5370     1.7750 O.2   1 <1>  -0.6500 
 13 C        3.9640    -0.9080     2.6720 C.3   1 <1>  -0.1350 
 14 C        6.9740     2.5730     0.0480 C.2   1 <1>   0.5690 
 15 O        6.5240     3.6560    -0.2560 O.2   1 <1>  -0.5700 
 16 N        7.9140     1.9350    -0.7340 N.am  1 <1>  -0.6600 
 17 C        8.3860     2.5770    -1.9960 C.3   1 <1>   0.1400 
 18 C        8.4410     0.5730    -0.4370 C.3   1 <1>   0.1400 
 19 C        9.8650     2.3180    -2.3210 C.3   1 <1>  -0.1600 
 20 C        9.7060     0.6730     0.4200 C.3   1 <1>  -0.1600 
 21 C       10.8170     2.4300    -1.1180 C.3   1 <1>  -0.1600 
 22 C       10.9620     1.1060    -0.3520 C.3   1 <1>  -0.1600 
 23 H        5.5490    -1.2910    -0.5250 H     1 <1>   0.1500 
 24 H        2.7290     0.3270    -3.2710 H     1 <1>   0.1500 
 25 H        2.5370     2.3730    -1.8760 H     1 <1>   0.1500 
 26 H        3.8470     2.5620     0.1870 H     1 <1>   0.1500 
 27 H        7.3070     1.6470     1.9270 H     1 <1>   0.0800 
 28 H        5.9530     2.7230     1.9160 H     1 <1>   0.0800 
 29 H        3.5230    -1.2950     1.7750 H     1 <1>   0.0800 
 30 H        3.4000    -0.0570     2.9970 H     1 <1>   0.0800 
 31 H        3.9150    -1.6640     3.4310 H     1 <1>   0.0800 
 32 H        8.2480     3.6430    -1.9190 H     1 <1>   0.0800 
 33 H        7.7730     2.2320    -2.8100 H     1 <1>   0.0800 
 34 H        8.6460     0.0460    -1.3530 H     1 <1>   0.0800 
 35 H        7.7040    -0.0020     0.0910 H     1 <1>   0.0800 
 36 H       10.1570     3.0480    -3.0550 H     1 <1>   0.0800 
 37 H        9.9700     1.3570    -2.7920 H     1 <1>   0.0800 
 38 H        9.8970    -0.2980     0.8450 H     1 <1>   0.0800 
 39 H        9.5340     1.3480     1.2390 H     1 <1>   0.0800 
 40 H       10.4910     3.2150    -0.4550 H     1 <1>   0.0800 
 41 H       11.7910     2.7040    -1.4860 H     1 <1>   0.0800 
 42 H       11.2410     0.3280    -1.0410 H     1 <1>   0.0800 
 43 H       11.7690     1.2070     0.3530 H     1 <1>   0.0800 
@<TRIPOS>BOND
  1   1   2  1   
  2   2   3  ar  
  3   2   4  ar  
  4   3   5  ar  
  5   3  23  1   
  6   4   6  ar  
  7   4  24  1   
  8   5   7  1   
  9   5   8  ar  
 10   6   8  ar  
 11   6  25  1   
 12   7   9  am  
 13   7  10  1   
 14   8  26  1   
 15   9  11  2   
 16   9  12  2   
 17   9  13  1   
 18  10  14  1   
 19  10  27  1   
 20  10  28  1   
 21  13  29  1   
 22  13  30  1   
 23  13  31  1   
 24  14  15  2   
 25  14  16  am  
 26  16  17  1   
 27  16  18  1   
 28  17  19  1   
 29  17  32  1   
 30  17  33  1   
 31  18  20  1   
 32  18  34  1   
 33  18  35  1   
 34  19  21  1   
 35  19  36  1   
 36  19  37  1   
 37  20  22  1   
 38  20  38  1   
 39  20  39  1   
 40  21  22  1   
 41  21  40  1   
 42  21  41  1   
 43  22  42  1   
 44  22  43  1   
@<TRIPOS>SUBSTRUCTURE
  1 ****   7 GROUP 4 **** **** 0

# MOE 2024.06 (io_trps.svl 2023.06)
