@<TRIPOS>MOLECULE
NONAME
28 27 1 0 0 
SMALL
USER_CHARGES


@<TRIPOS>ATOM
  1 F       -0.6230     0.5970     0.9840 F     1 <1>  -0.3400 
  2 C        0.6910     0.7140     0.8420 C.3   1 <1>   1.0200 
  3 F        1.1750     0.9870     2.0450 F     1 <1>  -0.3400 
  4 F        1.1230    -0.5080     0.5540 F     1 <1>  -0.3400 
  5 C        1.1080     1.7020    -0.2610 C.3   1 <1>   0.2200 
  6 N        2.6190     1.7720    -0.5390 N.am  1 <1>  -0.7300 
  7 C        0.3590     3.0310    -0.0210 C.3   1 <1>   1.0200 
  8 C        3.5220     2.4490     0.1980 C.2   1 <1>   0.7800 
  9 F        0.8580     4.0170    -0.7580 F     1 <1>  -0.3400 
 10 F       -0.9150     2.9430    -0.3840 F     1 <1>  -0.3400 
 11 F        0.3490     3.4740     1.2280 F     1 <1>  -0.3400 
 12 O        3.2050     3.1000     1.1670 O.2   1 <1>  -0.5700 
 13 O        4.7820     2.3550    -0.2070 O.3   1 <1>  -0.4300 
 14 C        5.8430     3.0390     0.4380 C.3   1 <1>   0.1200 
 15 C        6.2610     4.2670    -0.3900 C.3   1 <1>  -0.0800 
 16 C        7.4710     4.9480     0.2640 C.3   1 <1>  -0.2400 
 17 C        5.1210     5.2860    -0.5410 C.3   1 <1>  -0.2400 
 18 H        0.6750     1.3130    -1.1620 H     1 <1>   0.0800 
 19 H        3.0000     1.1910    -1.2870 H     1 <1>   0.3700 
 20 H        6.6650     2.3500     0.5120 H     1 <1>   0.0800 
 21 H        5.5490     3.3240     1.4340 H     1 <1>   0.0800 
 22 H        6.5580     3.9290    -1.3680 H     1 <1>   0.0800 
 23 H        7.2190     5.3050     1.2470 H     1 <1>   0.0800 
 24 H        7.7960     5.7830    -0.3310 H     1 <1>   0.0800 
 25 H        8.2910     4.2560     0.3480 H     1 <1>   0.0800 
 26 H        4.7600     5.5960     0.4240 H     1 <1>   0.0800 
 27 H        4.3010     4.8590    -1.0900 H     1 <1>   0.0800 
 28 H        5.4610     6.1540    -1.0770 H     1 <1>   0.0800 
@<TRIPOS>BOND
  1   1   2  1   
  2   2   3  1   
  3   2   4  1   
  4   2   5  1   
  5   5   6  1   
  6   5   7  1   
  7   5  18  1   
  8   6   8  am  
  9   6  19  1   
 10   7   9  1   
 11   7  10  1   
 12   7  11  1   
 13   8  12  2   
 14   8  13  1   
 15  13  14  1   
 16  14  15  1   
 17  14  20  1   
 18  14  21  1   
 19  15  16  1   
 20  15  17  1   
 21  15  22  1   
 22  16  23  1   
 23  16  24  1   
 24  16  25  1   
 25  17  26  1   
 26  17  27  1   
 27  17  28  1   
@<TRIPOS>SUBSTRUCTURE
  1 ****   8 GROUP 4 **** **** 0

# MOE 2024.06 (io_trps.svl 2023.06)
