@<TRIPOS>MOLECULE
NONAME
53 55 1 0 0 
SMALL
USER_CHARGES


@<TRIPOS>ATOM
  1 S        4.8470    -0.7950    -0.9940 S.o2  1 <1>   1.4470 
  2 O        4.7640    -2.0070    -0.2090 O.2   1 <1>  -0.6500 
  3 O        4.5820    -0.8220    -2.4150 O.2   1 <1>  -0.6500 
  4 N        3.6070     0.2020    -0.4590 N.am  1 <1>  -0.9140 
  5 C        6.3550     0.1280    -0.5880 C.ar  1 <1>  -0.0090 
  6 C        2.3740    -0.5310    -0.1900 C.3   1 <1>   0.1960 
  7 C        7.5590    -0.2000    -1.2020 C.ar  1 <1>   0.0830 
  8 C        6.3550     1.1530     0.3530 C.ar  1 <1>  -0.1500 
  9 C        1.2520     0.4460     0.1560 C.3   1 <1>   0.0210 
 10 O        7.5470    -1.2220    -2.0930 O.3   1 <1>  -0.3630 
 11 C        8.7190     0.5050    -0.8940 C.ar  1 <1>  -0.1500 
 12 C        7.5040     1.8620     0.6710 C.ar  1 <1>  -0.1430 
 13 C       -0.0450    -0.3100     0.3800 C.2   1 <1>  -0.1810 
 14 C        8.7070    -1.6440    -2.7770 C.3   1 <1>   0.0400 
 15 C        8.6880     1.5280     0.0340 C.ar  1 <1>  -0.1500 
 16 C        7.4480     2.9820     1.7080 C.3   1 <1>   0.0630 
 17 C       -0.8360    -0.8190    -0.6760 C.ar  1 <1>   0.0000 
 18 C       -0.6560    -0.6310     1.5480 C.2   1 <1>  -0.3320 
 19 C        7.8380     4.3260     1.0840 C.3   1 <1>  -0.2400 
 20 C        8.3430     2.6590     2.9080 C.3   1 <1>  -0.2400 
 21 C       -1.9270    -1.4430    -0.0830 C.ar  1 <1>  -0.1520 
 22 C       -0.7260    -0.8100    -2.0720 C.ar  1 <1>  -0.1500 
 23 N       -1.8060    -1.3190     1.2760 N.pl3 1 <1>   0.0330 
 24 C       -0.2390    -0.3460     2.9800 C.3   1 <1>  -0.0600 
 25 C       -2.9140    -2.0600    -0.8560 C.ar  1 <1>  -0.1500 
 26 C       -1.6970    -1.4180    -2.8340 C.ar  1 <1>  -0.1500 
 27 C       -2.7930    -2.0430    -2.2260 C.ar  1 <1>  -0.1500 
 28 H        3.4310     0.7720    -1.2840 H     1 <1>   0.4200 
 29 H        2.5200    -1.2050     0.6380 H     1 <1>   0.0800 
 30 H        2.0960    -1.1150    -1.0540 H     1 <1>   0.0800 
 31 H        5.4350     1.4020     0.8540 H     1 <1>   0.1500 
 32 H        1.1110     1.1470    -0.6460 H     1 <1>   0.0800 
 33 H        1.5160     0.9920     1.0410 H     1 <1>   0.0800 
 34 H        9.6570     0.2730    -1.3620 H     1 <1>   0.1500 
 35 H        8.4340    -2.4630    -3.4190 H     1 <1>   0.0800 
 36 H        9.4370    -1.9720    -2.0580 H     1 <1>   0.0800 
 37 H        9.0820    -0.8270    -3.3670 H     1 <1>   0.0800 
 38 H        9.5930     2.0620     0.2600 H     1 <1>   0.1500 
 39 H        6.4370     3.0710     2.0690 H     1 <1>   0.0800 
 40 H        8.8600     4.3120     0.7510 H     1 <1>   0.0800 
 41 H        7.7220     5.1170     1.8020 H     1 <1>   0.0800 
 42 H        7.2060     4.5340     0.2390 H     1 <1>   0.0800 
 43 H        9.3760     2.6070     2.6150 H     1 <1>   0.0800 
 44 H        8.0600     1.7110     3.3300 H     1 <1>   0.0800 
 45 H        8.2390     3.4150     3.6650 H     1 <1>   0.0800 
 46 H        0.1160    -0.3290    -2.5320 H     1 <1>   0.1500 
 47 H       -2.4700    -1.6900     1.9610 H     1 <1>   0.2700 
 48 H        0.7130     0.1510     3.0140 H     1 <1>   0.0800 
 49 H       -0.1570    -1.2670     3.5300 H     1 <1>   0.0800 
 50 H       -0.9700     0.2820     3.4580 H     1 <1>   0.0800 
 51 H       -3.7510    -2.5380    -0.3790 H     1 <1>   0.1500 
 52 H       -1.6240    -1.4180    -3.9070 H     1 <1>   0.1500 
 53 H       -3.5380    -2.5110    -2.8440 H     1 <1>   0.1500 
@<TRIPOS>BOND
  1   1   2  2   
  2   1   3  2   
  3   1   4  am  
  4   1   5  1   
  5   4   6  1   
  6   4  28  1   
  7   5   7  ar  
  8   5   8  ar  
  9   6   9  1   
 10   6  29  1   
 11   6  30  1   
 12   7  10  1   
 13   7  11  ar  
 14   8  12  ar  
 15   8  31  1   
 16   9  13  1   
 17   9  32  1   
 18   9  33  1   
 19  10  14  1   
 20  11  15  ar  
 21  11  34  1   
 22  12  15  ar  
 23  12  16  1   
 24  13  17  1   
 25  13  18  2   
 26  14  35  1   
 27  14  36  1   
 28  14  37  1   
 29  15  38  1   
 30  16  19  1   
 31  16  20  1   
 32  16  39  1   
 33  17  21  ar  
 34  17  22  ar  
 35  18  23  1   
 36  18  24  1   
 37  19  40  1   
 38  19  41  1   
 39  19  42  1   
 40  20  43  1   
 41  20  44  1   
 42  20  45  1   
 43  21  23  1   
 44  21  25  ar  
 45  22  26  ar  
 46  22  46  1   
 47  23  47  1   
 48  24  48  1   
 49  24  49  1   
 50  24  50  1   
 51  25  27  ar  
 52  25  51  1   
 53  26  27  ar  
 54  26  52  1   
 55  27  53  1   
@<TRIPOS>SUBSTRUCTURE
  1 ****   4 GROUP 4 **** **** 0

# MOE 2024.06 (io_trps.svl 2023.06)
