@<TRIPOS>MOLECULE
NONAME
35 35 1 0 0 
SMALL
USER_CHARGES


@<TRIPOS>ATOM
  1 O       -0.7580    -0.9510     1.4110 O.2   1 <1>  -0.5700 
  2 C       -1.5850    -0.8010     0.5550 C.2   1 <1>   0.6590 
  3 O       -2.7910    -1.3260     0.7010 O.3   1 <1>  -0.4300 
  4 C       -1.2340    -0.0300    -0.7020 C.3   1 <1>  -0.1790 
  5 C       -3.8700    -1.0940    -0.1610 C.3   1 <1>   0.4800 
  6 O       -4.2660     0.2250     0.0790 O.3   1 <1>  -0.5600 
  7 C       -5.0050    -2.1040     0.1360 C.3   1 <1>   0.2000 
  8 C       -5.3720     0.6570    -0.6520 C.3   1 <1>   0.1200 
  9 O       -4.6530    -3.3480    -0.3960 O.3   1 <1>  -0.6800 
 10 C       -6.3530    -1.6470    -0.4600 C.3   1 <1>   0.2000 
 11 C       -6.5940    -0.1500    -0.2150 C.3   1 <1>   0.2000 
 12 O       -7.4410    -2.3700     0.1050 O.3   1 <1>  -0.4300 
 13 O       -7.7020     0.2840    -0.9780 O.3   1 <1>  -0.4300 
 14 C       -7.7830    -3.5910    -0.2750 C.2   1 <1>   0.6590 
 15 C       -8.9730     0.1600    -0.6130 C.2   1 <1>   0.6590 
 16 O       -7.1180    -4.2260    -1.0480 O.2   1 <1>  -0.5700 
 17 C       -9.0570    -4.1320     0.3160 C.3   1 <1>  -0.1790 
 18 O       -9.8230     0.0030    -1.4420 O.2   1 <1>  -0.5700 
 19 C       -9.3410     0.2640     0.8510 C.3   1 <1>  -0.1790 
 20 H       -1.3680    -0.6510    -1.5660 H     1 <1>   0.0800 
 21 H       -0.2040     0.2730    -0.6540 H     1 <1>   0.0800 
 22 H       -1.8440     0.8500    -0.7790 H     1 <1>   0.0800 
 23 H       -3.5480    -1.1860    -1.1840 H     1 <1>   0.0800 
 24 H       -5.0990    -2.2100     1.2030 H     1 <1>   0.0800 
 25 H       -5.1690     0.5310    -1.7020 H     1 <1>   0.0800 
 26 H       -5.5180     1.7010    -0.4350 H     1 <1>   0.0800 
 27 H       -5.4630    -3.8870    -0.5940 H     1 <1>   0.4000 
 28 H       -6.3440    -1.8150    -1.5250 H     1 <1>   0.0800 
 29 H       -6.7720     0.0450     0.8280 H     1 <1>   0.0800 
 30 H       -9.8790    -3.5000     0.0360 H     1 <1>   0.0800 
 31 H       -8.9750    -4.1610     1.3860 H     1 <1>   0.0800 
 32 H       -9.2360    -5.1250    -0.0520 H     1 <1>   0.0800 
 33 H       -8.8940     1.1410     1.2800 H     1 <1>   0.0800 
 34 H       -9.0150    -0.6100     1.3820 H     1 <1>   0.0800 
 35 H      -10.4090     0.3420     0.9440 H     1 <1>   0.0800 
@<TRIPOS>BOND
  1   1   2  2   
  2   2   3  1   
  3   2   4  1   
  4   3   5  1   
  5   4  20  1   
  6   4  21  1   
  7   4  22  1   
  8   5   6  1   
  9   5   7  1   
 10   5  23  1   
 11   6   8  1   
 12   7   9  1   
 13   7  10  1   
 14   7  24  1   
 15   8  11  1   
 16   8  25  1   
 17   8  26  1   
 18   9  27  1   
 19  10  11  1   
 20  10  12  1   
 21  10  28  1   
 22  11  13  1   
 23  11  29  1   
 24  12  14  1   
 25  13  15  1   
 26  14  16  2   
 27  14  17  1   
 28  15  18  2   
 29  15  19  1   
 30  17  30  1   
 31  17  31  1   
 32  17  32  1   
 33  19  33  1   
 34  19  34  1   
 35  19  35  1   
@<TRIPOS>SUBSTRUCTURE
  1 ****  10 GROUP 4 **** **** 0

# MOE 2024.06 (io_trps.svl 2023.06)
