@<TRIPOS>MOLECULE
NONAME
39 39 1 0 0 
SMALL
USER_CHARGES


@<TRIPOS>ATOM
  1 CL       0.9260     0.4960    -2.6920 Cl    1 <1>  -0.1770 
  2 C        0.5390     1.8760    -1.6980 C.ar  1 <1>   0.1770 
  3 C        1.4630     2.3240    -0.7760 C.ar  1 <1>  -0.1500 
  4 C       -0.6920     2.4840    -1.8520 C.ar  1 <1>  -0.1500 
  5 C        1.1550     3.4230     0.0190 C.ar  1 <1>   0.0820 
  6 C       -1.0110     3.5850    -1.0690 C.ar  1 <1>  -0.1440 
  7 O        2.0010     3.8840     0.9820 O.3   1 <1>  -0.3620 
  8 C       -0.0790     4.0670    -0.1540 C.ar  1 <1>   0.0820 
  9 C       -2.3630     4.2540    -1.2060 C.3   1 <1>   0.4870 
 10 C        3.2470     3.2700     1.2370 C.3   1 <1>   0.0400 
 11 O       -0.4320     5.1540     0.5880 O.3   1 <1>  -0.3630 
 12 N       -3.0070     4.2090     0.1220 N.4   1 <1>  -0.9060 
 13 C        0.3390     6.3350     0.4710 C.3   1 <1>   0.2000 
 14 C       -4.2690     4.9930     0.1990 C.3   1 <1>   0.3430 
 15 C        0.2580     7.0640     1.8090 C.3   1 <1>  -0.2400 
 16 C       -0.2390     7.1770    -0.6650 C.3   1 <1>  -0.2400 
 17 C       -4.8350     5.0130     1.6230 C.3   1 <1>   0.1200 
 18 O       -6.0080     5.7450     1.5940 O.3   1 <1>  -0.6800 
 19 H        2.3970     1.8010    -0.6980 H     1 <1>   0.1500 
 20 H       -1.3760     2.0850    -2.5810 H     1 <1>   0.1500 
 21 H       -2.9660     3.7430    -1.9380 H     1 <1>   0.0800 
 22 H       -2.2240     5.2770    -1.5180 H     1 <1>   0.0800 
 23 H        3.7250     3.8030     2.0390 H     1 <1>   0.0800 
 24 H        3.8550     3.3260     0.3510 H     1 <1>   0.0800 
 25 H        3.0830     2.2480     1.5290 H     1 <1>   0.0800 
 26 H       -2.2920     4.5970     0.7640 H     1 <1>   0.4500 
 27 H       -3.1400     3.2300     0.3960 H     1 <1>   0.4500 
 28 H        1.3640     6.0830     0.2570 H     1 <1>   0.0800 
 29 H       -5.0060     4.5640    -0.4600 H     1 <1>   0.0800 
 30 H       -4.0840     6.0100    -0.1090 H     1 <1>   0.0800 
 31 H       -0.7580     7.3220     2.0460 H     1 <1>   0.0800 
 32 H        0.8400     7.9670     1.7680 H     1 <1>   0.0800 
 33 H        0.6620     6.4410     2.5870 H     1 <1>   0.0800 
 34 H       -1.2670     7.4260    -0.4730 H     1 <1>   0.0800 
 35 H       -0.1540     6.6520    -1.5990 H     1 <1>   0.0800 
 36 H        0.3190     8.0930    -0.7520 H     1 <1>   0.0800 
 37 H       -4.1560     5.4970     2.3060 H     1 <1>   0.0800 
 38 H       -5.0710     4.0200     1.9650 H     1 <1>   0.0800 
 39 H       -6.4220     5.8060     2.4820 H     1 <1>   0.4000 
@<TRIPOS>BOND
  1   1   2  1   
  2   2   3  ar  
  3   2   4  ar  
  4   3   5  ar  
  5   3  19  1   
  6   4   6  ar  
  7   4  20  1   
  8   5   7  1   
  9   5   8  ar  
 10   6   8  ar  
 11   6   9  1   
 12   7  10  1   
 13   8  11  1   
 14   9  12  1   
 15   9  21  1   
 16   9  22  1   
 17  10  23  1   
 18  10  24  1   
 19  10  25  1   
 20  11  13  1   
 21  12  14  1   
 22  12  26  1   
 23  12  27  1   
 24  13  15  1   
 25  13  16  1   
 26  13  28  1   
 27  14  17  1   
 28  14  29  1   
 29  14  30  1   
 30  15  31  1   
 31  15  32  1   
 32  15  33  1   
 33  16  34  1   
 34  16  35  1   
 35  16  36  1   
 36  17  18  1   
 37  17  37  1   
 38  17  38  1   
 39  18  39  1   
@<TRIPOS>SUBSTRUCTURE
  1 ****   8 GROUP 4 **** **** 0

# MOE 2024.06 (io_trps.svl 2023.06)
