@<TRIPOS>MOLECULE
NONAME
30 31 1 0 0 
SMALL
USER_CHARGES


@<TRIPOS>ATOM
  1 O        0.5480     0.2430    -0.5590 O.2   1 <1>  -0.5700 
  2 C        1.5630     0.8890    -0.5240 C.2   1 <1>   0.4950 
  3 C        2.7540     0.5310     0.2180 C.2   1 <1>  -0.1240 
  4 C        1.6340     2.1560    -1.3480 C.3   1 <1>  -0.0990 
  5 C        3.7870     1.3910     0.4020 C.2   1 <1>  -0.2760 
  6 C        2.7520    -0.9170     0.7190 C.3   1 <1>  -0.1020 
  7 C        2.3040     3.2620    -0.5300 C.3   1 <1>  -0.1600 
  8 C        3.7240     2.8780    -0.0290 C.3   1 <1>   0.1990 
  9 C        5.1670     1.0060     0.9530 C.3   1 <1>  -0.0220 
 10 C        4.8060     3.0920    -1.1080 C.2   1 <1>   0.4480 
 11 C        3.9950     3.8120     1.1740 C.3   1 <1>  -0.2400 
 12 C        6.2150     1.1970    -0.1540 C.3   1 <1>  -0.1600 
 13 O        4.5940     3.6000    -2.1710 O.2   1 <1>  -0.5700 
 14 C        6.2080     2.6170    -0.7490 C.3   1 <1>  -0.0990 
 15 H        2.1960     1.9610    -2.2440 H     1 <1>   0.0800 
 16 H        0.6410     2.4570    -1.6300 H     1 <1>   0.0800 
 17 H        1.7790    -1.1780     1.0970 H     1 <1>   0.0800 
 18 H        3.4400    -1.0850     1.5220 H     1 <1>   0.0800 
 19 H        2.9850    -1.5830    -0.0930 H     1 <1>   0.0800 
 20 H        1.6660     3.4540     0.3150 H     1 <1>   0.0800 
 21 H        2.3440     4.1690    -1.1090 H     1 <1>   0.0800 
 22 H        5.4180     1.5890     1.8190 H     1 <1>   0.0800 
 23 H        5.2140    -0.0210     1.2580 H     1 <1>   0.0800 
 24 H        3.3250     3.5800     1.9820 H     1 <1>   0.0800 
 25 H        3.8410     4.8370     0.8850 H     1 <1>   0.0800 
 26 H        5.0000     3.7310     1.5400 H     1 <1>   0.0800 
 27 H        6.0040     0.4960    -0.9440 H     1 <1>   0.0800 
 28 H        7.1950     0.9700     0.2290 H     1 <1>   0.0800 
 29 H        6.8190     2.6360    -1.6340 H     1 <1>   0.0800 
 30 H        6.6370     3.3070    -0.0470 H     1 <1>   0.0800 
@<TRIPOS>BOND
  1   1   2  2   
  2   2   3  1   
  3   2   4  1   
  4   3   5  2   
  5   3   6  1   
  6   4   7  1   
  7   4  15  1   
  8   4  16  1   
  9   5   8  1   
 10   5   9  1   
 11   6  17  1   
 12   6  18  1   
 13   6  19  1   
 14   7   8  1   
 15   7  20  1   
 16   7  21  1   
 17   8  10  1   
 18   8  11  1   
 19   9  12  1   
 20   9  22  1   
 21   9  23  1   
 22  10  13  2   
 23  10  14  1   
 24  11  24  1   
 25  11  25  1   
 26  11  26  1   
 27  12  14  1   
 28  12  27  1   
 29  12  28  1   
 30  14  29  1   
 31  14  30  1   
@<TRIPOS>SUBSTRUCTURE
  1 ****   5 GROUP 4 **** **** 0

# MOE 2024.06 (io_trps.svl 2023.06)
