@<TRIPOS>MOLECULE
Structure2396
30 31 1 0 0 
SMALL
USER_CHARGES


@<TRIPOS>ATOM
  1 O        0.9100     1.2210     1.4890 O.2   1 <1>  -0.5700 
  2 C        1.1360     1.7100     0.4030 C.2   1 <1>   0.6900 
  3 N        2.1500     1.2640    -0.3950 N.am  1 <1>  -0.6600 
  4 N        0.3380     2.6980    -0.0160 N.am  1 <1>  -0.8000 
  5 C        2.8610     2.1280    -1.3890 C.3   1 <1>   0.1400 
  6 C        2.9170     0.0280    -0.0420 C.3   1 <1>   0.1400 
  7 C        4.2910     2.4550    -0.9210 C.3   1 <1>   0.2090 
  8 C        4.3400     0.3730     0.4270 C.3   1 <1>   0.2090 
  9 N        5.0500     1.2140    -0.5860 N.pl3 1 <1>  -0.8380 
 10 C        6.4180     1.3720    -0.3990 C.ar  1 <1>   0.1000 
 11 C        6.9310     2.0490     0.7020 C.ar  1 <1>  -0.1500 
 12 C        7.3020     0.8460    -1.3310 C.ar  1 <1>  -0.1500 
 13 C        8.2970     2.1980     0.8660 C.ar  1 <1>  -0.1500 
 14 C        8.6690     0.9920    -1.1720 C.ar  1 <1>  -0.1500 
 15 C        9.1680     1.6690    -0.0720 C.ar  1 <1>  -0.1500 
 16 H       -0.4730     2.8980     0.5660 H     1 <1>   0.3700 
 17 H        0.2300     2.8650    -1.0110 H     1 <1>   0.3700 
 18 H        2.3290     3.0480    -1.5450 H     1 <1>   0.0800 
 19 H        2.9130     1.6090    -2.3300 H     1 <1>   0.0800 
 20 H        2.9790    -0.6060    -0.9080 H     1 <1>   0.0800 
 21 H        2.4110    -0.5220     0.7320 H     1 <1>   0.0800 
 22 H        4.2420     3.0910    -0.0540 H     1 <1>   0.0800 
 23 H        4.8100     2.9880    -1.6980 H     1 <1>   0.0800 
 24 H        4.8960    -0.5350     0.5860 H     1 <1>   0.0800 
 25 H        4.2840     0.9000     1.3630 H     1 <1>   0.0800 
 26 H        6.2550     2.4590     1.4270 H     1 <1>   0.1500 
 27 H        6.9030     0.3230    -2.1790 H     1 <1>   0.1500 
 28 H        8.6820     2.7240     1.7210 H     1 <1>   0.1500 
 29 H        9.3420     0.5790    -1.9020 H     1 <1>   0.1500 
 30 H       10.2310     1.7830     0.0540 H     1 <1>   0.1500 
@<TRIPOS>BOND
  1   1   2  2   
  2   2   3  am  
  3   2   4  am  
  4   3   5  1   
  5   3   6  1   
  6   4  16  1   
  7   4  17  1   
  8   5   7  1   
  9   5  18  1   
 10   5  19  1   
 11   6   8  1   
 12   6  20  1   
 13   6  21  1   
 14   7   9  1   
 15   7  22  1   
 16   7  23  1   
 17   8   9  1   
 18   8  24  1   
 19   8  25  1   
 20   9  10  1   
 21  10  11  ar  
 22  10  12  ar  
 23  11  13  ar  
 24  11  26  1   
 25  12  14  ar  
 26  12  27  1   
 27  13  15  ar  
 28  13  28  1   
 29  14  15  ar  
 30  14  29  1   
 31  15  30  1   
@<TRIPOS>SUBSTRUCTURE
  1 ****   9 GROUP 4 **** **** 0

# MOE 2024.06 (io_trps.svl 2023.06)
