@<TRIPOS>MOLECULE
NONAME
45 46 1 0 0 
SMALL
USER_CHARGES


@<TRIPOS>ATOM
  1 BR       2.6630     1.1880     1.9590 Br    1 <1>  -0.1110 
  2 C        1.4190     2.2520     0.9360 C.ar  1 <1>   0.1110 
  3 C        1.7750     2.6950    -0.3300 C.ar  1 <1>   0.0830 
  4 C        0.2010     2.5550     1.5130 C.ar  1 <1>  -0.1500 
  5 O        2.9960     2.3580    -0.8210 O.3   1 <1>  -0.3630 
  6 C        0.8580     3.4690    -1.0320 C.ar  1 <1>  -0.1500 
  7 C       -0.7090     3.3310     0.8090 C.ar  1 <1>  -0.1430 
  8 C        3.6140     3.1540    -1.8220 C.3   1 <1>   0.1810 
  9 C       -0.3680     3.7810    -0.4620 C.ar  1 <1>  -0.1500 
 10 C       -2.0590     3.6730     1.4350 C.3   1 <1>   0.0640 
 11 C        5.0640     2.7320    -2.0720 C.2   1 <1>   0.5690 
 12 C       -3.2090     3.0990     0.6020 C.3   1 <1>  -0.2400 
 13 C       -2.2140     5.1880     1.6060 C.3   1 <1>  -0.2400 
 14 O        5.4240     2.6930    -3.2240 O.2   1 <1>  -0.5700 
 15 N        5.9480     2.4240    -1.0570 N.am  1 <1>  -0.6600 
 16 C        7.2540     1.7610    -1.3760 C.3   1 <1>   0.1400 
 17 C        5.6420     2.5540     0.4050 C.3   1 <1>   0.1400 
 18 C        8.4120     2.3530    -0.5550 C.3   1 <1>   0.3430 
 19 C        6.8420     3.1010     1.2030 C.3   1 <1>   0.3430 
 20 N        8.1130     2.3470     0.9200 N.4   1 <1>  -0.9590 
 21 C        9.2580     2.9010     1.7050 C.3   1 <1>   0.2630 
 22 H       -0.0260     2.1860     2.4970 H     1 <1>   0.1500 
 23 H        1.0700     3.8300    -2.0210 H     1 <1>   0.1500 
 24 H        3.5860     4.1810    -1.5100 H     1 <1>   0.0800 
 25 H        3.0560     3.0360    -2.7330 H     1 <1>   0.0800 
 26 H       -1.0650     4.3800    -1.0220 H     1 <1>   0.1500 
 27 H       -2.1100     3.2270     2.4140 H     1 <1>   0.0800 
 28 H       -3.2400     3.5490    -0.3740 H     1 <1>   0.0800 
 29 H       -4.1490     3.2790     1.0920 H     1 <1>   0.0800 
 30 H       -3.0820     2.0370     0.4870 H     1 <1>   0.0800 
 31 H       -2.2220     5.6840     0.6530 H     1 <1>   0.0800 
 32 H       -1.3970     5.5760     2.1880 H     1 <1>   0.0800 
 33 H       -3.1330     5.4120     2.1170 H     1 <1>   0.0800 
 34 H        7.4880     1.8700    -2.4220 H     1 <1>   0.0800 
 35 H        7.1690     0.7070    -1.1760 H     1 <1>   0.0800 
 36 H        5.3590     1.5900     0.7900 H     1 <1>   0.0800 
 37 H        4.8140     3.2230     0.5580 H     1 <1>   0.0800 
 38 H        8.5840     3.3630    -0.8890 H     1 <1>   0.0800 
 39 H        9.3060     1.7840    -0.7520 H     1 <1>   0.0800 
 40 H        6.6120     3.0500     2.2550 H     1 <1>   0.0800 
 41 H        6.9750     4.1390     0.9460 H     1 <1>   0.0800 
 42 H        7.9590     1.3670     1.2000 H     1 <1>   0.4500 
 43 H        9.4410     3.9270     1.4300 H     1 <1>   0.0800 
 44 H       10.1530     2.3300     1.5170 H     1 <1>   0.0800 
 45 H        9.0430     2.8600     2.7610 H     1 <1>   0.0800 
@<TRIPOS>BOND
  1   1   2  1   
  2   2   3  ar  
  3   2   4  ar  
  4   3   5  1   
  5   3   6  ar  
  6   4   7  ar  
  7   4  22  1   
  8   5   8  1   
  9   6   9  ar  
 10   6  23  1   
 11   7   9  ar  
 12   7  10  1   
 13   8  11  1   
 14   8  24  1   
 15   8  25  1   
 16   9  26  1   
 17  10  12  1   
 18  10  13  1   
 19  10  27  1   
 20  11  14  2   
 21  11  15  am  
 22  12  28  1   
 23  12  29  1   
 24  12  30  1   
 25  13  31  1   
 26  13  32  1   
 27  13  33  1   
 28  15  16  1   
 29  15  17  1   
 30  16  18  1   
 31  16  34  1   
 32  16  35  1   
 33  17  19  1   
 34  17  36  1   
 35  17  37  1   
 36  18  20  1   
 37  18  38  1   
 38  18  39  1   
 39  19  20  1   
 40  19  40  1   
 41  19  41  1   
 42  20  21  1   
 43  20  42  1   
 44  21  43  1   
 45  21  44  1   
 46  21  45  1   
@<TRIPOS>SUBSTRUCTURE
  1 ****   5 GROUP 4 **** **** 0

# MOE 2024.06 (io_trps.svl 2023.06)
