@<TRIPOS>MOLECULE
NONAME
58 62 1 0 0 
SMALL
USER_CHARGES


@<TRIPOS>ATOM
  1 S        0.0780    -0.3300     1.4930 S.o2  1 <1>   1.4470 
  2 O        0.2680     0.5380     2.6340 O.2   1 <1>  -0.6500 
  3 O        0.0800    -1.7600     1.7210 O.2   1 <1>  -0.6500 
  4 N       -1.4580     0.0280     0.8410 N.am  1 <1>  -0.8490 
  5 C        1.2370     0.0550     0.1520 C.ar  1 <1>  -0.0090 
  6 C       -2.1300     1.1330     1.5430 C.3   1 <1>   0.1960 
  7 C       -2.3290    -1.1510     0.7040 C.3   1 <1>   0.1960 
  8 C        1.3820     1.3580    -0.3310 C.ar  1 <1>   0.0830 
  9 C        2.0080    -0.9570    -0.4180 C.ar  1 <1>  -0.1500 
 10 C       -3.4670     1.5100     0.8750 C.3   1 <1>   0.3430 
 11 C       -3.6740    -0.7990     0.0350 C.3   1 <1>   0.3430 
 12 O        0.6310     2.3390     0.2290 O.3   1 <1>  -0.3630 
 13 C        2.2760     1.6350    -1.3640 C.ar  1 <1>  -0.1500 
 14 C        2.9000    -0.6950    -1.4430 C.ar  1 <1>  -0.1500 
 15 N       -4.4020     0.3290     0.7330 N.4   1 <1>  -0.9590 
 16 C        1.0560     3.6860     0.1960 C.3   1 <1>   0.0400 
 17 C        3.0160     0.6020    -1.8960 C.ar  1 <1>   0.1900 
 18 C       -5.7300     0.6700     0.1250 C.3   1 <1>   0.5030 
 19 F        3.8530     0.8590    -2.8630 F     1 <1>  -0.1900 
 20 C       -5.5850     1.1880    -1.3250 C.3   1 <1>  -0.1600 
 21 C       -6.4250     1.7570     0.9790 C.3   1 <1>  -0.1600 
 22 C       -6.6340    -0.5860     0.1210 C.3   1 <1>  -0.1600 
 23 C       -6.9710     1.5250    -1.9100 C.3   1 <1>  -0.0800 
 24 C       -7.8100     2.0990     0.4020 C.3   1 <1>  -0.0800 
 25 C       -8.0210    -0.2570    -0.4610 C.3   1 <1>  -0.0800 
 26 C       -7.6410     2.6070    -1.0420 C.3   1 <1>  -0.1600 
 27 C       -7.8510     0.2610    -1.9010 C.3   1 <1>  -0.1600 
 28 C       -8.6840     0.8340     0.3960 C.3   1 <1>  -0.1600 
 29 H       -1.4940     2.0020     1.5400 H     1 <1>   0.0800 
 30 H       -2.3030     0.8640     2.5720 H     1 <1>   0.0800 
 31 H       -2.5100    -1.5890     1.6720 H     1 <1>   0.0800 
 32 H       -1.8340    -1.8920     0.0980 H     1 <1>   0.0800 
 33 H        1.9140    -1.9680    -0.0550 H     1 <1>   0.1500 
 34 H       -3.2490     1.9200    -0.0980 H     1 <1>   0.0800 
 35 H       -3.9300     2.2830     1.4630 H     1 <1>   0.0800 
 36 H       -4.2860    -1.6850     0.0230 H     1 <1>   0.0800 
 37 H       -3.4750    -0.5220    -0.9870 H     1 <1>   0.0800 
 38 H        2.4070     2.6220    -1.7650 H     1 <1>   0.1500 
 39 H        3.4960    -1.4770    -1.8820 H     1 <1>   0.1500 
 40 H       -4.6150     0.0030     1.6820 H     1 <1>   0.4500 
 41 H        0.4350     4.2510     0.8680 H     1 <1>   0.0800 
 42 H        0.9490     4.0660    -0.8050 H     1 <1>   0.0800 
 43 H        2.0810     3.7390     0.5200 H     1 <1>   0.0800 
 44 H       -5.1260     0.4450    -1.9520 H     1 <1>   0.0800 
 45 H       -4.9810     2.0760    -1.3550 H     1 <1>   0.0800 
 46 H       -5.8540     2.6660     0.9910 H     1 <1>   0.0800 
 47 H       -6.5440     1.4150     1.9920 H     1 <1>   0.0800 
 48 H       -6.7560    -0.9600     1.1220 H     1 <1>   0.0800 
 49 H       -6.2130    -1.3660    -0.4860 H     1 <1>   0.0800 
 50 H       -6.8670     1.8860    -2.9200 H     1 <1>   0.0800 
 51 H       -8.2820     2.8610     1.0010 H     1 <1>   0.0800 
 52 H       -8.6390    -1.1400    -0.4640 H     1 <1>   0.0800 
 53 H       -8.6060     2.8530    -1.4540 H     1 <1>   0.0800 
 54 H       -7.0520     3.5080    -1.0530 H     1 <1>   0.0800 
 55 H       -7.4100    -0.5010    -2.5200 H     1 <1>   0.0800 
 56 H       -8.8170     0.4910    -2.3180 H     1 <1>   0.0800 
 57 H       -9.6570     1.0670    -0.0040 H     1 <1>   0.0800 
 58 H       -8.8300     0.4790     1.4020 H     1 <1>   0.0800 
@<TRIPOS>BOND
  1   1   2  2   
  2   1   3  2   
  3   1   4  am  
  4   1   5  1   
  5   4   6  1   
  6   4   7  1   
  7   5   8  ar  
  8   5   9  ar  
  9   6  10  1   
 10   6  29  1   
 11   6  30  1   
 12   7  11  1   
 13   7  31  1   
 14   7  32  1   
 15   8  12  1   
 16   8  13  ar  
 17   9  14  ar  
 18   9  33  1   
 19  10  15  1   
 20  10  34  1   
 21  10  35  1   
 22  11  15  1   
 23  11  36  1   
 24  11  37  1   
 25  12  16  1   
 26  13  17  ar  
 27  13  38  1   
 28  14  17  ar  
 29  14  39  1   
 30  15  18  1   
 31  15  40  1   
 32  16  41  1   
 33  16  42  1   
 34  16  43  1   
 35  17  19  1   
 36  18  20  1   
 37  18  21  1   
 38  18  22  1   
 39  20  23  1   
 40  20  44  1   
 41  20  45  1   
 42  21  24  1   
 43  21  46  1   
 44  21  47  1   
 45  22  25  1   
 46  22  48  1   
 47  22  49  1   
 48  23  26  1   
 49  23  27  1   
 50  23  50  1   
 51  24  26  1   
 52  24  28  1   
 53  24  51  1   
 54  25  27  1   
 55  25  28  1   
 56  25  52  1   
 57  26  53  1   
 58  26  54  1   
 59  27  55  1   
 60  27  56  1   
 61  28  57  1   
 62  28  58  1   
@<TRIPOS>SUBSTRUCTURE
  1 ****   4 GROUP 4 **** **** 0

# MOE 2024.06 (io_trps.svl 2023.06)
