@<TRIPOS>MOLECULE
NONAME
49 50 1 0 0 
SMALL
USER_CHARGES


@<TRIPOS>ATOM
  1 S        0.4160    -0.0110    -0.2010 S.o2  1 <1>   1.4470 
  2 O        1.4180    -0.4090    -1.1660 O.2   1 <1>  -0.6500 
  3 O        0.7120    -0.0790     1.2110 O.2   1 <1>  -0.6500 
  4 N        0.0530     1.6400    -0.5640 N.am  1 <1>  -0.6930 
  5 C       -1.1480    -0.8520    -0.5760 C.ar  1 <1>  -0.0090 
  6 C       -1.0790     2.2290    -0.0180 C.ar  1 <1>   0.1990 
  7 C        1.2170     2.5250    -0.8840 C.3   1 <1>   0.2570 
  8 C       -2.1850    -0.8820     0.3510 C.ar  1 <1>  -0.1500 
  9 C       -1.3640    -1.4590    -1.8090 C.ar  1 <1>  -0.1500 
 10 C       -1.1430     2.5740     1.3250 C.ar  1 <1>  -0.1500 
 11 C       -2.1900     2.4590    -0.8170 C.ar  1 <1>  -0.1500 
 12 C        2.0660     2.9540     0.3260 C.2   1 <1>   0.5690 
 13 C       -3.3900    -1.4990     0.0640 C.ar  1 <1>  -0.1500 
 14 C       -2.5660    -2.0800    -2.1040 C.ar  1 <1>  -0.1500 
 15 C       -2.2920     3.1290     1.8580 C.ar  1 <1>  -0.1500 
 16 C       -3.3410     3.0120    -0.2850 C.ar  1 <1>  -0.1500 
 17 O        1.7260     3.9720     0.8880 O.2   1 <1>  -0.5700 
 18 N        3.1740     2.2500     0.7540 N.am  1 <1>  -0.6600 
 19 C       -3.5810    -2.1010    -1.1660 C.ar  1 <1>  -0.1500 
 20 C       -3.4050     3.3520     1.0590 C.ar  1 <1>  -0.1430 
 21 C        3.8400     2.5840     2.0450 C.3   1 <1>   0.0600 
 22 C        3.7790     1.0730     0.0710 C.3   1 <1>   0.0600 
 23 C       -4.6670     3.9630     1.6650 C.3   1 <1>   0.0630 
 24 C       -5.8470     2.9910     1.5620 C.3   1 <1>  -0.2400 
 25 C       -5.0030     5.3010     0.9990 C.3   1 <1>  -0.2400 
 26 H        0.8350     3.4230    -1.3330 H     1 <1>   0.0800 
 27 H        1.8350     2.0530    -1.6220 H     1 <1>   0.0800 
 28 H       -2.0470    -0.4120     1.3110 H     1 <1>   0.1500 
 29 H       -0.5810    -1.4480    -2.5480 H     1 <1>   0.1500 
 30 H       -0.2870     2.4060     1.9550 H     1 <1>   0.1500 
 31 H       -2.1510     2.1960    -1.8570 H     1 <1>   0.1500 
 32 H       -4.1770    -1.5090     0.7980 H     1 <1>   0.1500 
 33 H       -2.7100    -2.5470    -3.0640 H     1 <1>   0.1500 
 34 H       -2.3110     3.3880     2.9020 H     1 <1>   0.1500 
 35 H       -4.1890     3.1770    -0.9250 H     1 <1>   0.1500 
 36 H       -4.5170    -2.5820    -1.3920 H     1 <1>   0.1500 
 37 H        3.3050     3.3550     2.5710 H     1 <1>   0.0800 
 38 H        4.8420     2.9270     1.8580 H     1 <1>   0.0800 
 39 H        3.8740     1.7090     2.6710 H     1 <1>   0.0800 
 40 H        3.5310     1.0500    -0.9740 H     1 <1>   0.0800 
 41 H        3.4320     0.1670     0.5370 H     1 <1>   0.0800 
 42 H        4.8510     1.1150     0.1540 H     1 <1>   0.0800 
 43 H       -4.4900     4.1530     2.7100 H     1 <1>   0.0800 
 44 H       -6.0980     2.8010     0.5340 H     1 <1>   0.0800 
 45 H       -6.7090     3.3980     2.0570 H     1 <1>   0.0800 
 46 H       -5.5910     2.0570     2.0300 H     1 <1>   0.0800 
 47 H       -5.2400     5.1630    -0.0400 H     1 <1>   0.0800 
 48 H       -4.1610     5.9650     1.0730 H     1 <1>   0.0800 
 49 H       -5.8450     5.7590     1.4870 H     1 <1>   0.0800 
@<TRIPOS>BOND
  1   1   2  2   
  2   1   3  2   
  3   1   4  am  
  4   1   5  1   
  5   4   6  1   
  6   4   7  1   
  7   5   8  ar  
  8   5   9  ar  
  9   6  10  ar  
 10   6  11  ar  
 11   7  12  1   
 12   7  26  1   
 13   7  27  1   
 14   8  13  ar  
 15   8  28  1   
 16   9  14  ar  
 17   9  29  1   
 18  10  15  ar  
 19  10  30  1   
 20  11  16  ar  
 21  11  31  1   
 22  12  17  2   
 23  12  18  am  
 24  13  19  ar  
 25  13  32  1   
 26  14  19  ar  
 27  14  33  1   
 28  15  20  ar  
 29  15  34  1   
 30  16  20  ar  
 31  16  35  1   
 32  18  21  1   
 33  18  22  1   
 34  19  36  1   
 35  20  23  1   
 36  21  37  1   
 37  21  38  1   
 38  21  39  1   
 39  22  40  1   
 40  22  41  1   
 41  22  42  1   
 42  23  24  1   
 43  23  25  1   
 44  23  43  1   
 45  24  44  1   
 46  24  45  1   
 47  24  46  1   
 48  25  47  1   
 49  25  48  1   
 50  25  49  1   
@<TRIPOS>SUBSTRUCTURE
  1 ****   6 GROUP 4 **** **** 0

# MOE 2024.06 (io_trps.svl 2023.06)
