@<TRIPOS>MOLECULE
NONAME
37 36 1 0 0 
SMALL
USER_CHARGES


@<TRIPOS>ATOM
  1 F        0.0600     1.0760     1.5980 F     1 <1>  -0.3400 
  2 C        1.3340     1.2250     1.2630 C.3   1 <1>   1.0200 
  3 F        1.9620     0.1860     1.8020 F     1 <1>  -0.3400 
  4 F        1.7750     2.2850     1.9240 F     1 <1>  -0.3400 
  5 C        1.5750     1.2640    -0.2550 C.3   1 <1>   0.2200 
  6 N        3.0530     1.3070    -0.6770 N.am  1 <1>  -0.7300 
  7 C        0.6180     2.3110    -0.8650 C.3   1 <1>   1.0200 
  8 C        3.8460     2.3970    -0.6360 C.2   1 <1>   0.7800 
  9 F        0.5370     3.4680    -0.2220 F     1 <1>  -0.3400 
 10 F        0.9420     2.6070    -2.1180 F     1 <1>  -0.3400 
 11 F       -0.6250     1.8490    -0.9330 F     1 <1>  -0.3400 
 12 O        3.4060     3.4870    -0.3560 O.2   1 <1>  -0.5700 
 13 O        5.1260     2.1700    -0.9030 O.3   1 <1>  -0.4300 
 14 C        6.2310     3.0630    -0.8940 C.3   1 <1>   0.2800 
 15 C        6.8040     3.2140     0.5790 C.3   1 <1>   0.0000 
 16 C        7.2290     2.3730    -1.8430 C.3   1 <1>  -0.2400 
 17 C        5.8600     4.3980    -1.5770 C.3   1 <1>  -0.2400 
 18 C        7.2400     1.8540     1.1680 C.3   1 <1>  -0.2400 
 19 C        5.7810     3.8050     1.5730 C.3   1 <1>  -0.2400 
 20 C        8.0370     4.1430     0.6250 C.3   1 <1>  -0.2400 
 21 H        1.2080     0.3250    -0.6220 H     1 <1>   0.0800 
 22 H        3.5340     0.4200    -0.8310 H     1 <1>   0.3700 
 23 H        7.4700     1.3840    -1.5060 H     1 <1>   0.0800 
 24 H        8.1370     2.9380    -1.9320 H     1 <1>   0.0800 
 25 H        6.8020     2.2910    -2.8270 H     1 <1>   0.0800 
 26 H        6.7460     4.9590    -1.8080 H     1 <1>   0.0800 
 27 H        5.2480     5.0170    -0.9510 H     1 <1>   0.0800 
 28 H        5.3360     4.2140    -2.4970 H     1 <1>   0.0800 
 29 H        8.0810     1.4470     0.6380 H     1 <1>   0.0800 
 30 H        6.4320     1.1460     1.1280 H     1 <1>   0.0800 
 31 H        7.5330     1.9640     2.1980 H     1 <1>   0.0800 
 32 H        4.9500     3.1390     1.7160 H     1 <1>   0.0800 
 33 H        5.4030     4.7520     1.2370 H     1 <1>   0.0800 
 34 H        6.2320     3.9600     2.5380 H     1 <1>   0.0800 
 35 H        8.8370     3.7690     0.0140 H     1 <1>   0.0800 
 36 H        8.4110     4.2230     1.6300 H     1 <1>   0.0800 
 37 H        7.7860     5.1340     0.2920 H     1 <1>   0.0800 
@<TRIPOS>BOND
  1   1   2  1   
  2   2   3  1   
  3   2   4  1   
  4   2   5  1   
  5   5   6  1   
  6   5   7  1   
  7   5  21  1   
  8   6   8  am  
  9   6  22  1   
 10   7   9  1   
 11   7  10  1   
 12   7  11  1   
 13   8  12  2   
 14   8  13  1   
 15  13  14  1   
 16  14  15  1   
 17  14  16  1   
 18  14  17  1   
 19  15  18  1   
 20  15  19  1   
 21  15  20  1   
 22  16  23  1   
 23  16  24  1   
 24  16  25  1   
 25  17  26  1   
 26  17  27  1   
 27  17  28  1   
 28  18  29  1   
 29  18  30  1   
 30  18  31  1   
 31  19  32  1   
 32  19  33  1   
 33  19  34  1   
 34  20  35  1   
 35  20  36  1   
 36  20  37  1   
@<TRIPOS>SUBSTRUCTURE
  1 ****   8 GROUP 4 **** **** 0

# MOE 2024.06 (io_trps.svl 2023.06)
