@<TRIPOS>MOLECULE
NONAME
27 27 1 0 0 
SMALL
USER_CHARGES


@<TRIPOS>ATOM
  1 CL       0.3600     0.3430     1.5090 Cl    1 <1>  -0.2900 
  2 C        1.4840     1.0260     0.3380 C.3   1 <1>   0.9310 
  3 CL       0.5520     1.4320    -1.1000 Cl    1 <1>  -0.2900 
  4 CL       2.0350     2.5600     1.0180 Cl    1 <1>  -0.2900 
  5 C        2.6750     0.0780     0.0350 C.2   1 <1>   0.5690 
  6 O        2.4590    -0.9820    -0.5080 O.2   1 <1>  -0.5700 
  7 N        3.9580     0.4640     0.3810 N.am  1 <1>  -0.5470 
  8 C        5.1890    -0.1990     0.2430 C.ar  1 <1>   0.1170 
  9 C        5.3090    -1.5820     0.1780 C.ar  1 <1>  -0.1500 
 10 C        6.3470     0.5650     0.1900 C.ar  1 <1>  -0.1500 
 11 C        6.5480    -2.1890     0.0590 C.ar  1 <1>   0.0830 
 12 C        7.5930    -0.0240     0.0710 C.ar  1 <1>   0.0830 
 13 O        6.5560    -3.5460     0.0050 O.3   1 <1>  -0.3630 
 14 C        7.6980    -1.4090     0.0040 C.ar  1 <1>  -0.1500 
 15 O        8.6570     0.8180     0.0270 O.3   1 <1>  -0.3630 
 16 C        7.7530    -4.2740    -0.1590 C.3   1 <1>   0.0400 
 17 C        9.9750     0.3340    -0.1080 C.3   1 <1>   0.0400 
 18 H        4.0480     1.4080     0.7680 H     1 <1>   0.3700 
 19 H        4.4390    -2.2100     0.2230 H     1 <1>   0.1500 
 20 H        6.2930     1.6360     0.2370 H     1 <1>   0.1500 
 21 H        8.6580    -1.8730    -0.0880 H     1 <1>   0.1500 
 22 H        7.5050    -5.3200    -0.1900 H     1 <1>   0.0800 
 23 H        8.3980    -4.0770     0.6780 H     1 <1>   0.0800 
 24 H        8.2160    -3.9810    -1.0840 H     1 <1>   0.0800 
 25 H       10.6400     1.1780    -0.1240 H     1 <1>   0.0800 
 26 H       10.0540    -0.2120    -1.0310 H     1 <1>   0.0800 
 27 H       10.2040    -0.2940     0.7350 H     1 <1>   0.0800 
@<TRIPOS>BOND
  1   1   2  1   
  2   2   3  1   
  3   2   4  1   
  4   2   5  1   
  5   5   6  2   
  6   5   7  am  
  7   7   8  1   
  8   7  18  1   
  9   8   9  ar  
 10   8  10  ar  
 11   9  11  ar  
 12   9  19  1   
 13  10  12  ar  
 14  10  20  1   
 15  11  13  1   
 16  11  14  ar  
 17  12  14  ar  
 18  12  15  1   
 19  13  16  1   
 20  14  21  1   
 21  15  17  1   
 22  16  22  1   
 23  16  23  1   
 24  16  24  1   
 25  17  25  1   
 26  17  26  1   
 27  17  27  1   
@<TRIPOS>SUBSTRUCTURE
  1 ****   8 GROUP 4 **** **** 0

# MOE 2024.06 (io_trps.svl 2023.06)
