@<TRIPOS>MOLECULE
NONAME
32 32 1 0 0 
SMALL
USER_CHARGES


@<TRIPOS>ATOM
  1 CL       0.5890     0.9010     2.0040 Cl    1 <1>  -0.1770 
  2 C        1.8500     1.5000     0.9480 C.ar  1 <1>   0.1770 
  3 C        1.7950     2.7910     0.4390 C.ar  1 <1>   0.0830 
  4 C        2.8910     0.6420     0.6430 C.ar  1 <1>  -0.1500 
  5 O        0.7400     3.5840     0.7530 O.3   1 <1>  -0.3630 
  6 C        2.8390     3.2310    -0.3860 C.ar  1 <1>   0.0830 
  7 C        3.9150     1.0720    -0.1890 C.ar  1 <1>  -0.1440 
  8 C       -0.3910     3.4600    -0.0810 C.3   1 <1>   0.0400 
  9 O        2.9450     4.4710    -0.9320 O.3   1 <1>  -0.3630 
 10 C        3.8730     2.3620    -0.7000 C.ar  1 <1>  -0.1500 
 11 C        5.0720     0.1590    -0.5300 C.3   1 <1>   0.4860 
 12 C        2.4720     5.6100    -0.2460 C.3   1 <1>   0.1200 
 13 N        6.1580     0.4780     0.4220 N.4   1 <1>  -0.9060 
 14 C        3.1930     6.8310    -0.8060 C.3   1 <1>  -0.2400 
 15 C        7.4000    -0.3180     0.2000 C.3   1 <1>   0.2630 
 16 H        2.8760    -0.3500     1.0620 H     1 <1>   0.1500 
 17 H       -1.1370     4.1560     0.2570 H     1 <1>   0.0800 
 18 H       -0.7690     2.4560    -0.0150 H     1 <1>   0.0800 
 19 H       -0.1050     3.6890    -1.0930 H     1 <1>   0.0800 
 20 H        4.6440     2.7280    -1.3560 H     1 <1>   0.1500 
 21 H        5.3920     0.3350    -1.5440 H     1 <1>   0.0800 
 22 H        4.7720    -0.8730    -0.4320 H     1 <1>   0.0800 
 23 H        2.6750     5.4930     0.8050 H     1 <1>   0.0800 
 24 H        1.4120     5.6910    -0.4090 H     1 <1>   0.0800 
 25 H        5.7970     0.3380     1.3750 H     1 <1>   0.4500 
 26 H        6.3520     1.4860     0.3470 H     1 <1>   0.4500 
 27 H        4.2530     6.7410    -0.6510 H     1 <1>   0.0800 
 28 H        2.8480     7.7170    -0.3040 H     1 <1>   0.0800 
 29 H        2.9890     6.9320    -1.8570 H     1 <1>   0.0800 
 30 H        7.1960    -1.3720     0.3080 H     1 <1>   0.0800 
 31 H        8.1550    -0.0400     0.9190 H     1 <1>   0.0800 
 32 H        7.7890    -0.1410    -0.7900 H     1 <1>   0.0800 
@<TRIPOS>BOND
  1   1   2  1   
  2   2   3  ar  
  3   2   4  ar  
  4   3   5  1   
  5   3   6  ar  
  6   4   7  ar  
  7   4  16  1   
  8   5   8  1   
  9   6   9  1   
 10   6  10  ar  
 11   7  10  ar  
 12   7  11  1   
 13   8  17  1   
 14   8  18  1   
 15   8  19  1   
 16   9  12  1   
 17  10  20  1   
 18  11  13  1   
 19  11  21  1   
 20  11  22  1   
 21  12  14  1   
 22  12  23  1   
 23  12  24  1   
 24  13  15  1   
 25  13  25  1   
 26  13  26  1   
 27  14  27  1   
 28  14  28  1   
 29  14  29  1   
 30  15  30  1   
 31  15  31  1   
 32  15  32  1   
@<TRIPOS>SUBSTRUCTURE
  1 ****   6 GROUP 4 **** **** 0

# MOE 2024.06 (io_trps.svl 2023.06)
