@<TRIPOS>MOLECULE
NONAME
44 45 1 0 0 
SMALL
USER_CHARGES


@<TRIPOS>ATOM
  1 S        0.6270    -0.6510     0.8010 S.o2  1 <1>   1.4470 
  2 O        1.9640    -0.9290     1.2820 O.2   1 <1>  -0.6500 
  3 O       -0.4970    -1.2990     1.4410 O.2   1 <1>  -0.6500 
  4 N        0.5720    -1.0890    -0.8380 N.am  1 <1>  -0.8490 
  5 C        0.3890     1.1450     0.7480 C.ar  1 <1>  -0.0090 
  6 C        1.2930    -2.3590    -1.1310 C.3   1 <1>   0.2570 
  7 C       -0.7870    -1.1050    -1.3900 C.3   1 <1>   0.1160 
  8 C        1.1300     1.9340    -0.1240 C.ar  1 <1>  -0.1500 
  9 C       -0.5270     1.7800     1.5810 C.ar  1 <1>  -0.1500 
 10 C        2.7310    -2.1650    -1.6370 C.2   1 <1>   0.5690 
 11 C        0.9610     3.3060    -0.1690 C.ar  1 <1>  -0.1500 
 12 C       -0.7040     3.1530     1.5440 C.ar  1 <1>  -0.1500 
 13 O        3.0240    -2.5800    -2.7340 O.2   1 <1>  -0.5700 
 14 N        3.6360    -1.5350    -0.8480 N.am  1 <1>  -0.7300 
 15 C        0.0440     3.9260     0.6620 C.ar  1 <1>   0.0830 
 16 C        5.0110    -1.1650    -1.2030 C.3   1 <1>   0.2200 
 17 O       -0.0650     5.2720     0.5580 O.3   1 <1>  -0.3630 
 18 C        5.9190    -1.4950    -0.0260 C.3   1 <1>  -0.1600 
 19 C        5.0920     0.3540    -1.2890 C.3   1 <1>  -0.1600 
 20 C       -0.9590     6.0040     1.3660 C.3   1 <1>   0.0400 
 21 C        5.7380    -0.3430     0.9710 C.3   1 <1>  -0.1600 
 22 C        5.2030     0.8450     0.1590 C.3   1 <1>  -0.1600 
 23 H        0.7710    -2.9030    -1.8990 H     1 <1>   0.0800 
 24 H        1.3130    -2.9870    -0.2580 H     1 <1>   0.0800 
 25 H       -1.2690    -0.1580    -1.2130 H     1 <1>   0.0800 
 26 H       -1.3730    -1.8850    -0.9310 H     1 <1>   0.0800 
 27 H       -0.7510    -1.2700    -2.4540 H     1 <1>   0.0800 
 28 H        1.8480     1.4660    -0.7780 H     1 <1>   0.1500 
 29 H       -1.1110     1.1900     2.2680 H     1 <1>   0.1500 
 30 H        1.5390     3.9060    -0.8490 H     1 <1>   0.1500 
 31 H       -1.4230     3.5990     2.2040 H     1 <1>   0.1500 
 32 H        3.3330    -1.2040     0.0790 H     1 <1>   0.3700 
 33 H        5.3150    -1.6510    -2.1160 H     1 <1>   0.0800 
 34 H        6.9370    -1.5020    -0.3730 H     1 <1>   0.0800 
 35 H        5.6940    -2.4560     0.4040 H     1 <1>   0.0800 
 36 H        4.2510     0.7760    -1.8100 H     1 <1>   0.0800 
 37 H        5.9910     0.6170    -1.8180 H     1 <1>   0.0800 
 38 H       -0.8650     7.0440     1.1090 H     1 <1>   0.0800 
 39 H       -0.6960     5.8580     2.3990 H     1 <1>   0.0800 
 40 H       -1.9620     5.6680     1.1710 H     1 <1>   0.0800 
 41 H        6.6680    -0.1040     1.4570 H     1 <1>   0.0800 
 42 H        5.0150    -0.6200     1.7200 H     1 <1>   0.0800 
 43 H        4.2300     1.1210     0.5280 H     1 <1>   0.0800 
 44 H        5.8560     1.6980     0.2290 H     1 <1>   0.0800 
@<TRIPOS>BOND
  1   1   2  2   
  2   1   3  2   
  3   1   4  am  
  4   1   5  1   
  5   4   6  1   
  6   4   7  1   
  7   5   8  ar  
  8   5   9  ar  
  9   6  10  1   
 10   6  23  1   
 11   6  24  1   
 12   7  25  1   
 13   7  26  1   
 14   7  27  1   
 15   8  11  ar  
 16   8  28  1   
 17   9  12  ar  
 18   9  29  1   
 19  10  13  2   
 20  10  14  am  
 21  11  15  ar  
 22  11  30  1   
 23  12  15  ar  
 24  12  31  1   
 25  14  16  1   
 26  14  32  1   
 27  15  17  1   
 28  16  18  1   
 29  16  19  1   
 30  16  33  1   
 31  17  20  1   
 32  18  21  1   
 33  18  34  1   
 34  18  35  1   
 35  19  22  1   
 36  19  36  1   
 37  19  37  1   
 38  20  38  1   
 39  20  39  1   
 40  20  40  1   
 41  21  22  1   
 42  21  41  1   
 43  21  42  1   
 44  22  43  1   
 45  22  44  1   
@<TRIPOS>SUBSTRUCTURE
  1 ****   8 GROUP 4 **** **** 0

# MOE 2024.06 (io_trps.svl 2023.06)
