@<TRIPOS>MOLECULE
NONAME
39 40 1 0 0 
SMALL
USER_CHARGES


@<TRIPOS>ATOM
  1 O       -0.9700    -0.9890    -1.1720 O.2   1 <1>  -0.5700 
  2 C       -1.9300    -1.6960    -0.9360 C.2   1 <1>   0.7060 
  3 O       -3.0870    -1.0860    -0.6840 O.3   1 <1>  -0.2330 
  4 C       -1.8900    -3.1350    -0.9290 C.2   1 <1>  -0.1240 
  5 C       -4.2350    -1.7530    -0.4510 C.ar  1 <1>   0.0820 
  6 C       -3.0150    -3.8570    -0.6760 C.2   1 <1>  -0.1670 
  7 C       -0.5200    -3.7680    -1.2040 C.3   1 <1>   0.0390 
  8 C       -4.2520    -3.1560    -0.4420 C.ar  1 <1>   0.0280 
  9 C       -5.3810    -1.0070    -0.2280 C.ar  1 <1>  -0.1500 
 10 C       -3.0520    -5.3860    -0.6080 C.3   1 <1>  -0.1020 
 11 C        0.1780    -4.1530     0.0840 C.2   1 <1>   0.6590 
 12 C       -5.4860    -3.7720    -0.2020 C.ar  1 <1>  -0.1500 
 13 C       -6.5900    -1.6430     0.0100 C.ar  1 <1>   0.0830 
 14 O        0.4200    -5.3040     0.3450 O.2   1 <1>  -0.5700 
 15 O        0.5000    -3.1600     0.9020 O.3   1 <1>  -0.4300 
 16 C       -6.6280    -3.0300     0.0190 C.ar  1 <1>  -0.1500 
 17 O       -7.7620    -1.0050     0.2360 O.3   1 <1>  -0.3630 
 18 C        1.1460    -3.3890     2.1360 C.3   1 <1>   0.0400 
 19 C       -7.8910     0.3980     0.2910 C.3   1 <1>   0.2000 
 20 C       -7.4530     0.8820     1.6750 C.3   1 <1>  -0.2400 
 21 C       -9.3610     0.7220     0.0350 C.3   1 <1>  -0.2400 
 22 H        0.1220    -3.0990    -1.7460 H     1 <1>   0.0800 
 23 H       -0.6280    -4.6410    -1.8180 H     1 <1>   0.0800 
 24 H       -5.2990     0.0620    -0.2460 H     1 <1>   0.1500 
 25 H       -3.6800    -5.7740    -1.3900 H     1 <1>   0.0800 
 26 H       -3.4480    -5.6980     0.3420 H     1 <1>   0.0800 
 27 H       -2.0860    -5.8420    -0.7050 H     1 <1>   0.0800 
 28 H       -5.5670    -4.8420    -0.1870 H     1 <1>   0.1500 
 29 H       -7.5690    -3.5170     0.2030 H     1 <1>   0.1500 
 30 H        1.3040    -2.4420     2.6190 H     1 <1>   0.0800 
 31 H        2.0890    -3.8740     1.9510 H     1 <1>   0.0800 
 32 H        0.5200    -4.0170     2.7460 H     1 <1>   0.0800 
 33 H       -7.2930     0.8350    -0.4900 H     1 <1>   0.0800 
 34 H       -8.0540     0.4200     2.4370 H     1 <1>   0.0800 
 35 H       -7.5710     1.9480     1.7440 H     1 <1>   0.0800 
 36 H       -6.4200     0.6460     1.8510 H     1 <1>   0.0800 
 37 H       -9.9820     0.2660     0.7860 H     1 <1>   0.0800 
 38 H       -9.6510     0.3610    -0.9340 H     1 <1>   0.0800 
 39 H       -9.5140     1.7860     0.0610 H     1 <1>   0.0800 
@<TRIPOS>BOND
  1   1   2  2   
  2   2   3  1   
  3   2   4  1   
  4   3   5  1   
  5   4   6  2   
  6   4   7  1   
  7   5   8  ar  
  8   5   9  ar  
  9   6   8  1   
 10   6  10  1   
 11   7  11  1   
 12   7  22  1   
 13   7  23  1   
 14   8  12  ar  
 15   9  13  ar  
 16   9  24  1   
 17  10  25  1   
 18  10  26  1   
 19  10  27  1   
 20  11  14  2   
 21  11  15  1   
 22  12  16  ar  
 23  12  28  1   
 24  13  16  ar  
 25  13  17  1   
 26  15  18  1   
 27  16  29  1   
 28  17  19  1   
 29  18  30  1   
 30  18  31  1   
 31  18  32  1   
 32  19  20  1   
 33  19  21  1   
 34  19  33  1   
 35  20  34  1   
 36  20  35  1   
 37  20  36  1   
 38  21  37  1   
 39  21  38  1   
 40  21  39  1   
@<TRIPOS>SUBSTRUCTURE
  1 ****   5 GROUP 4 **** **** 0

# MOE 2024.06 (io_trps.svl 2023.06)
