@<TRIPOS>MOLECULE
NONAME
32 33 1 0 0 
SMALL
USER_CHARGES


@<TRIPOS>ATOM
  1 S        2.5380    -3.4290    -1.9530 S.3   1 <1>  -0.0800 
  2 C        2.1990    -2.8000    -0.3360 C.2   1 <1>  -0.0450 
  3 C        4.2060    -2.9080    -1.8900 C.2   1 <1>  -0.1100 
  4 C        0.8690    -2.9510     0.1960 C.2   1 <1>   0.7150 
  5 C        3.3370    -2.2420     0.1560 C.2   1 <1>  -0.1500 
  6 C        4.4630    -2.3030    -0.7170 C.2   1 <1>  -0.1500 
  7 O       -0.0170    -3.5200    -0.4130 O.2   1 <1>  -0.5700 
  8 N        0.5490    -2.4160     1.4130 N.am  1 <1>  -0.7300 
  9 C       -0.6620    -2.7310     2.2330 C.3   1 <1>   0.1400 
 10 C       -1.9160    -1.9510     1.7790 C.3   1 <1>   0.3430 
 11 N       -2.3590    -2.3570     0.4140 N.4   1 <1>  -0.9590 
 12 C       -3.1220    -1.3330    -0.3320 C.3   1 <1>   0.3430 
 13 C       -3.1470    -3.6070     0.3560 C.3   1 <1>   0.3430 
 14 C       -3.8120    -2.1090    -1.4470 C.3   1 <1>  -0.1600 
 15 C       -3.7670    -3.5840    -1.0320 C.3   1 <1>  -0.1600 
 16 H        4.8250    -3.1110    -2.7460 H     1 <1>   0.1500 
 17 H        3.4370    -1.7790     1.1210 H     1 <1>   0.1500 
 18 H        5.4170    -1.8920    -0.4290 H     1 <1>   0.1500 
 19 H        1.3160    -1.9680     1.9210 H     1 <1>   0.3700 
 20 H       -0.4530    -2.4810     3.2590 H     1 <1>   0.0800 
 21 H       -0.8580    -3.7890     2.1920 H     1 <1>   0.0800 
 22 H       -1.6790    -0.9000     1.7870 H     1 <1>   0.0800 
 23 H       -2.7170    -2.1150     2.4800 H     1 <1>   0.0800 
 24 H       -1.4970    -2.5700    -0.1320 H     1 <1>   0.4500 
 25 H       -2.4760    -0.5650    -0.7240 H     1 <1>   0.0800 
 26 H       -3.8650    -0.8890     0.3110 H     1 <1>   0.0800 
 27 H       -3.9240    -3.5890     1.1030 H     1 <1>   0.0800 
 28 H       -2.5230    -4.4760     0.4960 H     1 <1>   0.0800 
 29 H       -3.2850    -1.9650    -2.3750 H     1 <1>   0.0800 
 30 H       -4.8230    -1.7620    -1.5710 H     1 <1>   0.0800 
 31 H       -4.7450    -4.0330    -1.0230 H     1 <1>   0.0800 
 32 H       -3.1400    -4.1400    -1.7090 H     1 <1>   0.0800 
@<TRIPOS>BOND
  1   1   2  1   
  2   1   3  1   
  3   2   4  1   
  4   2   5  2   
  5   3   6  2   
  6   3  16  1   
  7   4   7  2   
  8   4   8  am  
  9   5   6  1   
 10   5  17  1   
 11   6  18  1   
 12   8   9  1   
 13   8  19  1   
 14   9  10  1   
 15   9  20  1   
 16   9  21  1   
 17  10  11  1   
 18  10  22  1   
 19  10  23  1   
 20  11  12  1   
 21  11  13  1   
 22  11  24  1   
 23  12  14  1   
 24  12  25  1   
 25  12  26  1   
 26  13  15  1   
 27  13  27  1   
 28  13  28  1   
 29  14  15  1   
 30  14  29  1   
 31  14  30  1   
 32  15  31  1   
 33  15  32  1   
@<TRIPOS>SUBSTRUCTURE
  1 ****   7 GROUP 4 **** **** 0

# MOE 2024.06 (io_trps.svl 2023.06)
