@<TRIPOS>MOLECULE
NONAME
33 34 1 0 0 
SMALL
USER_CHARGES


@<TRIPOS>ATOM
  1 N       -1.3100     0.5090     1.6770 N.ar  1 <1>  -0.6200 
  2 C       -2.3000    -0.1360     1.0900 C.ar  1 <1>   0.1600 
  3 C       -0.6900     1.4080     0.9310 C.ar  1 <1>   0.1600 
  4 C       -2.7270     0.0830    -0.2110 C.ar  1 <1>  -0.1440 
  5 C       -1.0210     1.6960    -0.3820 C.ar  1 <1>  -0.1500 
  6 C       -2.0650     1.0220    -0.9800 C.ar  1 <1>  -0.1500 
  7 C       -3.8980    -0.6990    -0.7670 C.3   1 <1>   0.4870 
  8 N       -5.1660    -0.1850    -0.1730 N.4   1 <1>  -0.9590 
  9 C       -6.2880    -1.1180    -0.4650 C.3   1 <1>   0.3430 
 10 C       -5.4300     1.2270    -0.5840 C.3   1 <1>   0.3430 
 11 C       -7.5390    -0.7910     0.3530 C.3   1 <1>  -0.1600 
 12 C       -6.1950     1.9510     0.5230 C.3   1 <1>  -0.1600 
 13 C       -8.2590     0.4790    -0.1220 C.3   1 <1>  -0.1600 
 14 C       -7.7230     1.7790     0.4920 C.3   1 <1>  -0.1600 
 15 H       -2.7930    -0.8790     1.6940 H     1 <1>   0.1500 
 16 H        0.1270     1.9420     1.3890 H     1 <1>   0.1500 
 17 H       -0.4620     2.4390    -0.9240 H     1 <1>   0.1500 
 18 H       -2.3330     1.2320    -2.0030 H     1 <1>   0.1500 
 19 H       -3.7710    -1.7410    -0.5210 H     1 <1>   0.0800 
 20 H       -3.9270    -0.6050    -1.8400 H     1 <1>   0.0800 
 21 H       -5.0340    -0.1620     0.8460 H     1 <1>   0.4500 
 22 H       -5.9840    -2.1240    -0.2240 H     1 <1>   0.0800 
 23 H       -6.5290    -1.0880    -1.5160 H     1 <1>   0.0800 
 24 H       -5.9770     1.2650    -1.5130 H     1 <1>   0.0800 
 25 H       -4.4940     1.7430    -0.7250 H     1 <1>   0.0800 
 26 H       -7.3150    -0.7410     1.4040 H     1 <1>   0.0800 
 27 H       -8.2210    -1.6140     0.2200 H     1 <1>   0.0800 
 28 H       -5.9880     3.0030     0.4330 H     1 <1>   0.0800 
 29 H       -5.8110     1.6510     1.4830 H     1 <1>   0.0800 
 30 H       -9.3010     0.4020     0.1470 H     1 <1>   0.0800 
 31 H       -8.2270     0.5390    -1.1970 H     1 <1>   0.0800 
 32 H       -8.1520     2.6000    -0.0600 H     1 <1>   0.0800 
 33 H       -8.0920     1.8680     1.5010 H     1 <1>   0.0800 
@<TRIPOS>BOND
  1   1   2  ar  
  2   1   3  ar  
  3   2   4  ar  
  4   2  15  1   
  5   3   5  ar  
  6   3  16  1   
  7   4   6  ar  
  8   4   7  1   
  9   5   6  ar  
 10   5  17  1   
 11   6  18  1   
 12   7   8  1   
 13   7  19  1   
 14   7  20  1   
 15   8   9  1   
 16   8  10  1   
 17   8  21  1   
 18   9  11  1   
 19   9  22  1   
 20   9  23  1   
 21  10  12  1   
 22  10  24  1   
 23  10  25  1   
 24  11  13  1   
 25  11  26  1   
 26  11  27  1   
 27  12  14  1   
 28  12  28  1   
 29  12  29  1   
 30  13  14  1   
 31  13  30  1   
 32  13  31  1   
 33  14  32  1   
 34  14  33  1   
@<TRIPOS>SUBSTRUCTURE
  1 ****   8 GROUP 4 **** **** 0

# MOE 2024.06 (io_trps.svl 2023.06)
