@<TRIPOS>MOLECULE
NONAME
43 46 1 0 0 
SMALL
USER_CHARGES


@<TRIPOS>ATOM
  1 S       -0.3190     0.1510    -0.5210 S.3   1 <1>  -0.3320 
  2 C       -1.7860    -0.8680    -0.4180 C.ar  1 <1>   0.7220 
  3 C        1.0740    -0.9970    -0.1500 C.3   1 <1>   0.0700 
  4 N       -2.9440    -0.2190    -0.6700 N.ar  1 <1>  -0.3100 
  5 N       -1.6010    -2.1290    -0.1130 N.ar  1 <1>  -0.5670 
  6 C        2.3590    -0.1680    -0.1850 C.3   1 <1>   0.3430 
  7 N       -4.0700    -0.8690    -0.6210 N.ar  1 <1>  -0.2560 
  8 C       -2.7690    -2.7820    -0.0640 C.ar  1 <1>   0.1050 
  9 N        3.5740    -0.9950     0.0960 N.4   1 <1>  -0.9590 
 10 C       -3.9840    -2.1670    -0.3130 C.ar  1 <1>   0.2560 
 11 N       -2.9870    -4.1060     0.2260 N.pl3 1 <1>   0.0480 
 12 C        4.7900    -0.1520     0.3600 C.3   1 <1>   0.3430 
 13 C        3.8830    -2.0230    -0.9610 C.3   1 <1>   0.3430 
 14 C       -4.9950    -3.1540    -0.1730 C.ar  1 <1>   0.0000 
 15 C       -4.3500    -4.3450     0.1610 C.ar  1 <1>  -0.1520 
 16 C       -1.9630    -5.1110     0.5660 C.3   1 <1>   0.0160 
 17 C        6.0200    -1.0320     0.6900 C.3   1 <1>   0.1200 
 18 C        5.1920    -2.7840    -0.6460 C.3   1 <1>   0.1200 
 19 C       -6.3840    -3.1240    -0.3030 C.ar  1 <1>  -0.1500 
 20 C       -5.0730    -5.5240     0.3710 C.ar  1 <1>  -0.1500 
 21 O        5.7100    -2.3970     0.5980 O.3   1 <1>  -0.5600 
 22 C       -7.0730    -4.2950    -0.0920 C.ar  1 <1>   0.1900 
 23 C       -6.4460    -5.4950     0.2430 C.ar  1 <1>  -0.1500 
 24 F       -8.3760    -4.2930    -0.2070 F     1 <1>  -0.1900 
 25 H        1.0540    -1.7610    -0.9060 H     1 <1>   0.0800 
 26 H        0.8880    -1.4120     0.8250 H     1 <1>   0.0800 
 27 H        2.2770     0.6120     0.5550 H     1 <1>   0.0800 
 28 H        2.4520     0.2990    -1.1520 H     1 <1>   0.0800 
 29 H        3.4430    -1.5340     0.9680 H     1 <1>   0.4500 
 30 H        4.6080     0.5170     1.1840 H     1 <1>   0.0800 
 31 H        5.0140     0.4510    -0.5040 H     1 <1>   0.0800 
 32 H        3.9800    -1.5470    -1.9230 H     1 <1>   0.0800 
 33 H        3.0770    -2.7340    -1.0310 H     1 <1>   0.0800 
 34 H       -0.9900    -4.6560     0.5650 H     1 <1>   0.0800 
 35 H       -1.9880    -5.9030    -0.1590 H     1 <1>   0.0800 
 36 H       -2.1680    -5.5100     1.5430 H     1 <1>   0.0800 
 37 H        6.3540    -0.8400     1.6950 H     1 <1>   0.0800 
 38 H        6.8350    -0.8160     0.0200 H     1 <1>   0.0800 
 39 H        5.9350    -2.5990    -1.4030 H     1 <1>   0.0800 
 40 H        5.0070    -3.8440    -0.6100 H     1 <1>   0.0800 
 41 H       -6.8900    -2.2120    -0.5610 H     1 <1>   0.1500 
 42 H       -4.5670    -6.4380     0.6290 H     1 <1>   0.1500 
 43 H       -7.0430    -6.3760     0.3960 H     1 <1>   0.1500 
@<TRIPOS>BOND
  1   1   2  1   
  2   1   3  1   
  3   2   4  ar  
  4   2   5  ar  
  5   3   6  1   
  6   3  25  1   
  7   3  26  1   
  8   4   7  ar  
  9   5   8  ar  
 10   6   9  1   
 11   6  27  1   
 12   6  28  1   
 13   7  10  ar  
 14   8  10  ar  
 15   8  11  1   
 16   9  12  1   
 17   9  13  1   
 18   9  29  1   
 19  10  14  1   
 20  11  15  1   
 21  11  16  1   
 22  12  17  1   
 23  12  30  1   
 24  12  31  1   
 25  13  18  1   
 26  13  32  1   
 27  13  33  1   
 28  14  15  ar  
 29  14  19  ar  
 30  15  20  ar  
 31  16  34  1   
 32  16  35  1   
 33  16  36  1   
 34  17  21  1   
 35  17  37  1   
 36  17  38  1   
 37  18  21  1   
 38  18  39  1   
 39  18  40  1   
 40  19  22  ar  
 41  19  41  1   
 42  20  23  ar  
 43  20  42  1   
 44  22  23  ar  
 45  22  24  1   
 46  23  43  1   
@<TRIPOS>SUBSTRUCTURE
  1 ****   5 GROUP 4 **** **** 0

# MOE 2024.06 (io_trps.svl 2023.06)
