@<TRIPOS>MOLECULE
NONAME
35 35 1 0 0 
SMALL
USER_CHARGES


@<TRIPOS>ATOM
  1 O        1.0740     2.0230     1.8270 O.2   1 <1>  -0.5700 
  2 C        0.4080     2.0510     0.8190 C.2   1 <1>   0.5690 
  3 N        0.9140     1.6870    -0.3890 N.am  1 <1>  -0.7300 
  4 C       -1.0420     2.5120     0.9170 C.3   1 <1>   0.1810 
  5 C        2.3000     1.2530    -0.6650 C.3   1 <1>   0.1400 
  6 O       -1.6740     2.5300    -0.3590 O.3   1 <1>  -0.3620 
  7 C        2.9340     2.1340    -1.7530 C.3   1 <1>  -0.0800 
  8 C       -2.9670     2.9150    -0.4940 C.ar  1 <1>   0.0820 
  9 C        2.1670     2.0610    -3.0840 C.3   1 <1>  -0.2400 
 10 C        4.3930     1.7190    -1.9790 C.3   1 <1>  -0.2400 
 11 C       -3.7740     3.3110     0.5690 C.ar  1 <1>  -0.1500 
 12 C       -3.4910     2.9040    -1.7760 C.ar  1 <1>  -0.1500 
 13 C       -5.0860     3.6890     0.3390 C.ar  1 <1>  -0.1500 
 14 C       -4.8020     3.2820    -2.0020 C.ar  1 <1>  -0.1500 
 15 C       -5.6070     3.6780    -0.9460 C.ar  1 <1>  -0.1440 
 16 C       -7.0460     4.0920    -1.1940 C.3   1 <1>  -0.0970 
 17 H        0.2910     1.7470    -1.1990 H     1 <1>   0.3700 
 18 H       -1.0680     3.5060     1.3220 H     1 <1>   0.0800 
 19 H       -1.5820     1.8380     1.5550 H     1 <1>   0.0800 
 20 H        2.2890     0.2240    -0.9820 H     1 <1>   0.0800 
 21 H        2.8830     1.3180     0.2390 H     1 <1>   0.0800 
 22 H        2.9290     3.1530    -1.4030 H     1 <1>   0.0800 
 23 H        2.1120     1.0450    -3.4350 H     1 <1>   0.0800 
 24 H        2.6640     2.6540    -3.8320 H     1 <1>   0.0800 
 25 H        1.1690     2.4440    -2.9720 H     1 <1>   0.0800 
 26 H        4.4510     0.7040    -2.3310 H     1 <1>   0.0800 
 27 H        4.9490     1.7970    -1.0610 H     1 <1>   0.0800 
 28 H        4.8560     2.3620    -2.7060 H     1 <1>   0.0800 
 29 H       -3.4080     3.3330     1.5770 H     1 <1>   0.1500 
 30 H       -2.8680     2.5970    -2.5960 H     1 <1>   0.1500 
 31 H       -5.7040     3.9920     1.1660 H     1 <1>   0.1500 
 32 H       -5.1940     3.2660    -3.0040 H     1 <1>   0.1500 
 33 H       -7.1490     4.5290    -2.1710 H     1 <1>   0.0800 
 34 H       -7.3610     4.8170    -0.4640 H     1 <1>   0.0800 
 35 H       -7.6880     3.2320    -1.1280 H     1 <1>   0.0800 
@<TRIPOS>BOND
  1   1   2  2   
  2   2   3  am  
  3   2   4  1   
  4   3   5  1   
  5   3  17  1   
  6   4   6  1   
  7   4  18  1   
  8   4  19  1   
  9   5   7  1   
 10   5  20  1   
 11   5  21  1   
 12   6   8  1   
 13   7   9  1   
 14   7  10  1   
 15   7  22  1   
 16   8  11  ar  
 17   8  12  ar  
 18   9  23  1   
 19   9  24  1   
 20   9  25  1   
 21  10  26  1   
 22  10  27  1   
 23  10  28  1   
 24  11  13  ar  
 25  11  29  1   
 26  12  14  ar  
 27  12  30  1   
 28  13  15  ar  
 29  13  31  1   
 30  14  15  ar  
 31  14  32  1   
 32  15  16  1   
 33  16  33  1   
 34  16  34  1   
 35  16  35  1   
@<TRIPOS>SUBSTRUCTURE
  1 ****   6 GROUP 4 **** **** 0

# MOE 2024.06 (io_trps.svl 2023.06)
