@<TRIPOS>MOLECULE
NONAME
27 28 1 0 0 
SMALL
USER_CHARGES


@<TRIPOS>ATOM
  1 S       -0.1610    -0.0960    -1.1690 S.o2  1 <1>   1.3330 
  2 O       -0.8240    -0.8120    -2.2330 O.2   1 <1>  -0.6500 
  3 O        0.1640     1.3020    -1.3440 O.2   1 <1>  -0.6500 
  4 N        1.2980    -0.9060    -0.9800 N.am  1 <1>  -0.7890 
  5 C       -1.0100    -0.3810     0.3920 C.3   1 <1>   0.0890 
  6 C        2.3120    -0.1880    -0.2450 C.3   1 <1>   0.1310 
  7 C       -2.4060     0.2250     0.4610 C.ar  1 <1>  -0.1440 
  8 C        3.4790    -0.9680     0.2520 C.3   1 <1>  -0.2000 
  9 C        2.4510    -0.4520     1.2150 C.3   1 <1>  -0.2000 
 10 C       -2.6340     1.3860     1.1830 C.ar  1 <1>  -0.1500 
 11 C       -3.4600    -0.3820    -0.2050 C.ar  1 <1>  -0.1500 
 12 C       -3.9050     1.9310     1.2450 C.ar  1 <1>  -0.1500 
 13 C       -4.7310     0.1620    -0.1430 C.ar  1 <1>  -0.1500 
 14 C       -4.9540     1.3180     0.5840 C.ar  1 <1>  -0.1500 
 15 H        1.6300    -1.0170    -1.9370 H     1 <1>   0.4200 
 16 H       -0.4190     0.0230     1.1890 H     1 <1>   0.0800 
 17 H       -1.0890    -1.4370     0.5550 H     1 <1>   0.0800 
 18 H        2.5030     0.8070    -0.6230 H     1 <1>   0.1000 
 19 H        4.4510    -0.5080     0.2550 H     1 <1>   0.1000 
 20 H        3.5180    -2.0250     0.0530 H     1 <1>   0.1000 
 21 H        1.8050    -1.1670     1.6910 H     1 <1>   0.1000 
 22 H        2.7290     0.3590     1.8660 H     1 <1>   0.1000 
 23 H       -1.8270     1.8780     1.6980 H     1 <1>   0.1500 
 24 H       -3.2980    -1.2780    -0.7820 H     1 <1>   0.1500 
 25 H       -4.0770     2.8320     1.8070 H     1 <1>   0.1500 
 26 H       -5.5440    -0.3120    -0.6630 H     1 <1>   0.1500 
 27 H       -5.9420     1.7420     0.6320 H     1 <1>   0.1500 
@<TRIPOS>BOND
  1   1   2  2   
  2   1   3  2   
  3   1   4  am  
  4   1   5  1   
  5   4   6  1   
  6   4  15  1   
  7   5   7  1   
  8   5  16  1   
  9   5  17  1   
 10   6   8  1   
 11   6   9  1   
 12   6  18  1   
 13   7  10  ar  
 14   7  11  ar  
 15   8   9  1   
 16   8  19  1   
 17   8  20  1   
 18   9  21  1   
 19   9  22  1   
 20  10  12  ar  
 21  10  23  1   
 22  11  13  ar  
 23  11  24  1   
 24  12  14  ar  
 25  12  25  1   
 26  13  14  ar  
 27  13  26  1   
 28  14  27  1   
@<TRIPOS>SUBSTRUCTURE
  1 ****   5 GROUP 4 **** **** 0

# MOE 2024.06 (io_trps.svl 2023.06)
