@<TRIPOS>MOLECULE
NONAME
46 47 1 0 0 
SMALL
USER_CHARGES


@<TRIPOS>ATOM
  1 O       -0.0550    -0.6820     0.3610 O.3   1 <1>  -0.5600 
  2 C        0.3450    -1.2240    -0.8630 C.3   1 <1>   0.1200 
  3 C        0.8970     0.1660     0.9290 C.3   1 <1>   0.1200 
  4 C        1.6450    -2.0310    -0.6890 C.3   1 <1>   0.1100 
  5 C        2.2130    -0.5980     1.1680 C.3   1 <1>   0.1100 
  6 N        2.7200    -1.2070    -0.0870 N.3   1 <1>  -0.8100 
  7 C        3.9390    -1.9960     0.1140 C.3   1 <1>   0.1100 
  8 C        5.1490    -1.0600     0.2410 C.3   1 <1>   0.3430 
  9 N        6.4310    -1.8250     0.2850 N.4   1 <1>  -0.9060 
 10 C        7.6220    -0.9650     0.4230 C.3   1 <1>   0.4230 
 11 C        7.8790    -0.2040    -0.8840 C.3   1 <1>  -0.1600 
 12 C        8.8140    -1.8570     0.7760 C.3   1 <1>  -0.1600 
 13 C        9.1740     0.6180    -0.7950 C.3   1 <1>  -0.1600 
 14 C       10.1130    -1.0420     0.8670 C.3   1 <1>  -0.1600 
 15 C       10.3860    -0.2570    -0.4300 C.3   1 <1>  -0.0800 
 16 C       11.6430     0.6260    -0.3180 C.3   1 <1>  -0.1600 
 17 C       12.9370    -0.1750    -0.1260 C.3   1 <1>  -0.2400 
 18 H        0.4870    -0.4220    -1.5670 H     1 <1>   0.0800 
 19 H       -0.4470    -1.8600    -1.2150 H     1 <1>   0.0800 
 20 H        0.4990     0.5270     1.8610 H     1 <1>   0.0800 
 21 H        1.0540     1.0020     0.2700 H     1 <1>   0.0800 
 22 H        1.9590    -2.3880    -1.6540 H     1 <1>   0.0800 
 23 H        1.4370    -2.8840    -0.0650 H     1 <1>   0.0800 
 24 H        2.0330    -1.3620     1.9060 H     1 <1>   0.0800 
 25 H        2.9390     0.0900     1.5640 H     1 <1>   0.0800 
 26 H        4.0860    -2.6270    -0.7460 H     1 <1>   0.0800 
 27 H        3.8350    -2.6150     0.9890 H     1 <1>   0.0800 
 28 H        5.0440    -0.4690     1.1360 H     1 <1>   0.0800 
 29 H        5.1500    -0.3960    -0.6080 H     1 <1>   0.0800 
 30 H        6.5350    -2.3800    -0.5720 H     1 <1>   0.4500 
 31 H        6.4130    -2.4820     1.0730 H     1 <1>   0.4500 
 32 H        7.4740    -0.2560     1.2230 H     1 <1>   0.0800 
 33 H        7.0690     0.4720    -1.0920 H     1 <1>   0.0800 
 34 H        7.9700    -0.8960    -1.7030 H     1 <1>   0.0800 
 35 H        8.9440    -2.6160     0.0230 H     1 <1>   0.0800 
 36 H        8.6470    -2.3380     1.7240 H     1 <1>   0.0800 
 37 H        9.0570     1.3940    -0.0570 H     1 <1>   0.0800 
 38 H        9.3520     1.0980    -1.7430 H     1 <1>   0.0800 
 39 H       10.9270    -1.7180     1.0640 H     1 <1>   0.0800 
 40 H       10.0530    -0.3560     1.6950 H     1 <1>   0.0800 
 41 H       10.5460    -0.9620    -1.2310 H     1 <1>   0.0800 
 42 H       11.5340     1.3210     0.4980 H     1 <1>   0.0800 
 43 H       11.7440     1.2050    -1.2210 H     1 <1>   0.0800 
 44 H       12.9520    -0.6690     0.8280 H     1 <1>   0.0800 
 45 H       13.7830     0.4890    -0.1680 H     1 <1>   0.0800 
 46 H       13.0470    -0.9100    -0.9040 H     1 <1>   0.0800 
@<TRIPOS>BOND
  1   1   2  1   
  2   1   3  1   
  3   2   4  1   
  4   2  18  1   
  5   2  19  1   
  6   3   5  1   
  7   3  20  1   
  8   3  21  1   
  9   4   6  1   
 10   4  22  1   
 11   4  23  1   
 12   5   6  1   
 13   5  24  1   
 14   5  25  1   
 15   6   7  1   
 16   7   8  1   
 17   7  26  1   
 18   7  27  1   
 19   8   9  1   
 20   8  28  1   
 21   8  29  1   
 22   9  10  1   
 23   9  30  1   
 24   9  31  1   
 25  10  11  1   
 26  10  12  1   
 27  10  32  1   
 28  11  13  1   
 29  11  33  1   
 30  11  34  1   
 31  12  14  1   
 32  12  35  1   
 33  12  36  1   
 34  13  15  1   
 35  13  37  1   
 36  13  38  1   
 37  14  15  1   
 38  14  39  1   
 39  14  40  1   
 40  15  16  1   
 41  15  41  1   
 42  16  17  1   
 43  16  42  1   
 44  16  43  1   
 45  17  44  1   
 46  17  45  1   
 47  17  46  1   
@<TRIPOS>SUBSTRUCTURE
  1 ****   8 GROUP 4 **** **** 0

# MOE 2024.06 (io_trps.svl 2023.06)
