@<TRIPOS>MOLECULE
NONAME
45 46 1 0 0 
SMALL
USER_CHARGES


@<TRIPOS>ATOM
  1 O       -1.1540    -0.4800     0.2970 O.2   1 <1>  -0.5700 
  2 C       -2.0600     0.2920     0.0780 C.2   1 <1>   0.5690 
  3 N       -3.2030    -0.1650    -0.5640 N.am  1 <1>  -0.6600 
  4 C       -1.8230     1.7710     0.5490 C.3   1 <1>   0.0610 
  5 C       -3.4010    -1.6030    -0.9430 C.3   1 <1>   0.2200 
  6 C       -4.3900     0.6630    -0.9480 C.3   1 <1>   0.3200 
  7 C       -0.5030     1.8810     1.3570 C.3   1 <1>  -0.2400 
  8 C       -2.9200     2.2910     1.5070 C.3   1 <1>  -0.2400 
  9 C       -1.6510     2.7310    -0.6480 C.3   1 <1>  -0.2400 
 10 C       -3.4310    -2.5040     0.2930 C.3   1 <1>  -0.2400 
 11 C       -2.3720    -2.0560    -1.9800 C.3   1 <1>  -0.2400 
 12 C       -5.6340     0.2940    -0.1490 C.2   1 <1>   0.2980 
 13 O       -5.6210     0.4570     1.1470 O.3   1 <1>  -0.0190 
 14 N       -6.7140    -0.1730    -0.6280 N.2   1 <1>  -0.5650 
 15 N       -6.7930     0.0590     1.5280 N.2   1 <1>  -0.4100 
 16 C       -7.4430    -0.3180     0.4840 C.2   1 <1>   0.4620 
 17 C       -8.7990    -0.8420     0.4730 C.ar  1 <1>   0.0540 
 18 C       -9.5270    -0.9930     1.6560 C.ar  1 <1>  -0.1500 
 19 C       -9.4340    -1.2180    -0.7140 C.ar  1 <1>  -0.1500 
 20 C      -10.8170    -1.4910     1.6570 C.ar  1 <1>  -0.1500 
 21 C      -10.7240    -1.7160    -0.7210 C.ar  1 <1>  -0.1500 
 22 C      -11.4190    -1.8540     0.4660 C.ar  1 <1>  -0.1500 
 23 H       -4.3650    -1.7070    -1.4140 H     1 <1>   0.0800 
 24 H       -4.5960     0.5000    -1.9910 H     1 <1>   0.0800 
 25 H       -4.2090     1.7060    -0.8340 H     1 <1>   0.0800 
 26 H        0.3340     1.5680     0.7570 H     1 <1>   0.0800 
 27 H       -0.5440     1.2460     2.2250 H     1 <1>   0.0800 
 28 H       -0.3210     2.8890     1.6830 H     1 <1>   0.0800 
 29 H       -3.1030     1.5630     2.2790 H     1 <1>   0.0800 
 30 H       -3.8450     2.5020     1.0150 H     1 <1>   0.0800 
 31 H       -2.6080     3.2050     1.9800 H     1 <1>   0.0800 
 32 H       -0.8370     2.3940    -1.2670 H     1 <1>   0.0800 
 33 H       -1.4210     3.7250    -0.3040 H     1 <1>   0.0800 
 34 H       -2.5240     2.7920    -1.2630 H     1 <1>   0.0800 
 35 H       -2.4680    -2.5510     0.7650 H     1 <1>   0.0800 
 36 H       -3.7090    -3.5020     0.0060 H     1 <1>   0.0800 
 37 H       -4.1550    -2.1420     1.0000 H     1 <1>   0.0800 
 38 H       -1.3870    -2.1140    -1.5540 H     1 <1>   0.0800 
 39 H       -2.3590    -1.3770    -2.8120 H     1 <1>   0.0800 
 40 H       -2.6310    -3.0340    -2.3430 H     1 <1>   0.0800 
 41 H       -9.0740    -0.7150     2.5920 H     1 <1>   0.1500 
 42 H       -8.9090    -1.1180    -1.6480 H     1 <1>   0.1500 
 43 H      -11.3540    -1.5960     2.5840 H     1 <1>   0.1500 
 44 H      -11.1870    -1.9970    -1.6500 H     1 <1>   0.1500 
 45 H      -12.4240    -2.2410     0.4640 H     1 <1>   0.1500 
@<TRIPOS>BOND
  1   1   2  2   
  2   2   3  am  
  3   2   4  1   
  4   3   5  1   
  5   3   6  1   
  6   4   7  1   
  7   4   8  1   
  8   4   9  1   
  9   5  10  1   
 10   5  11  1   
 11   5  23  1   
 12   6  12  1   
 13   6  24  1   
 14   6  25  1   
 15   7  26  1   
 16   7  27  1   
 17   7  28  1   
 18   8  29  1   
 19   8  30  1   
 20   8  31  1   
 21   9  32  1   
 22   9  33  1   
 23   9  34  1   
 24  10  35  1   
 25  10  36  1   
 26  10  37  1   
 27  11  38  1   
 28  11  39  1   
 29  11  40  1   
 30  12  13  1   
 31  12  14  2   
 32  13  15  1   
 33  14  16  1   
 34  15  16  2   
 35  16  17  1   
 36  17  18  ar  
 37  17  19  ar  
 38  18  20  ar  
 39  18  41  1   
 40  19  21  ar  
 41  19  42  1   
 42  20  22  ar  
 43  20  43  1   
 44  21  22  ar  
 45  21  44  1   
 46  22  45  1   
@<TRIPOS>SUBSTRUCTURE
  1 ****  12 GROUP 4 **** **** 0

# MOE 2024.06 (io_trps.svl 2023.06)
