@<TRIPOS>MOLECULE
NONAME
44 46 1 0 0 
SMALL
USER_CHARGES


@<TRIPOS>ATOM
  1 CL       0.4480    -0.5150     1.6690 Cl    1 <1>  -0.1770 
  2 C        1.7790     0.4210     1.0280 C.ar  1 <1>   0.1770 
  3 C        1.5500     1.4990     0.1890 C.ar  1 <1>   0.1900 
  4 C        3.0730     0.0790     1.3690 C.ar  1 <1>  -0.1500 
  5 F        0.3260     1.8290    -0.1380 F     1 <1>  -0.1900 
  6 C        2.5960     2.2460    -0.3200 C.ar  1 <1>  -0.1500 
  7 C        4.1460     0.8130     0.8700 C.ar  1 <1>   0.1990 
  8 C        3.8910     1.8960     0.0260 C.ar  1 <1>  -0.1500 
  9 N        5.4530     0.4780     1.2120 N.am  1 <1>  -0.6930 
 10 S        6.1700    -1.0420     0.7940 S.o2  1 <1>   1.3330 
 11 C        6.3540     1.5170     1.8050 C.3   1 <1>   0.2570 
 12 O        7.4550    -1.0870     1.4520 O.2   1 <1>  -0.6500 
 13 O        5.1920    -2.0750     1.0230 O.2   1 <1>  -0.6500 
 14 C        6.4210    -0.8620    -0.9600 C.3   1 <1>  -0.1350 
 15 C        7.3980     2.0710     0.8300 C.2   1 <1>   0.5690 
 16 O        7.1500     3.0930     0.2350 O.2   1 <1>  -0.5700 
 17 N        8.5680     1.4050     0.6470 N.am  1 <1>  -0.7300 
 18 C        9.6930     1.8630    -0.1920 C.3   1 <1>   0.2200 
 19 C       10.0250     0.8970    -1.3470 C.3   1 <1>  -0.0800 
 20 C       11.0030     1.9060     0.6100 C.3   1 <1>  -0.1600 
 21 C       11.4690     1.2870    -1.6300 C.3   1 <1>  -0.1600 
 22 C       10.2250    -0.5450    -0.8370 C.3   1 <1>  -0.1600 
 23 C       11.9500     1.0150    -0.2140 C.3   1 <1>  -0.0800 
 24 C       11.5260    -0.4500    -0.0240 C.3   1 <1>  -0.1600 
 25 H        3.2470    -0.7570     2.0230 H     1 <1>   0.1500 
 26 H        2.3970     3.0810    -0.9700 H     1 <1>   0.1500 
 27 H        4.7120     2.4710    -0.3660 H     1 <1>   0.1500 
 28 H        6.8620     1.0990     2.6560 H     1 <1>   0.0800 
 29 H        5.7590     2.3390     2.1600 H     1 <1>   0.0800 
 30 H        7.0420    -0.0140    -1.1680 H     1 <1>   0.0800 
 31 H        5.4800    -0.7300    -1.4550 H     1 <1>   0.0800 
 32 H        6.8950    -1.7400    -1.3540 H     1 <1>   0.0800 
 33 H        8.7040     0.4880     1.0970 H     1 <1>   0.3700 
 34 H        9.4830     2.8430    -0.5900 H     1 <1>   0.0800 
 35 H        9.3660     0.9900    -2.1920 H     1 <1>   0.0800 
 36 H       10.8890     1.5480     1.6180 H     1 <1>   0.0800 
 37 H       11.3760     2.9140     0.6320 H     1 <1>   0.0800 
 38 H       11.5760     2.3210    -1.9160 H     1 <1>   0.0800 
 39 H       11.9410     0.6520    -2.3610 H     1 <1>   0.0800 
 40 H       10.3630    -1.2130    -1.6700 H     1 <1>   0.0800 
 41 H        9.4070    -0.9070    -0.2440 H     1 <1>   0.0800 
 42 H       12.9960     1.1990    -0.0350 H     1 <1>   0.0800 
 43 H       12.2700    -1.1120    -0.4330 H     1 <1>   0.0800 
 44 H       11.3720    -0.6930     1.0140 H     1 <1>   0.0800 
@<TRIPOS>BOND
  1   1   2  1   
  2   2   3  ar  
  3   2   4  ar  
  4   3   5  1   
  5   3   6  ar  
  6   4   7  ar  
  7   4  25  1   
  8   6   8  ar  
  9   6  26  1   
 10   7   8  ar  
 11   7   9  1   
 12   8  27  1   
 13   9  10  am  
 14   9  11  1   
 15  10  12  2   
 16  10  13  2   
 17  10  14  1   
 18  11  15  1   
 19  11  28  1   
 20  11  29  1   
 21  14  30  1   
 22  14  31  1   
 23  14  32  1   
 24  15  16  2   
 25  15  17  am  
 26  17  18  1   
 27  17  33  1   
 28  18  19  1   
 29  18  20  1   
 30  18  34  1   
 31  19  21  1   
 32  19  22  1   
 33  19  35  1   
 34  20  23  1   
 35  20  36  1   
 36  20  37  1   
 37  21  23  1   
 38  21  38  1   
 39  21  39  1   
 40  22  24  1   
 41  22  40  1   
 42  22  41  1   
 43  23  24  1   
 44  23  42  1   
 45  24  43  1   
 46  24  44  1   
@<TRIPOS>SUBSTRUCTURE
  1 ****   9 GROUP 4 **** **** 0

# MOE 2024.06 (io_trps.svl 2023.06)
