@<TRIPOS>MOLECULE
NONAME
37 38 1 0 0 
SMALL
USER_CHARGES


@<TRIPOS>ATOM
  1 F        0.6090    -0.3080     0.1000 F     1 <1>  -0.1900 
  2 C        1.2850     0.8060     0.2190 C.ar  1 <1>   0.1900 
  3 C        2.6460     0.8220    -0.0590 C.ar  1 <1>  -0.1440 
  4 C        0.5840     1.9260     0.6220 C.ar  1 <1>  -0.1500 
  5 C        3.3280     2.0350     0.0750 C.ar  1 <1>   0.1170 
  6 C        3.3820    -0.4470    -0.4920 C.3   1 <1>  -0.0960 
  7 C        1.2660     3.1210     0.7540 C.ar  1 <1>  -0.1500 
  8 N        4.6980     2.1030    -0.2230 N.am  1 <1>  -0.5470 
  9 C        2.6220     3.1680     0.4790 C.ar  1 <1>  -0.1500 
 10 C        5.6800     2.9070     0.2720 C.2   1 <1>   0.6900 
 11 O        5.4840     3.6740     1.1940 O.2   1 <1>  -0.5700 
 12 N        6.9050     2.8120    -0.2980 N.am  1 <1>  -0.7300 
 13 C        8.0900     3.5790     0.1190 C.3   1 <1>   0.2200 
 14 C        8.4090     4.6240    -0.9550 C.3   1 <1>  -0.1600 
 15 C        9.2600     2.6110     0.3180 C.3   1 <1>  -0.1600 
 16 C        9.7020     5.3840    -0.6230 C.3   1 <1>  -0.1600 
 17 C       10.5550     3.3660     0.6530 C.3   1 <1>  -0.1600 
 18 C       10.8770     4.4170    -0.4190 C.3   1 <1>  -0.1600 
 19 H       -0.4690     1.8600     0.8280 H     1 <1>   0.1500 
 20 H        2.7610    -1.3200    -0.4030 H     1 <1>   0.0800 
 21 H        4.2480    -0.6010     0.1260 H     1 <1>   0.0800 
 22 H        3.6900    -0.3600    -1.5190 H     1 <1>   0.0800 
 23 H        0.7480     4.0110     1.0680 H     1 <1>   0.1500 
 24 H        5.0450     1.3460    -0.8000 H     1 <1>   0.3700 
 25 H        3.1390     4.1060     0.5800 H     1 <1>   0.1500 
 26 H        7.0120     2.3070    -1.1720 H     1 <1>   0.3700 
 27 H        7.8900     4.0830     1.0520 H     1 <1>   0.0800 
 28 H        7.5940     5.3240    -1.0190 H     1 <1>   0.0800 
 29 H        8.5220     4.1410    -1.9090 H     1 <1>   0.0800 
 30 H        9.4130     2.0380    -0.5790 H     1 <1>   0.0800 
 31 H        9.0270     1.9340     1.1220 H     1 <1>   0.0800 
 32 H        9.5550     5.9590     0.2750 H     1 <1>   0.0800 
 33 H        9.9330     6.0700    -1.4190 H     1 <1>   0.0800 
 34 H       11.3710     2.6690     0.7320 H     1 <1>   0.0800 
 35 H       10.4450     3.8540     1.6070 H     1 <1>   0.0800 
 36 H       11.7530     4.9710    -0.1280 H     1 <1>   0.0800 
 37 H       11.0970     3.9220    -1.3490 H     1 <1>   0.0800 
@<TRIPOS>BOND
  1   1   2  1   
  2   2   3  ar  
  3   2   4  ar  
  4   3   5  ar  
  5   3   6  1   
  6   4   7  ar  
  7   4  19  1   
  8   5   8  1   
  9   5   9  ar  
 10   6  20  1   
 11   6  21  1   
 12   6  22  1   
 13   7   9  ar  
 14   7  23  1   
 15   8  10  am  
 16   8  24  1   
 17   9  25  1   
 18  10  11  2   
 19  10  12  am  
 20  12  13  1   
 21  12  26  1   
 22  13  14  1   
 23  13  15  1   
 24  13  27  1   
 25  14  16  1   
 26  14  28  1   
 27  14  29  1   
 28  15  17  1   
 29  15  30  1   
 30  15  31  1   
 31  16  18  1   
 32  16  32  1   
 33  16  33  1   
 34  17  18  1   
 35  17  34  1   
 36  17  35  1   
 37  18  36  1   
 38  18  37  1   
@<TRIPOS>SUBSTRUCTURE
  1 ****  10 GROUP 4 **** **** 0

# MOE 2024.06 (io_trps.svl 2023.06)
