@<TRIPOS>MOLECULE
NONAME
37 39 1 0 0 
SMALL
USER_CHARGES


@<TRIPOS>ATOM
  1 BR       1.2750    -1.1710    -1.1030 Br    1 <1>  -0.0570 
  2 C       -0.1890    -1.7400     0.0170 C.2   1 <1>   0.0570 
  3 C       -0.3670    -1.3430     1.2860 C.2   1 <1>  -0.1100 
  4 C       -1.1630    -2.6400    -0.5120 C.2   1 <1>  -0.1500 
  5 S       -1.8210    -2.1030     1.9170 S.3   1 <1>  -0.0800 
  6 C       -2.1200    -2.9390     0.3890 C.2   1 <1>  -0.1400 
  7 C       -3.3490    -3.8210     0.3210 C.3   1 <1>   0.5230 
  8 N       -4.5450    -2.9790     0.5790 N.4   1 <1>  -0.9590 
  9 C       -5.7940    -3.8040     0.7600 C.3   1 <1>   0.3430 
 10 C       -4.7340    -1.9290    -0.4920 C.3   1 <1>   0.3430 
 11 C       -7.0390    -2.9340     1.0300 C.3   1 <1>   0.2090 
 12 C       -5.9690    -1.0420    -0.2350 C.3   1 <1>   0.2090 
 13 N       -7.1900    -1.8760    -0.0140 N.pl3 1 <1>  -0.8380 
 14 C       -8.4130    -1.1920    -0.0260 C.ar  1 <1>   0.1000 
 15 C       -8.8310    -0.2940     0.9650 C.ar  1 <1>   0.1770 
 16 C       -9.2750    -1.4160    -1.0920 C.ar  1 <1>  -0.1500 
 17 CL      -7.8080     0.0510     2.3490 Cl    1 <1>  -0.1770 
 18 C      -10.0510     0.3490     0.8960 C.ar  1 <1>  -0.1500 
 19 C      -10.5000    -0.7750    -1.1700 C.ar  1 <1>  -0.1500 
 20 C      -10.8920     0.1080    -0.1780 C.ar  1 <1>  -0.1500 
 21 H        0.1950    -0.6880     1.9290 H     1 <1>   0.1500 
 22 H       -1.0750    -3.0000    -1.5240 H     1 <1>   0.1500 
 23 H       -3.2700    -4.5940     1.0690 H     1 <1>   0.0800 
 24 H       -3.4180    -4.2840    -0.6500 H     1 <1>   0.0800 
 25 H       -4.3620    -2.4750     1.4580 H     1 <1>   0.4500 
 26 H       -5.6660    -4.4930     1.5780 H     1 <1>   0.0800 
 27 H       -5.9790    -4.3790    -0.1330 H     1 <1>   0.0800 
 28 H       -4.8610    -2.4080    -1.4490 H     1 <1>   0.0800 
 29 H       -3.8610    -1.3000    -0.5500 H     1 <1>   0.0800 
 30 H       -6.9590    -2.4830     2.0030 H     1 <1>   0.0800 
 31 H       -7.9180    -3.5580     1.0290 H     1 <1>   0.0800 
 32 H       -6.1300    -0.3990    -1.0830 H     1 <1>   0.0800 
 33 H       -5.7900    -0.4160     0.6220 H     1 <1>   0.0800 
 34 H       -8.9790    -2.1000    -1.8660 H     1 <1>   0.1500 
 35 H      -10.3420     1.0330     1.6730 H     1 <1>   0.1500 
 36 H      -11.1530    -0.9640    -2.0060 H     1 <1>   0.1500 
 37 H      -11.8450     0.6050    -0.2420 H     1 <1>   0.1500 
@<TRIPOS>BOND
  1   1   2  1   
  2   2   3  2   
  3   2   4  1   
  4   3   5  1   
  5   3  21  1   
  6   4   6  2   
  7   4  22  1   
  8   5   6  1   
  9   6   7  1   
 10   7   8  1   
 11   7  23  1   
 12   7  24  1   
 13   8   9  1   
 14   8  10  1   
 15   8  25  1   
 16   9  11  1   
 17   9  26  1   
 18   9  27  1   
 19  10  12  1   
 20  10  28  1   
 21  10  29  1   
 22  11  13  1   
 23  11  30  1   
 24  11  31  1   
 25  12  13  1   
 26  12  32  1   
 27  12  33  1   
 28  13  14  1   
 29  14  15  ar  
 30  14  16  ar  
 31  15  17  1   
 32  15  18  ar  
 33  16  19  ar  
 34  16  34  1   
 35  18  20  ar  
 36  18  35  1   
 37  19  20  ar  
 38  19  36  1   
 39  20  37  1   
@<TRIPOS>SUBSTRUCTURE
  1 ****  12 GROUP 4 **** **** 0

# MOE 2024.06 (io_trps.svl 2023.06)
