@<TRIPOS>MOLECULE
NONAME
44 46 1 0 0 
SMALL
USER_CHARGES


@<TRIPOS>ATOM
  1 S       -0.6370     0.5270     1.4740 S.o2  1 <1>   1.4470 
  2 O       -1.6270     1.2450     2.2490 O.2   1 <1>  -0.6500 
  3 O       -0.4680    -0.8940     1.6890 O.2   1 <1>  -0.6500 
  4 N       -1.0240     0.7600    -0.1600 N.am  1 <1>  -0.8490 
  5 C        0.9780     1.3420     1.6270 C.ar  1 <1>  -0.0090 
  6 C       -2.0440    -0.1890    -0.6160 C.3   1 <1>   0.1960 
  7 C       -1.4280     2.1420    -0.4400 C.3   1 <1>   0.1960 
  8 C        1.9660     1.1550     0.6700 C.ar  1 <1>  -0.1500 
  9 C        1.2690     2.1660     2.7070 C.ar  1 <1>  -0.1500 
 10 C       -2.2440    -0.0630    -2.1300 C.3   1 <1>  -0.1600 
 11 C       -1.5870     2.3490    -1.9490 C.3   1 <1>  -0.1600 
 12 C        3.2180     1.7660     0.7430 C.ar  1 <1>   0.0860 
 13 C        2.5030     2.7800     2.8200 C.ar  1 <1>  -0.1500 
 14 C       -2.6090     1.3690    -2.5370 C.3   1 <1>  -0.1600 
 15 C        4.2110     1.5540    -0.2980 C.2   1 <1>   0.5440 
 16 C        3.4650     2.5800     1.8490 C.ar  1 <1>  -0.1500 
 17 O        4.1950     0.5470    -0.9770 O.2   1 <1>  -0.5700 
 18 N        5.1670     2.4900    -0.5570 N.am  1 <1>  -0.7300 
 19 C        6.2040     2.3590    -1.6060 C.3   1 <1>   0.3200 
 20 C        7.4800     3.0660    -1.1810 C.2   1 <1>  -0.0400 
 21 O        8.3890     3.3170    -2.1050 O.3   1 <1>  -0.2800 
 22 C        7.9010     3.5150     0.0230 C.2   1 <1>  -0.1500 
 23 C        9.3990     3.9280    -1.5200 C.2   1 <1>  -0.0100 
 24 C        9.1620     4.0830    -0.2000 C.2   1 <1>  -0.1500 
 25 H       -2.9720    -0.0040    -0.1000 H     1 <1>   0.0800 
 26 H       -1.7310    -1.1960    -0.3960 H     1 <1>   0.0800 
 27 H       -0.6790     2.8230    -0.0710 H     1 <1>   0.0800 
 28 H       -2.3580     2.3630     0.0590 H     1 <1>   0.0800 
 29 H        1.7570     0.5100    -0.1690 H     1 <1>   0.1500 
 30 H        0.5220     2.3250     3.4680 H     1 <1>   0.1500 
 31 H       -3.0200    -0.7380    -2.4440 H     1 <1>   0.0800 
 32 H       -1.3330    -0.3600    -2.6220 H     1 <1>   0.0800 
 33 H       -0.6310     2.2070    -2.4220 H     1 <1>   0.0800 
 34 H       -1.9030     3.3590    -2.1400 H     1 <1>   0.0800 
 35 H        2.7120     3.4110     3.6680 H     1 <1>   0.1500 
 36 H       -3.5900     1.6080    -2.1630 H     1 <1>   0.0800 
 37 H       -2.6280     1.4550    -3.6100 H     1 <1>   0.0800 
 38 H        4.4230     3.0550     1.9590 H     1 <1>   0.1500 
 39 H        5.1220     3.4090    -0.1210 H     1 <1>   0.3700 
 40 H        5.8370     2.8030    -2.5150 H     1 <1>   0.0800 
 41 H        6.4160     1.3210    -1.7980 H     1 <1>   0.0800 
 42 H        7.4080     3.4610     0.9760 H     1 <1>   0.1500 
 43 H       10.2470     4.2160    -2.1160 H     1 <1>   0.1500 
 44 H        9.7860     4.5380     0.5480 H     1 <1>   0.1500 
@<TRIPOS>BOND
  1   1   2  2   
  2   1   3  2   
  3   1   4  am  
  4   1   5  1   
  5   4   6  1   
  6   4   7  1   
  7   5   8  ar  
  8   5   9  ar  
  9   6  10  1   
 10   6  25  1   
 11   6  26  1   
 12   7  11  1   
 13   7  27  1   
 14   7  28  1   
 15   8  12  ar  
 16   8  29  1   
 17   9  13  ar  
 18   9  30  1   
 19  10  14  1   
 20  10  31  1   
 21  10  32  1   
 22  11  14  1   
 23  11  33  1   
 24  11  34  1   
 25  12  15  1   
 26  12  16  ar  
 27  13  16  ar  
 28  13  35  1   
 29  14  36  1   
 30  14  37  1   
 31  15  17  2   
 32  15  18  am  
 33  16  38  1   
 34  18  19  1   
 35  18  39  1   
 36  19  20  1   
 37  19  40  1   
 38  19  41  1   
 39  20  21  1   
 40  20  22  2   
 41  21  23  1   
 42  22  24  1   
 43  22  42  1   
 44  23  24  2   
 45  23  43  1   
 46  24  44  1   
@<TRIPOS>SUBSTRUCTURE
  1 ****  12 GROUP 4 **** **** 0

# MOE 2024.06 (io_trps.svl 2023.06)
