@<TRIPOS>MOLECULE
NONAME
39 39 1 0 0 
SMALL
USER_CHARGES


@<TRIPOS>ATOM
  1 O        0.0480    -0.9950     1.6610 O.2   1 <1>  -0.5700 
  2 C        0.1090    -1.6080     0.6230 C.2   1 <1>   0.5690 
  3 N        1.2660    -1.7670    -0.0910 N.am  1 <1>  -0.5470 
  4 C       -1.1620    -2.2610     0.0670 C.3   1 <1>  -0.0190 
  5 C        2.5680    -1.2890     0.1370 C.ar  1 <1>   0.1170 
  6 C       -2.2680    -1.2200    -0.2070 C.3   1 <1>  -0.1600 
  7 C       -1.6950    -3.3610     1.0090 C.3   1 <1>  -0.1600 
  8 C        3.6310    -1.9530    -0.4610 C.ar  1 <1>  -0.1500 
  9 C        2.8400    -0.1720     0.9220 C.ar  1 <1>  -0.1500 
 10 C       -1.8500    -0.1730    -1.2490 C.3   1 <1>  -0.2400 
 11 C       -0.6950    -4.5070     1.2090 C.3   1 <1>  -0.2400 
 12 C        4.9350    -1.5260    -0.2820 C.ar  1 <1>   0.0830 
 13 C        4.1390     0.2740     1.0970 C.ar  1 <1>  -0.1500 
 14 O        5.9160    -2.2530    -0.8740 O.3   1 <1>  -0.3630 
 15 C        5.1910    -0.3860     0.4860 C.ar  1 <1>   0.0830 
 16 C        6.8270    -2.8960    -0.0100 C.3   1 <1>   0.0400 
 17 O        6.4400     0.1190     0.6630 O.3   1 <1>  -0.3630 
 18 C        7.0400     0.6820    -0.4830 C.3   1 <1>   0.0400 
 19 H        1.1800    -2.3690    -0.9070 H     1 <1>   0.3700 
 20 H       -0.9220    -2.7280    -0.8710 H     1 <1>   0.0800 
 21 H       -2.5210    -0.7190     0.7130 H     1 <1>   0.0800 
 22 H       -3.1520    -1.7220    -0.5610 H     1 <1>   0.0800 
 23 H       -2.6060    -3.7670     0.6040 H     1 <1>   0.0800 
 24 H       -1.9280    -2.9260     1.9670 H     1 <1>   0.0800 
 25 H        3.4550    -2.8210    -1.0670 H     1 <1>   0.1500 
 26 H        2.0380     0.3600     1.3990 H     1 <1>   0.1500 
 27 H       -1.0110     0.4020    -0.8970 H     1 <1>   0.0800 
 28 H       -2.6660     0.5030    -1.4320 H     1 <1>   0.0800 
 29 H       -1.5840    -0.6460    -2.1780 H     1 <1>   0.0800 
 30 H       -0.4370    -4.9580     0.2670 H     1 <1>   0.0800 
 31 H       -1.1300    -5.2630     1.8390 H     1 <1>   0.0800 
 32 H        0.2020    -4.1520     1.6860 H     1 <1>   0.0800 
 33 H        4.3390     1.1380     1.7040 H     1 <1>   0.1500 
 34 H        7.4510    -3.5420    -0.6010 H     1 <1>   0.0800 
 35 H        6.2760    -3.4740     0.7110 H     1 <1>   0.0800 
 36 H        7.4320    -2.1590     0.4860 H     1 <1>   0.0800 
 37 H        7.9820     1.1110    -0.1920 H     1 <1>   0.0800 
 38 H        6.3910     1.4450    -0.8750 H     1 <1>   0.0800 
 39 H        7.1990    -0.0880    -1.2160 H     1 <1>   0.0800 
@<TRIPOS>BOND
  1   1   2  2   
  2   2   3  am  
  3   2   4  1   
  4   3   5  1   
  5   3  19  1   
  6   4   6  1   
  7   4   7  1   
  8   4  20  1   
  9   5   8  ar  
 10   5   9  ar  
 11   6  10  1   
 12   6  21  1   
 13   6  22  1   
 14   7  11  1   
 15   7  23  1   
 16   7  24  1   
 17   8  12  ar  
 18   8  25  1   
 19   9  13  ar  
 20   9  26  1   
 21  10  27  1   
 22  10  28  1   
 23  10  29  1   
 24  11  30  1   
 25  11  31  1   
 26  11  32  1   
 27  12  14  1   
 28  12  15  ar  
 29  13  15  ar  
 30  13  33  1   
 31  14  16  1   
 32  15  17  1   
 33  16  34  1   
 34  16  35  1   
 35  16  36  1   
 36  17  18  1   
 37  18  37  1   
 38  18  38  1   
 39  18  39  1   
@<TRIPOS>SUBSTRUCTURE
  1 ****   5 GROUP 4 **** **** 0

# MOE 2024.06 (io_trps.svl 2023.06)
