@<TRIPOS>MOLECULE
NONAME
39 41 1 0 0 
SMALL
USER_CHARGES


@<TRIPOS>ATOM
  1 O       -0.1240    -1.2930    -2.1800 O.2   1 <1>  -0.5700 
  2 C       -0.0980    -2.1690    -1.3380 C.2   1 <1>   0.6160 
  3 N        1.0670    -2.8040    -1.0940 N.am  1 <1>  -0.7300 
  4 C       -1.2530    -2.5350    -0.6100 C.2   1 <1>  -0.1240 
  5 C        1.2690    -3.8680    -0.1170 C.3   1 <1>   0.6690 
  6 C       -1.2000    -3.5130     0.3160 C.2   1 <1>  -0.0380 
  7 C       -2.5080    -1.7700    -0.9490 C.3   1 <1>   0.4810 
  8 N       -0.0110    -4.1480     0.5680 N.pl3 1 <1>  -0.8690 
  9 C        2.3000    -3.4130     0.9200 C.3   1 <1>  -0.1600 
 10 C        1.7350    -5.1350    -0.8400 C.3   1 <1>  -0.1600 
 11 C       -2.4180    -3.9460     1.1090 C.3   1 <1>  -0.0220 
 12 N       -3.5240    -1.9260     0.1450 N.4   1 <1>  -0.9590 
 13 C        3.7150    -3.2620     0.3300 C.3   1 <1>  -0.1600 
 14 C        3.1470    -4.9960    -1.4410 C.3   1 <1>  -0.1600 
 15 C       -3.7060    -3.3680     0.5090 C.3   1 <1>   0.3430 
 16 C       -4.8130    -1.2720    -0.2250 C.3   1 <1>   0.2630 
 17 C        4.1610    -4.5490    -0.3780 C.3   1 <1>  -0.1600 
 18 H        1.8890    -2.5320    -1.6240 H     1 <1>   0.3700 
 19 H       -2.8990    -2.1380    -1.8830 H     1 <1>   0.0800 
 20 H       -2.2620    -0.7270    -1.0760 H     1 <1>   0.0800 
 21 H        0.0760    -4.8930     1.2660 H     1 <1>   0.4000 
 22 H        2.3410    -4.1440     1.7070 H     1 <1>   0.0800 
 23 H        1.9830    -2.4800     1.3510 H     1 <1>   0.0800 
 24 H        1.0310    -5.3830    -1.6140 H     1 <1>   0.0800 
 25 H        1.7500    -5.9470    -0.1340 H     1 <1>   0.0800 
 26 H       -2.3120    -3.6230     2.1290 H     1 <1>   0.0800 
 27 H       -2.4870    -5.0200     1.1080 H     1 <1>   0.0800 
 28 H       -3.1240    -1.4520     0.9680 H     1 <1>   0.4500 
 29 H        4.4100    -3.0280     1.1190 H     1 <1>   0.0800 
 30 H        3.7340    -2.4430    -0.3690 H     1 <1>   0.0800 
 31 H        3.1320    -4.2800    -2.2450 H     1 <1>   0.0800 
 32 H        3.4550    -5.9400    -1.8560 H     1 <1>   0.0800 
 33 H       -4.5090    -3.4760     1.2210 H     1 <1>   0.0800 
 34 H       -3.9630    -3.9280    -0.3760 H     1 <1>   0.0800 
 35 H       -5.2410    -1.7480    -1.0930 H     1 <1>   0.0800 
 36 H       -4.6540    -0.2290    -0.4470 H     1 <1>   0.0800 
 37 H       -5.5170    -1.3440     0.5900 H     1 <1>   0.0800 
 38 H        4.2780    -5.3330     0.3520 H     1 <1>   0.0800 
 39 H        5.1210    -4.3920    -0.8400 H     1 <1>   0.0800 
@<TRIPOS>BOND
  1   1   2  2   
  2   2   3  am  
  3   2   4  1   
  4   3   5  1   
  5   3  18  1   
  6   4   6  2   
  7   4   7  1   
  8   5   8  1   
  9   5   9  1   
 10   5  10  1   
 11   6   8  1   
 12   6  11  1   
 13   7  12  1   
 14   7  19  1   
 15   7  20  1   
 16   8  21  1   
 17   9  13  1   
 18   9  22  1   
 19   9  23  1   
 20  10  14  1   
 21  10  24  1   
 22  10  25  1   
 23  11  15  1   
 24  11  26  1   
 25  11  27  1   
 26  12  15  1   
 27  12  16  1   
 28  12  28  1   
 29  13  17  1   
 30  13  29  1   
 31  13  30  1   
 32  14  17  1   
 33  14  31  1   
 34  14  32  1   
 35  15  33  1   
 36  15  34  1   
 37  16  35  1   
 38  16  36  1   
 39  16  37  1   
 40  17  38  1   
 41  17  39  1   
@<TRIPOS>SUBSTRUCTURE
  1 ****   6 GROUP 4 **** **** 0

# MOE 2024.06 (io_trps.svl 2023.06)
