@<TRIPOS>MOLECULE
NONAME
51 53 1 0 0 
SMALL
USER_CHARGES


@<TRIPOS>ATOM
  1 O       -0.2720    -0.3820    -1.3010 O.2   1 <1>  -0.5700 
  2 C        0.0880    -1.5040    -1.0350 C.2   1 <1>   0.5690 
  3 N        1.3140    -1.8560    -0.5370 N.am  1 <1>  -0.2370 
  4 C       -0.7820    -2.7440    -1.3000 C.3   1 <1>   0.2510 
  5 C        2.3000    -0.9590    -0.0650 C.ar  1 <1>   0.1170 
  6 C        1.4410    -3.2180    -0.5740 C.2   1 <1>   0.5690 
  7 N       -1.9010    -2.9840    -0.3380 N.3   1 <1>  -0.8100 
  8 C        0.2330    -3.8860    -1.1750 C.3   1 <1>  -0.0990 
  9 C        2.9260    -1.1730     1.1590 C.ar  1 <1>  -0.1500 
 10 C        2.6680     0.1600    -0.8080 C.ar  1 <1>  -0.1500 
 11 O        2.3890    -3.8610    -0.2030 O.2   1 <1>  -0.5700 
 12 C       -2.8260    -4.0280    -0.8510 C.3   1 <1>   0.1100 
 13 C       -2.6660    -1.7450    -0.0350 C.3   1 <1>   0.1100 
 14 C        3.8890    -0.2980     1.6290 C.ar  1 <1>  -0.1500 
 15 C        3.6300     1.0380    -0.3410 C.ar  1 <1>  -0.1500 
 16 C       -3.9600    -4.3350     0.1400 C.3   1 <1>   0.1400 
 17 C       -3.8160    -1.9930     0.9560 C.3   1 <1>   0.1400 
 18 C        4.2420     0.8100     0.8790 C.ar  1 <1>  -0.1500 
 19 N       -4.7000    -3.0880     0.4680 N.am  1 <1>  -0.6600 
 20 C       -6.0280    -2.9280     0.1770 C.2   1 <1>   0.7800 
 21 O       -6.6900    -3.8200    -0.3170 O.2   1 <1>  -0.5700 
 22 O       -6.5690    -1.7370     0.4460 O.3   1 <1>  -0.4300 
 23 C       -7.9000    -1.3280     0.2180 C.3   1 <1>   0.2800 
 24 C       -7.9600     0.1190     0.7080 C.3   1 <1>  -0.2400 
 25 C       -8.2160    -1.3660    -1.2820 C.3   1 <1>  -0.2400 
 26 C       -8.8680    -2.1820     1.0440 C.3   1 <1>  -0.2400 
 27 H       -1.1690    -2.6800    -2.3020 H     1 <1>   0.0800 
 28 H        0.4940    -4.2750    -2.1410 H     1 <1>   0.0800 
 29 H       -0.0960    -4.6810    -0.5320 H     1 <1>   0.0800 
 30 H        2.6640    -2.0340     1.7480 H     1 <1>   0.1500 
 31 H        2.1980     0.3500    -1.7560 H     1 <1>   0.1500 
 32 H       -2.2890    -4.9410    -1.0360 H     1 <1>   0.0800 
 33 H       -3.2640    -3.7060    -1.7810 H     1 <1>   0.0800 
 34 H       -3.0680    -1.3280    -0.9430 H     1 <1>   0.0800 
 35 H       -2.0160    -1.0110     0.4090 H     1 <1>   0.0800 
 36 H        4.3660    -0.4790     2.5770 H     1 <1>   0.1500 
 37 H        3.9010     1.8990    -0.9270 H     1 <1>   0.1500 
 38 H       -3.5450    -4.7490     1.0430 H     1 <1>   0.0800 
 39 H       -4.6220    -5.0670    -0.2880 H     1 <1>   0.0800 
 40 H       -4.3700    -1.0810     1.0910 H     1 <1>   0.0800 
 41 H       -3.4060    -2.2730     1.9100 H     1 <1>   0.0800 
 42 H        4.9900     1.4930     1.2430 H     1 <1>   0.1500 
 43 H       -7.7170     0.1680     1.7540 H     1 <1>   0.0800 
 44 H       -8.9470     0.5200     0.5700 H     1 <1>   0.0800 
 45 H       -7.2660     0.7280     0.1570 H     1 <1>   0.0800 
 46 H       -7.4750    -0.8170    -1.8340 H     1 <1>   0.0800 
 47 H       -9.1770    -0.9220    -1.4650 H     1 <1>   0.0800 
 48 H       -8.2520    -2.3760    -1.6450 H     1 <1>   0.0800 
 49 H       -8.5720    -2.1900     2.0770 H     1 <1>   0.0800 
 50 H       -8.9030    -3.1920     0.6790 H     1 <1>   0.0800 
 51 H       -9.8620    -1.7790     0.9770 H     1 <1>   0.0800 
@<TRIPOS>BOND
  1   1   2  2   
  2   2   3  am  
  3   2   4  1   
  4   3   5  1   
  5   3   6  am  
  6   4   7  1   
  7   4   8  1   
  8   4  27  1   
  9   5   9  ar  
 10   5  10  ar  
 11   6   8  1   
 12   6  11  2   
 13   7  12  1   
 14   7  13  1   
 15   8  28  1   
 16   8  29  1   
 17   9  14  ar  
 18   9  30  1   
 19  10  15  ar  
 20  10  31  1   
 21  12  16  1   
 22  12  32  1   
 23  12  33  1   
 24  13  17  1   
 25  13  34  1   
 26  13  35  1   
 27  14  18  ar  
 28  14  36  1   
 29  15  18  ar  
 30  15  37  1   
 31  16  19  1   
 32  16  38  1   
 33  16  39  1   
 34  17  19  1   
 35  17  40  1   
 36  17  41  1   
 37  18  42  1   
 38  19  20  am  
 39  20  21  2   
 40  20  22  1   
 41  22  23  1   
 42  23  24  1   
 43  23  25  1   
 44  23  26  1   
 45  24  43  1   
 46  24  44  1   
 47  24  45  1   
 48  25  46  1   
 49  25  47  1   
 50  25  48  1   
 51  26  49  1   
 52  26  50  1   
 53  26  51  1   
@<TRIPOS>SUBSTRUCTURE
  1 ****  13 GROUP 4 **** **** 0

# MOE 2024.06 (io_trps.svl 2023.06)
