@<TRIPOS>MOLECULE
NONAME
28 29 1 0 0 
SMALL
USER_CHARGES


@<TRIPOS>ATOM
  1 S        0.6100    -0.3400     1.5070 S.o2  1 <1>   1.0900 
  2 O        1.8600    -0.6920     2.1350 O.2   1 <1>  -0.6500 
  3 O       -0.5790    -1.1460     1.6500 O.2   1 <1>  -0.6500 
  4 C        0.2060     1.3400     1.9250 C.3   1 <1>  -0.0550 
  5 C        0.8710    -0.0250    -0.2340 C.3   1 <1>  -0.0550 
  6 C       -0.2260     1.9970     0.6210 C.3   1 <1>   0.2200 
  7 C        0.7140     1.4840    -0.4730 C.3   1 <1>  -0.1600 
  8 N       -0.1310     3.4650     0.7250 N.am  1 <1>  -0.7300 
  9 C       -1.1490     4.3660     0.6710 C.2   1 <1>   0.5440 
 10 O       -0.9490     5.4250     1.2210 O.2   1 <1>  -0.5700 
 11 C       -2.4110     4.0900     0.0210 C.ar  1 <1>   0.0860 
 12 C       -2.4520     3.5410    -1.2580 C.ar  1 <1>   0.1600 
 13 C       -3.6280     4.3560     0.6330 C.ar  1 <1>  -0.1500 
 14 N       -3.5440     3.2140    -1.9290 N.ar  1 <1>  -0.6200 
 15 C       -4.7810     4.0370    -0.0510 C.ar  1 <1>  -0.1500 
 16 C       -4.6860     3.4710    -1.3110 C.ar  1 <1>   0.1600 
 17 H        1.0830     1.8310     2.3020 H     1 <1>   0.0800 
 18 H       -0.5750     1.3820     2.6590 H     1 <1>   0.0800 
 19 H        0.1280    -0.5540    -0.8010 H     1 <1>   0.0800 
 20 H        1.8420    -0.3620    -0.5470 H     1 <1>   0.0800 
 21 H       -1.2370     1.6950     0.3980 H     1 <1>   0.0800 
 22 H        0.3220     1.6790    -1.4560 H     1 <1>   0.0800 
 23 H        1.6770     1.9550    -0.3740 H     1 <1>   0.0800 
 24 H        0.7190     3.8350     1.1600 H     1 <1>   0.3700 
 25 H       -1.5140     3.3620    -1.7550 H     1 <1>   0.1500 
 26 H       -3.6580     4.8020     1.6140 H     1 <1>   0.1500 
 27 H       -5.7460     4.2240     0.3840 H     1 <1>   0.1500 
 28 H       -5.5930     3.2210    -1.8370 H     1 <1>   0.1500 
@<TRIPOS>BOND
  1   1   2  2   
  2   1   3  2   
  3   1   4  1   
  4   1   5  1   
  5   4   6  1   
  6   4  17  1   
  7   4  18  1   
  8   5   7  1   
  9   5  19  1   
 10   5  20  1   
 11   6   7  1   
 12   6   8  1   
 13   6  21  1   
 14   7  22  1   
 15   7  23  1   
 16   8   9  am  
 17   8  24  1   
 18   9  10  2   
 19   9  11  1   
 20  11  12  ar  
 21  11  13  ar  
 22  12  14  ar  
 23  12  25  1   
 24  13  15  ar  
 25  13  26  1   
 26  14  16  ar  
 27  15  16  ar  
 28  15  27  1   
 29  16  28  1   
@<TRIPOS>SUBSTRUCTURE
  1 ****   6 GROUP 4 **** **** 0

# MOE 2024.06 (io_trps.svl 2023.06)
