@<TRIPOS>MOLECULE
NONAME
50 53 1 0 0 
SMALL
USER_CHARGES


@<TRIPOS>ATOM
  1 S       -0.1510    -0.0080     0.7580 S.3   1 <1>  -0.2860 
  2 C       -1.8280     0.1840     1.3530 C.2   1 <1>   0.2420 
  3 C        0.8660     0.3670     2.2720 C.3   1 <1>   0.1310 
  4 N       -2.1480     0.4940     2.5560 N.2   1 <1>  -0.3380 
  5 N       -2.8720     0.0120     0.5660 N.pl3 1 <1>   0.0330 
  6 C        2.3560     0.2140     2.0020 C.2   1 <1>   0.5690 
  7 N       -3.4840     0.5300     2.5720 N.2   1 <1>  -0.3380 
  8 C       -3.9180     0.2380     1.3710 C.2   1 <1>   0.1330 
  9 O        3.1340     0.6500     2.8160 O.2   1 <1>  -0.5700 
 10 N        2.7770    -0.4080     0.8710 N.am  1 <1>  -0.7300 
 11 C       -5.3070     0.1650     0.9480 C.ar  1 <1>   0.0530 
 12 C        4.1850    -0.6180     0.4670 C.3   1 <1>   0.2200 
 13 C       -5.7170    -0.1720    -0.3580 C.ar  1 <1>   0.0830 
 14 C       -6.3080     0.4420     1.8810 C.ar  1 <1>  -0.1500 
 15 C        4.5270     0.1580    -0.9350 C.3   1 <1>  -0.0800 
 16 C        4.4570    -2.2450     0.2190 C.3   1 <1>  -0.1600 
 17 O       -4.7640    -0.4480    -1.2920 O.3   1 <1>  -0.3630 
 18 C       -7.0720    -0.2180    -0.6790 C.ar  1 <1>  -0.1500 
 19 C       -7.6490     0.3940     1.5560 C.ar  1 <1>  -0.1500 
 20 C        4.8420    -1.1320    -1.1050 C.3   1 <1>  -0.1600 
 21 C        5.2130    -0.0150    -2.4100 C.3   1 <1>  -0.1600 
 22 C        5.1300    -2.4270    -1.2620 C.3   1 <1>  -0.0800 
 23 C       -5.0720    -0.8030    -2.6210 C.3   1 <1>   0.1200 
 24 C       -8.0340     0.0630     0.2720 C.ar  1 <1>  -0.1500 
 25 C        5.4890    -1.6480    -2.6540 C.3   1 <1>  -0.1600 
 26 C       -3.7560    -1.0410    -3.3570 C.3   1 <1>  -0.2400 
 27 H        0.5550    -0.3120     3.0430 H     1 <1>   0.0800 
 28 H        0.6410     1.3760     2.5640 H     1 <1>   0.0800 
 29 H       -2.9180    -0.2370    -0.4240 H     1 <1>   0.2700 
 30 H        2.0760    -0.7390     0.2050 H     1 <1>   0.3700 
 31 H        4.8390    -0.2560     1.2460 H     1 <1>   0.0800 
 32 H       -6.0320     0.7030     2.8880 H     1 <1>   0.1500 
 33 H        3.5590     0.5530    -1.2130 H     1 <1>   0.0800 
 34 H        3.5340    -2.8000     0.2790 H     1 <1>   0.0800 
 35 H        5.1170    -2.6220     0.9850 H     1 <1>   0.0800 
 36 H       -7.4090    -0.4720    -1.6660 H     1 <1>   0.1500 
 37 H       -8.3930     0.6140     2.3020 H     1 <1>   0.1500 
 38 H        3.7580    -1.3270    -1.5260 H     1 <1>   0.0800 
 39 H        5.9190    -0.9420    -0.6690 H     1 <1>   0.0800 
 40 H        6.1440     0.5300    -2.4520 H     1 <1>   0.0800 
 41 H        4.5730     0.3790    -3.1850 H     1 <1>   0.0800 
 42 H        6.1010    -2.8270    -0.9980 H     1 <1>   0.0800 
 43 H       -5.6210     0.0050    -3.0730 H     1 <1>   0.0800 
 44 H       -5.6680    -1.7000    -2.6070 H     1 <1>   0.0800 
 45 H       -9.0790     0.0240     0.0160 H     1 <1>   0.1500 
 46 H        6.5150    -1.8170    -2.9410 H     1 <1>   0.0800 
 47 H        4.8650    -2.0150    -3.4560 H     1 <1>   0.0800 
 48 H       -3.1620    -0.1450    -3.3560 H     1 <1>   0.0800 
 49 H       -3.9580    -1.3150    -4.3770 H     1 <1>   0.0800 
 50 H       -3.2080    -1.8410    -2.8920 H     1 <1>   0.0800 
@<TRIPOS>BOND
  1   1   2  1   
  2   1   3  1   
  3   2   4  2   
  4   2   5  1   
  5   3   6  1   
  6   3  27  1   
  7   3  28  1   
  8   4   7  1   
  9   5   8  1   
 10   5  29  1   
 11   6   9  2   
 12   6  10  am  
 13   7   8  2   
 14   8  11  1   
 15  10  12  1   
 16  10  30  1   
 17  11  13  ar  
 18  11  14  ar  
 19  12  15  1   
 20  12  16  1   
 21  12  31  1   
 22  13  17  1   
 23  13  18  ar  
 24  14  19  ar  
 25  14  32  1   
 26  15  20  1   
 27  15  21  1   
 28  15  33  1   
 29  16  22  1   
 30  16  34  1   
 31  16  35  1   
 32  17  23  1   
 33  18  24  ar  
 34  18  36  1   
 35  19  24  ar  
 36  19  37  1   
 37  20  22  1   
 38  20  38  1   
 39  20  39  1   
 40  21  25  1   
 41  21  40  1   
 42  21  41  1   
 43  22  25  1   
 44  22  42  1   
 45  23  26  1   
 46  23  43  1   
 47  23  44  1   
 48  24  45  1   
 49  25  46  1   
 50  25  47  1   
 51  26  48  1   
 52  26  49  1   
 53  26  50  1   
@<TRIPOS>SUBSTRUCTURE
  1 ****   1 GROUP 4 **** **** 0

# MOE 2024.06 (io_trps.svl 2023.06)
