@<TRIPOS>MOLECULE
NONAME
39 40 1 0 0 
SMALL
USER_CHARGES


@<TRIPOS>ATOM
  1 O       -1.6750    -0.5460     2.3060 O.2   1 <1>  -0.5700 
  2 C       -2.0620     0.2290     1.4770 C.2   1 <1>   0.6590 
  3 O       -3.2430     0.0580     0.8970 O.3   1 <1>  -0.4300 
  4 C       -1.2040     1.4120     1.0820 C.3   1 <1>  -0.1790 
  5 C       -3.8160     0.9190    -0.0700 C.3   1 <1>   0.1200 
  6 C       -5.2030     0.4120    -0.5470 C.3   1 <1>   0.0000 
  7 C       -5.0780    -0.7940    -1.5530 C.3   1 <1>   0.0580 
  8 C       -6.1250     0.0090     0.6410 C.3   1 <1>  -0.0800 
  9 C       -5.8500     1.6290    -1.2730 C.3   1 <1>   0.1200 
 10 C       -6.3730    -1.5950    -1.6750 C.2   1 <1>  -0.2880 
 11 C       -3.9790    -1.8190    -1.2260 C.3   1 <1>  -0.2400 
 12 C       -7.5350    -0.2410     0.0680 C.3   1 <1>   0.0580 
 13 C       -6.1680     1.0100     1.8190 C.3   1 <1>  -0.2400 
 14 O       -7.1720     1.4060    -1.6650 O.3   1 <1>  -0.5600 
 15 C       -7.4750    -1.3700    -0.9540 C.2   1 <1>  -0.2760 
 16 C       -8.0480     1.0280    -0.6390 C.3   1 <1>   0.1200 
 17 C       -8.7520    -2.1790    -1.1070 C.3   1 <1>  -0.1020 
 18 H       -1.7190     2.3290     1.2980 H     1 <1>   0.0800 
 19 H       -0.9640     1.3610     0.0380 H     1 <1>   0.0800 
 20 H       -0.2900     1.3910     1.6470 H     1 <1>   0.0800 
 21 H       -3.1430     0.9930    -0.9060 H     1 <1>   0.0800 
 22 H       -3.9140     1.8880     0.3870 H     1 <1>   0.0800 
 23 H       -4.8550    -0.3960    -2.5280 H     1 <1>   0.0800 
 24 H       -5.7690    -0.9260     1.0430 H     1 <1>   0.0800 
 25 H       -5.2960     1.8690    -2.1630 H     1 <1>   0.0800 
 26 H       -5.8500     2.4990    -0.6400 H     1 <1>   0.0800 
 27 H       -6.3170    -2.3730    -2.4170 H     1 <1>   0.1500 
 28 H       -4.1250    -2.2240    -0.2400 H     1 <1>   0.0800 
 29 H       -3.0010    -1.3790    -1.2830 H     1 <1>   0.0800 
 30 H       -4.0080    -2.6320    -1.9290 H     1 <1>   0.0800 
 31 H       -8.2000    -0.5120     0.8690 H     1 <1>   0.0800 
 32 H       -6.4240     2.0030     1.5010 H     1 <1>   0.0800 
 33 H       -5.2160     1.0470     2.3190 H     1 <1>   0.0800 
 34 H       -6.8940     0.6890     2.5450 H     1 <1>   0.0800 
 35 H       -8.1480     1.8510     0.0450 H     1 <1>   0.0800 
 36 H       -9.0060     0.8390    -1.0890 H     1 <1>   0.0800 
 37 H       -9.5630    -1.5420    -1.4110 H     1 <1>   0.0800 
 38 H       -9.0060    -2.6520    -0.1750 H     1 <1>   0.0800 
 39 H       -8.6250    -2.9430    -1.8520 H     1 <1>   0.0800 
@<TRIPOS>BOND
  1   1   2  2   
  2   2   3  1   
  3   2   4  1   
  4   3   5  1   
  5   4  18  1   
  6   4  19  1   
  7   4  20  1   
  8   5   6  1   
  9   5  21  1   
 10   5  22  1   
 11   6   7  1   
 12   6   8  1   
 13   6   9  1   
 14   7  10  1   
 15   7  11  1   
 16   7  23  1   
 17   8  12  1   
 18   8  13  1   
 19   8  24  1   
 20   9  14  1   
 21   9  25  1   
 22   9  26  1   
 23  10  15  2   
 24  10  27  1   
 25  11  28  1   
 26  11  29  1   
 27  11  30  1   
 28  12  15  1   
 29  12  16  1   
 30  12  31  1   
 31  13  32  1   
 32  13  33  1   
 33  13  34  1   
 34  14  16  1   
 35  15  17  1   
 36  16  35  1   
 37  16  36  1   
 38  17  37  1   
 39  17  38  1   
 40  17  39  1   
@<TRIPOS>SUBSTRUCTURE
  1 ****   6 GROUP 4 **** **** 0

# MOE 2024.06 (io_trps.svl 2023.06)
