@<TRIPOS>MOLECULE
NONAME
44 45 1 0 0 
SMALL
USER_CHARGES


@<TRIPOS>ATOM
  1 O       -0.9990     0.4160    -0.2180 O.3   1 <1>  -0.5600 
  2 C       -0.5270     1.5880     0.4040 C.3   1 <1>   0.2000 
  3 C       -0.5540    -0.7850     0.3430 C.3   1 <1>   0.0400 
  4 C       -1.5430     2.7420     0.1340 C.3   1 <1>   0.4230 
  5 C        0.8760     1.9060    -0.1410 C.3   1 <1>  -0.1600 
  6 N       -2.3720     2.4050    -1.0530 N.4   1 <1>  -0.9060 
  7 C       -0.8670     4.1050    -0.1050 C.3   1 <1>  -0.1600 
  8 C        1.4450     3.2040     0.4620 C.3   1 <1>  -0.1600 
  9 C       -3.8430     2.4730    -0.9080 C.3   1 <1>   0.4230 
 10 C        0.3760     4.2660     0.7790 C.3   1 <1>  -0.1600 
 11 C       -4.2810     3.9260    -0.6800 C.3   1 <1>  -0.1600 
 12 C       -4.3040     1.4840     0.1720 C.3   1 <1>  -0.1600 
 13 C       -5.8040     4.1190    -0.5960 C.3   1 <1>  -0.1600 
 14 C       -5.7950     1.1430     0.0260 C.3   1 <1>  -0.1600 
 15 C       -6.3900     3.6010     0.7250 C.3   1 <1>  -0.1600 
 16 C       -6.7540     2.1080     0.7380 C.3   1 <1>  -0.1600 
 17 H       -0.4680     1.4250     1.4670 H     1 <1>   0.0800 
 18 H       -1.0160    -1.5980    -0.1900 H     1 <1>   0.0800 
 19 H       -0.8410    -0.8280     1.3800 H     1 <1>   0.0800 
 20 H        0.5150    -0.8610     0.2450 H     1 <1>   0.0800 
 21 H       -2.1700     2.8210     1.0060 H     1 <1>   0.0800 
 22 H        0.8180     2.0130    -1.2110 H     1 <1>   0.0800 
 23 H        1.5590     1.1040     0.0730 H     1 <1>   0.0800 
 24 H       -2.1190     1.4140    -1.2240 H     1 <1>   0.4500 
 25 H       -2.0510     2.9290    -1.8690 H     1 <1>   0.4500 
 26 H       -1.5580     4.8980     0.1180 H     1 <1>   0.0800 
 27 H       -0.5600     4.2020    -1.1320 H     1 <1>   0.0800 
 28 H        2.1630     3.6140    -0.2300 H     1 <1>   0.0800 
 29 H        1.9800     2.9760     1.3690 H     1 <1>   0.0800 
 30 H       -4.2780     2.1490    -1.8400 H     1 <1>   0.0800 
 31 H        0.0890     4.1840     1.8140 H     1 <1>   0.0800 
 32 H        0.8000     5.2480     0.6440 H     1 <1>   0.0800 
 33 H       -3.9240     4.5200    -1.5030 H     1 <1>   0.0800 
 34 H       -3.8450     4.3120     0.2230 H     1 <1>   0.0800 
 35 H       -4.1090     1.8560     1.1620 H     1 <1>   0.0800 
 36 H       -3.7600     0.5630     0.0480 H     1 <1>   0.0800 
 37 H       -6.3040     3.6680    -1.4370 H     1 <1>   0.0800 
 38 H       -6.0010     5.1780    -0.6460 H     1 <1>   0.0800 
 39 H       -5.9670     0.1590     0.4320 H     1 <1>   0.0800 
 40 H       -6.0540     1.0890    -1.0180 H     1 <1>   0.0800 
 41 H       -7.2900     4.1530     0.9370 H     1 <1>   0.0800 
 42 H       -5.7110     3.8130     1.5330 H     1 <1>   0.0800 
 43 H       -6.8490     1.8040     1.7670 H     1 <1>   0.0800 
 44 H       -7.7290     1.9890     0.2950 H     1 <1>   0.0800 
@<TRIPOS>BOND
  1   1   2  1   
  2   1   3  1   
  3   2   4  1   
  4   2   5  1   
  5   2  17  1   
  6   3  18  1   
  7   3  19  1   
  8   3  20  1   
  9   4   6  1   
 10   4   7  1   
 11   4  21  1   
 12   5   8  1   
 13   5  22  1   
 14   5  23  1   
 15   6   9  1   
 16   6  24  1   
 17   6  25  1   
 18   7  10  1   
 19   7  26  1   
 20   7  27  1   
 21   8  10  1   
 22   8  28  1   
 23   8  29  1   
 24   9  11  1   
 25   9  12  1   
 26   9  30  1   
 27  10  31  1   
 28  10  32  1   
 29  11  13  1   
 30  11  33  1   
 31  11  34  1   
 32  12  14  1   
 33  12  35  1   
 34  12  36  1   
 35  13  15  1   
 36  13  37  1   
 37  13  38  1   
 38  14  16  1   
 39  14  39  1   
 40  14  40  1   
 41  15  16  1   
 42  15  41  1   
 43  15  42  1   
 44  16  43  1   
 45  16  44  1   
@<TRIPOS>SUBSTRUCTURE
  1 ****   6 GROUP 4 **** **** 0

# MOE 2024.06 (io_trps.svl 2023.06)
