@<TRIPOS>MOLECULE
NONAME
38 39 1 0 0 
SMALL
USER_CHARGES


@<TRIPOS>ATOM
  1 S       -0.4370    -0.5900     0.0580 S.3   1 <1>  -0.2860 
  2 C        1.2690    -0.7930     0.5830 C.2   1 <1>   0.2420 
  3 C       -1.3810    -0.9070     1.6310 C.3   1 <1>   0.1310 
  4 N        1.6080    -1.0430     1.7970 N.2   1 <1>  -0.3380 
  5 N        2.3030    -0.6930    -0.2530 N.pl3 1 <1>   0.0480 
  6 C       -2.8740    -0.6850     1.4420 C.2   1 <1>   0.5690 
  7 N        2.9420    -1.1180     1.7900 N.2   1 <1>  -0.3380 
  8 C        3.3360    -0.9110     0.5760 C.2   1 <1>   0.0060 
  9 C        2.2880    -0.4110    -1.7050 C.3   1 <1>   0.0960 
 10 O       -3.6260    -1.2420     2.2030 O.2   1 <1>  -0.5700 
 11 N       -3.2900     0.1350     0.4260 N.am  1 <1>  -0.5470 
 12 C        4.7980    -0.9170     0.1580 C.3   1 <1>   0.0200 
 13 C        2.3010     1.0990    -1.9630 C.3   1 <1>  -0.2400 
 14 C       -4.5670     0.5580     0.0250 C.ar  1 <1>   0.1170 
 15 C        5.2030    -2.2740    -0.4260 C.3   1 <1>  -0.2400 
 16 C       -4.7190     1.0850    -1.2530 C.ar  1 <1>  -0.1500 
 17 C       -5.6870     0.4910     0.8480 C.ar  1 <1>  -0.1500 
 18 C       -5.9510     1.5280    -1.6990 C.ar  1 <1>  -0.1500 
 19 C       -6.9210     0.9320     0.4060 C.ar  1 <1>  -0.1500 
 20 C       -7.0560     1.4520    -0.8700 C.ar  1 <1>  -0.1500 
 21 H       -0.9960    -0.2380     2.3780 H     1 <1>   0.0800 
 22 H       -1.1850    -1.9230     1.9200 H     1 <1>   0.0800 
 23 H        1.4060    -0.8510    -2.1360 H     1 <1>   0.0800 
 24 H        3.1460    -0.8690    -2.1610 H     1 <1>   0.0800 
 25 H       -2.5320     0.4480    -0.1800 H     1 <1>   0.3700 
 26 H        5.4040    -0.7140     1.0250 H     1 <1>   0.0800 
 27 H        4.9810    -0.1340    -0.5560 H     1 <1>   0.0800 
 28 H        1.4300     1.5610    -1.5310 H     1 <1>   0.0800 
 29 H        2.2940     1.2870    -3.0220 H     1 <1>   0.0800 
 30 H        3.1850     1.5460    -1.5430 H     1 <1>   0.0800 
 31 H        5.0400    -3.0470     0.3050 H     1 <1>   0.0800 
 32 H        6.2450    -2.2660    -0.6910 H     1 <1>   0.0800 
 33 H        4.6240    -2.5030    -1.3020 H     1 <1>   0.0800 
 34 H       -3.8700     1.1470    -1.9080 H     1 <1>   0.1500 
 35 H       -5.6030     0.0960     1.8440 H     1 <1>   0.1500 
 36 H       -6.0530     1.9320    -2.6920 H     1 <1>   0.1500 
 37 H       -7.7770     0.8710     1.0550 H     1 <1>   0.1500 
 38 H       -8.0160     1.7950    -1.2140 H     1 <1>   0.1500 
@<TRIPOS>BOND
  1   1   2  1   
  2   1   3  1   
  3   2   4  2   
  4   2   5  1   
  5   3   6  1   
  6   3  21  1   
  7   3  22  1   
  8   4   7  1   
  9   5   8  1   
 10   5   9  1   
 11   6  10  2   
 12   6  11  am  
 13   7   8  2   
 14   8  12  1   
 15   9  13  1   
 16   9  23  1   
 17   9  24  1   
 18  11  14  1   
 19  11  25  1   
 20  12  15  1   
 21  12  26  1   
 22  12  27  1   
 23  13  28  1   
 24  13  29  1   
 25  13  30  1   
 26  14  16  ar  
 27  14  17  ar  
 28  15  31  1   
 29  15  32  1   
 30  15  33  1   
 31  16  18  ar  
 32  16  34  1   
 33  17  19  ar  
 34  17  35  1   
 35  18  20  ar  
 36  18  36  1   
 37  19  20  ar  
 38  19  37  1   
 39  20  38  1   
@<TRIPOS>SUBSTRUCTURE
  1 ****   1 GROUP 4 **** **** 0

# MOE 2024.06 (io_trps.svl 2023.06)
