@<TRIPOS>MOLECULE
NONAME
44 45 1 0 0 
SMALL
USER_CHARGES


@<TRIPOS>ATOM
  1 CL      -2.3710    -1.2110     2.0450 Cl    1 <1>  -0.1770 
  2 C       -1.9510    -2.3380     0.7700 C.ar  1 <1>   0.1770 
  3 C       -2.9510    -2.9790     0.0460 C.ar  1 <1>   0.0820 
  4 C       -0.6160    -2.5730     0.5060 C.ar  1 <1>  -0.1500 
  5 O       -4.2560    -2.7420     0.3130 O.3   1 <1>  -0.3630 
  6 C       -2.6050    -3.8850    -0.9500 C.ar  1 <1>  -0.1440 
  7 C       -0.2670    -3.4670    -0.4940 C.ar  1 <1>  -0.1430 
  8 C       -4.8110    -1.5510    -0.2200 C.3   1 <1>   0.1200 
  9 C       -1.2620    -4.1170    -1.2110 C.ar  1 <1>  -0.1500 
 10 C       -3.6750    -4.6180    -1.7480 C.3   1 <1>  -0.0960 
 11 C        1.1940    -3.7440    -0.8010 C.3   1 <1>  -0.0970 
 12 C       -5.4900    -0.7620     0.9130 C.3   1 <1>   0.3430 
 13 N       -6.0480    -1.6910     1.9510 N.4   1 <1>  -0.9590 
 14 C       -7.5040    -1.9730     1.7920 C.3   1 <1>   0.4860 
 15 C       -5.7050    -1.2470     3.3330 C.3   1 <1>   0.2630 
 16 C       -7.7730    -2.5320     0.4080 C.ar  1 <1>  -0.1430 
 17 C       -8.4200    -1.7560    -0.5430 C.ar  1 <1>  -0.1500 
 18 C       -7.3640    -3.8170     0.0780 C.ar  1 <1>  -0.1500 
 19 C       -8.6430    -2.2560    -1.8140 C.ar  1 <1>  -0.1500 
 20 C       -7.5880    -4.3140    -1.1930 C.ar  1 <1>  -0.1500 
 21 C       -8.2250    -3.5330    -2.1400 C.ar  1 <1>  -0.1500 
 22 H        0.1370    -2.0640     1.0800 H     1 <1>   0.1500 
 23 H       -5.5260    -1.8320    -0.9740 H     1 <1>   0.0800 
 24 H       -4.0400    -0.9590    -0.6840 H     1 <1>   0.0800 
 25 H       -0.9810    -4.8150    -1.9810 H     1 <1>   0.1500 
 26 H       -4.2580    -3.9150    -2.3150 H     1 <1>   0.0800 
 27 H       -4.3270    -5.1520    -1.0820 H     1 <1>   0.0800 
 28 H       -3.2330    -5.3230    -2.4290 H     1 <1>   0.0800 
 29 H        1.8180    -2.9460    -0.4400 H     1 <1>   0.0800 
 30 H        1.3400    -3.8330    -1.8630 H     1 <1>   0.0800 
 31 H        1.4980    -4.6610    -0.3300 H     1 <1>   0.0800 
 32 H       -6.2600    -0.1240     0.5100 H     1 <1>   0.0800 
 33 H       -4.7430    -0.1290     1.3630 H     1 <1>   0.0800 
 34 H       -5.5490    -2.5800     1.7600 H     1 <1>   0.4500 
 35 H       -8.0730    -1.0690     1.9350 H     1 <1>   0.0800 
 36 H       -7.8210    -2.6920     2.5300 H     1 <1>   0.0800 
 37 H       -6.1770    -0.3030     3.5540 H     1 <1>   0.0800 
 38 H       -4.6370    -1.1300     3.4310 H     1 <1>   0.0800 
 39 H       -6.0340    -1.9780     4.0540 H     1 <1>   0.0800 
 40 H       -8.7610    -0.7610    -0.3110 H     1 <1>   0.1500 
 41 H       -6.8670    -4.4440     0.7990 H     1 <1>   0.1500 
 42 H       -9.1470    -1.6550    -2.5530 H     1 <1>   0.1500 
 43 H       -7.2700    -5.3110    -1.4480 H     1 <1>   0.1500 
 44 H       -8.4000    -3.9220    -3.1290 H     1 <1>   0.1500 
@<TRIPOS>BOND
  1   1   2  1   
  2   2   3  ar  
  3   2   4  ar  
  4   3   5  1   
  5   3   6  ar  
  6   4   7  ar  
  7   4  22  1   
  8   5   8  1   
  9   6   9  ar  
 10   6  10  1   
 11   7   9  ar  
 12   7  11  1   
 13   8  12  1   
 14   8  23  1   
 15   8  24  1   
 16   9  25  1   
 17  10  26  1   
 18  10  27  1   
 19  10  28  1   
 20  11  29  1   
 21  11  30  1   
 22  11  31  1   
 23  12  13  1   
 24  12  32  1   
 25  12  33  1   
 26  13  14  1   
 27  13  15  1   
 28  13  34  1   
 29  14  16  1   
 30  14  35  1   
 31  14  36  1   
 32  15  37  1   
 33  15  38  1   
 34  15  39  1   
 35  16  17  ar  
 36  16  18  ar  
 37  17  19  ar  
 38  17  40  1   
 39  18  20  ar  
 40  18  41  1   
 41  19  21  ar  
 42  19  42  1   
 43  20  21  ar  
 44  20  43  1   
 45  21  44  1   
@<TRIPOS>SUBSTRUCTURE
  1 ****   5 GROUP 4 **** **** 0

# MOE 2024.06 (io_trps.svl 2023.06)
