@<TRIPOS>MOLECULE
NONAME
36 37 1 0 0 
SMALL
USER_CHARGES


@<TRIPOS>ATOM
  1 O       -0.0990     3.9610     2.3950 O.2   1 <1>  -0.5700 
  2 C       -0.6220     3.9170     1.3260 C.2   1 <1>   0.4480 
  3 C       -0.6690     2.6170     0.5250 C.3   1 <1>  -0.0190 
  4 C       -1.2810     5.1430     0.7200 C.3   1 <1>  -0.0990 
  5 C        0.7500     2.1650     0.0660 C.3   1 <1>   0.5030 
  6 C       -1.7190     2.7080    -0.6190 C.3   1 <1>  -0.1600 
  7 C       -2.7360     4.8690     0.2980 C.3   1 <1>  -0.1600 
  8 N        0.6180     1.0120    -0.8310 N.4   1 <1>  -0.8530 
  9 C        1.6400     1.6820     1.2320 C.3   1 <1>  -0.1600 
 10 C        1.5070     3.2550    -0.7260 C.3   1 <1>  -0.1600 
 11 C       -2.9930     3.4130    -0.1320 C.3   1 <1>  -0.1600 
 12 C        3.0450     1.2220     0.7960 C.3   1 <1>  -0.1600 
 13 C        2.9130     2.8240    -1.1880 C.3   1 <1>  -0.1600 
 14 C        3.7560     2.3180    -0.0100 C.3   1 <1>  -0.1600 
 15 H       -1.0310     1.8800     1.2200 H     1 <1>   0.0800 
 16 H       -0.7100     5.4450    -0.1390 H     1 <1>   0.0800 
 17 H       -1.2550     5.9530     1.4270 H     1 <1>   0.0800 
 18 H       -1.9920     1.7230    -0.9580 H     1 <1>   0.0800 
 19 H       -1.3340     3.2580    -1.4600 H     1 <1>   0.0800 
 20 H       -2.9920     5.5360    -0.5080 H     1 <1>   0.0800 
 21 H       -3.3930     5.1020     1.1210 H     1 <1>   0.0800 
 22 H        1.5640     0.7390    -1.1140 H     1 <1>   0.4500 
 23 H        0.0790     1.2560    -1.6650 H     1 <1>   0.4500 
 24 H        0.1820     0.2250    -0.3450 H     1 <1>   0.4500 
 25 H        1.1510     0.8950     1.7810 H     1 <1>   0.0800 
 26 H        1.7850     2.4900     1.9270 H     1 <1>   0.0800 
 27 H        1.6340     4.1160    -0.0910 H     1 <1>   0.0800 
 28 H        0.9370     3.5800    -1.5780 H     1 <1>   0.0800 
 29 H       -3.3970     2.8670     0.7050 H     1 <1>   0.0800 
 30 H       -3.7410     3.4010    -0.9080 H     1 <1>   0.0800 
 31 H        3.0000     0.3130     0.2210 H     1 <1>   0.0800 
 32 H        3.6310     1.0050     1.6740 H     1 <1>   0.0800 
 33 H        3.4130     3.6700    -1.6310 H     1 <1>   0.0800 
 34 H        2.8560     2.0650    -1.9490 H     1 <1>   0.0800 
 35 H        4.7010     1.9480    -0.3710 H     1 <1>   0.0800 
 36 H        3.9710     3.1470     0.6460 H     1 <1>   0.0800 
@<TRIPOS>BOND
  1   1   2  2   
  2   2   3  1   
  3   2   4  1   
  4   3   5  1   
  5   3   6  1   
  6   3  15  1   
  7   4   7  1   
  8   4  16  1   
  9   4  17  1   
 10   5   8  1   
 11   5   9  1   
 12   5  10  1   
 13   6  11  1   
 14   6  18  1   
 15   6  19  1   
 16   7  11  1   
 17   7  20  1   
 18   7  21  1   
 19   8  22  1   
 20   8  23  1   
 21   8  24  1   
 22   9  12  1   
 23   9  25  1   
 24   9  26  1   
 25  10  13  1   
 26  10  27  1   
 27  10  28  1   
 28  11  29  1   
 29  11  30  1   
 30  12  14  1   
 31  12  31  1   
 32  12  32  1   
 33  13  14  1   
 34  13  33  1   
 35  13  34  1   
 36  14  35  1   
 37  14  36  1   
@<TRIPOS>SUBSTRUCTURE
  1 ****   5 GROUP 4 **** **** 0

# MOE 2024.06 (io_trps.svl 2023.06)
