@<TRIPOS>MOLECULE
NONAME
45 46 1 0 0 
SMALL
USER_CHARGES


@<TRIPOS>ATOM
  1 S        0.2210     1.0480    -2.9830 S.o2  1 <1>   1.3330 
  2 O       -0.4870    -0.1650    -2.6580 O.2   1 <1>  -0.6500 
  3 O        1.5170     0.9930    -3.6180 O.2   1 <1>  -0.6500 
  4 N        0.4190     1.9440    -1.5220 N.am  1 <1>  -0.6930 
  5 C       -0.8340     2.1090    -3.9460 C.3   1 <1>  -0.1350 
  6 C       -0.6870     2.2130    -0.7060 C.ar  1 <1>   0.1990 
  7 C        1.6340     2.8190    -1.4290 C.3   1 <1>   0.2570 
  8 C       -1.3660     3.4400    -0.7400 C.ar  1 <1>   0.0830 
  9 C       -1.1320     1.2360     0.1720 C.ar  1 <1>  -0.1500 
 10 C        1.9800     3.2900    -0.0110 C.2   1 <1>   0.5690 
 11 O       -0.9720     4.3960    -1.6310 O.3   1 <1>  -0.3630 
 12 C       -2.4430     3.6680     0.1060 C.ar  1 <1>  -0.1500 
 13 C       -2.1990     1.4620     1.0240 C.ar  1 <1>   0.0830 
 14 O        1.8890     4.4730     0.2380 O.2   1 <1>  -0.5700 
 15 N        2.4040     2.3960     0.9370 N.am  1 <1>  -0.6600 
 16 C       -0.8180     5.7140    -1.1480 C.3   1 <1>   0.0400 
 17 C       -2.8570     2.6870     0.9910 C.ar  1 <1>  -0.1500 
 18 O       -2.5400     0.4430     1.8560 O.3   1 <1>  -0.3630 
 19 C        2.5580     0.9360     0.7420 C.3   1 <1>   0.1400 
 20 C        2.6010     2.7690     2.3520 C.3   1 <1>   0.1400 
 21 C       -3.6520     0.5480     2.7180 C.3   1 <1>   0.0400 
 22 C        3.0590     0.4150     2.0850 C.3   1 <1>  -0.1600 
 23 C        2.5750     1.4430     3.1040 C.3   1 <1>  -0.1600 
 24 H       -1.0140     1.6740    -4.9090 H     1 <1>   0.0800 
 25 H       -0.3740     3.0680    -4.0790 H     1 <1>   0.0800 
 26 H       -1.7740     2.2450    -3.4490 H     1 <1>   0.0800 
 27 H        1.4920     3.6820    -2.0520 H     1 <1>   0.0800 
 28 H        2.4880     2.2850    -1.8020 H     1 <1>   0.0800 
 29 H       -0.6430     0.2810     0.1920 H     1 <1>   0.1500 
 30 H       -2.9690     4.6040     0.0760 H     1 <1>   0.1500 
 31 H       -1.7860     6.1740    -1.0640 H     1 <1>   0.0800 
 32 H       -0.2140     6.2610    -1.8500 H     1 <1>   0.0800 
 33 H       -0.3260     5.6860    -0.1910 H     1 <1>   0.0800 
 34 H       -3.6880     2.8930     1.6370 H     1 <1>   0.1500 
 35 H        3.2550     0.7210    -0.0490 H     1 <1>   0.0800 
 36 H        1.6010     0.5030     0.5110 H     1 <1>   0.0800 
 37 H        1.8230     3.4340     2.6880 H     1 <1>   0.0800 
 38 H        3.5590     3.2490     2.4580 H     1 <1>   0.0800 
 39 H       -3.7430    -0.3780     3.2570 H     1 <1>   0.0800 
 40 H       -4.5360     0.7150     2.1290 H     1 <1>   0.0800 
 41 H       -3.4850     1.3570     3.4060 H     1 <1>   0.0800 
 42 H        4.1350     0.3920     2.0710 H     1 <1>   0.0800 
 43 H        2.6890    -0.5730     2.2910 H     1 <1>   0.0800 
 44 H        1.5600     1.2260     3.3880 H     1 <1>   0.0800 
 45 H        3.1890     1.4710     3.9860 H     1 <1>   0.0800 
@<TRIPOS>BOND
  1   1   2  2   
  2   1   3  2   
  3   1   4  am  
  4   1   5  1   
  5   4   6  1   
  6   4   7  1   
  7   5  24  1   
  8   5  25  1   
  9   5  26  1   
 10   6   8  ar  
 11   6   9  ar  
 12   7  10  1   
 13   7  27  1   
 14   7  28  1   
 15   8  11  1   
 16   8  12  ar  
 17   9  13  ar  
 18   9  29  1   
 19  10  14  2   
 20  10  15  am  
 21  11  16  1   
 22  12  17  ar  
 23  12  30  1   
 24  13  17  ar  
 25  13  18  1   
 26  15  19  1   
 27  15  20  1   
 28  16  31  1   
 29  16  32  1   
 30  16  33  1   
 31  17  34  1   
 32  18  21  1   
 33  19  22  1   
 34  19  35  1   
 35  19  36  1   
 36  20  23  1   
 37  20  37  1   
 38  20  38  1   
 39  21  39  1   
 40  21  40  1   
 41  21  41  1   
 42  22  23  1   
 43  22  42  1   
 44  22  43  1   
 45  23  44  1   
 46  23  45  1   
@<TRIPOS>SUBSTRUCTURE
  1 ****   6 GROUP 4 **** **** 0

# MOE 2024.06 (io_trps.svl 2023.06)
