@<TRIPOS>MOLECULE
NONAME
35 37 1 0 0 
SMALL
USER_CHARGES


@<TRIPOS>ATOM
  1 BR      -1.1720     0.1180     2.7240 Br    1 <1>  -0.0580 
  2 C       -2.3630     0.2310     1.2220 C.2   1 <1>   0.0980 
  3 S       -3.7930    -0.7710     1.3010 S.3   1 <1>  -0.0800 
  4 C       -2.2930     0.9590     0.0950 C.2   1 <1>  -0.1500 
  5 C       -4.3100    -0.1610    -0.2720 C.2   1 <1>  -0.1400 
  6 C       -3.4180     0.7290    -0.7620 C.2   1 <1>  -0.1500 
  7 C       -5.6180    -0.6990    -0.8140 C.3   1 <1>   0.5230 
  8 N       -6.6970    -0.3740     0.1530 N.4   1 <1>  -0.9590 
  9 C       -7.9850    -1.0870    -0.1930 C.3   1 <1>   0.3430 
 10 C       -6.8930     1.1230     0.2780 C.3   1 <1>   0.3430 
 11 C       -9.1390    -0.7060     0.7560 C.3   1 <1>   0.2090 
 12 C       -8.0670     1.5000     1.2080 C.3   1 <1>   0.2090 
 13 N       -9.2970     0.7770     0.7780 N.pl3 1 <1>  -0.8380 
 14 C      -10.1550     1.3980    -0.1000 C.ar  1 <1>   0.7200 
 15 N      -10.5250     0.7010    -1.1720 N.ar  1 <1>  -0.6200 
 16 N      -10.4940     2.6480     0.1890 N.ar  1 <1>  -0.6200 
 17 C      -11.3540     1.3080    -1.9900 C.ar  1 <1>   0.1600 
 18 C      -11.3220     3.2290    -0.6460 C.ar  1 <1>   0.1600 
 19 C      -11.7920     2.5910    -1.7680 C.ar  1 <1>  -0.1500 
 20 H       -1.5010     1.6410    -0.1640 H     1 <1>   0.1500 
 21 H       -3.4880     1.2480    -1.7050 H     1 <1>   0.1500 
 22 H       -5.5360    -1.7680    -0.9340 H     1 <1>   0.0800 
 23 H       -5.8300    -0.2590    -1.7740 H     1 <1>   0.0800 
 24 H       -6.3760    -0.7120     1.0700 H     1 <1>   0.4500 
 25 H       -7.8390    -2.1540    -0.1580 H     1 <1>   0.0800 
 26 H       -8.2880    -0.8250    -1.1940 H     1 <1>   0.0800 
 27 H       -7.0990     1.5410    -0.6940 H     1 <1>   0.0800 
 28 H       -5.9920     1.5830     0.6500 H     1 <1>   0.0800 
 29 H       -8.9350    -1.0590     1.7520 H     1 <1>   0.0800 
 30 H      -10.0530    -1.1750     0.4310 H     1 <1>   0.0800 
 31 H       -8.2170     2.5660     1.1760 H     1 <1>   0.0800 
 32 H       -7.8340     1.2390     2.2260 H     1 <1>   0.0800 
 33 H      -11.6950     0.7720    -2.8610 H     1 <1>   0.1500 
 34 H      -11.6340     4.2380    -0.4310 H     1 <1>   0.1500 
 35 H      -12.4730     3.0750    -2.4420 H     1 <1>   0.1500 
@<TRIPOS>BOND
  1   1   2  1   
  2   2   3  1   
  3   2   4  2   
  4   3   5  1   
  5   4   6  1   
  6   4  20  1   
  7   5   6  2   
  8   5   7  1   
  9   6  21  1   
 10   7   8  1   
 11   7  22  1   
 12   7  23  1   
 13   8   9  1   
 14   8  10  1   
 15   8  24  1   
 16   9  11  1   
 17   9  25  1   
 18   9  26  1   
 19  10  12  1   
 20  10  27  1   
 21  10  28  1   
 22  11  13  1   
 23  11  29  1   
 24  11  30  1   
 25  12  13  1   
 26  12  31  1   
 27  12  32  1   
 28  13  14  1   
 29  14  15  ar  
 30  14  16  ar  
 31  15  17  ar  
 32  16  18  ar  
 33  17  19  ar  
 34  17  33  1   
 35  18  19  ar  
 36  18  34  1   
 37  19  35  1   
@<TRIPOS>SUBSTRUCTURE
  1 ****  10 GROUP 4 **** **** 0

# MOE 2024.06 (io_trps.svl 2023.06)
