@<TRIPOS>MOLECULE
NONAME
60 61 1 0 0 
SMALL
USER_CHARGES


@<TRIPOS>ATOM
  1 O       -6.9730     2.5390     0.0670 O.3   1 <1>  -0.5600 
  2 C       -8.1540     2.2130     0.7390 C.3   1 <1>   0.2000 
  3 C       -6.1670     3.5020     0.6750 C.3   1 <1>   0.1200 
  4 C       -8.6400     0.8040     0.3010 C.3   1 <1>  -0.0800 
  5 C       -9.1830     3.3310     0.4630 C.3   1 <1>  -0.1600 
  6 C       -4.8490     3.5630    -0.1070 C.3   1 <1>   0.2000 
  7 C       -7.5020    -0.2500     0.1710 C.3   1 <1>  -0.0800 
  8 C       -9.5550     0.9020    -0.9360 C.3   1 <1>  -0.1600 
  9 C      -10.6240     2.8020     0.4510 C.3   1 <1>  -0.0800 
 10 O       -4.3990     2.2570    -0.2990 O.3   1 <1>  -0.6800 
 11 C       -3.7510     4.3760     0.6100 C.3   1 <1>   0.3430 
 12 C       -6.8330    -0.3020    -1.2150 C.3   1 <1>  -0.2400 
 13 C       -8.0180    -1.6560     0.5120 C.3   1 <1>  -0.2400 
 14 C      -10.8120     1.7500    -0.6610 C.3   1 <1>  -0.1600 
 15 C      -11.6290     3.9480     0.2870 C.3   1 <1>  -0.2400 
 16 N       -2.4030     3.9420     0.1350 N.4   1 <1>  -0.9590 
 17 C       -1.3230     4.0970     1.1440 C.3   1 <1>   0.3430 
 18 C       -2.0390     4.4910    -1.2080 C.3   1 <1>   0.3430 
 19 C       -0.1280     3.2090     0.7470 C.3   1 <1>  -0.0800 
 20 C       -0.5360     4.3450    -1.4920 C.3   1 <1>  -0.1600 
 21 C        0.0770     3.1270    -0.7830 C.3   1 <1>  -0.1600 
 22 C       -0.2720     1.7980     1.3350 C.3   1 <1>  -0.2400 
 23 H       -7.9410     2.1650     1.7940 H     1 <1>   0.0800 
 24 H       -5.9850     3.2100     1.6960 H     1 <1>   0.0800 
 25 H       -6.6740     4.4510     0.6510 H     1 <1>   0.0800 
 26 H       -9.2710     0.4670     1.1050 H     1 <1>   0.0800 
 27 H       -8.9810     3.7730    -0.4970 H     1 <1>   0.0800 
 28 H       -9.0870     4.0920     1.2170 H     1 <1>   0.0800 
 29 H       -5.0420     3.9870    -1.0780 H     1 <1>   0.0800 
 30 H       -6.7440    -0.0100     0.8980 H     1 <1>   0.0800 
 31 H       -9.8570    -0.0780    -1.2630 H     1 <1>   0.0800 
 32 H       -9.0010     1.3580    -1.7390 H     1 <1>   0.0800 
 33 H      -10.8150     2.3300     1.4010 H     1 <1>   0.0800 
 34 H       -5.2070     1.7050    -0.4550 H     1 <1>   0.4000 
 35 H       -3.8330     4.1830     1.6670 H     1 <1>   0.0800 
 36 H       -3.8960     5.4310     0.4510 H     1 <1>   0.0800 
 37 H       -7.5090    -0.7010    -1.9510 H     1 <1>   0.0800 
 38 H       -5.9650    -0.9360    -1.1820 H     1 <1>   0.0800 
 39 H       -6.5270     0.6730    -1.5410 H     1 <1>   0.0800 
 40 H       -8.7910    -1.9570    -0.1730 H     1 <1>   0.0800 
 41 H       -8.4170    -1.6800     1.5110 H     1 <1>   0.0800 
 42 H       -7.2170    -2.3720     0.4560 H     1 <1>   0.0800 
 43 H      -11.6240     1.1020    -0.3800 H     1 <1>   0.0800 
 44 H      -11.0950     2.2320    -1.5820 H     1 <1>   0.0800 
 45 H      -11.4640     4.4690    -0.6390 H     1 <1>   0.0800 
 46 H      -11.5330     4.6490     1.0970 H     1 <1>   0.0800 
 47 H      -12.6340     3.5640     0.2910 H     1 <1>   0.0800 
 48 H       -2.5300     2.9210    -0.0080 H     1 <1>   0.4500 
 49 H       -1.6730     3.8120     2.1230 H     1 <1>   0.0800 
 50 H       -1.0110     5.1280     1.1790 H     1 <1>   0.0800 
 51 H       -2.3080     5.5330    -1.2710 H     1 <1>   0.0800 
 52 H       -2.5960     3.9560    -1.9620 H     1 <1>   0.0800 
 53 H        0.7500     3.6540     1.1840 H     1 <1>   0.0800 
 54 H       -0.0290     5.2380    -1.1690 H     1 <1>   0.0800 
 55 H       -0.3850     4.2660    -2.5550 H     1 <1>   0.0800 
 56 H       -0.3910     2.2390    -1.1750 H     1 <1>   0.0800 
 57 H        1.1290     3.0590    -1.0060 H     1 <1>   0.0800 
 58 H       -1.1500     1.3040     0.9550 H     1 <1>   0.0800 
 59 H       -0.3420     1.8400     2.4080 H     1 <1>   0.0800 
 60 H        0.5880     1.2010     1.0830 H     1 <1>   0.0800 
@<TRIPOS>BOND
  1   1   2  1   
  2   1   3  1   
  3   2   4  1   
  4   2   5  1   
  5   2  23  1   
  6   3   6  1   
  7   3  24  1   
  8   3  25  1   
  9   4   7  1   
 10   4   8  1   
 11   4  26  1   
 12   5   9  1   
 13   5  27  1   
 14   5  28  1   
 15   6  10  1   
 16   6  11  1   
 17   6  29  1   
 18   7  12  1   
 19   7  13  1   
 20   7  30  1   
 21   8  14  1   
 22   8  31  1   
 23   8  32  1   
 24   9  14  1   
 25   9  15  1   
 26   9  33  1   
 27  10  34  1   
 28  11  16  1   
 29  11  35  1   
 30  11  36  1   
 31  12  37  1   
 32  12  38  1   
 33  12  39  1   
 34  13  40  1   
 35  13  41  1   
 36  13  42  1   
 37  14  43  1   
 38  14  44  1   
 39  15  45  1   
 40  15  46  1   
 41  15  47  1   
 42  16  17  1   
 43  16  18  1   
 44  16  48  1   
 45  17  19  1   
 46  17  49  1   
 47  17  50  1   
 48  18  20  1   
 49  18  51  1   
 50  18  52  1   
 51  19  21  1   
 52  19  22  1   
 53  19  53  1   
 54  20  21  1   
 55  20  54  1   
 56  20  55  1   
 57  21  56  1   
 58  21  57  1   
 59  22  58  1   
 60  22  59  1   
 61  22  60  1   
@<TRIPOS>SUBSTRUCTURE
  1 ****  10 GROUP 4 **** **** 0

# MOE 2024.06 (io_trps.svl 2023.06)
