@<TRIPOS>MOLECULE
NONAME
40 40 1 0 0 
SMALL
USER_CHARGES


@<TRIPOS>ATOM
  1 O        0.9360    -0.1150    -0.1150 O.3   1 <1>  -0.3630 
  2 C       -0.3260    -0.6090    -0.1720 C.ar  1 <1>   0.0830 
  3 C        2.0520    -0.9640    -0.0520 C.3   1 <1>   0.1200 
  4 C       -0.6300    -1.9690    -0.1770 C.ar  1 <1>  -0.1500 
  5 C       -1.3540     0.3190    -0.2280 C.ar  1 <1>  -0.1500 
  6 C        3.2910    -0.0700     0.0020 C.3   1 <1>  -0.1600 
  7 C       -1.9490    -2.3910    -0.2380 C.ar  1 <1>  -0.1440 
  8 C       -2.6710    -0.0990    -0.2870 C.ar  1 <1>  -0.1500 
  9 C        4.5630    -0.9050     0.0730 C.3   1 <1>   0.3430 
 10 C       -2.9660    -1.4520    -0.2910 C.ar  1 <1>  -0.1500 
 11 C       -2.2830    -3.8720    -0.2410 C.3   1 <1>  -0.0960 
 12 N        5.7320     0.0110     0.1230 N.4   1 <1>  -0.9060 
 13 C        7.0590    -0.6050     0.1950 C.3   1 <1>   0.5030 
 14 C        7.2980    -1.4620    -1.0470 C.3   1 <1>  -0.2400 
 15 C        8.0620     0.5420     0.2350 C.3   1 <1>  -0.2400 
 16 C        7.1720    -1.4400     1.4700 C.3   1 <1>  -0.2400 
 17 H        2.0520    -1.5840    -0.9330 H     1 <1>   0.0800 
 18 H        1.9640    -1.5690     0.8350 H     1 <1>   0.0800 
 19 H        0.1420    -2.7100    -0.1330 H     1 <1>   0.1500 
 20 H       -1.1190     1.3670    -0.2250 H     1 <1>   0.1500 
 21 H        3.2170     0.5570     0.8730 H     1 <1>   0.0800 
 22 H        3.3050     0.5420    -0.8830 H     1 <1>   0.0800 
 23 H       -3.4650     0.6250    -0.3290 H     1 <1>   0.1500 
 24 H        4.6270    -1.5420    -0.7960 H     1 <1>   0.0800 
 25 H        4.5390    -1.5260     0.9540 H     1 <1>   0.0800 
 26 H       -3.9940    -1.7680    -0.3360 H     1 <1>   0.1500 
 27 H       -1.4850    -4.4400    -0.6830 H     1 <1>   0.0800 
 28 H       -3.1790    -4.0530    -0.8080 H     1 <1>   0.0800 
 29 H       -2.4370    -4.2120     0.7670 H     1 <1>   0.0800 
 30 H        5.6370     0.6300     0.9340 H     1 <1>   0.4500 
 31 H        5.7190     0.6160    -0.7040 H     1 <1>   0.4500 
 32 H        7.1700    -0.8870    -1.9470 H     1 <1>   0.0800 
 33 H        6.6460    -2.3160    -1.0730 H     1 <1>   0.0800 
 34 H        8.3080    -1.8360    -1.0390 H     1 <1>   0.0800 
 35 H        7.9100     1.1640     1.1000 H     1 <1>   0.0800 
 36 H        7.9980     1.1480    -0.6520 H     1 <1>   0.0800 
 37 H        9.0630     0.1510     0.2890 H     1 <1>   0.0800 
 38 H        6.9560    -0.8480     2.3420 H     1 <1>   0.0800 
 39 H        8.1770    -1.8120     1.5700 H     1 <1>   0.0800 
 40 H        6.5200    -2.2930     1.4470 H     1 <1>   0.0800 
@<TRIPOS>BOND
  1   1   2  1   
  2   1   3  1   
  3   2   4  ar  
  4   2   5  ar  
  5   3   6  1   
  6   3  17  1   
  7   3  18  1   
  8   4   7  ar  
  9   4  19  1   
 10   5   8  ar  
 11   5  20  1   
 12   6   9  1   
 13   6  21  1   
 14   6  22  1   
 15   7  10  ar  
 16   7  11  1   
 17   8  10  ar  
 18   8  23  1   
 19   9  12  1   
 20   9  24  1   
 21   9  25  1   
 22  10  26  1   
 23  11  27  1   
 24  11  28  1   
 25  11  29  1   
 26  12  13  1   
 27  12  30  1   
 28  12  31  1   
 29  13  14  1   
 30  13  15  1   
 31  13  16  1   
 32  14  32  1   
 33  14  33  1   
 34  14  34  1   
 35  15  35  1   
 36  15  36  1   
 37  15  37  1   
 38  16  38  1   
 39  16  39  1   
 40  16  40  1   
@<TRIPOS>SUBSTRUCTURE
  1 ****   3 GROUP 4 **** **** 0

# MOE 2024.06 (io_trps.svl 2023.06)
