@<TRIPOS>MOLECULE
NONAME
44 45 1 0 0 
SMALL
USER_CHARGES


@<TRIPOS>ATOM
  1 BR      -0.1620     0.1170     1.8150 Br    1 <1>  -0.1110 
  2 C        1.4360     0.9830     1.1830 C.ar  1 <1>   0.1110 
  3 C        2.6530     0.3690     1.3940 C.ar  1 <1>  -0.1500 
  4 C        1.3200     2.1960     0.5350 C.ar  1 <1>  -0.1500 
  5 C        3.8270     0.9730     0.9420 C.ar  1 <1>   0.0860 
  6 C        2.4750     2.8130     0.0890 C.ar  1 <1>  -0.1500 
  7 C        5.1140     0.3300     1.1440 C.2   1 <1>   0.5440 
  8 C        3.7060     2.2080     0.2940 C.ar  1 <1>  -0.1500 
  9 O        5.2920    -0.4360     2.0700 O.2   1 <1>  -0.5700 
 10 N        6.1570     0.5430     0.2840 N.am  1 <1>  -0.7300 
 11 C        7.4870    -0.0590     0.4610 C.3   1 <1>   0.2200 
 12 C        8.5480     0.8310    -0.1750 C.3   1 <1>  -0.1600 
 13 C        7.5040    -1.4320    -0.2020 C.3   1 <1>  -0.1600 
 14 C        9.9520     0.2200    -0.0470 C.3   1 <1>   0.5030 
 15 C        8.8700    -2.1140    -0.0670 C.3   1 <1>   0.5030 
 16 N        9.9620    -1.1990    -0.4450 N.4   1 <1>  -0.9060 
 17 C       10.5190     0.3700     1.3670 C.3   1 <1>  -0.2400 
 18 C       10.9030     0.9230    -1.0140 C.3   1 <1>  -0.2400 
 19 C        9.1060    -2.6600     1.3440 C.3   1 <1>  -0.2400 
 20 C        8.9560    -3.2820    -1.0470 C.3   1 <1>  -0.2400 
 21 H        2.6950    -0.5750     1.9080 H     1 <1>   0.1500 
 22 H        0.3530     2.6450     0.3890 H     1 <1>   0.1500 
 23 H        2.4140     3.7640    -0.4130 H     1 <1>   0.1500 
 24 H        4.5890     2.7160    -0.0490 H     1 <1>   0.1500 
 25 H        5.9860     1.0630    -0.5780 H     1 <1>   0.3700 
 26 H        7.6750    -0.1560     1.5180 H     1 <1>   0.0800 
 27 H        8.5360     1.7960     0.3020 H     1 <1>   0.0800 
 28 H        8.3120     0.9750    -1.2140 H     1 <1>   0.0800 
 29 H        7.2490    -1.3270    -1.2410 H     1 <1>   0.0800 
 30 H        6.7530    -2.0540     0.2550 H     1 <1>   0.0800 
 31 H       10.8390    -1.6110    -0.1200 H     1 <1>   0.4500 
 32 H       10.0030    -1.2120    -1.4650 H     1 <1>   0.4500 
 33 H        9.8440     0.0170     2.1210 H     1 <1>   0.0800 
 34 H       10.6900     1.4110     1.5790 H     1 <1>   0.0800 
 35 H       11.4610    -0.1400     1.4680 H     1 <1>   0.0800 
 36 H       10.5690     0.8280    -2.0330 H     1 <1>   0.0800 
 37 H       11.9020     0.5310    -0.9330 H     1 <1>   0.0800 
 38 H       10.9470     1.9740    -0.7860 H     1 <1>   0.0800 
 39 H        8.9250    -1.9280     2.1050 H     1 <1>   0.0800 
 40 H       10.1020    -3.0500     1.4540 H     1 <1>   0.0800 
 41 H        8.4180    -3.4660     1.5360 H     1 <1>   0.0800 
 42 H        8.8230    -2.9540    -2.0630 H     1 <1>   0.0800 
 43 H        8.1780    -3.9950    -0.8340 H     1 <1>   0.0800 
 44 H        9.8980    -3.7950    -0.9620 H     1 <1>   0.0800 
@<TRIPOS>BOND
  1   1   2  1   
  2   2   3  ar  
  3   2   4  ar  
  4   3   5  ar  
  5   3  21  1   
  6   4   6  ar  
  7   4  22  1   
  8   5   7  1   
  9   5   8  ar  
 10   6   8  ar  
 11   6  23  1   
 12   7   9  2   
 13   7  10  am  
 14   8  24  1   
 15  10  11  1   
 16  10  25  1   
 17  11  12  1   
 18  11  13  1   
 19  11  26  1   
 20  12  14  1   
 21  12  27  1   
 22  12  28  1   
 23  13  15  1   
 24  13  29  1   
 25  13  30  1   
 26  14  16  1   
 27  14  17  1   
 28  14  18  1   
 29  15  16  1   
 30  15  19  1   
 31  15  20  1   
 32  16  31  1   
 33  16  32  1   
 34  17  33  1   
 35  17  34  1   
 36  17  35  1   
 37  18  36  1   
 38  18  37  1   
 39  18  38  1   
 40  19  39  1   
 41  19  40  1   
 42  19  41  1   
 43  20  42  1   
 44  20  43  1   
 45  20  44  1   
@<TRIPOS>SUBSTRUCTURE
  1 ****  10 GROUP 4 **** **** 0

# MOE 2024.06 (io_trps.svl 2023.06)
