@<TRIPOS>MOLECULE
NONAME
50 52 1 0 0 
SMALL
USER_CHARGES


@<TRIPOS>ATOM
  1 O       -0.3260     0.0530    -0.8330 O.2   1 <1>  -0.5700 
  2 C       -0.3070     1.2270    -0.5220 C.2   1 <1>   0.5440 
  3 N        0.8360     1.8070    -0.0270 N.am  1 <1>  -0.5470 
  4 C       -1.5010     2.0360    -0.6910 C.ar  1 <1>   0.0860 
  5 C        2.1070     1.3220     0.3330 C.ar  1 <1>   0.1170 
  6 C       -2.3980     1.7750    -1.7260 C.ar  1 <1>  -0.1500 
  7 C       -1.8090     3.0970     0.1630 C.ar  1 <1>  -0.1500 
  8 C        3.0870     2.2610     0.6770 C.ar  1 <1>   0.0830 
  9 C        2.4340    -0.0290     0.3740 C.ar  1 <1>  -0.1500 
 10 C       -3.5430     2.5290    -1.9060 C.ar  1 <1>  -0.1500 
 11 C       -2.9520     3.8570    -0.0090 C.ar  1 <1>  -0.1500 
 12 O        2.7290     3.5810     0.6350 O.3   1 <1>  -0.3620 
 13 C        4.3600     1.8360     1.0430 C.ar  1 <1>  -0.1500 
 14 C        3.7010    -0.4520     0.7400 C.ar  1 <1>  -0.1430 
 15 C       -3.8330     3.5740    -1.0430 C.ar  1 <1>  -0.1430 
 16 C        3.6710     4.6000     0.8950 C.3   1 <1>   0.0400 
 17 C        4.6630     0.4860     1.0720 C.ar  1 <1>  -0.1500 
 18 C        4.0330    -1.9330     0.7720 C.3   1 <1>  -0.0970 
 19 C       -5.1020     4.3880    -1.2270 C.3   1 <1>   0.4860 
 20 N       -6.0760     4.0070    -0.1700 N.4   1 <1>  -0.9590 
 21 C       -6.4190     2.5430    -0.1560 C.3   1 <1>   0.3430 
 22 C       -7.3200     4.8480    -0.1650 C.3   1 <1>   0.3430 
 23 C       -7.3920     2.2080     0.9990 C.3   1 <1>   0.1200 
 24 C       -8.3230     4.3710     0.9120 C.3   1 <1>   0.1200 
 25 O       -7.7640     3.3610     1.7080 O.3   1 <1>  -0.5600 
 26 H        0.8110     2.8250     0.0420 H     1 <1>   0.3700 
 27 H       -2.1820     0.9600    -2.3990 H     1 <1>   0.1500 
 28 H       -1.1470     3.3240     0.9810 H     1 <1>   0.1500 
 29 H        1.6950    -0.7640     0.1180 H     1 <1>   0.1500 
 30 H       -4.1980     2.2860    -2.7270 H     1 <1>   0.1500 
 31 H       -3.1430     4.6680     0.6740 H     1 <1>   0.1500 
 32 H        5.1310     2.5320     1.3090 H     1 <1>   0.1500 
 33 H        3.1800     5.5490     0.7760 H     1 <1>   0.0800 
 34 H        4.4790     4.5170     0.1890 H     1 <1>   0.0800 
 35 H        4.0270     4.4980     1.9040 H     1 <1>   0.0800 
 36 H        5.6510     0.1670     1.3540 H     1 <1>   0.1500 
 37 H        3.1420    -2.5170     0.9170 H     1 <1>   0.0800 
 38 H        4.7140    -2.1470     1.5760 H     1 <1>   0.0800 
 39 H        4.4890    -2.2230    -0.1580 H     1 <1>   0.0800 
 40 H       -5.5180     4.1980    -2.2030 H     1 <1>   0.0800 
 41 H       -4.8660     5.4370    -1.1550 H     1 <1>   0.0800 
 42 H       -5.6310     4.1660     0.7450 H     1 <1>   0.4500 
 43 H       -5.5240     1.9520    -0.0390 H     1 <1>   0.0800 
 44 H       -6.8730     2.2610    -1.0910 H     1 <1>   0.0800 
 45 H       -7.8020     4.8060    -1.1280 H     1 <1>   0.0800 
 46 H       -7.0670     5.8770     0.0270 H     1 <1>   0.0800 
 47 H       -6.9210     1.5350     1.6950 H     1 <1>   0.0800 
 48 H       -8.2810     1.7320     0.6220 H     1 <1>   0.0800 
 49 H       -9.2230     3.9930     0.4580 H     1 <1>   0.0800 
 50 H       -8.5920     5.1890     1.5580 H     1 <1>   0.0800 
@<TRIPOS>BOND
  1   1   2  2   
  2   2   3  am  
  3   2   4  1   
  4   3   5  1   
  5   3  26  1   
  6   4   6  ar  
  7   4   7  ar  
  8   5   8  ar  
  9   5   9  ar  
 10   6  10  ar  
 11   6  27  1   
 12   7  11  ar  
 13   7  28  1   
 14   8  12  1   
 15   8  13  ar  
 16   9  14  ar  
 17   9  29  1   
 18  10  15  ar  
 19  10  30  1   
 20  11  15  ar  
 21  11  31  1   
 22  12  16  1   
 23  13  17  ar  
 24  13  32  1   
 25  14  17  ar  
 26  14  18  1   
 27  15  19  1   
 28  16  33  1   
 29  16  34  1   
 30  16  35  1   
 31  17  36  1   
 32  18  37  1   
 33  18  38  1   
 34  18  39  1   
 35  19  20  1   
 36  19  40  1   
 37  19  41  1   
 38  20  21  1   
 39  20  22  1   
 40  20  42  1   
 41  21  23  1   
 42  21  43  1   
 43  21  44  1   
 44  22  24  1   
 45  22  45  1   
 46  22  46  1   
 47  23  25  1   
 48  23  47  1   
 49  23  48  1   
 50  24  25  1   
 51  24  49  1   
 52  24  50  1   
@<TRIPOS>SUBSTRUCTURE
  1 ****   4 GROUP 4 **** **** 0

# MOE 2024.06 (io_trps.svl 2023.06)
