@<TRIPOS>MOLECULE
NONAME
47 48 1 0 0 
SMALL
USER_CHARGES


@<TRIPOS>ATOM
  1 O        0.5510     0.1820    -0.7270 O.2   1 <1>  -0.5700 
  2 C        0.7990    -0.9970    -0.5650 C.2   1 <1>   0.6900 
  3 N        2.0880    -1.4010    -0.3420 N.am  1 <1>  -0.6600 
  4 N       -0.1810    -1.9480    -0.6240 N.am  1 <1>  -0.5470 
  5 C        2.4560    -2.7130     0.2720 C.3   1 <1>   0.1400 
  6 C        3.2160    -0.4310    -0.4740 C.3   1 <1>   0.1400 
  7 C       -1.5760    -1.8410    -0.7050 C.ar  1 <1>   0.1170 
  8 C        3.8210    -2.6390     0.9830 C.3   1 <1>   0.2000 
  9 C        4.5550    -1.1470    -0.7600 C.3   1 <1>   0.2000 
 10 C       -2.3020    -2.9110    -1.2170 C.ar  1 <1>  -0.1500 
 11 C       -2.2760    -0.7190    -0.2750 C.ar  1 <1>  -0.1500 
 12 O        4.8240    -2.2260     0.1010 O.3   1 <1>  -0.5600 
 13 C        4.2540    -3.9920     1.5420 C.3   1 <1>  -0.2400 
 14 C        5.7440    -0.1950    -0.6590 C.3   1 <1>  -0.2400 
 15 C       -3.6810    -2.8610    -1.3010 C.ar  1 <1>  -0.1500 
 16 C       -3.6550    -0.6660    -0.3590 C.ar  1 <1>  -0.1500 
 17 C       -4.3690    -1.7360    -0.8740 C.ar  1 <1>  -0.1430 
 18 C       -5.8850    -1.6770    -0.9660 C.3   1 <1>  -0.0170 
 19 C       -6.5230    -2.2190     0.3180 C.3   1 <1>  -0.1600 
 20 C       -8.0540    -2.1680     0.2510 C.3   1 <1>  -0.1600 
 21 C       -8.6790    -2.7110     1.5390 C.3   1 <1>  -0.2400 
 22 H        0.1910    -2.8810    -0.7450 H     1 <1>   0.3700 
 23 H        2.5010    -3.4650    -0.4970 H     1 <1>   0.0800 
 24 H        1.7050    -2.9980     0.9880 H     1 <1>   0.0800 
 25 H        3.2960     0.1400     0.4350 H     1 <1>   0.0800 
 26 H        3.0070     0.2590    -1.2740 H     1 <1>   0.0800 
 27 H        3.7720    -1.9220     1.7860 H     1 <1>   0.0800 
 28 H        4.5140    -1.5520    -1.7570 H     1 <1>   0.0800 
 29 H       -1.7860    -3.7900    -1.5560 H     1 <1>   0.1500 
 30 H       -1.7420     0.1210     0.1310 H     1 <1>   0.1500 
 31 H        4.3450    -4.7130     0.7500 H     1 <1>   0.0800 
 32 H        3.5330    -4.3470     2.2560 H     1 <1>   0.0800 
 33 H        5.2030    -3.8920     2.0390 H     1 <1>   0.0800 
 34 H        5.8250     0.1960     0.3390 H     1 <1>   0.0800 
 35 H        5.6210     0.6240    -1.3440 H     1 <1>   0.0800 
 36 H        6.6500    -0.7170    -0.9100 H     1 <1>   0.0800 
 37 H       -4.2220    -3.7010    -1.7010 H     1 <1>   0.1500 
 38 H       -4.1720     0.2150    -0.0200 H     1 <1>   0.1500 
 39 H       -6.2160    -2.2550    -1.8100 H     1 <1>   0.0800 
 40 H       -6.1940    -0.6590    -1.1250 H     1 <1>   0.0800 
 41 H       -6.1780    -1.6350     1.1550 H     1 <1>   0.0800 
 42 H       -6.2010    -3.2350     0.4700 H     1 <1>   0.0800 
 43 H       -8.4010    -2.7540    -0.5840 H     1 <1>   0.0800 
 44 H       -8.3770    -1.1510     0.1030 H     1 <1>   0.0800 
 45 H       -8.3870    -3.7350     1.6970 H     1 <1>   0.0800 
 46 H       -9.7520    -2.6680     1.4750 H     1 <1>   0.0800 
 47 H       -8.3630    -2.1270     2.3860 H     1 <1>   0.0800 
@<TRIPOS>BOND
  1   1   2  2   
  2   2   3  am  
  3   2   4  am  
  4   3   5  1   
  5   3   6  1   
  6   4   7  1   
  7   4  22  1   
  8   5   8  1   
  9   5  23  1   
 10   5  24  1   
 11   6   9  1   
 12   6  25  1   
 13   6  26  1   
 14   7  10  ar  
 15   7  11  ar  
 16   8  12  1   
 17   8  13  1   
 18   8  27  1   
 19   9  12  1   
 20   9  14  1   
 21   9  28  1   
 22  10  15  ar  
 23  10  29  1   
 24  11  16  ar  
 25  11  30  1   
 26  13  31  1   
 27  13  32  1   
 28  13  33  1   
 29  14  34  1   
 30  14  35  1   
 31  14  36  1   
 32  15  17  ar  
 33  15  37  1   
 34  16  17  ar  
 35  16  38  1   
 36  17  18  1   
 37  18  19  1   
 38  18  39  1   
 39  18  40  1   
 40  19  20  1   
 41  19  41  1   
 42  19  42  1   
 43  20  21  1   
 44  20  43  1   
 45  20  44  1   
 46  21  45  1   
 47  21  46  1   
 48  21  47  1   
@<TRIPOS>SUBSTRUCTURE
  1 ****   4 GROUP 4 **** **** 0

# MOE 2024.06 (io_trps.svl 2023.06)
