@<TRIPOS>MOLECULE
NONAME
46 49 1 0 0 
SMALL
USER_CHARGES


@<TRIPOS>ATOM
  1 O       -1.3640    -0.8980    -1.8950 O.2   1 <1>  -0.5700 
  2 C       -1.2900    -1.5640    -0.8820 C.2   1 <1>   0.5440 
  3 N       -1.9540    -1.1760     0.2530 N.am  1 <1>  -0.7300 
  4 C       -0.4910    -2.7770    -0.8650 C.ar  1 <1>   0.0860 
  5 C       -2.9080    -0.0550     0.4860 C.3   1 <1>   0.2200 
  6 C        0.6860    -2.8680    -1.6070 C.ar  1 <1>  -0.1500 
  7 C       -0.8630    -3.8940    -0.1130 C.ar  1 <1>  -0.1500 
  8 C       -4.3800    -0.4460     0.1350 C.3   1 <1>   0.0000 
  9 C       -2.3830     1.2420    -0.1460 C.3   1 <1>  -0.2400 
 10 C        1.4660    -4.0100    -1.5910 C.ar  1 <1>  -0.1500 
 11 C       -0.0880    -5.0390    -0.0910 C.ar  1 <1>  -0.1500 
 12 C       -5.3490     0.7110     0.5020 C.3   1 <1>  -0.1600 
 13 C       -4.5830    -0.7770    -1.3670 C.3   1 <1>  -0.1600 
 14 C       -4.8040    -1.6920     0.9600 C.3   1 <1>  -0.1600 
 15 C        1.0810    -5.0990    -0.8290 C.ar  1 <1>  -0.1500 
 16 C       -6.8140     0.3300     0.2200 C.3   1 <1>  -0.0800 
 17 C       -6.0460    -1.1630    -1.6600 C.3   1 <1>  -0.0800 
 18 C       -6.2660    -2.0840     0.6770 C.3   1 <1>  -0.0800 
 19 C       -6.9690     0.0080    -1.2770 C.3   1 <1>  -0.1600 
 20 C       -7.1870    -0.9100     1.0500 C.3   1 <1>  -0.1600 
 21 C       -6.4220    -2.3980    -0.8220 C.3   1 <1>  -0.1600 
 22 H       -1.8190    -1.7560     1.0790 H     1 <1>   0.3700 
 23 H       -2.8930     0.1230     1.5480 H     1 <1>   0.0800 
 24 H        0.9870    -2.0240    -2.2050 H     1 <1>   0.1500 
 25 H       -1.7760    -3.8710     0.4540 H     1 <1>   0.1500 
 26 H       -2.5080     1.2370    -1.2120 H     1 <1>   0.0800 
 27 H       -1.3390     1.3620     0.0790 H     1 <1>   0.0800 
 28 H       -2.9060     2.0920     0.2500 H     1 <1>   0.0800 
 29 H        2.3720    -4.0530    -2.1710 H     1 <1>   0.1500 
 30 H       -0.3930    -5.8880     0.4960 H     1 <1>   0.1500 
 31 H       -5.1140     1.5870    -0.0750 H     1 <1>   0.0800 
 32 H       -5.2400     0.9640     1.5420 H     1 <1>   0.0800 
 33 H       -4.3120     0.0670    -1.9750 H     1 <1>   0.0800 
 34 H       -3.9470    -1.5940    -1.6540 H     1 <1>   0.0800 
 35 H       -4.6870    -1.4920     2.0100 H     1 <1>   0.0800 
 36 H       -4.1750    -2.5280     0.7140 H     1 <1>   0.0800 
 37 H        1.6860    -5.9890    -0.8140 H     1 <1>   0.1500 
 38 H       -7.4600     1.1510     0.4830 H     1 <1>   0.0800 
 39 H       -6.1570    -1.3860    -2.7070 H     1 <1>   0.0800 
 40 H       -6.5290    -2.9510     1.2580 H     1 <1>   0.0800 
 41 H       -6.7190     0.8740    -1.8650 H     1 <1>   0.0800 
 42 H       -7.9910    -0.2490    -1.4910 H     1 <1>   0.0800 
 43 H       -7.0920    -0.6900     2.0990 H     1 <1>   0.0800 
 44 H       -8.2120    -1.1780     0.8640 H     1 <1>   0.0800 
 45 H       -5.7870    -3.2250    -1.0900 H     1 <1>   0.0800 
 46 H       -7.4370    -2.6850    -1.0310 H     1 <1>   0.0800 
@<TRIPOS>BOND
  1   1   2  2   
  2   2   3  am  
  3   2   4  1   
  4   3   5  1   
  5   3  22  1   
  6   4   6  ar  
  7   4   7  ar  
  8   5   8  1   
  9   5   9  1   
 10   5  23  1   
 11   6  10  ar  
 12   6  24  1   
 13   7  11  ar  
 14   7  25  1   
 15   8  12  1   
 16   8  13  1   
 17   8  14  1   
 18   9  26  1   
 19   9  27  1   
 20   9  28  1   
 21  10  15  ar  
 22  10  29  1   
 23  11  15  ar  
 24  11  30  1   
 25  12  16  1   
 26  12  31  1   
 27  12  32  1   
 28  13  17  1   
 29  13  33  1   
 30  13  34  1   
 31  14  18  1   
 32  14  35  1   
 33  14  36  1   
 34  15  37  1   
 35  16  19  1   
 36  16  20  1   
 37  16  38  1   
 38  17  19  1   
 39  17  21  1   
 40  17  39  1   
 41  18  20  1   
 42  18  21  1   
 43  18  40  1   
 44  19  41  1   
 45  19  42  1   
 46  20  43  1   
 47  20  44  1   
 48  21  45  1   
 49  21  46  1   
@<TRIPOS>SUBSTRUCTURE
  1 ****   3 GROUP 4 **** **** 0

# MOE 2024.06 (io_trps.svl 2023.06)
