@<TRIPOS>MOLECULE
NONAME
27 27 1 0 0 
SMALL
USER_CHARGES


@<TRIPOS>ATOM
  1 CL       0.0680    -0.0950    -0.1010 Cl    1 <1>  -0.1770 
  2 C       -1.6730     0.0030    -0.0260 C.ar  1 <1>   0.1770 
  3 C       -2.4170    -1.1590    -0.0600 C.ar  1 <1>  -0.1500 
  4 C       -2.2770     1.2400     0.0650 C.ar  1 <1>  -0.1500 
  5 C       -3.8070    -1.1100     0.0050 C.ar  1 <1>  -0.0090 
  6 C       -3.6560     1.3100     0.1190 C.ar  1 <1>  -0.1500 
  7 S       -4.8220    -2.6130    -0.0420 S.o2  1 <1>   1.4470 
  8 C       -4.4180     0.1400     0.0840 C.ar  1 <1>   0.0830 
  9 O       -5.3320    -2.8380    -1.3760 O.2   1 <1>  -0.6500 
 10 O       -5.6940    -2.7160     1.1060 O.2   1 <1>  -0.6500 
 11 N       -3.7270    -3.8510     0.2650 N.am  1 <1>  -0.9140 
 12 O       -5.7730     0.1600     0.1200 O.3   1 <1>  -0.3620 
 13 C       -4.0910    -5.1240    -0.3530 C.3   1 <1>   0.1160 
 14 C       -6.5170     1.3510     0.2280 C.3   1 <1>   0.1200 
 15 C       -7.9940     0.9730     0.2570 C.3   1 <1>  -0.2400 
 16 H       -1.9020    -2.1000    -0.1400 H     1 <1>   0.1500 
 17 H       -1.6730     2.1300     0.0900 H     1 <1>   0.1500 
 18 H       -4.1170     2.2780     0.1850 H     1 <1>   0.1500 
 19 H       -3.8180    -3.9680     1.2740 H     1 <1>   0.4200 
 20 H       -4.0400    -5.0410    -1.4270 H     1 <1>   0.0800 
 21 H       -5.0940    -5.4030    -0.0730 H     1 <1>   0.0800 
 22 H       -3.4090    -5.8940    -0.0350 H     1 <1>   0.0800 
 23 H       -6.3000     1.9690    -0.6260 H     1 <1>   0.0800 
 24 H       -6.2340     1.8500     1.1380 H     1 <1>   0.0800 
 25 H       -8.2620     0.4590    -0.6490 H     1 <1>   0.0800 
 26 H       -8.5970     1.8580     0.3430 H     1 <1>   0.0800 
 27 H       -8.1950     0.3360     1.1010 H     1 <1>   0.0800 
@<TRIPOS>BOND
  1   1   2  1   
  2   2   3  ar  
  3   2   4  ar  
  4   3   5  ar  
  5   3  16  1   
  6   4   6  ar  
  7   4  17  1   
  8   5   7  1   
  9   5   8  ar  
 10   6   8  ar  
 11   6  18  1   
 12   7   9  2   
 13   7  10  2   
 14   7  11  am  
 15   8  12  1   
 16  11  13  1   
 17  11  19  1   
 18  12  14  1   
 19  13  20  1   
 20  13  21  1   
 21  13  22  1   
 22  14  15  1   
 23  14  23  1   
 24  14  24  1   
 25  15  25  1   
 26  15  26  1   
 27  15  27  1   
@<TRIPOS>SUBSTRUCTURE
  1 ****   5 GROUP 4 **** **** 0

# MOE 2024.06 (io_trps.svl 2023.06)
