@<TRIPOS>MOLECULE
Structure2493
29 30 1 0 0 
SMALL
USER_CHARGES


@<TRIPOS>ATOM
  1 O        0.0290     0.3300     0.4310 O.3   1 <1>  -0.3630 
  2 C       -1.1570     0.9370     0.1750 C.ar  1 <1>   0.0830 
  3 C        1.2460     1.0240     0.3080 C.3   1 <1>   0.1200 
  4 C       -2.2880     0.1370     0.2210 C.ar  1 <1>  -0.1500 
  5 C       -1.2850     2.2900    -0.1270 C.ar  1 <1>  -0.1500 
  6 C        2.3660     0.0200     0.5710 C.3   1 <1>   0.0000 
  7 C       -3.5410     0.6670    -0.0360 C.ar  1 <1>  -0.1440 
  8 C       -2.5360     2.8210    -0.3860 C.ar  1 <1>  -0.1500 
  9 C        3.6490     0.2690    -0.2440 C.3   1 <1>   0.4720 
 10 C        2.2310    -1.2760    -0.2540 C.3   1 <1>   0.4720 
 11 C       -3.6590     2.0130    -0.3430 C.ar  1 <1>  -0.1500 
 12 C       -4.7760    -0.2140     0.0120 C.3   1 <1>  -0.0960 
 13 N        3.7140    -1.2130    -0.4640 N.4   1 <1>  -0.8440 
 14 H        1.2620     1.8230     1.0300 H     1 <1>   0.0800 
 15 H        1.2980     1.4220    -0.6910 H     1 <1>   0.0800 
 16 H       -2.1810    -0.9050     0.4590 H     1 <1>   0.1500 
 17 H       -0.4380     2.9470    -0.1640 H     1 <1>   0.1500 
 18 H        2.5580    -0.1590     1.6160 H     1 <1>   0.0000 
 19 H       -2.6420     3.8660    -0.6210 H     1 <1>   0.1500 
 20 H        4.4810     0.6340     0.3310 H     1 <1>   0.0000 
 21 H        3.4730     0.7900    -1.1680 H     1 <1>   0.0000 
 22 H        1.7020    -1.1390    -1.1800 H     1 <1>   0.0000 
 23 H        1.9330    -2.1390     0.3140 H     1 <1>   0.0000 
 24 H       -4.6270     2.4370    -0.5470 H     1 <1>   0.1500 
 25 H       -4.6060    -1.0730     0.6370 H     1 <1>   0.0800 
 26 H       -5.0230    -0.5500    -0.9790 H     1 <1>   0.0800 
 27 H       -5.6100     0.3340     0.4110 H     1 <1>   0.0800 
 28 H        4.2260    -1.7000     0.2790 H     1 <1>   0.4500 
 29 H        4.0040    -1.4860    -1.4080 H     1 <1>   0.4500 
@<TRIPOS>BOND
  1   1   2  1   
  2   1   3  1   
  3   2   4  ar  
  4   2   5  ar  
  5   3   6  1   
  6   3  14  1   
  7   3  15  1   
  8   4   7  ar  
  9   4  16  1   
 10   5   8  ar  
 11   5  17  1   
 12   6   9  1   
 13   6  10  1   
 14   6  18  1   
 15   7  11  ar  
 16   7  12  1   
 17   8  11  ar  
 18   8  19  1   
 19   9  13  1   
 20   9  20  1   
 21   9  21  1   
 22  10  13  1   
 23  10  22  1   
 24  10  23  1   
 25  11  24  1   
 26  12  25  1   
 27  12  26  1   
 28  12  27  1   
 29  13  28  1   
 30  13  29  1   
@<TRIPOS>SUBSTRUCTURE
  1 ****   1 GROUP 4 **** **** 0

# MOE 2024.06 (io_trps.svl 2023.06)
