@<TRIPOS>MOLECULE
NONAME
43 44 1 0 0 
SMALL
USER_CHARGES


@<TRIPOS>ATOM
  1 O       -1.2120     0.8170    -0.6350 O.2   1 <1>  -0.5700 
  2 C       -0.6750     1.6810    -1.3000 C.2   1 <1>   0.6900 
  3 N        0.6290     2.0320    -1.1350 N.am  1 <1>  -0.5470 
  4 N       -1.4090     2.3430    -2.2290 N.am  1 <1>  -0.7300 
  5 C        1.5840     1.6040    -0.2010 C.ar  1 <1>   0.1170 
  6 C       -2.7430     1.9130    -2.7490 C.3   1 <1>   0.1400 
  7 C        1.2530     1.0770     1.0440 C.ar  1 <1>  -0.1500 
  8 C        2.9300     1.7310    -0.5220 C.ar  1 <1>  -0.1500 
  9 C       -3.9040     2.3430    -1.8260 C.3   1 <1>   0.3430 
 10 C        2.2360     0.6830     1.9330 C.ar  1 <1>  -0.1500 
 11 C        3.9150     1.3400     0.3660 C.ar  1 <1>  -0.1500 
 12 N       -3.8180     1.6860    -0.4890 N.4   1 <1>  -0.9590 
 13 C        3.5740     0.8110     1.6000 C.ar  1 <1>  -0.1430 
 14 C       -4.4590     0.3420    -0.4610 C.3   1 <1>   0.3430 
 15 C       -4.2710     2.5690     0.6170 C.3   1 <1>   0.3430 
 16 C        4.6540     0.3800     2.5760 C.3   1 <1>  -0.0970 
 17 C       -4.1500    -0.3470     0.8690 C.3   1 <1>  -0.1600 
 18 C       -3.9480     1.9120     1.9600 C.3   1 <1>  -0.1600 
 19 C       -4.5640     0.5120     2.0710 C.3   1 <1>  -0.1600 
 20 H        1.0040     2.6310    -1.8630 H     1 <1>   0.3700 
 21 H       -0.9340     3.0590    -2.7820 H     1 <1>   0.3700 
 22 H       -2.7530     0.8430    -2.8690 H     1 <1>   0.0800 
 23 H       -2.8900     2.3500    -3.7220 H     1 <1>   0.0800 
 24 H        0.2250     0.9710     1.3310 H     1 <1>   0.1500 
 25 H        3.2180     2.1350    -1.4740 H     1 <1>   0.1500 
 26 H       -4.8460     2.1000    -2.2890 H     1 <1>   0.0800 
 27 H       -3.8590     3.4130    -1.7100 H     1 <1>   0.0800 
 28 H        1.9550     0.2770     2.8890 H     1 <1>   0.1500 
 29 H        4.9510     1.4470     0.0950 H     1 <1>   0.1500 
 30 H       -2.8040     1.4960    -0.3310 H     1 <1>   0.4500 
 31 H       -4.0790    -0.2640    -1.2680 H     1 <1>   0.0800 
 32 H       -5.5250     0.4420    -0.5770 H     1 <1>   0.0800 
 33 H       -5.3340     2.7350     0.5420 H     1 <1>   0.0800 
 34 H       -3.7700     3.5220     0.5580 H     1 <1>   0.0800 
 35 H        4.2960    -0.4150     3.2060 H     1 <1>   0.0800 
 36 H        4.9390     1.2120     3.1940 H     1 <1>   0.0800 
 37 H        5.5200     0.0270     2.0460 H     1 <1>   0.0800 
 38 H       -3.0950    -0.5590     0.9180 H     1 <1>   0.0800 
 39 H       -4.6670    -1.2900     0.9070 H     1 <1>   0.0800 
 40 H       -4.3220     2.5320     2.7560 H     1 <1>   0.0800 
 41 H       -2.8790     1.8510     2.0750 H     1 <1>   0.0800 
 42 H       -4.2400     0.0410     2.9840 H     1 <1>   0.0800 
 43 H       -5.6380     0.5910     2.1050 H     1 <1>   0.0800 
@<TRIPOS>BOND
  1   1   2  2   
  2   2   3  am  
  3   2   4  am  
  4   3   5  1   
  5   3  20  1   
  6   4   6  1   
  7   4  21  1   
  8   5   7  ar  
  9   5   8  ar  
 10   6   9  1   
 11   6  22  1   
 12   6  23  1   
 13   7  10  ar  
 14   7  24  1   
 15   8  11  ar  
 16   8  25  1   
 17   9  12  1   
 18   9  26  1   
 19   9  27  1   
 20  10  13  ar  
 21  10  28  1   
 22  11  13  ar  
 23  11  29  1   
 24  12  14  1   
 25  12  15  1   
 26  12  30  1   
 27  13  16  1   
 28  14  17  1   
 29  14  31  1   
 30  14  32  1   
 31  15  18  1   
 32  15  33  1   
 33  15  34  1   
 34  16  35  1   
 35  16  36  1   
 36  16  37  1   
 37  17  19  1   
 38  17  38  1   
 39  17  39  1   
 40  18  19  1   
 41  18  40  1   
 42  18  41  1   
 43  19  42  1   
 44  19  43  1   
@<TRIPOS>SUBSTRUCTURE
  1 ****   1 GROUP 4 **** **** 0

# MOE 2024.06 (io_trps.svl 2023.06)
