@<TRIPOS>MOLECULE
NONAME
43 44 1 0 0 
SMALL
USER_CHARGES


@<TRIPOS>ATOM
  1 CL       2.6800    -2.1850     4.1260 Cl    1 <1>  -0.1770 
  2 C        1.9980    -2.8940     2.6850 C.ar  1 <1>   0.1770 
  3 C        2.8370    -3.4530     1.7460 C.ar  1 <1>  -0.1500 
  4 C        0.6290    -2.8870     2.5090 C.ar  1 <1>  -0.1500 
  5 C        2.3130    -4.0230     0.5890 C.ar  1 <1>   0.1170 
  6 C        0.0970    -3.4550     1.3650 C.ar  1 <1>  -0.1500 
  7 N        3.1470    -4.6130    -0.3730 N.am  1 <1>  -0.5470 
  8 C        0.9260    -4.0210     0.4070 C.ar  1 <1>  -0.1430 
  9 C        4.4210    -4.3000    -0.7310 C.2   1 <1>   0.6900 
 10 C        0.2910    -4.6280    -0.8390 C.3   1 <1>  -0.0960 
 11 O        4.9940    -3.3200    -0.2990 O.2   1 <1>  -0.5700 
 12 N        5.0830    -5.1310    -1.5750 N.am  1 <1>  -0.7300 
 13 C        6.3720    -4.8210    -2.2660 C.3   1 <1>   0.1400 
 14 C        7.6030    -5.0640    -1.3660 C.3   1 <1>   0.3430 
 15 N        7.6090    -4.1570    -0.1810 N.4   1 <1>  -0.9590 
 16 C        8.2380    -2.8370    -0.4630 C.3   1 <1>   0.3430 
 17 C        8.1500    -4.8070     1.0420 C.3   1 <1>   0.3430 
 18 C        8.0150    -1.8970     0.7240 C.3   1 <1>  -0.1600 
 19 C        7.9130    -3.8980     2.2500 C.3   1 <1>  -0.1600 
 20 C        8.5190    -2.5040     2.0400 C.3   1 <1>  -0.1600 
 21 H        3.8940    -3.4410     1.9260 H     1 <1>   0.1500 
 22 H       -0.0050    -2.4450     3.2560 H     1 <1>   0.1500 
 23 H       -0.9710    -3.4490     1.2290 H     1 <1>   0.1500 
 24 H        2.6790    -5.2810    -0.9760 H     1 <1>   0.3700 
 25 H        0.4610    -5.6890    -0.8630 H     1 <1>   0.0800 
 26 H        0.7090    -4.1790    -1.7230 H     1 <1>   0.0800 
 27 H       -0.7700    -4.4570    -0.8520 H     1 <1>   0.0800 
 28 H        4.5860    -5.9570    -1.9150 H     1 <1>   0.3700 
 29 H        6.3620    -3.7960    -2.5970 H     1 <1>   0.0800 
 30 H        6.4510    -5.4430    -3.1410 H     1 <1>   0.0800 
 31 H        8.5050    -4.9210    -1.9370 H     1 <1>   0.0800 
 32 H        7.5790    -6.0900    -1.0390 H     1 <1>   0.0800 
 33 H        6.6090    -3.9320     0.0120 H     1 <1>   0.4500 
 34 H        7.7980    -2.3990    -1.3450 H     1 <1>   0.0800 
 35 H        9.2950    -2.9630    -0.6300 H     1 <1>   0.0800 
 36 H        9.2060    -4.9850     0.9250 H     1 <1>   0.0800 
 37 H        7.6570    -5.7520     1.2060 H     1 <1>   0.0800 
 38 H        6.9630    -1.6760     0.8040 H     1 <1>   0.0800 
 39 H        8.5240    -0.9680     0.5400 H     1 <1>   0.0800 
 40 H        8.3490    -4.3500     3.1230 H     1 <1>   0.0800 
 41 H        6.8540    -3.8120     2.4250 H     1 <1>   0.0800 
 42 H        8.2520    -1.8630     2.8630 H     1 <1>   0.0800 
 43 H        9.5940    -2.5780     2.0150 H     1 <1>   0.0800 
@<TRIPOS>BOND
  1   1   2  1   
  2   2   3  ar  
  3   2   4  ar  
  4   3   5  ar  
  5   3  21  1   
  6   4   6  ar  
  7   4  22  1   
  8   5   7  1   
  9   5   8  ar  
 10   6   8  ar  
 11   6  23  1   
 12   7   9  am  
 13   7  24  1   
 14   8  10  1   
 15   9  11  2   
 16   9  12  am  
 17  10  25  1   
 18  10  26  1   
 19  10  27  1   
 20  12  13  1   
 21  12  28  1   
 22  13  14  1   
 23  13  29  1   
 24  13  30  1   
 25  14  15  1   
 26  14  31  1   
 27  14  32  1   
 28  15  16  1   
 29  15  17  1   
 30  15  33  1   
 31  16  18  1   
 32  16  34  1   
 33  16  35  1   
 34  17  19  1   
 35  17  36  1   
 36  17  37  1   
 37  18  20  1   
 38  18  38  1   
 39  18  39  1   
 40  19  20  1   
 41  19  40  1   
 42  19  41  1   
 43  20  42  1   
 44  20  43  1   
@<TRIPOS>SUBSTRUCTURE
  1 ****  11 GROUP 4 **** **** 0

# MOE 2024.06 (io_trps.svl 2023.06)
