@<TRIPOS>MOLECULE
NONAME
41 41 1 0 0 
SMALL
USER_CHARGES


@<TRIPOS>ATOM
  1 CL      -0.0100     0.8670    -0.5290 Cl    1 <1>  -0.1770 
  2 C        1.6770     1.2960    -0.4290 C.ar  1 <1>   0.1770 
  3 C        2.3460     1.6880    -1.5750 C.ar  1 <1>  -0.1500 
  4 C        2.3180     1.2370     0.7970 C.ar  1 <1>  -0.1500 
  5 C        3.6860     2.0290    -1.4920 C.ar  1 <1>  -0.1500 
  6 C        3.6580     1.5770     0.8820 C.ar  1 <1>  -0.1500 
  7 C        4.3320     1.9710    -0.2670 C.ar  1 <1>   0.1020 
  8 S        6.0730     2.4300    -0.2490 S.3   1 <1>  -0.3320 
  9 C        6.6520     2.2600     1.5150 C.3   1 <1>   0.1310 
 10 C        8.1200     2.6270     1.6750 C.2   1 <1>   0.5690 
 11 O        8.5790     2.6540     2.7910 O.2   1 <1>  -0.5700 
 12 N        8.8680     2.9070     0.5790 N.am  1 <1>  -0.7300 
 13 C       10.2840     3.3260     0.5650 C.3   1 <1>   0.2200 
 14 C       10.4150     4.7290    -0.0950 C.3   1 <1>  -0.0800 
 15 C       11.1460     2.1790    -0.0260 C.3   1 <1>  -0.0800 
 16 C       10.0730     5.8210     0.9320 C.3   1 <1>  -0.2400 
 17 C        9.5430     4.9630    -1.3470 C.3   1 <1>  -0.2400 
 18 C       12.6490     2.4160     0.1950 C.3   1 <1>  -0.2400 
 19 C       10.8960     1.8520    -1.5070 C.3   1 <1>  -0.2400 
 20 H        1.8230     1.7250    -2.5140 H     1 <1>   0.1500 
 21 H        1.7690     0.9280     1.6690 H     1 <1>   0.1500 
 22 H        4.2280     2.3370    -2.3680 H     1 <1>   0.1500 
 23 H        4.1490     1.5300     1.8340 H     1 <1>   0.1500 
 24 H        6.4990     1.2380     1.8060 H     1 <1>   0.0800 
 25 H        6.0480     2.9130     2.1150 H     1 <1>   0.0800 
 26 H        8.4170     2.8970    -0.3380 H     1 <1>   0.3700 
 27 H       10.6020     3.4280     1.5900 H     1 <1>   0.0800 
 28 H       11.4430     4.8770    -0.3730 H     1 <1>   0.0800 
 29 H       10.8930     1.2990     0.5420 H     1 <1>   0.0800 
 30 H        9.0530     5.7220     1.2630 H     1 <1>   0.0800 
 31 H       10.2010     6.7990     0.5020 H     1 <1>   0.0800 
 32 H       10.7160     5.7440     1.7900 H     1 <1>   0.0800 
 33 H        8.4970     4.9500    -1.0960 H     1 <1>   0.0800 
 34 H        9.7210     4.2230    -2.1020 H     1 <1>   0.0800 
 35 H        9.7680     5.9240    -1.7730 H     1 <1>   0.0800 
 36 H       13.0080     3.2360    -0.3990 H     1 <1>   0.0800 
 37 H       13.2050     1.5360    -0.0780 H     1 <1>   0.0800 
 38 H       12.8460     2.6270     1.2310 H     1 <1>   0.0800 
 39 H       11.2760     2.6310    -2.1420 H     1 <1>   0.0800 
 40 H        9.8460     1.7180    -1.6970 H     1 <1>   0.0800 
 41 H       11.3990     0.9380    -1.7680 H     1 <1>   0.0800 
@<TRIPOS>BOND
  1   1   2  1   
  2   2   3  ar  
  3   2   4  ar  
  4   3   5  ar  
  5   3  20  1   
  6   4   6  ar  
  7   4  21  1   
  8   5   7  ar  
  9   5  22  1   
 10   6   7  ar  
 11   6  23  1   
 12   7   8  1   
 13   8   9  1   
 14   9  10  1   
 15   9  24  1   
 16   9  25  1   
 17  10  11  2   
 18  10  12  am  
 19  12  13  1   
 20  12  26  1   
 21  13  14  1   
 22  13  15  1   
 23  13  27  1   
 24  14  16  1   
 25  14  17  1   
 26  14  28  1   
 27  15  18  1   
 28  15  19  1   
 29  15  29  1   
 30  16  30  1   
 31  16  31  1   
 32  16  32  1   
 33  17  33  1   
 34  17  34  1   
 35  17  35  1   
 36  18  36  1   
 37  18  37  1   
 38  18  38  1   
 39  19  39  1   
 40  19  40  1   
 41  19  41  1   
@<TRIPOS>SUBSTRUCTURE
  1 ****   8 GROUP 4 **** **** 0

# MOE 2024.06 (io_trps.svl 2023.06)
