@<TRIPOS>MOLECULE
NONAME
40 41 1 0 0 
SMALL
USER_CHARGES


@<TRIPOS>ATOM
  1 S       -0.2350     0.2860     0.1880 S.o2  1 <1>   1.3330 
  2 O       -1.1370     0.7980     1.1900 O.2   1 <1>  -0.6500 
  3 O       -0.4490     0.5880    -1.2070 O.2   1 <1>  -0.6500 
  4 N        1.3100     0.8820     0.5660 N.am  1 <1>  -0.8490 
  5 C       -0.0740    -1.4730     0.4140 C.3   1 <1>  -0.1350 
  6 C        1.2220     2.2590     1.0930 C.3   1 <1>   0.1960 
  7 C        2.2420     0.8060    -0.5780 C.3   1 <1>   0.1960 
  8 C        2.6050     2.8410     1.4530 C.3   1 <1>   0.3430 
  9 C        3.6410     1.3570    -0.2260 C.3   1 <1>   0.3430 
 10 N        3.5730     2.7660     0.3000 N.4   1 <1>  -0.9590 
 11 C        4.9210     3.2810     0.6790 C.3   1 <1>   0.3430 
 12 C        5.1730     4.6680     0.0710 C.3   1 <1>  -0.0800 
 13 C        6.6140     5.1060     0.4050 C.3   1 <1>  -0.0220 
 14 C        4.1630     5.7430     0.5340 C.3   1 <1>  -0.1600 
 15 C        6.8540     6.5540     0.0270 C.2   1 <1>  -0.2880 
 16 C        4.4000     7.0860    -0.1760 C.3   1 <1>  -0.0220 
 17 C        5.8770     7.4240    -0.2390 C.2   1 <1>  -0.2880 
 18 H       -1.0140    -1.9520     0.2200 H     1 <1>   0.0800 
 19 H        0.2170    -1.6900     1.4230 H     1 <1>   0.0800 
 20 H        0.6590    -1.8760    -0.2560 H     1 <1>   0.0800 
 21 H        0.6200     2.2640     1.9880 H     1 <1>   0.0800 
 22 H        0.7350     2.8970     0.3730 H     1 <1>   0.0800 
 23 H        1.8520     1.3640    -1.4140 H     1 <1>   0.0800 
 24 H        2.3410    -0.2200    -0.8910 H     1 <1>   0.0800 
 25 H        2.9950     2.2830     2.2890 H     1 <1>   0.0800 
 26 H        2.4850     3.8640     1.7690 H     1 <1>   0.0800 
 27 H        4.2630     1.3240    -1.1060 H     1 <1>   0.0800 
 28 H        4.0820     0.7130     0.5170 H     1 <1>   0.0800 
 29 H        3.2120     3.3650    -0.4550 H     1 <1>   0.4500 
 30 H        5.6820     2.6080     0.3160 H     1 <1>   0.0800 
 31 H        5.0120     3.3330     1.7520 H     1 <1>   0.0800 
 32 H        5.1110     4.5860    -1.0010 H     1 <1>   0.0800 
 33 H        7.3120     4.4860    -0.1320 H     1 <1>   0.0800 
 34 H        6.8120     4.9990     1.4580 H     1 <1>   0.0800 
 35 H        4.2710     5.8970     1.5950 H     1 <1>   0.0800 
 36 H        3.1490     5.4450     0.3400 H     1 <1>   0.0800 
 37 H        7.8980     6.8240    -0.0060 H     1 <1>   0.1500 
 38 H        3.8770     7.8650     0.3520 H     1 <1>   0.0800 
 39 H        4.0130     7.0500    -1.1800 H     1 <1>   0.0800 
 40 H        6.0680     8.4470    -0.5220 H     1 <1>   0.1500 
@<TRIPOS>BOND
  1   1   2  2   
  2   1   3  2   
  3   1   4  am  
  4   1   5  1   
  5   4   6  1   
  6   4   7  1   
  7   5  18  1   
  8   5  19  1   
  9   5  20  1   
 10   6   8  1   
 11   6  21  1   
 12   6  22  1   
 13   7   9  1   
 14   7  23  1   
 15   7  24  1   
 16   8  10  1   
 17   8  25  1   
 18   8  26  1   
 19   9  10  1   
 20   9  27  1   
 21   9  28  1   
 22  10  11  1   
 23  10  29  1   
 24  11  12  1   
 25  11  30  1   
 26  11  31  1   
 27  12  13  1   
 28  12  14  1   
 29  12  32  1   
 30  13  15  1   
 31  13  33  1   
 32  13  34  1   
 33  14  16  1   
 34  14  35  1   
 35  14  36  1   
 36  15  17  2   
 37  15  37  1   
 38  16  17  1   
 39  16  38  1   
 40  16  39  1   
 41  17  40  1   
@<TRIPOS>SUBSTRUCTURE
  1 ****  10 GROUP 4 **** **** 0

# MOE 2024.06 (io_trps.svl 2023.06)
