@<TRIPOS>MOLECULE
NONAME
54 57 1 0 0 
SMALL
USER_CHARGES


@<TRIPOS>ATOM
  1 N       -0.2770    -0.3250    -0.4030 N.4   1 <1>  -0.9590 
  2 C       -1.2560     0.6130    -1.0260 C.3   1 <1>   0.3430 
  3 C       -0.8610    -1.1230     0.7180 C.3   1 <1>   0.3430 
  4 C        0.9300     0.4380     0.0450 C.3   1 <1>   0.3430 
  5 C       -2.4760    -0.1600    -1.5320 C.3   1 <1>  -0.1600 
  6 C       -2.0800    -1.9060     0.2260 C.3   1 <1>  -0.1600 
  7 C        2.1050    -0.5100     0.2920 C.3   1 <1>  -0.1600 
  8 C       -3.1120    -0.9690    -0.4010 C.3   1 <1>   0.4230 
  9 C        3.3750     0.2780     0.6330 C.3   1 <1>  -0.2400 
 10 N       -4.2410    -1.7640    -0.9370 N.4   1 <1>  -0.9060 
 11 C       -5.5770    -1.4910    -0.3690 C.3   1 <1>   0.5030 
 12 C       -6.5720    -2.4280    -1.0770 C.3   1 <1>  -0.1600 
 13 C       -5.9940    -0.0280    -0.6260 C.3   1 <1>  -0.1600 
 14 C       -5.6000    -1.7840     1.1460 C.3   1 <1>  -0.1600 
 15 C       -7.9950    -2.2000    -0.5330 C.3   1 <1>  -0.0800 
 16 C       -7.4110     0.2140    -0.0740 C.3   1 <1>  -0.0800 
 17 C       -7.0160    -1.5450     1.7010 C.3   1 <1>  -0.0800 
 18 C       -8.3990    -0.7340    -0.7790 C.3   1 <1>  -0.1600 
 19 C       -8.0070    -2.4790     0.9810 C.3   1 <1>  -0.1600 
 20 C       -7.4240    -0.0820     1.4390 C.3   1 <1>  -0.1600 
 21 H        0.0630    -0.9750    -1.1290 H     1 <1>   0.4500 
 22 H       -0.7910     1.1330    -1.8500 H     1 <1>   0.0800 
 23 H       -1.5650     1.3500    -0.3010 H     1 <1>   0.0800 
 24 H       -1.1500    -0.4630     1.5220 H     1 <1>   0.0800 
 25 H       -0.1270    -1.8130     1.1050 H     1 <1>   0.0800 
 26 H        0.7130     0.9950     0.9430 H     1 <1>   0.0800 
 27 H        1.2180     1.1420    -0.7210 H     1 <1>   0.0800 
 28 H       -2.1700    -0.8020    -2.3390 H     1 <1>   0.0800 
 29 H       -3.1870     0.5510    -1.9150 H     1 <1>   0.0800 
 30 H       -2.5150    -2.4140     1.0700 H     1 <1>   0.0800 
 31 H       -1.7520    -2.6470    -0.4820 H     1 <1>   0.0800 
 32 H        2.2970    -1.0970    -0.5890 H     1 <1>   0.0800 
 33 H        1.8950    -1.1730     1.1130 H     1 <1>   0.0800 
 34 H       -3.4700    -0.2890     0.3560 H     1 <1>   0.0800 
 35 H        3.6490     0.9360    -0.1750 H     1 <1>   0.0800 
 36 H        4.1940    -0.4010     0.8020 H     1 <1>   0.0800 
 37 H        3.2380     0.8640     1.5260 H     1 <1>   0.0800 
 38 H       -4.0700    -2.7650    -0.7980 H     1 <1>   0.4500 
 39 H       -4.3260    -1.6270    -1.9490 H     1 <1>   0.4500 
 40 H       -6.3050    -3.4580    -0.9130 H     1 <1>   0.0800 
 41 H       -6.5770    -2.2440    -2.1370 H     1 <1>   0.0800 
 42 H       -5.9930     0.1840    -1.6810 H     1 <1>   0.0800 
 43 H       -5.3270     0.6590    -0.1380 H     1 <1>   0.0800 
 44 H       -5.3220    -2.8060     1.3350 H     1 <1>   0.0800 
 45 H       -4.9230    -1.1410     1.6770 H     1 <1>   0.0800 
 46 H       -8.6920    -2.8560    -1.0290 H     1 <1>   0.0800 
 47 H       -7.7080     1.2360    -0.2460 H     1 <1>   0.0800 
 48 H       -7.0390    -1.7430     2.7600 H     1 <1>   0.0800 
 49 H       -9.3940    -0.5660    -0.4020 H     1 <1>   0.0800 
 50 H       -8.4210    -0.5280    -1.8360 H     1 <1>   0.0800 
 51 H       -7.7520    -3.5070     1.1700 H     1 <1>   0.0800 
 52 H       -9.0000    -2.3210     1.3690 H     1 <1>   0.0800 
 53 H       -8.4120     0.0920     1.8310 H     1 <1>   0.0800 
 54 H       -6.7570     0.5880     1.9540 H     1 <1>   0.0800 
@<TRIPOS>BOND
  1   1   2  1   
  2   1   3  1   
  3   1   4  1   
  4   1  21  1   
  5   2   5  1   
  6   2  22  1   
  7   2  23  1   
  8   3   6  1   
  9   3  24  1   
 10   3  25  1   
 11   4   7  1   
 12   4  26  1   
 13   4  27  1   
 14   5   8  1   
 15   5  28  1   
 16   5  29  1   
 17   6   8  1   
 18   6  30  1   
 19   6  31  1   
 20   7   9  1   
 21   7  32  1   
 22   7  33  1   
 23   8  10  1   
 24   8  34  1   
 25   9  35  1   
 26   9  36  1   
 27   9  37  1   
 28  10  11  1   
 29  10  38  1   
 30  10  39  1   
 31  11  12  1   
 32  11  13  1   
 33  11  14  1   
 34  12  15  1   
 35  12  40  1   
 36  12  41  1   
 37  13  16  1   
 38  13  42  1   
 39  13  43  1   
 40  14  17  1   
 41  14  44  1   
 42  14  45  1   
 43  15  18  1   
 44  15  19  1   
 45  15  46  1   
 46  16  18  1   
 47  16  20  1   
 48  16  47  1   
 49  17  19  1   
 50  17  20  1   
 51  17  48  1   
 52  18  49  1   
 53  18  50  1   
 54  19  51  1   
 55  19  52  1   
 56  20  53  1   
 57  20  54  1   
@<TRIPOS>SUBSTRUCTURE
  1 ****   8 GROUP 4 **** **** 0

# MOE 2024.06 (io_trps.svl 2023.06)
