@<TRIPOS>MOLECULE
NONAME
49 51 1 0 0 
SMALL
USER_CHARGES


@<TRIPOS>ATOM
  1 O        1.0420     3.9340    -0.6330 O.2   1 <1>  -0.5700 
  2 C        0.2190     3.0460    -0.6650 C.2   1 <1>   0.5690 
  3 N        0.5820     1.7870    -1.0400 N.am  1 <1>  -0.7300 
  4 C       -1.2600     3.3130    -0.2730 C.3   1 <1>   0.2040 
  5 C        1.9490     1.3620    -1.4160 C.3   1 <1>   0.1400 
  6 C       -1.9370     1.9740     0.1080 C.ar  1 <1>  -0.1440 
  7 C       -1.9890     4.0520    -1.4120 C.3   1 <1>  -0.1600 
  8 C       -1.3760     4.3380     0.8740 C.3   1 <1>  -0.1600 
  9 C        2.6550     0.7600    -0.2020 C.3   1 <1>  -0.0170 
 10 C       -1.7100     1.4220     1.3650 C.ar  1 <1>  -0.1500 
 11 C       -2.7390     1.2680    -0.7840 C.ar  1 <1>  -0.1500 
 12 C       -1.6370     5.5310    -1.2530 C.3   1 <1>  -0.1600 
 13 C       -1.3750     5.7350     0.2400 C.3   1 <1>  -0.1600 
 14 C        4.0450     0.2810    -0.5870 C.ar  1 <1>  -0.1440 
 15 C       -2.2800     0.2140     1.7240 C.ar  1 <1>  -0.1500 
 16 C       -3.3120     0.0590    -0.4270 C.ar  1 <1>  -0.1500 
 17 C        5.0990     1.1800    -0.6370 C.ar  1 <1>  -0.1500 
 18 C        4.2720    -1.0520    -0.8940 C.ar  1 <1>  -0.1500 
 19 C       -3.0850    -0.4760     0.8360 C.ar  1 <1>   0.0820 
 20 C        6.3670     0.7510    -0.9920 C.ar  1 <1>  -0.1500 
 21 C        5.5400    -1.4820    -1.2480 C.ar  1 <1>  -0.1500 
 22 O       -3.6070    -1.6510     1.2660 O.3   1 <1>  -0.3620 
 23 C        6.5880    -0.5800    -1.2970 C.ar  1 <1>  -0.1500 
 24 C       -4.5060    -2.3890     0.4690 C.3   1 <1>   0.0400 
 25 H       -0.1200     1.0450    -0.9520 H     1 <1>   0.3700 
 26 H        2.5080     2.2110    -1.7730 H     1 <1>   0.0800 
 27 H        1.8940     0.6370    -2.2090 H     1 <1>   0.0800 
 28 H       -3.0520     3.9480    -1.2840 H     1 <1>   0.0800 
 29 H       -1.7080     3.6800    -2.3810 H     1 <1>   0.0800 
 30 H       -0.5770     4.2330     1.5870 H     1 <1>   0.0800 
 31 H       -2.3140     4.1970     1.3830 H     1 <1>   0.0800 
 32 H        2.0800    -0.0630     0.1820 H     1 <1>   0.0800 
 33 H        2.7350     1.5060     0.5690 H     1 <1>   0.0800 
 34 H       -1.0820     1.9250     2.0780 H     1 <1>   0.1500 
 35 H       -2.9290     1.6430    -1.7730 H     1 <1>   0.1500 
 36 H       -2.4270     6.1670    -1.6130 H     1 <1>   0.0800 
 37 H       -0.7370     5.7480    -1.8040 H     1 <1>   0.0800 
 38 H       -0.4160     6.2060     0.3780 H     1 <1>   0.0800 
 39 H       -2.1350     6.3540     0.6870 H     1 <1>   0.0800 
 40 H       -2.1020    -0.2030     2.6990 H     1 <1>   0.1500 
 41 H       -3.9280    -0.4500    -1.1440 H     1 <1>   0.1500 
 42 H        4.9360     2.2180    -0.4020 H     1 <1>   0.1500 
 43 H        3.4650    -1.7620    -0.8590 H     1 <1>   0.1500 
 44 H        7.1810     1.4540    -1.0290 H     1 <1>   0.1500 
 45 H        5.7100    -2.5170    -1.4850 H     1 <1>   0.1500 
 46 H        7.5730    -0.9130    -1.5720 H     1 <1>   0.1500 
 47 H       -4.8110    -3.2570     1.0260 H     1 <1>   0.0800 
 48 H       -4.0060    -2.6910    -0.4340 H     1 <1>   0.0800 
 49 H       -5.3630    -1.7760     0.2500 H     1 <1>   0.0800 
@<TRIPOS>BOND
  1   1   2  2   
  2   2   3  am  
  3   2   4  1   
  4   3   5  1   
  5   3  25  1   
  6   4   6  1   
  7   4   7  1   
  8   4   8  1   
  9   5   9  1   
 10   5  26  1   
 11   5  27  1   
 12   6  10  ar  
 13   6  11  ar  
 14   7  12  1   
 15   7  28  1   
 16   7  29  1   
 17   8  13  1   
 18   8  30  1   
 19   8  31  1   
 20   9  14  1   
 21   9  32  1   
 22   9  33  1   
 23  10  15  ar  
 24  10  34  1   
 25  11  16  ar  
 26  11  35  1   
 27  12  13  1   
 28  12  36  1   
 29  12  37  1   
 30  13  38  1   
 31  13  39  1   
 32  14  17  ar  
 33  14  18  ar  
 34  15  19  ar  
 35  15  40  1   
 36  16  19  ar  
 37  16  41  1   
 38  17  20  ar  
 39  17  42  1   
 40  18  21  ar  
 41  18  43  1   
 42  19  22  1   
 43  20  23  ar  
 44  20  44  1   
 45  21  23  ar  
 46  21  45  1   
 47  22  24  1   
 48  23  46  1   
 49  24  47  1   
 50  24  48  1   
 51  24  49  1   
@<TRIPOS>SUBSTRUCTURE
  1 ****   3 GROUP 4 **** **** 0

# MOE 2024.06 (io_trps.svl 2023.06)
