@<TRIPOS>MOLECULE
NONAME
44 45 1 0 0 
SMALL
USER_CHARGES


@<TRIPOS>ATOM
  1 O       -1.4740    -0.6890     2.7010 O.2   1 <1>  -0.5700 
  2 C       -2.2800    -1.2060     1.9540 C.2   1 <1>   0.7060 
  3 O       -3.3370    -0.4980     1.5700 O.3   1 <1>  -0.2330 
  4 C       -2.1560    -2.5340     1.4650 C.2   1 <1>  -0.1360 
  5 C       -4.2930    -0.9930     0.7540 C.ar  1 <1>   0.0820 
  6 C       -3.0730    -3.1020     0.6420 C.2   1 <1>  -0.1670 
  7 C       -4.2300    -2.3110     0.2600 C.ar  1 <1>   0.0280 
  8 C       -5.3320    -0.1330     0.4380 C.ar  1 <1>  -0.1500 
  9 C       -2.8930    -4.5350     0.1190 C.3   1 <1>  -0.0220 
 10 C       -5.3160    -2.7130    -0.5500 C.ar  1 <1>   0.0830 
 11 C       -6.3590    -0.5420    -0.3870 C.ar  1 <1>  -0.1430 
 12 C       -1.5880    -5.2440     0.5130 C.3   1 <1>  -0.1600 
 13 O       -5.3910    -3.9700    -1.0360 O.3   1 <1>  -0.3630 
 14 C       -6.3380    -1.8330    -0.8790 C.ar  1 <1>  -0.1500 
 15 C       -7.4920     0.3990    -0.7560 C.3   1 <1>  -0.0970 
 16 C       -1.5250    -6.6560    -0.0840 C.3   1 <1>  -0.1600 
 17 C       -6.5140    -4.7910    -0.7480 C.3   1 <1>   0.2610 
 18 C       -0.2260    -7.3640     0.3110 C.3   1 <1>  -0.2400 
 19 C       -6.5100    -5.2330     0.7260 C.2   1 <1>   0.4480 
 20 C       -6.4570    -5.9630    -1.7350 C.3   1 <1>  -0.2400 
 21 O       -6.1630    -6.3230     1.0750 O.2   1 <1>  -0.5700 
 22 C       -6.9990    -4.2380     1.7590 C.3   1 <1>  -0.1790 
 23 H       -1.2710    -3.0330     1.8070 H     1 <1>   0.1500 
 24 H       -5.3220     0.8640     0.8420 H     1 <1>   0.1500 
 25 H       -2.9410    -4.5110    -0.9560 H     1 <1>   0.0800 
 26 H       -3.7090    -5.1350     0.4780 H     1 <1>   0.0800 
 27 H       -1.5300    -5.3180     1.5860 H     1 <1>   0.0800 
 28 H       -0.7470    -4.6730     0.1590 H     1 <1>   0.0800 
 29 H       -7.1260    -2.1490    -1.5370 H     1 <1>   0.1500 
 30 H       -7.3300     1.3770    -0.3410 H     1 <1>   0.0800 
 31 H       -8.4240     0.0170    -0.3800 H     1 <1>   0.0800 
 32 H       -7.5590     0.4900    -1.8260 H     1 <1>   0.0800 
 33 H       -1.5830    -6.5990    -1.1580 H     1 <1>   0.0800 
 34 H       -2.3640    -7.2340     0.2640 H     1 <1>   0.0800 
 35 H       -7.4100    -4.2310    -0.9410 H     1 <1>   0.0800 
 36 H        0.6270    -6.8150    -0.0460 H     1 <1>   0.0800 
 37 H       -0.2020    -8.3510    -0.1160 H     1 <1>   0.0800 
 38 H       -0.1590    -7.4540     1.3810 H     1 <1>   0.0800 
 39 H       -5.5530    -6.5270    -1.5860 H     1 <1>   0.0800 
 40 H       -6.4910    -5.6010    -2.7460 H     1 <1>   0.0800 
 41 H       -7.2940    -6.6180    -1.5740 H     1 <1>   0.0800 
 42 H       -7.8950    -3.7530     1.4200 H     1 <1>   0.0800 
 43 H       -6.2430    -3.5000     1.9470 H     1 <1>   0.0800 
 44 H       -7.2100    -4.7500     2.6810 H     1 <1>   0.0800 
@<TRIPOS>BOND
  1   1   2  2   
  2   2   3  1   
  3   2   4  1   
  4   3   5  1   
  5   4   6  2   
  6   4  23  1   
  7   5   7  ar  
  8   5   8  ar  
  9   6   7  1   
 10   6   9  1   
 11   7  10  ar  
 12   8  11  ar  
 13   8  24  1   
 14   9  12  1   
 15   9  25  1   
 16   9  26  1   
 17  10  13  1   
 18  10  14  ar  
 19  11  14  ar  
 20  11  15  1   
 21  12  16  1   
 22  12  27  1   
 23  12  28  1   
 24  13  17  1   
 25  14  29  1   
 26  15  30  1   
 27  15  31  1   
 28  15  32  1   
 29  16  18  1   
 30  16  33  1   
 31  16  34  1   
 32  17  19  1   
 33  17  20  1   
 34  17  35  1   
 35  18  36  1   
 36  18  37  1   
 37  18  38  1   
 38  19  21  2   
 39  19  22  1   
 40  20  39  1   
 41  20  40  1   
 42  20  41  1   
 43  22  42  1   
 44  22  43  1   
 45  22  44  1   
@<TRIPOS>SUBSTRUCTURE
  1 ****   7 GROUP 4 **** **** 0

# MOE 2024.06 (io_trps.svl 2023.06)
