@<TRIPOS>MOLECULE
NONAME
30 31 1 0 0 
SMALL
USER_CHARGES


@<TRIPOS>ATOM
  1 O       -0.6260     0.7560    -1.9020 O.2   1 <1>  -0.5700 
  2 C       -1.1880     1.3340    -1.0040 C.2   1 <1>   0.5690 
  3 N       -0.7500     2.4280    -0.3190 N.am  1 <1>  -0.0840 
  4 C       -2.5270     0.8850    -0.4570 C.3   1 <1>  -0.0990 
  5 O        0.4090     3.1440    -0.6560 O.3   1 <1>  -0.3160 
  6 C       -1.6090     2.8030     0.6710 C.2   1 <1>   0.5690 
  7 C       -2.8130     1.8860     0.6840 C.3   1 <1>  -0.0990 
  8 C        1.5130     2.6390     0.0640 C.3   1 <1>   0.1200 
  9 O       -1.4710     3.7060     1.4600 O.2   1 <1>  -0.5700 
 10 C        2.7480     3.4410    -0.3300 C.3   1 <1>   0.1200 
 11 O        3.8530     2.9380     0.3900 O.3   1 <1>  -0.3630 
 12 C        5.0920     3.4690     0.2350 C.ar  1 <1>   0.0820 
 13 C        6.1110     2.9050     0.9860 C.ar  1 <1>  -0.1500 
 14 C        5.3800     4.5290    -0.6230 C.ar  1 <1>  -0.1500 
 15 C        7.4050     3.3860     0.8880 C.ar  1 <1>  -0.1500 
 16 C        6.6750     5.0090    -0.7190 C.ar  1 <1>  -0.1500 
 17 C        7.6870     4.4390     0.0350 C.ar  1 <1>  -0.1500 
 18 H       -2.4530    -0.1230    -0.0910 H     1 <1>   0.0800 
 19 H       -3.2730     0.9410    -1.2290 H     1 <1>   0.0800 
 20 H       -2.8870     1.3920     1.6360 H     1 <1>   0.0800 
 21 H       -3.7060     2.4550     0.4960 H     1 <1>   0.0800 
 22 H        1.6460     1.6020    -0.1930 H     1 <1>   0.0800 
 23 H        1.3170     2.7520     1.1170 H     1 <1>   0.0800 
 24 H        2.6190     4.4770    -0.0700 H     1 <1>   0.0800 
 25 H        2.9480     3.3280    -1.3810 H     1 <1>   0.0800 
 26 H        5.8830     2.0880     1.6460 H     1 <1>   0.1500 
 27 H        4.6170     4.9900    -1.2190 H     1 <1>   0.1500 
 28 H        8.1900     2.9420     1.4750 H     1 <1>   0.1500 
 29 H        6.8970     5.8270    -1.3820 H     1 <1>   0.1500 
 30 H        8.6930     4.8140    -0.0420 H     1 <1>   0.1500 
@<TRIPOS>BOND
  1   1   2  2   
  2   2   3  am  
  3   2   4  1   
  4   3   5  1   
  5   3   6  am  
  6   4   7  1   
  7   4  18  1   
  8   4  19  1   
  9   5   8  1   
 10   6   7  1   
 11   6   9  2   
 12   7  20  1   
 13   7  21  1   
 14   8  10  1   
 15   8  22  1   
 16   8  23  1   
 17  10  11  1   
 18  10  24  1   
 19  10  25  1   
 20  11  12  1   
 21  12  13  ar  
 22  12  14  ar  
 23  13  15  ar  
 24  13  26  1   
 25  14  16  ar  
 26  14  27  1   
 27  15  17  ar  
 28  15  28  1   
 29  16  17  ar  
 30  16  29  1   
 31  17  30  1   
@<TRIPOS>SUBSTRUCTURE
  1 ****   8 GROUP 4 **** **** 0

# MOE 2024.06 (io_trps.svl 2023.06)
