@<TRIPOS>MOLECULE
NONAME
53 55 1 0 0 
SMALL
USER_CHARGES


@<TRIPOS>ATOM
  1 S       -0.1180     1.5110     1.1890 S.3   1 <1>  -0.2860 
  2 C       -0.8530     1.5470    -0.4540 C.2   1 <1>   0.2420 
  3 C        1.4750     2.4160     0.9190 C.3   1 <1>   0.1310 
  4 N       -0.9270     2.6010    -1.1660 N.2   1 <1>  -0.3380 
  5 N       -1.3770     0.4890    -1.0620 N.pl3 1 <1>   0.5930 
  6 C        2.4240     1.4590     0.2250 C.2   1 <1>   0.5690 
  7 N       -1.5400     2.2020    -2.2780 N.2   1 <1>   0.0000 
  8 N       -1.8180     0.9460    -2.2310 N.2   1 <1>  -0.4180 
  9 C       -1.4050    -0.8710    -0.6450 C.ar  1 <1>  -0.0230 
 10 O        2.6990     1.6640    -0.9310 O.2   1 <1>  -0.5700 
 11 N        2.8690     0.3800     0.9410 N.am  1 <1>  -0.5470 
 12 C       -0.4220    -1.7610    -1.0850 C.ar  1 <1>  -0.1430 
 13 C       -2.4090    -1.3280     0.2130 C.ar  1 <1>  -0.1430 
 14 C        3.4070    -0.8360     0.4860 C.ar  1 <1>   0.1170 
 15 C       -0.4510    -3.0800    -0.6660 C.ar  1 <1>  -0.1500 
 16 C        0.7000    -1.3180    -2.0190 C.3   1 <1>  -0.0970 
 17 C       -2.4130    -2.6500     0.6240 C.ar  1 <1>  -0.1500 
 18 C       -3.5110    -0.3980     0.7080 C.3   1 <1>  -0.0970 
 19 C        2.7750    -2.0180     0.8830 C.ar  1 <1>  -0.1430 
 20 C        4.5450    -0.9160    -0.3260 C.ar  1 <1>  -0.1430 
 21 C       -1.4390    -3.5300     0.1910 C.ar  1 <1>  -0.1430 
 22 C        3.2410    -3.2410     0.4330 C.ar  1 <1>  -0.1500 
 23 C        1.5670    -2.0050     1.8160 C.3   1 <1>  -0.0970 
 24 C        4.9880    -2.1510    -0.7690 C.ar  1 <1>  -0.1500 
 25 C        5.3530     0.3060    -0.7460 C.3   1 <1>  -0.0970 
 26 C       -1.4570    -4.9780     0.6460 C.3   1 <1>  -0.0970 
 27 C        4.3400    -3.3160    -0.4010 C.ar  1 <1>  -0.1430 
 28 C        4.8370    -4.6620    -0.8960 C.3   1 <1>  -0.0970 
 29 H        1.8520     2.7170     1.8780 H     1 <1>   0.0800 
 30 H        1.2710     3.2740     0.3060 H     1 <1>   0.0800 
 31 H        2.4770     0.3030     1.8770 H     1 <1>   0.3700 
 32 H        0.3060    -3.7650    -1.0080 H     1 <1>   0.1500 
 33 H        0.3000    -1.0620    -2.9840 H     1 <1>   0.0800 
 34 H        1.4290    -2.0980    -2.1480 H     1 <1>   0.0800 
 35 H        1.2120    -0.4620    -1.6190 H     1 <1>   0.0800 
 36 H       -3.1840    -3.0050     1.2850 H     1 <1>   0.1500 
 37 H       -3.0990     0.3600     1.3490 H     1 <1>   0.0800 
 38 H       -4.2530    -0.9430     1.2640 H     1 <1>   0.0800 
 39 H       -4.0020     0.0750    -0.1250 H     1 <1>   0.0800 
 40 H        2.7470    -4.1480     0.7330 H     1 <1>   0.1500 
 41 H        1.8580    -1.6660     2.7930 H     1 <1>   0.0800 
 42 H        1.1440    -2.9890     1.9140 H     1 <1>   0.0800 
 43 H        0.8000    -1.3590     1.4310 H     1 <1>   0.0800 
 44 H        5.8530    -2.2080    -1.4050 H     1 <1>   0.1500 
 45 H        4.9770     0.6880    -1.6770 H     1 <1>   0.0800 
 46 H        6.3890     0.0480    -0.8750 H     1 <1>   0.0800 
 47 H        5.2960     1.0790    -0.0020 H     1 <1>   0.0800 
 48 H       -0.4670    -5.3950     0.6230 H     1 <1>   0.0800 
 49 H       -2.0910    -5.5540    -0.0040 H     1 <1>   0.0800 
 50 H       -1.8320    -5.0510     1.6510 H     1 <1>   0.0800 
 51 H        4.0150    -5.3430    -1.0210 H     1 <1>   0.0800 
 52 H        5.5280    -5.0770    -0.1850 H     1 <1>   0.0800 
 53 H        5.3360    -4.5550    -1.8430 H     1 <1>   0.0800 
@<TRIPOS>BOND
  1   1   2  1   
  2   1   3  1   
  3   2   4  2   
  4   2   5  1   
  5   3   6  1   
  6   3  29  1   
  7   3  30  1   
  8   4   7  1   
  9   5   8  1   
 10   5   9  1   
 11   6  10  2   
 12   6  11  am  
 13   7   8  2   
 14   9  12  ar  
 15   9  13  ar  
 16  11  14  1   
 17  11  31  1   
 18  12  15  ar  
 19  12  16  1   
 20  13  17  ar  
 21  13  18  1   
 22  14  19  ar  
 23  14  20  ar  
 24  15  21  ar  
 25  15  32  1   
 26  16  33  1   
 27  16  34  1   
 28  16  35  1   
 29  17  21  ar  
 30  17  36  1   
 31  18  37  1   
 32  18  38  1   
 33  18  39  1   
 34  19  22  ar  
 35  19  23  1   
 36  20  24  ar  
 37  20  25  1   
 38  21  26  1   
 39  22  27  ar  
 40  22  40  1   
 41  23  41  1   
 42  23  42  1   
 43  23  43  1   
 44  24  27  ar  
 45  24  44  1   
 46  25  45  1   
 47  25  46  1   
 48  25  47  1   
 49  26  48  1   
 50  26  49  1   
 51  26  50  1   
 52  27  28  1   
 53  28  51  1   
 54  28  52  1   
 55  28  53  1   
@<TRIPOS>SUBSTRUCTURE
  1 ****  12 GROUP 4 **** **** 0

# MOE 2024.06 (io_trps.svl 2023.06)
