@<TRIPOS>MOLECULE
NONAME
32 32 1 0 0 
SMALL
USER_CHARGES


@<TRIPOS>ATOM
  1 CL      -0.1770     0.3220     1.2540 Cl    1 <1>  -0.1770 
  2 C        1.3420     1.0630     0.8260 C.ar  1 <1>   0.1770 
  3 C        2.2810     1.3050     1.8090 C.ar  1 <1>  -0.1500 
  4 C        1.5870     1.3980    -0.4910 C.ar  1 <1>  -0.1500 
  5 C        3.4860     1.8920     1.4600 C.ar  1 <1>  -0.1500 
  6 C        2.7970     1.9840    -0.8260 C.ar  1 <1>  -0.1500 
  7 C        3.7670     2.2380     0.1410 C.ar  1 <1>  -0.0090 
  8 S        5.3550     3.0030    -0.2970 S.o2  1 <1>   1.4470 
  9 O        5.5790     2.9310    -1.7250 O.2   1 <1>  -0.6500 
 10 O        5.4700     4.2800     0.3700 O.2   1 <1>  -0.6500 
 11 N        6.4940     1.9680     0.4130 N.am  1 <1>  -0.8490 
 12 C        7.8140     2.6580     0.4970 C.3   1 <1>   0.2570 
 13 C        6.5750     0.6720    -0.2690 C.3   1 <1>   0.1960 
 14 C        8.9690     1.8910     1.1520 C.2   1 <1>   0.6590 
 15 C        6.6310    -0.4380     0.7770 C.3   1 <1>  -0.2400 
 16 O        9.2420     2.0140     2.3190 O.2   1 <1>  -0.5700 
 17 O        9.6720     1.0930     0.3500 O.3   1 <1>  -0.4300 
 18 C       10.7670     0.3400     0.8300 C.3   1 <1>   0.0400 
 19 H        2.0700     1.0380     2.8290 H     1 <1>   0.1500 
 20 H        0.8400     1.2030    -1.2410 H     1 <1>   0.1500 
 21 H        4.2250     2.0860     2.2220 H     1 <1>   0.1500 
 22 H        2.9920     2.2490    -1.8530 H     1 <1>   0.1500 
 23 H        7.6950     3.5610     1.0700 H     1 <1>   0.0800 
 24 H        8.1280     2.9450    -0.4920 H     1 <1>   0.0800 
 25 H        7.4290     0.6300    -0.9250 H     1 <1>   0.0800 
 26 H        5.6980     0.5060    -0.8740 H     1 <1>   0.0800 
 27 H        7.5010    -0.3490     1.3990 H     1 <1>   0.0800 
 28 H        6.6650    -1.3930     0.2860 H     1 <1>   0.0800 
 29 H        5.7520    -0.4060     1.3960 H     1 <1>   0.0800 
 30 H       11.1760    -0.2280     0.0130 H     1 <1>   0.0800 
 31 H       10.4210    -0.3220     1.6050 H     1 <1>   0.0800 
 32 H       11.5090     1.0140     1.2220 H     1 <1>   0.0800 
@<TRIPOS>BOND
  1   1   2  1   
  2   2   3  ar  
  3   2   4  ar  
  4   3   5  ar  
  5   3  19  1   
  6   4   6  ar  
  7   4  20  1   
  8   5   7  ar  
  9   5  21  1   
 10   6   7  ar  
 11   6  22  1   
 12   7   8  1   
 13   8   9  2   
 14   8  10  2   
 15   8  11  am  
 16  11  12  1   
 17  11  13  1   
 18  12  14  1   
 19  12  23  1   
 20  12  24  1   
 21  13  15  1   
 22  13  25  1   
 23  13  26  1   
 24  14  16  2   
 25  14  17  1   
 26  15  27  1   
 27  15  28  1   
 28  15  29  1   
 29  17  18  1   
 30  18  30  1   
 31  18  31  1   
 32  18  32  1   
@<TRIPOS>SUBSTRUCTURE
  1 ****  11 GROUP 4 **** **** 0

# MOE 2024.06 (io_trps.svl 2023.06)
