@<TRIPOS>MOLECULE
NONAME
35 37 1 0 0 
SMALL
USER_CHARGES


@<TRIPOS>ATOM
  1 O       -0.3400     0.3670    -1.2040 O.3   1 <1>  -0.0190 
  2 N       -1.5790     0.0870    -0.9510 N.2   1 <1>  -0.4100 
  3 C       -0.2060     1.6060    -0.8100 C.2   1 <1>   0.2980 
  4 C       -2.1210     1.1320    -0.4350 C.2   1 <1>   0.4620 
  5 N       -1.2510     2.1410    -0.3310 N.2   1 <1>  -0.5650 
  6 C        1.1460     2.2790    -0.9580 C.3   1 <1>   0.0200 
  7 C       -3.5010     1.2450    -0.0050 C.ar  1 <1>   0.0540 
  8 C        2.1930     1.6550    -0.0220 C.3   1 <1>  -0.1600 
  9 C       -4.3840     0.1710    -0.1350 C.ar  1 <1>   0.1600 
 10 C       -4.0150     2.4100     0.5530 C.ar  1 <1>  -0.1500 
 11 C        3.5830     2.2910    -0.1840 C.3   1 <1>  -0.0800 
 12 N       -5.6590     0.1620     0.2230 N.ar  1 <1>  -0.6200 
 13 C       -5.3390     2.4240     0.9320 C.ar  1 <1>  -0.1500 
 14 C        4.6280     1.6440     0.7190 C.3   1 <1>  -0.1600 
 15 C        3.6450     3.7680     0.2050 C.3   1 <1>  -0.1600 
 16 C       -6.1090     1.2890     0.7490 C.ar  1 <1>   0.1600 
 17 C        5.7580     2.6690     0.8030 C.3   1 <1>  -0.1600 
 18 C        5.1140     4.0360     0.5430 C.3   1 <1>  -0.1600 
 19 H        1.0320     3.3240    -0.7340 H     1 <1>   0.0800 
 20 H        1.4660     2.1890    -1.9800 H     1 <1>   0.0800 
 21 H        2.2680     0.6020    -0.2330 H     1 <1>   0.0800 
 22 H        1.8610     1.7600     0.9970 H     1 <1>   0.0800 
 23 H       -4.0070    -0.7420    -0.5640 H     1 <1>   0.1500 
 24 H       -3.3930     3.2790     0.6840 H     1 <1>   0.1500 
 25 H        3.9120     2.1890    -1.2050 H     1 <1>   0.0800 
 26 H       -5.7750     3.3050     1.3670 H     1 <1>   0.1500 
 27 H        4.9700     0.7000     0.3310 H     1 <1>   0.0800 
 28 H        4.2180     1.4920     1.7040 H     1 <1>   0.0800 
 29 H        3.0480     3.9390     1.0850 H     1 <1>   0.0800 
 30 H        3.2990     4.4100    -0.5860 H     1 <1>   0.0800 
 31 H       -7.1430     1.3080     1.0480 H     1 <1>   0.1500 
 32 H        6.4870     2.4660     0.0370 H     1 <1>   0.0800 
 33 H        6.2430     2.6350     1.7630 H     1 <1>   0.0800 
 34 H        5.1930     4.6740     1.4070 H     1 <1>   0.0800 
 35 H        5.6050     4.5140    -0.2880 H     1 <1>   0.0800 
@<TRIPOS>BOND
  1   1   2  1   
  2   1   3  1   
  3   2   4  2   
  4   3   5  2   
  5   3   6  1   
  6   4   5  1   
  7   4   7  1   
  8   6   8  1   
  9   6  19  1   
 10   6  20  1   
 11   7   9  ar  
 12   7  10  ar  
 13   8  11  1   
 14   8  21  1   
 15   8  22  1   
 16   9  12  ar  
 17   9  23  1   
 18  10  13  ar  
 19  10  24  1   
 20  11  14  1   
 21  11  15  1   
 22  11  25  1   
 23  12  16  ar  
 24  13  16  ar  
 25  13  26  1   
 26  14  17  1   
 27  14  27  1   
 28  14  28  1   
 29  15  18  1   
 30  15  29  1   
 31  15  30  1   
 32  16  31  1   
 33  17  18  1   
 34  17  32  1   
 35  17  33  1   
 36  18  34  1   
 37  18  35  1   
@<TRIPOS>SUBSTRUCTURE
  1 ****   3 GROUP 4 **** **** 0

# MOE 2024.06 (io_trps.svl 2023.06)
