@<TRIPOS>MOLECULE
NONAME
45 47 1 0 0 
SMALL
USER_CHARGES


@<TRIPOS>ATOM
  1 S        0.8000    -0.5730     1.2610 S.o2  1 <1>   1.4470 
  2 O        0.5230     0.6950     1.9000 O.2   1 <1>  -0.6500 
  3 O        1.1140    -1.7120     2.0990 O.2   1 <1>  -0.6500 
  4 N       -0.5800    -0.9910     0.3740 N.am  1 <1>  -0.8490 
  5 C        2.0900    -0.3760    -0.0130 C.ar  1 <1>  -0.0090 
  6 C       -0.5360    -2.3080    -0.2390 C.3   1 <1>   0.1960 
  7 C       -1.7900    -0.9760     1.1740 C.3   1 <1>   0.1960 
  8 C        2.0760     0.6400    -0.9730 C.ar  1 <1>  -0.1440 
  9 C        3.1390    -1.2880    -0.0530 C.ar  1 <1>  -0.1500 
 10 C       -1.9830    -2.5900    -0.6220 C.3   1 <1>  -0.1600 
 11 C       -2.8130    -1.7360     0.3380 C.3   1 <1>  -0.1600 
 12 C        3.0850     0.7160    -1.9200 C.ar  1 <1>  -0.1500 
 13 C        0.9680     1.6870    -1.0180 C.3   1 <1>  -0.0970 
 14 C        4.1700    -1.2250    -0.9860 C.ar  1 <1>   0.0860 
 15 C        4.1140    -0.2040    -1.9270 C.ar  1 <1>  -0.1500 
 16 C        5.2560    -2.1890    -0.9920 C.2   1 <1>   0.5440 
 17 O        5.5710    -2.7170    -2.0410 O.2   1 <1>  -0.5700 
 18 N        5.9450    -2.5220     0.1550 N.am  1 <1>  -0.6600 
 19 C        5.9920    -1.6740     1.3860 C.3   1 <1>   0.1400 
 20 C        6.8970    -3.6730     0.2040 C.3   1 <1>   0.1400 
 21 C        7.4450    -1.3270     1.7520 C.3   1 <1>   0.1200 
 22 C        8.2970    -3.2020     0.6290 C.3   1 <1>   0.1200 
 23 O        8.2310    -2.4830     1.8290 O.3   1 <1>  -0.5600 
 24 H       -0.2050    -3.0450     0.4760 H     1 <1>   0.0800 
 25 H        0.1170    -2.3180    -1.0970 H     1 <1>   0.0800 
 26 H       -2.1040     0.0350     1.3790 H     1 <1>   0.0800 
 27 H       -1.6210    -1.4940     2.1050 H     1 <1>   0.0800 
 28 H        3.1630    -2.0890     0.6670 H     1 <1>   0.1500 
 29 H       -2.2070    -3.6380    -0.5330 H     1 <1>   0.0800 
 30 H       -2.1520    -2.2780    -1.6380 H     1 <1>   0.0800 
 31 H       -3.4230    -1.0400    -0.2120 H     1 <1>   0.0800 
 32 H       -3.4460    -2.3350     0.9680 H     1 <1>   0.0800 
 33 H        3.0760     1.4950    -2.6630 H     1 <1>   0.1500 
 34 H        0.9910     2.2920    -0.1290 H     1 <1>   0.0800 
 35 H        0.0040     1.2150    -1.0930 H     1 <1>   0.0800 
 36 H        1.0820     2.3380    -1.8660 H     1 <1>   0.0800 
 37 H        4.8890    -0.1400    -2.6720 H     1 <1>   0.1500 
 38 H        5.5400    -2.2100     2.2030 H     1 <1>   0.0800 
 39 H        5.4460    -0.7590     1.2420 H     1 <1>   0.0800 
 40 H        6.9620    -4.1580    -0.7550 H     1 <1>   0.0800 
 41 H        6.5390    -4.3970     0.9130 H     1 <1>   0.0800 
 42 H        7.4810    -0.8420     2.7110 H     1 <1>   0.0800 
 43 H        7.8730    -0.6690     1.0160 H     1 <1>   0.0800 
 44 H        8.7300    -2.5740    -0.1310 H     1 <1>   0.0800 
 45 H        8.9410    -4.0480     0.7870 H     1 <1>   0.0800 
@<TRIPOS>BOND
  1   1   2  2   
  2   1   3  2   
  3   1   4  am  
  4   1   5  1   
  5   4   6  1   
  6   4   7  1   
  7   5   8  ar  
  8   5   9  ar  
  9   6  10  1   
 10   6  24  1   
 11   6  25  1   
 12   7  11  1   
 13   7  26  1   
 14   7  27  1   
 15   8  12  ar  
 16   8  13  1   
 17   9  14  ar  
 18   9  28  1   
 19  10  11  1   
 20  10  29  1   
 21  10  30  1   
 22  11  31  1   
 23  11  32  1   
 24  12  15  ar  
 25  12  33  1   
 26  13  34  1   
 27  13  35  1   
 28  13  36  1   
 29  14  15  ar  
 30  14  16  1   
 31  15  37  1   
 32  16  17  2   
 33  16  18  am  
 34  18  19  1   
 35  18  20  1   
 36  19  21  1   
 37  19  38  1   
 38  19  39  1   
 39  20  22  1   
 40  20  40  1   
 41  20  41  1   
 42  21  23  1   
 43  21  42  1   
 44  21  43  1   
 45  22  23  1   
 46  22  44  1   
 47  22  45  1   
@<TRIPOS>SUBSTRUCTURE
  1 ****   9 GROUP 4 **** **** 0

# MOE 2024.06 (io_trps.svl 2023.06)
