@<TRIPOS>MOLECULE
NONAME
49 50 1 0 0 
SMALL
USER_CHARGES


@<TRIPOS>ATOM
  1 CL      -0.1260     0.0680     0.8320 Cl    1 <1>  -0.1770 
  2 C       -1.8610    -0.0220     0.6540 C.ar  1 <1>   0.1770 
  3 C       -2.5530     1.0820     0.1980 C.ar  1 <1>  -0.1500 
  4 C       -2.5090    -1.1940     0.9730 C.ar  1 <1>  -0.1500 
  5 C       -3.9400     1.0530     0.0410 C.ar  1 <1>  -0.1440 
  6 C       -3.8810    -1.2530     0.8280 C.ar  1 <1>  -0.1500 
  7 C       -4.5990    -0.1460     0.3680 C.ar  1 <1>   0.0830 
  8 C       -4.6990     2.3120    -0.4760 C.3   1 <1>   0.1440 
  9 O       -5.9500    -0.2160     0.2290 O.3   1 <1>  -0.3630 
 10 C       -3.7660     3.5050    -0.7700 C.3   1 <1>  -0.2400 
 11 C       -5.7050     2.8100     0.5750 C.3   1 <1>  -0.2400 
 12 C       -5.4230     2.0050    -1.7990 C.3   1 <1>  -0.2400 
 13 C       -6.6930    -1.3860     0.4820 C.3   1 <1>   0.1200 
 14 C       -8.1620    -1.0840     0.1870 C.3   1 <1>  -0.1600 
 15 C       -9.0370    -2.3030     0.4860 C.3   1 <1>   0.1100 
 16 N      -10.4170    -2.0850     0.0180 N.3   1 <1>  -0.8100 
 17 C      -11.1680    -1.1350     0.8670 C.3   1 <1>   0.1100 
 18 C      -11.1350    -3.3670    -0.1320 C.3   1 <1>   0.1100 
 19 C      -12.5870    -0.8910     0.3130 C.3   1 <1>   0.3430 
 20 C      -12.5510    -3.1520    -0.7030 C.3   1 <1>   0.3430 
 21 N      -13.3360    -2.1780     0.1250 N.4   1 <1>  -0.9060 
 22 H       -1.9610     1.9480    -0.0230 H     1 <1>   0.1500 
 23 H       -1.9480    -2.0400     1.3260 H     1 <1>   0.1500 
 24 H       -4.3660    -2.1750     1.0820 H     1 <1>   0.1500 
 25 H       -3.2460     3.8100     0.1210 H     1 <1>   0.0800 
 26 H       -4.3290     4.3500    -1.1240 H     1 <1>   0.0800 
 27 H       -3.0490     3.2490    -1.5290 H     1 <1>   0.0800 
 28 H       -5.2030     2.9820     1.5100 H     1 <1>   0.0800 
 29 H       -6.4890     2.0970     0.7420 H     1 <1>   0.0800 
 30 H       -6.1650     3.7280     0.2580 H     1 <1>   0.0800 
 31 H       -4.7250     1.6140    -2.5170 H     1 <1>   0.0800 
 32 H       -5.8700     2.8940    -2.2040 H     1 <1>   0.0800 
 33 H       -6.2050     1.2830    -1.6650 H     1 <1>   0.0800 
 34 H       -6.5580    -1.6530     1.5160 H     1 <1>   0.0800 
 35 H       -6.3260    -2.1660    -0.1620 H     1 <1>   0.0800 
 36 H       -8.2570    -0.8230    -0.8530 H     1 <1>   0.0800 
 37 H       -8.4620    -0.2500     0.7940 H     1 <1>   0.0800 
 38 H       -9.0280    -2.5250     1.5410 H     1 <1>   0.0800 
 39 H       -8.6190    -3.1480    -0.0370 H     1 <1>   0.0800 
 40 H      -10.6560    -0.1890     0.8930 H     1 <1>   0.0800 
 41 H      -11.2270    -1.5060     1.8760 H     1 <1>   0.0800 
 42 H      -11.1950    -3.8700     0.8180 H     1 <1>   0.0800 
 43 H      -10.5870    -4.0020    -0.8080 H     1 <1>   0.0800 
 44 H      -12.4940    -0.3850    -0.6340 H     1 <1>   0.0800 
 45 H      -13.1260    -0.2430     0.9840 H     1 <1>   0.0800 
 46 H      -13.0650    -4.0980    -0.7510 H     1 <1>   0.0800 
 47 H      -12.4530    -2.7760    -1.7090 H     1 <1>   0.0800 
 48 H      -14.2440    -1.9930    -0.3190 H     1 <1>   0.4500 
 49 H      -13.5170    -2.5950     1.0450 H     1 <1>   0.4500 
@<TRIPOS>BOND
  1   1   2  1   
  2   2   3  ar  
  3   2   4  ar  
  4   3   5  ar  
  5   3  22  1   
  6   4   6  ar  
  7   4  23  1   
  8   5   7  ar  
  9   5   8  1   
 10   6   7  ar  
 11   6  24  1   
 12   7   9  1   
 13   8  10  1   
 14   8  11  1   
 15   8  12  1   
 16   9  13  1   
 17  10  25  1   
 18  10  26  1   
 19  10  27  1   
 20  11  28  1   
 21  11  29  1   
 22  11  30  1   
 23  12  31  1   
 24  12  32  1   
 25  12  33  1   
 26  13  14  1   
 27  13  34  1   
 28  13  35  1   
 29  14  15  1   
 30  14  36  1   
 31  14  37  1   
 32  15  16  1   
 33  15  38  1   
 34  15  39  1   
 35  16  17  1   
 36  16  18  1   
 37  17  19  1   
 38  17  40  1   
 39  17  41  1   
 40  18  20  1   
 41  18  42  1   
 42  18  43  1   
 43  19  21  1   
 44  19  44  1   
 45  19  45  1   
 46  20  21  1   
 47  20  46  1   
 48  20  47  1   
 49  21  48  1   
 50  21  49  1   
@<TRIPOS>SUBSTRUCTURE
  1 ****   9 GROUP 4 **** **** 0

# MOE 2024.06 (io_trps.svl 2023.06)
