@<TRIPOS>MOLECULE
NONAME
55 56 1 0 0 
SMALL
USER_CHARGES


@<TRIPOS>ATOM
  1 S        1.4900     1.8010     1.3450 S.o2  1 <1>   1.3330 
  2 O        2.8440     2.1760     1.6780 O.2   1 <1>  -0.6500 
  3 O        1.2400     0.7170     0.4300 O.2   1 <1>  -0.6500 
  4 N        0.7510     3.2270     0.7050 N.am  1 <1>  -0.6930 
  5 C        0.5840     1.5490     2.8550 C.3   1 <1>  -0.1350 
  6 C       -0.5820     3.2210     0.3180 C.ar  1 <1>   0.1990 
  7 C        1.6620     4.1730    -0.0110 C.3   1 <1>   0.2570 
  8 C       -1.0090     2.5200    -0.8010 C.ar  1 <1>  -0.1500 
  9 C       -1.5200     3.9320     1.0550 C.ar  1 <1>  -0.1500 
 10 C        2.3540     3.5780    -1.2430 C.2   1 <1>   0.5690 
 11 C       -2.3420     2.5220    -1.1690 C.ar  1 <1>  -0.1500 
 12 C       -2.8530     3.9340     0.6890 C.ar  1 <1>  -0.1500 
 13 O        1.8820     3.8060    -2.3310 O.2   1 <1>  -0.5700 
 14 N        3.5000     2.8490    -1.0540 N.am  1 <1>  -0.5470 
 15 C       -3.2800     3.2280    -0.4270 C.ar  1 <1>  -0.1430 
 16 C        4.3670     2.1800    -1.9330 C.ar  1 <1>   0.1170 
 17 C       -4.7560     3.2410    -0.8210 C.3   1 <1>   0.0630 
 18 C        5.6830     1.8660    -1.5340 C.ar  1 <1>   0.0860 
 19 C        3.9300     1.7900    -3.1980 C.ar  1 <1>  -0.1500 
 20 C       -5.3460     1.8280    -0.7790 C.3   1 <1>  -0.2400 
 21 C       -4.9460     3.8680    -2.2050 C.3   1 <1>  -0.2400 
 22 C        6.2100     2.2260    -0.2310 C.2   1 <1>   0.6340 
 23 C        6.4970     1.1820    -2.4440 C.ar  1 <1>  -0.1500 
 24 C        4.7560     1.1180    -4.0740 C.ar  1 <1>  -0.1500 
 25 O        5.7740     3.1290     0.4570 O.2   1 <1>  -0.5700 
 26 O        7.2450     1.5150     0.2340 O.3   1 <1>  -0.4300 
 27 C        6.0490     0.8120    -3.6950 C.ar  1 <1>  -0.1500 
 28 C        7.8530     1.7610     1.4860 C.3   1 <1>   0.1200 
 29 C        8.9120     2.8490     1.3150 C.3   1 <1>  -0.2400 
 30 H        0.9700     0.6960     3.3760 H     1 <1>   0.0800 
 31 H       -0.4530     1.3810     2.6390 H     1 <1>   0.0800 
 32 H        0.6720     2.4100     3.4880 H     1 <1>   0.0800 
 33 H        2.4130     4.5240     0.6730 H     1 <1>   0.0800 
 34 H        1.0930     5.0270    -0.3320 H     1 <1>   0.0800 
 35 H       -0.2910     1.9720    -1.3860 H     1 <1>   0.1500 
 36 H       -1.1980     4.4850     1.9180 H     1 <1>   0.1500 
 37 H       -2.6440     1.9700    -2.0410 H     1 <1>   0.1500 
 38 H       -3.5610     4.4920     1.2780 H     1 <1>   0.1500 
 39 H        3.8190     2.8240    -0.0710 H     1 <1>   0.3700 
 40 H       -5.2980     3.8430    -0.1110 H     1 <1>   0.0800 
 41 H        2.9240     2.0050    -3.5100 H     1 <1>   0.1500 
 42 H       -4.8710     1.1920    -1.5050 H     1 <1>   0.0800 
 43 H       -6.4000     1.8580    -0.9850 H     1 <1>   0.0800 
 44 H       -5.1990     1.4000     0.1970 H     1 <1>   0.0800 
 45 H       -4.4640     3.2780    -2.9630 H     1 <1>   0.0800 
 46 H       -4.5210     4.8560    -2.2200 H     1 <1>   0.0800 
 47 H       -5.9930     3.9420    -2.4410 H     1 <1>   0.0800 
 48 H        7.5070     0.9330    -2.1660 H     1 <1>   0.1500 
 49 H        4.3940     0.8310    -5.0460 H     1 <1>   0.1500 
 50 H        6.6990     0.2870    -4.3740 H     1 <1>   0.1500 
 51 H        8.3090     0.8420     1.8110 H     1 <1>   0.0800 
 52 H        7.0990     2.0480     2.2000 H     1 <1>   0.0800 
 53 H        9.6440     2.5460     0.5890 H     1 <1>   0.0800 
 54 H        9.4080     3.0200     2.2530 H     1 <1>   0.0800 
 55 H        8.4520     3.7700     1.0030 H     1 <1>   0.0800 
@<TRIPOS>BOND
  1   1   2  2   
  2   1   3  2   
  3   1   4  am  
  4   1   5  1   
  5   4   6  1   
  6   4   7  1   
  7   5  30  1   
  8   5  31  1   
  9   5  32  1   
 10   6   8  ar  
 11   6   9  ar  
 12   7  10  1   
 13   7  33  1   
 14   7  34  1   
 15   8  11  ar  
 16   8  35  1   
 17   9  12  ar  
 18   9  36  1   
 19  10  13  2   
 20  10  14  am  
 21  11  15  ar  
 22  11  37  1   
 23  12  15  ar  
 24  12  38  1   
 25  14  16  1   
 26  14  39  1   
 27  15  17  1   
 28  16  18  ar  
 29  16  19  ar  
 30  17  20  1   
 31  17  21  1   
 32  17  40  1   
 33  18  22  1   
 34  18  23  ar  
 35  19  24  ar  
 36  19  41  1   
 37  20  42  1   
 38  20  43  1   
 39  20  44  1   
 40  21  45  1   
 41  21  46  1   
 42  21  47  1   
 43  22  25  2   
 44  22  26  1   
 45  23  27  ar  
 46  23  48  1   
 47  24  27  ar  
 48  24  49  1   
 49  26  28  1   
 50  27  50  1   
 51  28  29  1   
 52  28  51  1   
 53  28  52  1   
 54  29  53  1   
 55  29  54  1   
 56  29  55  1   
@<TRIPOS>SUBSTRUCTURE
  1 ****  10 GROUP 4 **** **** 0

# MOE 2024.06 (io_trps.svl 2023.06)
