@<TRIPOS>MOLECULE
NONAME
40 40 1 0 0 
SMALL
USER_CHARGES


@<TRIPOS>ATOM
  1 CL       2.1800    -3.0760     2.6440 Cl    1 <1>  -0.1770 
  2 C        3.1300    -2.4100     1.3400 C.ar  1 <1>   0.1770 
  3 C        3.8720    -1.2680     1.5600 C.ar  1 <1>  -0.1500 
  4 C        3.1240    -3.0420     0.1120 C.ar  1 <1>  -0.1500 
  5 C        4.6480    -0.7350     0.5400 C.ar  1 <1>   0.1990 
  6 C        3.8800    -2.5130    -0.9220 C.ar  1 <1>  -0.1500 
  7 N        5.4070     0.4060     0.8110 N.am  1 <1>  -0.6930 
  8 C        4.6390    -1.3670    -0.7140 C.ar  1 <1>   0.0830 
  9 S        4.8020     1.9740     0.4090 S.o2  1 <1>   1.3330 
 10 C        6.8530     0.3270     1.1870 C.3   1 <1>   0.3370 
 11 O        5.3780    -0.8270    -1.7210 O.3   1 <1>  -0.3630 
 12 O        3.3610     1.8950     0.4070 O.2   1 <1>  -0.6500 
 13 O        5.4730     2.9110     1.2780 O.2   1 <1>  -0.6500 
 14 C        5.3710     2.2390    -1.2570 C.3   1 <1>  -0.1350 
 15 C        7.7570    -0.4860     0.2180 C.2   1 <1>   0.5690 
 16 C        6.9700    -0.0080     2.6810 C.3   1 <1>  -0.2400 
 17 C        6.0640    -1.6770    -2.6130 C.3   1 <1>   0.0400 
 18 O        8.2660     0.1570    -0.6760 O.2   1 <1>  -0.5700 
 19 N        8.0400    -1.8380     0.3410 N.am  1 <1>  -0.6600 
 20 C        9.1290    -2.4660    -0.4630 C.3   1 <1>   0.0600 
 21 C        7.3360    -2.8060     1.2230 C.3   1 <1>   0.0600 
 22 H        3.8460    -0.7860     2.5190 H     1 <1>   0.1500 
 23 H        2.5320    -3.9280    -0.0320 H     1 <1>   0.1500 
 24 H        3.8600    -2.9930    -1.8830 H     1 <1>   0.1500 
 25 H        7.2560     1.3220     1.1070 H     1 <1>   0.0800 
 26 H        5.1660     3.2470    -1.5560 H     1 <1>   0.0800 
 27 H        4.8660     1.5780    -1.9310 H     1 <1>   0.0800 
 28 H        6.4270     2.0660    -1.3250 H     1 <1>   0.0800 
 29 H        6.4550    -0.9130     2.9330 H     1 <1>   0.0800 
 30 H        6.5490     0.7970     3.2570 H     1 <1>   0.0800 
 31 H        8.0060    -0.1070     2.9500 H     1 <1>   0.0800 
 32 H        6.8190    -1.0950    -3.1100 H     1 <1>   0.0800 
 33 H        5.3680    -2.0680    -3.3320 H     1 <1>   0.0800 
 34 H        6.5290    -2.4700    -2.0540 H     1 <1>   0.0800 
 35 H        9.6940    -1.7250    -1.0010 H     1 <1>   0.0800 
 36 H        8.7070    -3.1570    -1.1720 H     1 <1>   0.0800 
 37 H        9.8030    -2.9950     0.1880 H     1 <1>   0.0800 
 38 H        6.3310    -2.4900     1.4170 H     1 <1>   0.0800 
 39 H        7.8670    -2.9030     2.1540 H     1 <1>   0.0800 
 40 H        7.2890    -3.7710     0.7470 H     1 <1>   0.0800 
@<TRIPOS>BOND
  1   1   2  1   
  2   2   3  ar  
  3   2   4  ar  
  4   3   5  ar  
  5   3  22  1   
  6   4   6  ar  
  7   4  23  1   
  8   5   7  1   
  9   5   8  ar  
 10   6   8  ar  
 11   6  24  1   
 12   7   9  am  
 13   7  10  1   
 14   8  11  1   
 15   9  12  2   
 16   9  13  2   
 17   9  14  1   
 18  10  15  1   
 19  10  16  1   
 20  10  25  1   
 21  11  17  1   
 22  14  26  1   
 23  14  27  1   
 24  14  28  1   
 25  15  18  2   
 26  15  19  am  
 27  16  29  1   
 28  16  30  1   
 29  16  31  1   
 30  17  32  1   
 31  17  33  1   
 32  17  34  1   
 33  19  20  1   
 34  19  21  1   
 35  20  35  1   
 36  20  36  1   
 37  20  37  1   
 38  21  38  1   
 39  21  39  1   
 40  21  40  1   
@<TRIPOS>SUBSTRUCTURE
  1 ****   5 GROUP 4 **** **** 0

# MOE 2024.06 (io_trps.svl 2023.06)
