@<TRIPOS>MOLECULE
NONAME
38 39 1 0 0 
SMALL
USER_CHARGES


@<TRIPOS>ATOM
  1 CL      -1.2650     0.9420     2.7760 Cl    1 <1>  -0.2900 
  2 C       -1.3270    -0.2090     1.4450 C.3   1 <1>   0.8700 
  3 CL       0.2900    -0.9020     1.2830 Cl    1 <1>  -0.2900 
  4 CL      -2.3360    -1.5370     2.0100 Cl    1 <1>  -0.2900 
  5 C       -1.9420     0.3990     0.1210 C.3   1 <1>   0.5690 
  6 O       -1.5730    -0.2320    -1.0380 O.3   1 <1>  -0.6800 
  7 N       -1.8640     1.8420    -0.2850 N.pl3 1 <1>  -0.8380 
  8 C       -3.0520     2.5520    -0.0330 C.ar  1 <1>   0.1000 
  9 C       -0.6000     2.6590    -0.3330 C.3   1 <1>   0.5070 
 10 C       -3.0570     3.6800     0.8060 C.ar  1 <1>   0.0280 
 11 C       -4.2490     2.1260    -0.6060 C.ar  1 <1>  -0.1500 
 12 C       -0.6430     3.7040     0.7700 C.2   1 <1>  -0.2880 
 13 C        0.6950     1.8610    -0.2000 C.3   1 <1>  -0.2400 
 14 C       -0.5900     3.3680    -1.6860 C.3   1 <1>  -0.2400 
 15 C       -1.7870     4.1610     1.3040 C.2   1 <1>  -0.1670 
 16 C       -4.2770     4.2920     1.0890 C.ar  1 <1>  -0.1500 
 17 C       -5.4480     2.7500    -0.3240 C.ar  1 <1>  -0.1430 
 18 C       -1.7640     5.1930     2.4210 C.3   1 <1>  -0.1020 
 19 C       -5.4570     3.8340     0.5370 C.ar  1 <1>  -0.1500 
 20 C       -6.7480     2.2690    -0.9440 C.3   1 <1>  -0.0970 
 21 H       -2.9870     0.1740     0.2300 H     1 <1>   0.0800 
 22 H       -1.7010     0.4520    -1.7230 H     1 <1>   0.4000 
 23 H       -4.2320     1.2930    -1.2840 H     1 <1>   0.1500 
 24 H        0.3270     4.0500     1.0750 H     1 <1>   0.1500 
 25 H        0.7060     1.0090    -0.8530 H     1 <1>   0.0800 
 26 H        0.8480     1.5720     0.8200 H     1 <1>   0.0800 
 27 H        1.5300     2.4830    -0.4640 H     1 <1>   0.0800 
 28 H       -1.4710     3.9740    -1.7940 H     1 <1>   0.0800 
 29 H       -0.5570     2.6490    -2.4830 H     1 <1>   0.0800 
 30 H        0.2660     4.0120    -1.7640 H     1 <1>   0.0800 
 31 H       -4.3140     5.1440     1.7400 H     1 <1>   0.1500 
 32 H       -2.3180     4.8280     3.2670 H     1 <1>   0.0800 
 33 H       -2.1960     6.1170     2.0830 H     1 <1>   0.0800 
 34 H       -0.7550     5.3880     2.7380 H     1 <1>   0.0800 
 35 H       -6.3840     4.3270     0.7720 H     1 <1>   0.1500 
 36 H       -6.5750     1.4460    -1.6130 H     1 <1>   0.0800 
 37 H       -7.2070     3.0680    -1.4970 H     1 <1>   0.0800 
 38 H       -7.4240     1.9470    -0.1710 H     1 <1>   0.0800 
@<TRIPOS>BOND
  1   1   2  1   
  2   2   3  1   
  3   2   4  1   
  4   2   5  1   
  5   5   6  1   
  6   5   7  1   
  7   5  21  1   
  8   6  22  1   
  9   7   8  1   
 10   7   9  1   
 11   8  10  ar  
 12   8  11  ar  
 13   9  12  1   
 14   9  13  1   
 15   9  14  1   
 16  10  15  1   
 17  10  16  ar  
 18  11  17  ar  
 19  11  23  1   
 20  12  15  2   
 21  12  24  1   
 22  13  25  1   
 23  13  26  1   
 24  13  27  1   
 25  14  28  1   
 26  14  29  1   
 27  14  30  1   
 28  15  18  1   
 29  16  19  ar  
 30  16  31  1   
 31  17  19  ar  
 32  17  20  1   
 33  18  32  1   
 34  18  33  1   
 35  18  34  1   
 36  19  35  1   
 37  20  36  1   
 38  20  37  1   
 39  20  38  1   
@<TRIPOS>SUBSTRUCTURE
  1 ****   7 GROUP 4 **** **** 0

# MOE 2024.06 (io_trps.svl 2023.06)
