@<TRIPOS>MOLECULE
NONAME
30 32 1 0 0 
SMALL
USER_CHARGES


@<TRIPOS>ATOM
  1 O       -0.5340    -0.3510     1.4480 O.2   1 <1>  -0.5700 
  2 C       -0.3380    -1.4620     0.9680 C.2   1 <1>   0.5440 
  3 N        0.9370    -1.9740     0.9800 N.am  1 <1>  -0.3250 
  4 C       -1.4230    -2.2100     0.3860 C.ar  1 <1>   0.0860 
  5 O        1.9560    -1.3170     1.7100 O.3   1 <1>  -0.4360 
  6 C        1.3050    -3.2570     0.3190 C.3   1 <1>   0.6690 
  7 C       -1.1230    -3.3670    -0.3390 C.ar  1 <1>   0.1000 
  8 C       -2.7620    -1.8330     0.5140 C.ar  1 <1>  -0.1500 
  9 N        0.1920    -3.7690    -0.5010 N.pl3 1 <1>  -0.8690 
 10 C        1.7000    -4.3420     1.3170 C.3   1 <1>  -0.1600 
 11 C        2.5320    -3.1490    -0.5840 C.3   1 <1>  -0.1600 
 12 C       -2.1480    -4.1130    -0.9090 C.ar  1 <1>  -0.1500 
 13 C       -3.7740    -2.5810    -0.0550 C.ar  1 <1>  -0.1500 
 14 C        2.5910    -5.3280     0.5450 C.3   1 <1>  -0.1600 
 15 C        3.0960    -4.5730    -0.6930 C.3   1 <1>  -0.1600 
 16 C       -3.4650    -3.7270    -0.7690 C.ar  1 <1>  -0.1500 
 17 H        2.0180    -0.3830     1.4160 H     1 <1>   0.4000 
 18 H       -3.0010    -0.9410     1.0680 H     1 <1>   0.1500 
 19 H        0.3750    -4.7170    -0.8310 H     1 <1>   0.4000 
 20 H        0.8390    -4.8180     1.7510 H     1 <1>   0.0800 
 21 H        2.2860    -3.9000     2.1030 H     1 <1>   0.0800 
 22 H        3.2740    -2.5310    -0.1120 H     1 <1>   0.0800 
 23 H        2.2840    -2.7310    -1.5430 H     1 <1>   0.0800 
 24 H       -1.9070    -4.9990    -1.4680 H     1 <1>   0.1500 
 25 H       -4.8010    -2.2760     0.0550 H     1 <1>   0.1500 
 26 H        2.0170    -6.1870     0.2410 H     1 <1>   0.0800 
 27 H        3.4100    -5.6610     1.1610 H     1 <1>   0.0800 
 28 H        4.1720    -4.5590    -0.7350 H     1 <1>   0.0800 
 29 H        2.7220    -5.0460    -1.5850 H     1 <1>   0.0800 
 30 H       -4.2530    -4.3110    -1.2140 H     1 <1>   0.1500 
@<TRIPOS>BOND
  1   1   2  2   
  2   2   3  am  
  3   2   4  1   
  4   3   5  1   
  5   3   6  1   
  6   4   7  ar  
  7   4   8  ar  
  8   5  17  1   
  9   6   9  1   
 10   6  10  1   
 11   6  11  1   
 12   7   9  1   
 13   7  12  ar  
 14   8  13  ar  
 15   8  18  1   
 16   9  19  1   
 17  10  14  1   
 18  10  20  1   
 19  10  21  1   
 20  11  15  1   
 21  11  22  1   
 22  11  23  1   
 23  12  16  ar  
 24  12  24  1   
 25  13  16  ar  
 26  13  25  1   
 27  14  15  1   
 28  14  26  1   
 29  14  27  1   
 30  15  28  1   
 31  15  29  1   
 32  16  30  1   
@<TRIPOS>SUBSTRUCTURE
  1 ****   9 GROUP 4 **** **** 0

# MOE 2024.06 (io_trps.svl 2023.06)
