@<TRIPOS>MOLECULE
NONAME
47 48 1 0 0 
SMALL
USER_CHARGES


@<TRIPOS>ATOM
  1 O        0.7400    -1.3460    -1.8070 O.2   1 <1>  -0.5700 
  2 C        0.3410    -1.9800    -0.8660 C.2   1 <1>   0.6590 
  3 O       -0.9470    -2.1620    -0.6170 O.3   1 <1>  -0.4300 
  4 C        1.3100    -2.6320     0.1160 C.3   1 <1>  -0.0190 
  5 C       -1.9400    -1.6130    -1.4530 C.3   1 <1>   0.1200 
  6 C        2.2650    -1.5890     0.7290 C.3   1 <1>  -0.1600 
  7 C        2.1110    -3.7550    -0.5710 C.3   1 <1>  -0.1600 
  8 C       -3.3020    -2.0070    -0.8900 C.3   1 <1>  -0.2400 
  9 C        3.3220    -2.2330     1.6230 C.3   1 <1>   0.3430 
 10 C        3.1750    -4.3500     0.3500 C.3   1 <1>   0.3430 
 11 N        4.0600    -3.2630     0.8450 N.4   1 <1>  -0.9590 
 12 C        5.2210    -3.7930     1.5860 C.3   1 <1>   0.4810 
 13 C        6.4420    -3.1790     0.9330 C.2   1 <1>  -0.2760 
 14 C        7.2160    -3.8880     0.0900 C.2   1 <1>  -0.1780 
 15 C        6.7160    -1.7300     1.3340 C.3   1 <1>  -0.1020 
 16 C        8.3890    -3.4590    -0.6340 C.ar  1 <1>   0.0280 
 17 C        9.5750    -4.1810    -0.5390 C.ar  1 <1>  -0.1500 
 18 C        8.3720    -2.3360    -1.4570 C.ar  1 <1>  -0.1500 
 19 C       10.7060    -3.7910    -1.2320 C.ar  1 <1>  -0.1500 
 20 C        9.5000    -1.9410    -2.1520 C.ar  1 <1>  -0.1500 
 21 C       10.6710    -2.6690    -2.0400 C.ar  1 <1>  -0.1500 
 22 H        0.7270    -3.0660     0.9110 H     1 <1>   0.0800 
 23 H       -1.8230    -0.5420    -1.4670 H     1 <1>   0.0800 
 24 H       -1.8060    -2.0040    -2.4480 H     1 <1>   0.0800 
 25 H        1.6960    -0.8820     1.3090 H     1 <1>   0.0800 
 26 H        2.7570    -1.0350    -0.0540 H     1 <1>   0.0800 
 27 H        2.5870    -3.3750    -1.4590 H     1 <1>   0.0800 
 28 H        1.4370    -4.5350    -0.8800 H     1 <1>   0.0800 
 29 H       -3.4200    -1.6180     0.1050 H     1 <1>   0.0800 
 30 H       -3.4030    -3.0770    -0.8740 H     1 <1>   0.0800 
 31 H       -4.0810    -1.6000    -1.5100 H     1 <1>   0.0800 
 32 H        2.8460    -2.6890     2.4760 H     1 <1>   0.0800 
 33 H        4.0020    -1.4750     1.9770 H     1 <1>   0.0800 
 34 H        3.7530    -5.0790    -0.1970 H     1 <1>   0.0800 
 35 H        2.7000    -4.8460     1.1820 H     1 <1>   0.0800 
 36 H        4.4760    -2.8040     0.0210 H     1 <1>   0.4500 
 37 H        5.1750    -3.5420     2.6330 H     1 <1>   0.0800 
 38 H        5.2680    -4.8660     1.4870 H     1 <1>   0.0800 
 39 H        6.9850    -4.9200    -0.1130 H     1 <1>   0.1500 
 40 H        6.7010    -1.6270     2.4050 H     1 <1>   0.0800 
 41 H        5.9870    -1.0640     0.9080 H     1 <1>   0.0800 
 42 H        7.6890    -1.4120     1.0010 H     1 <1>   0.0800 
 43 H        9.6140    -5.0540     0.0870 H     1 <1>   0.1500 
 44 H        7.4660    -1.7680    -1.5590 H     1 <1>   0.1500 
 45 H       11.6160    -4.3600    -1.1440 H     1 <1>   0.1500 
 46 H        9.4700    -1.0700    -2.7830 H     1 <1>   0.1500 
 47 H       11.5510    -2.3640    -2.5800 H     1 <1>   0.1500 
@<TRIPOS>BOND
  1   1   2  2   
  2   2   3  1   
  3   2   4  1   
  4   3   5  1   
  5   4   6  1   
  6   4   7  1   
  7   4  22  1   
  8   5   8  1   
  9   5  23  1   
 10   5  24  1   
 11   6   9  1   
 12   6  25  1   
 13   6  26  1   
 14   7  10  1   
 15   7  27  1   
 16   7  28  1   
 17   8  29  1   
 18   8  30  1   
 19   8  31  1   
 20   9  11  1   
 21   9  32  1   
 22   9  33  1   
 23  10  11  1   
 24  10  34  1   
 25  10  35  1   
 26  11  12  1   
 27  11  36  1   
 28  12  13  1   
 29  12  37  1   
 30  12  38  1   
 31  13  14  2   
 32  13  15  1   
 33  14  16  1   
 34  14  39  1   
 35  15  40  1   
 36  15  41  1   
 37  15  42  1   
 38  16  17  ar  
 39  16  18  ar  
 40  17  19  ar  
 41  17  43  1   
 42  18  20  ar  
 43  18  44  1   
 44  19  21  ar  
 45  19  45  1   
 46  20  21  ar  
 47  20  46  1   
 48  21  47  1   
@<TRIPOS>SUBSTRUCTURE
  1 ****  11 GROUP 4 **** **** 0

# MOE 2024.06 (io_trps.svl 2023.06)
