@<TRIPOS>MOLECULE
NONAME
29 29 1 0 0 
SMALL
USER_CHARGES


@<TRIPOS>ATOM
  1 CL      -1.8480    -1.7610     2.2820 Cl    1 <1>  -0.1770 
  2 C       -2.0740    -1.8510     0.5420 C.ar  1 <1>   0.1770 
  3 C       -3.2250    -1.3410    -0.0310 C.ar  1 <1>   0.1770 
  4 C       -1.0900    -2.4480    -0.2480 C.ar  1 <1>   0.1990 
  5 CL      -4.4590    -0.5950     0.9600 Cl    1 <1>  -0.1770 
  6 C       -3.4290    -1.4140    -1.3970 C.ar  1 <1>  -0.1500 
  7 N        0.0930    -2.9570     0.2920 N.am  1 <1>  -0.6930 
  8 C       -1.3100    -2.5210    -1.6210 C.ar  1 <1>  -0.1500 
  9 C       -2.4640    -2.0090    -2.1930 C.ar  1 <1>  -0.1500 
 10 S        0.3520    -4.6570     0.4890 S.o2  1 <1>   1.3330 
 11 C        1.1960    -2.0010     0.6420 C.3   1 <1>   0.2570 
 12 O        1.7470    -4.8290     0.8120 O.2   1 <1>  -0.6500 
 13 O       -0.2130    -5.2990    -0.6710 O.2   1 <1>  -0.6500 
 14 C       -0.6270    -5.0320     1.9270 C.3   1 <1>  -0.1350 
 15 C        1.6760    -1.1420    -0.5350 C.2   1 <1>   0.6590 
 16 O        1.3820     0.0230    -0.5840 O.2   1 <1>  -0.5700 
 17 O        2.4270    -1.6730    -1.5000 O.3   1 <1>  -0.4300 
 18 C        2.7990    -3.0310    -1.6110 C.3   1 <1>   0.0400 
 19 H       -4.3290    -1.0110    -1.8280 H     1 <1>   0.1500 
 20 H       -0.5670    -2.9850    -2.2460 H     1 <1>   0.1500 
 21 H       -2.6100    -2.0760    -3.2590 H     1 <1>   0.1500 
 22 H        2.0420    -2.5120     1.0600 H     1 <1>   0.0800 
 23 H        0.8330    -1.3310     1.4010 H     1 <1>   0.0800 
 24 H       -0.2950    -4.4530     2.7650 H     1 <1>   0.0800 
 25 H       -0.5390    -6.0720     2.1700 H     1 <1>   0.0800 
 26 H       -1.6600    -4.8100     1.7410 H     1 <1>   0.0800 
 27 H        3.4580    -3.1290    -2.4550 H     1 <1>   0.0800 
 28 H        1.9190    -3.6280    -1.7730 H     1 <1>   0.0800 
 29 H        3.3120    -3.3400    -0.7170 H     1 <1>   0.0800 
@<TRIPOS>BOND
  1   1   2  1   
  2   2   3  ar  
  3   2   4  ar  
  4   3   5  1   
  5   3   6  ar  
  6   4   7  1   
  7   4   8  ar  
  8   6   9  ar  
  9   6  19  1   
 10   7  10  am  
 11   7  11  1   
 12   8   9  ar  
 13   8  20  1   
 14   9  21  1   
 15  10  12  2   
 16  10  13  2   
 17  10  14  1   
 18  11  15  1   
 19  11  22  1   
 20  11  23  1   
 21  14  24  1   
 22  14  25  1   
 23  14  26  1   
 24  15  16  2   
 25  15  17  1   
 26  17  18  1   
 27  18  27  1   
 28  18  28  1   
 29  18  29  1   
@<TRIPOS>SUBSTRUCTURE
  1 ****   4 GROUP 4 **** **** 0

# MOE 2024.06 (io_trps.svl 2023.06)
