@<TRIPOS>MOLECULE
NONAME
40 41 1 0 0 
SMALL
USER_CHARGES


@<TRIPOS>ATOM
  1 CL      -3.1280    -0.9780     1.4630 Cl    1 <1>  -0.1770 
  2 C       -1.7160    -1.9030     1.0110 C.ar  1 <1>   0.1770 
  3 C       -1.5760    -2.4240    -0.2710 C.ar  1 <1>  -0.0090 
  4 C       -0.7550    -2.0890     1.9910 C.ar  1 <1>  -0.1500 
  5 S       -2.8400    -2.1850    -1.5390 S.o2  1 <1>   1.4470 
  6 C       -0.4200    -3.1510    -0.5440 C.ar  1 <1>  -0.1500 
  7 C        0.3870    -2.8150     1.7030 C.ar  1 <1>  -0.1500 
  8 O       -3.1480    -0.7790    -1.6680 O.2   1 <1>  -0.6500 
  9 O       -2.4750    -2.9250    -2.7270 O.2   1 <1>  -0.6500 
 10 N       -4.2090    -2.9570    -0.9100 N.am  1 <1>  -0.8490 
 11 C        0.5390    -3.3390     0.4330 C.ar  1 <1>   0.1770 
 12 C       -5.4130    -2.5650    -1.6930 C.3   1 <1>   0.2570 
 13 C       -4.0720    -4.4160    -0.8480 C.3   1 <1>   0.1960 
 14 CL       1.9690    -4.2600     0.0560 Cl    1 <1>  -0.1770 
 15 C       -6.7590    -3.0630    -1.1480 C.2   1 <1>   0.5690 
 16 C       -4.5180    -4.8960     0.5290 C.3   1 <1>  -0.2400 
 17 O       -7.3410    -3.9240    -1.7680 O.2   1 <1>  -0.5700 
 18 N       -7.2780    -2.5390     0.0070 N.am  1 <1>  -0.6600 
 19 C       -8.5510    -2.9990     0.5990 C.3   1 <1>   0.1400 
 20 C       -6.5700    -1.6080     0.9130 C.3   1 <1>   0.1400 
 21 C       -8.4950    -2.5260     2.0470 C.3   1 <1>  -0.1600 
 22 C       -7.5740    -1.3090     2.0210 C.3   1 <1>  -0.1600 
 23 H       -0.9020    -1.6670     2.9710 H     1 <1>   0.1500 
 24 H       -0.2610    -3.5740    -1.5220 H     1 <1>   0.1500 
 25 H        1.1490    -2.9750     2.4460 H     1 <1>   0.1500 
 26 H       -5.3100    -2.9180    -2.7050 H     1 <1>   0.0800 
 27 H       -5.4780    -1.4930    -1.7380 H     1 <1>   0.0800 
 28 H       -3.0450    -4.7110    -0.9880 H     1 <1>   0.0800 
 29 H       -4.6530    -4.8970    -1.6200 H     1 <1>   0.0800 
 30 H       -5.5640    -4.7030     0.6830 H     1 <1>   0.0800 
 31 H       -3.9490    -4.4050     1.2980 H     1 <1>   0.0800 
 32 H       -4.3600    -5.9560     0.6090 H     1 <1>   0.0800 
 33 H       -8.6450    -4.0700     0.5300 H     1 <1>   0.0800 
 34 H       -9.3680    -2.5300     0.0770 H     1 <1>   0.0800 
 35 H       -6.2680    -0.7120     0.3990 H     1 <1>   0.0800 
 36 H       -5.7050    -2.1040     1.3190 H     1 <1>   0.0800 
 37 H       -8.0570    -3.3030     2.6500 H     1 <1>   0.0800 
 38 H       -9.4730    -2.2950     2.4300 H     1 <1>   0.0800 
 39 H       -8.1360    -0.4310     1.7540 H     1 <1>   0.0800 
 40 H       -7.0870    -1.1400     2.9650 H     1 <1>   0.0800 
@<TRIPOS>BOND
  1   1   2  1   
  2   2   3  ar  
  3   2   4  ar  
  4   3   5  1   
  5   3   6  ar  
  6   4   7  ar  
  7   4  23  1   
  8   5   8  2   
  9   5   9  2   
 10   5  10  am  
 11   6  11  ar  
 12   6  24  1   
 13   7  11  ar  
 14   7  25  1   
 15  10  12  1   
 16  10  13  1   
 17  11  14  1   
 18  12  15  1   
 19  12  26  1   
 20  12  27  1   
 21  13  16  1   
 22  13  28  1   
 23  13  29  1   
 24  15  17  2   
 25  15  18  am  
 26  16  30  1   
 27  16  31  1   
 28  16  32  1   
 29  18  19  1   
 30  18  20  1   
 31  19  21  1   
 32  19  33  1   
 33  19  34  1   
 34  20  22  1   
 35  20  35  1   
 36  20  36  1   
 37  21  22  1   
 38  21  37  1   
 39  21  38  1   
 40  22  39  1   
 41  22  40  1   
@<TRIPOS>SUBSTRUCTURE
  1 ****  10 GROUP 4 **** **** 0

# MOE 2024.06 (io_trps.svl 2023.06)
