@<TRIPOS>MOLECULE
NONAME
33 36 1 0 0 
SMALL
USER_CHARGES


@<TRIPOS>ATOM
  1 S       -0.1770    -0.1360     0.4720 S.3   1 <1>  -0.0800 
  2 C        0.7790     1.3120     0.1970 C.2   1 <1>   0.1660 
  3 C       -1.6470     0.8220     0.5660 C.2   1 <1>  -0.1400 
  4 N        2.1240     1.2650     0.0300 N.2   1 <1>  -0.5760 
  5 C       -0.0060     2.4290     0.1790 C.2   1 <1>  -0.0860 
  6 C       -1.3950     2.1240     0.3870 C.2   1 <1>  -0.1810 
  7 C       -3.0020     0.1950     0.8150 C.3   1 <1>   0.3000 
  8 C        2.6480     2.4260    -0.1530 C.2   1 <1>   0.6510 
  9 C        0.6530     3.6760    -0.0340 C.2   1 <1>   0.7160 
 10 C       -2.5490     3.1080     0.4310 C.3   1 <1>   0.0210 
 11 O       -3.9490     1.2100     1.0640 O.3   1 <1>  -0.5600 
 12 S        4.3780     2.6330    -0.3890 S.3   1 <1>  -0.3710 
 13 N        2.0150     3.6320    -0.1970 N.am  1 <1>  -0.4200 
 14 O        0.0730     4.7520    -0.0800 O.2   1 <1>  -0.5700 
 15 C       -3.9120     2.3760     0.2760 C.3   1 <1>   0.2800 
 16 C        4.3300     4.4650    -0.5080 C.3   1 <1>   0.0700 
 17 C        2.8390     4.8440    -0.4540 C.3   1 <1>   0.1400 
 18 C       -5.0470     3.2570     0.8000 C.3   1 <1>  -0.2400 
 19 C       -4.2050     1.9990    -1.1850 C.3   1 <1>  -0.2400 
 20 H       -2.9710    -0.4430     1.6800 H     1 <1>   0.0800 
 21 H       -3.3230    -0.3780    -0.0370 H     1 <1>   0.0800 
 22 H       -2.4450     3.8370    -0.3520 H     1 <1>   0.0800 
 23 H       -2.5170     3.6310     1.3690 H     1 <1>   0.0800 
 24 H        4.7930     4.7540    -1.4350 H     1 <1>   0.0800 
 25 H        4.8770     4.8610     0.3290 H     1 <1>   0.0800 
 26 H        2.6680     5.5660     0.3260 H     1 <1>   0.0800 
 27 H        2.5380     5.2800    -1.3910 H     1 <1>   0.0800 
 28 H       -4.8920     3.4830     1.8390 H     1 <1>   0.0800 
 29 H       -5.9900     2.7520     0.6910 H     1 <1>   0.0800 
 30 H       -5.0880     4.1800     0.2510 H     1 <1>   0.0800 
 31 H       -3.3940     1.4390    -1.6140 H     1 <1>   0.0800 
 32 H       -4.3310     2.8890    -1.7740 H     1 <1>   0.0800 
 33 H       -5.1100     1.4220    -1.2460 H     1 <1>   0.0800 
@<TRIPOS>BOND
  1   1   2  1   
  2   1   3  1   
  3   2   4  1   
  4   2   5  2   
  5   3   6  2   
  6   3   7  1   
  7   4   8  2   
  8   5   6  1   
  9   5   9  1   
 10   6  10  1   
 11   7  11  1   
 12   7  20  1   
 13   7  21  1   
 14   8  12  1   
 15   8  13  1   
 16   9  13  am  
 17   9  14  2   
 18  10  15  1   
 19  10  22  1   
 20  10  23  1   
 21  11  15  1   
 22  12  16  1   
 23  13  17  1   
 24  15  18  1   
 25  15  19  1   
 26  16  17  1   
 27  16  24  1   
 28  16  25  1   
 29  17  26  1   
 30  17  27  1   
 31  18  28  1   
 32  18  29  1   
 33  18  30  1   
 34  19  31  1   
 35  19  32  1   
 36  19  33  1   
@<TRIPOS>SUBSTRUCTURE
  1 ****   5 GROUP 4 **** **** 0

# MOE 2024.06 (io_trps.svl 2023.06)
