@<TRIPOS>MOLECULE
NONAME
46 47 1 0 0 
SMALL
USER_CHARGES


@<TRIPOS>ATOM
  1 S        0.1400    -0.3410    -0.3270 S.3   1 <1>  -0.3320 
  2 C       -1.6380    -0.1170    -0.1280 C.ar  1 <1>   0.1020 
  3 C        0.9070     1.3280    -0.1290 C.3   1 <1>   0.2140 
  4 C       -2.4270    -1.2470    -0.2420 C.ar  1 <1>  -0.1500 
  5 C       -2.2070     1.1210     0.1270 C.ar  1 <1>  -0.1500 
  6 C        2.4130     1.1890    -0.2820 C.ar  1 <1>  -0.1440 
  7 C       -3.7990    -1.1410    -0.0990 C.ar  1 <1>  -0.1500 
  8 C       -3.5810     1.2180     0.2680 C.ar  1 <1>  -0.1500 
  9 C        3.0650     1.7330    -1.3770 C.ar  1 <1>  -0.1500 
 10 C        3.1560     0.5160     0.6740 C.ar  1 <1>  -0.1500 
 11 C       -4.3820     0.0910     0.1580 C.ar  1 <1>  -0.1430 
 12 C        4.4360     1.6100    -1.5050 C.ar  1 <1>  -0.1500 
 13 C        4.5270     0.3950     0.5390 C.ar  1 <1>  -0.1500 
 14 C       -5.8880     0.2040     0.3130 C.3   1 <1>  -0.0970 
 15 C        5.2060     0.9460    -0.5500 C.ar  1 <1>   0.0860 
 16 C        6.6490     0.8390    -0.6980 C.2   1 <1>   0.5440 
 17 O        7.1700     0.9070    -1.7940 O.2   1 <1>  -0.5700 
 18 N        7.4540     0.6700     0.3930 N.am  1 <1>  -0.7300 
 19 C        8.9310     0.6320     0.3630 C.3   1 <1>   0.2200 
 20 C        9.4060    -0.7270    -0.1800 C.3   1 <1>   0.1200 
 21 C        9.4200     0.9130     1.7850 C.3   1 <1>  -0.2400 
 22 O       10.7970    -0.8310    -0.0800 O.3   1 <1>  -0.5600 
 23 C       11.3120    -1.9970    -0.6340 C.3   1 <1>   0.0400 
 24 H        0.6470     1.6870     0.8500 H     1 <1>   0.0800 
 25 H        0.4860     1.9640    -0.8870 H     1 <1>   0.0800 
 26 H       -1.9690    -2.1990    -0.4410 H     1 <1>   0.1500 
 27 H       -1.6120     2.0070     0.2170 H     1 <1>   0.1500 
 28 H       -4.4110    -2.0220    -0.1890 H     1 <1>   0.1500 
 29 H       -4.0280     2.1770     0.4650 H     1 <1>   0.1500 
 30 H        2.5080     2.2510    -2.1390 H     1 <1>   0.1500 
 31 H        2.6610     0.0760     1.5230 H     1 <1>   0.1500 
 32 H        4.9290     2.0350    -2.3630 H     1 <1>   0.1500 
 33 H        5.0740    -0.1460     1.2900 H     1 <1>   0.1500 
 34 H       -6.2940    -0.7050     0.7180 H     1 <1>   0.0800 
 35 H       -6.3380     0.3900    -0.6450 H     1 <1>   0.0800 
 36 H       -6.1380     1.0120     0.9780 H     1 <1>   0.0800 
 37 H        7.0490     0.7240     1.3260 H     1 <1>   0.3700 
 38 H        9.2830     1.4050    -0.3010 H     1 <1>   0.0800 
 39 H        9.1290    -0.8170    -1.2160 H     1 <1>   0.0800 
 40 H        8.9670    -1.5270     0.3900 H     1 <1>   0.0800 
 41 H        9.1050     0.1340     2.4550 H     1 <1>   0.0800 
 42 H        9.0510     1.8630     2.1260 H     1 <1>   0.0800 
 43 H       10.4940     0.9510     1.7940 H     1 <1>   0.0800 
 44 H       12.3800    -1.9860    -0.5040 H     1 <1>   0.0800 
 45 H       11.0740    -2.0260    -1.6830 H     1 <1>   0.0800 
 46 H       10.8920    -2.8480    -0.1250 H     1 <1>   0.0800 
@<TRIPOS>BOND
  1   1   2  1   
  2   1   3  1   
  3   2   4  ar  
  4   2   5  ar  
  5   3   6  1   
  6   3  24  1   
  7   3  25  1   
  8   4   7  ar  
  9   4  26  1   
 10   5   8  ar  
 11   5  27  1   
 12   6   9  ar  
 13   6  10  ar  
 14   7  11  ar  
 15   7  28  1   
 16   8  11  ar  
 17   8  29  1   
 18   9  12  ar  
 19   9  30  1   
 20  10  13  ar  
 21  10  31  1   
 22  11  14  1   
 23  12  15  ar  
 24  12  32  1   
 25  13  15  ar  
 26  13  33  1   
 27  14  34  1   
 28  14  35  1   
 29  14  36  1   
 30  15  16  1   
 31  16  17  2   
 32  16  18  am  
 33  18  19  1   
 34  18  37  1   
 35  19  20  1   
 36  19  21  1   
 37  19  38  1   
 38  20  22  1   
 39  20  39  1   
 40  20  40  1   
 41  21  41  1   
 42  21  42  1   
 43  21  43  1   
 44  22  23  1   
 45  23  44  1   
 46  23  45  1   
 47  23  46  1   
@<TRIPOS>SUBSTRUCTURE
  1 ****  10 GROUP 4 **** **** 0

# MOE 2024.06 (io_trps.svl 2023.06)
