@<TRIPOS>MOLECULE
NONAME
27 27 1 0 0 
SMALL
USER_CHARGES


@<TRIPOS>ATOM
  1 O       -0.2150     0.8920    -1.7080 O.2   1 <1>  -0.5700 
  2 C       -0.2120     1.7930    -0.8350 C.2   1 <1>   0.6160 
  3 N        1.0250     2.1370    -0.2540 N.am  1 <1>  -0.2980 
  4 C       -1.3640     2.4710    -0.4030 C.2   1 <1>   0.0910 
  5 N        1.1630     3.1060     0.7120 N.2   1 <1>  -0.5120 
  6 C        2.2680     1.4490    -0.6740 C.3   1 <1>   0.1400 
  7 O       -2.5690     2.0990    -1.0000 O.3   1 <1>  -0.3570 
  8 C       -1.2360     3.4690     0.5860 C.2   1 <1>  -0.1360 
  9 C        0.0830     3.7130     1.0850 C.2   1 <1>   0.3760 
 10 C        2.4660     0.1670     0.1430 C.3   1 <1>  -0.1600 
 11 C       -3.7730     2.4130    -0.3380 C.3   1 <1>   0.0400 
 12 O       -2.1750     4.1630     1.0590 O.3   1 <1>  -0.8500 
 13 C        3.7620    -0.5530    -0.2510 C.3   1 <1>  -0.1600 
 14 C        3.9520    -1.8310     0.5690 C.3   1 <1>  -0.2400 
 15 H        3.0970     2.1150    -0.5150 H     1 <1>   0.0800 
 16 H        2.2160     1.2220    -1.7240 H     1 <1>   0.0800 
 17 H        0.1570     4.4760     1.8380 H     1 <1>   0.0600 
 18 H        1.6260    -0.4850    -0.0250 H     1 <1>   0.0800 
 19 H        2.4970     0.4240     1.1880 H     1 <1>   0.0800 
 20 H       -4.5690     1.8660    -0.8050 H     1 <1>   0.0800 
 21 H       -3.9460     3.4700    -0.4270 H     1 <1>   0.0800 
 22 H       -3.6820     2.1380     0.6980 H     1 <1>   0.0800 
 23 H        4.6020     0.1020    -0.0890 H     1 <1>   0.0800 
 24 H        3.7290    -0.8050    -1.2980 H     1 <1>   0.0800 
 25 H        4.0050    -1.5980     1.6190 H     1 <1>   0.0800 
 26 H        4.8640    -2.3240     0.2800 H     1 <1>   0.0800 
 27 H        3.1310    -2.5060     0.4060 H     1 <1>   0.0800 
@<TRIPOS>BOND
  1   1   2  2   
  2   2   3  am  
  3   2   4  1   
  4   3   5  1   
  5   3   6  1   
  6   4   7  1   
  7   4   8  2   
  8   5   9  2   
  9   6  10  1   
 10   6  15  1   
 11   6  16  1   
 12   7  11  1   
 13   8   9  1   
 14   8  12  1   
 15   9  17  1   
 16  10  13  1   
 17  10  18  1   
 18  10  19  1   
 19  11  20  1   
 20  11  21  1   
 21  11  22  1   
 22  13  14  1   
 23  13  23  1   
 24  13  24  1   
 25  14  25  1   
 26  14  26  1   
 27  14  27  1   
@<TRIPOS>SUBSTRUCTURE
  1 ****   2 GROUP 4 **** **** 0

# MOE 2024.06 (io_trps.svl 2023.06)
