@<TRIPOS>MOLECULE
NONAME
41 42 1 0 0 
SMALL
USER_CHARGES


@<TRIPOS>ATOM
  1 O        0.0370     0.0580     1.0830 O.2   1 <1>  -0.5700 
  2 C        0.4290    -0.6680     0.1930 C.2   1 <1>   0.6900 
  3 N       -0.3390    -1.6770    -0.3100 N.am  1 <1>  -0.5470 
  4 N        1.6690    -0.5100    -0.3320 N.am  1 <1>  -0.7300 
  5 C       -1.6590    -2.0560    -0.0220 C.ar  1 <1>   0.1170 
  6 C        2.6490     0.4990     0.1030 C.3   1 <1>   0.2200 
  7 C       -2.6150    -1.1670     0.4540 C.ar  1 <1>  -0.1500 
  8 C       -2.0340    -3.3780    -0.2380 C.ar  1 <1>  -0.1500 
  9 C        2.8840     1.4880    -1.0430 C.3   1 <1>  -0.1600 
 10 C        3.9470    -0.2120     0.5000 C.3   1 <1>  -0.1600 
 11 C       -3.9140    -1.5740     0.7210 C.ar  1 <1>   0.1170 
 12 C       -3.3240    -3.8010     0.0280 C.ar  1 <1>  -0.1500 
 13 C        3.9810     2.5020    -0.6850 C.3   1 <1>  -0.1600 
 14 C        5.0460     0.7990     0.8610 C.3   1 <1>  -0.1600 
 15 N       -4.8400    -0.6470     1.2160 N.am  1 <1>  -0.5470 
 16 C       -4.2580    -2.9040     0.5110 C.ar  1 <1>  -0.1500 
 17 C        5.2830     1.7940    -0.2840 C.3   1 <1>  -0.1600 
 18 C       -6.1170    -0.3690     0.8410 C.2   1 <1>   0.5690 
 19 O       -6.7610     0.4420     1.4540 O.2   1 <1>  -0.5700 
 20 C       -6.7480    -1.0450    -0.3530 C.3   1 <1>  -0.1790 
 21 H        0.1740    -2.3180    -0.9030 H     1 <1>   0.3700 
 22 H        1.9450    -1.0450    -1.1490 H     1 <1>   0.3700 
 23 H        2.2690     1.0360     0.9580 H     1 <1>   0.0800 
 24 H       -2.3500    -0.1390     0.6160 H     1 <1>   0.1500 
 25 H       -1.3140    -4.0830    -0.6090 H     1 <1>   0.1500 
 26 H        1.9690     2.0150    -1.2490 H     1 <1>   0.0800 
 27 H        3.1790     0.9540    -1.9290 H     1 <1>   0.0800 
 28 H        4.2890    -0.8220    -0.3170 H     1 <1>   0.0800 
 29 H        3.7570    -0.8470     1.3470 H     1 <1>   0.0800 
 30 H       -3.5990    -4.8290    -0.1350 H     1 <1>   0.1500 
 31 H        3.6440     3.1170     0.1320 H     1 <1>   0.0800 
 32 H        4.1660     3.1470    -1.5270 H     1 <1>   0.0800 
 33 H        5.9610     0.2760     1.0800 H     1 <1>   0.0800 
 34 H        4.7550     1.3390     1.7460 H     1 <1>   0.0800 
 35 H       -4.5020    -0.0240     1.9500 H     1 <1>   0.3700 
 36 H       -5.2530    -3.2400     0.7350 H     1 <1>   0.1500 
 37 H        6.0120     2.5250     0.0200 H     1 <1>   0.0800 
 38 H        5.6800     1.2690    -1.1360 H     1 <1>   0.0800 
 39 H       -6.0180    -1.1980    -1.1260 H     1 <1>   0.0800 
 40 H       -7.5350    -0.4250    -0.7410 H     1 <1>   0.0800 
 41 H       -7.1650    -1.9880    -0.0560 H     1 <1>   0.0800 
@<TRIPOS>BOND
  1   1   2  2   
  2   2   3  am  
  3   2   4  am  
  4   3   5  1   
  5   3  21  1   
  6   4   6  1   
  7   4  22  1   
  8   5   7  ar  
  9   5   8  ar  
 10   6   9  1   
 11   6  10  1   
 12   6  23  1   
 13   7  11  ar  
 14   7  24  1   
 15   8  12  ar  
 16   8  25  1   
 17   9  13  1   
 18   9  26  1   
 19   9  27  1   
 20  10  14  1   
 21  10  28  1   
 22  10  29  1   
 23  11  15  1   
 24  11  16  ar  
 25  12  16  ar  
 26  12  30  1   
 27  13  17  1   
 28  13  31  1   
 29  13  32  1   
 30  14  17  1   
 31  14  33  1   
 32  14  34  1   
 33  15  18  am  
 34  15  35  1   
 35  16  36  1   
 36  17  37  1   
 37  17  38  1   
 38  18  19  2   
 39  18  20  1   
 40  20  39  1   
 41  20  40  1   
 42  20  41  1   
@<TRIPOS>SUBSTRUCTURE
  1 ****   2 GROUP 4 **** **** 0

# MOE 2024.06 (io_trps.svl 2023.06)
