@<TRIPOS>MOLECULE
NONAME
34 34 1 0 0 
SMALL
USER_CHARGES


@<TRIPOS>ATOM
  1 O       -1.2810     0.3720     1.5490 O.2   1 <1>  -0.5700 
  2 C       -1.9780     0.9020     0.7080 C.2   1 <1>   0.7800 
  3 O       -2.6740     0.1790    -0.1750 O.3   1 <1>  -0.4300 
  4 N       -2.0910     2.2420     0.6260 N.am  1 <1>  -0.7300 
  5 C       -2.7090    -1.2250    -0.2920 C.3   1 <1>   0.2800 
  6 C       -2.7440     3.0020    -0.4540 C.3   1 <1>   0.2200 
  7 C       -3.2900    -1.8490     0.9810 C.3   1 <1>  -0.2400 
  8 C       -1.3130    -1.7640    -0.6270 C.3   1 <1>  -0.2400 
  9 C       -3.6510    -1.5010    -1.4650 C.3   1 <1>  -0.2400 
 10 C       -2.4010     4.4830    -0.3480 C.3   1 <1>  -0.1860 
 11 C       -4.2570     2.9970    -0.2330 C.3   1 <1>  -0.1600 
 12 C       -0.9170     4.7580    -0.1860 C.2   1 <1>   0.9060 
 13 C       -3.3100     5.0270     0.7680 C.3   1 <1>  -0.1600 
 14 C       -4.5410     4.1120     0.7840 C.3   1 <1>  -0.1600 
 15 O       -0.3180     5.2980    -1.1200 O.co2 1 <1>  -0.9000 
 16 O       -0.3530     4.4260     0.8650 O.co2 1 <1>  -0.9000 
 17 H       -1.3600     2.8020     1.1040 H     1 <1>   0.3700 
 18 H       -2.4640     2.5940    -1.4110 H     1 <1>   0.0800 
 19 H       -2.6170    -1.7320     1.8110 H     1 <1>   0.0800 
 20 H       -3.4470    -2.9020     0.8360 H     1 <1>   0.0800 
 21 H       -4.2320    -1.3920     1.2240 H     1 <1>   0.0800 
 22 H       -1.3680    -2.8120    -0.8560 H     1 <1>   0.0800 
 23 H       -0.6430    -1.6460     0.2050 H     1 <1>   0.0800 
 24 H       -0.9090    -1.2460    -1.4790 H     1 <1>   0.0800 
 25 H       -3.7400    -2.5590    -1.6320 H     1 <1>   0.0800 
 26 H       -3.2710    -1.0450    -2.3610 H     1 <1>   0.0800 
 27 H       -4.6280    -1.1050    -1.2570 H     1 <1>   0.0800 
 28 H       -2.7030     4.9470    -1.2680 H     1 <1>   0.0800 
 29 H       -4.7340     3.2460    -1.1640 H     1 <1>   0.0800 
 30 H       -4.6210     2.0400     0.0950 H     1 <1>   0.0800 
 31 H       -2.7980     4.9550     1.7140 H     1 <1>   0.0800 
 32 H       -3.5670     6.0560     0.5900 H     1 <1>   0.0800 
 33 H       -5.4340     4.6500     0.5240 H     1 <1>   0.0800 
 34 H       -4.6560     3.6880     1.7670 H     1 <1>   0.0800 
@<TRIPOS>BOND
  1   1   2  2   
  2   2   3  1   
  3   2   4  am  
  4   3   5  1   
  5   4   6  1   
  6   4  17  1   
  7   5   7  1   
  8   5   8  1   
  9   5   9  1   
 10   6  10  1   
 11   6  11  1   
 12   6  18  1   
 13   7  19  1   
 14   7  20  1   
 15   7  21  1   
 16   8  22  1   
 17   8  23  1   
 18   8  24  1   
 19   9  25  1   
 20   9  26  1   
 21   9  27  1   
 22  10  12  1   
 23  10  13  1   
 24  10  28  1   
 25  11  14  1   
 26  11  29  1   
 27  11  30  1   
 28  12  15  ar  
 29  12  16  ar  
 30  13  14  1   
 31  13  31  1   
 32  13  32  1   
 33  14  33  1   
 34  14  34  1   
@<TRIPOS>SUBSTRUCTURE
  1 ****   4 GROUP 4 **** **** 0

# MOE 2024.06 (io_trps.svl 2023.06)
