@<TRIPOS>MOLECULE
NONAME
42 44 1 0 0 
SMALL
USER_CHARGES


@<TRIPOS>ATOM
  1 F        1.3710     0.1640     2.3370 F     1 <1>  -0.1900 
  2 C        2.4240     0.6050     1.7000 C.ar  1 <1>   0.1900 
  3 C        2.2660     1.1380     0.4360 C.ar  1 <1>  -0.1500 
  4 C        3.6580     0.5230     2.3150 C.ar  1 <1>  -0.1500 
  5 C        3.3860     1.6030    -0.2320 C.ar  1 <1>  -0.1500 
  6 C        4.7680     0.9920     1.6340 C.ar  1 <1>  -0.1500 
  7 C        4.6500     1.5340     0.3560 C.ar  1 <1>   0.1170 
  8 N        5.8130     1.9910    -0.2790 N.am  1 <1>  -0.5470 
  9 C        6.0970     2.3750    -1.5580 C.2   1 <1>   0.5690 
 10 O        5.2990     2.3950    -2.4630 O.2   1 <1>  -0.5700 
 11 C        7.5430     2.7980    -1.8270 C.3   1 <1>   0.1710 
 12 N        8.5160     2.2590    -0.8280 N.3   1 <1>  -0.8100 
 13 C        9.7930     3.0080    -0.8740 C.3   1 <1>   0.1100 
 14 C        8.7860     0.8180    -1.0740 C.3   1 <1>   0.1100 
 15 C       10.8210     2.4690     0.1410 C.3   1 <1>   0.2090 
 16 C        9.7920     0.2340    -0.0640 C.3   1 <1>   0.2090 
 17 N       11.0650     1.0140    -0.0630 N.pl3 1 <1>  -0.8380 
 18 C       12.1460     0.4790     0.6100 C.ar  1 <1>   0.4100 
 19 N       11.8970    -0.2290     1.7060 N.ar  1 <1>  -0.6200 
 20 C       13.4310     0.7110     0.1270 C.ar  1 <1>  -0.1500 
 21 C       12.9560    -0.7130     2.3330 C.ar  1 <1>   0.1600 
 22 C       14.5230     0.2020     0.7890 C.ar  1 <1>  -0.1500 
 23 C       14.2670    -0.5320     1.9290 C.ar  1 <1>  -0.1500 
 24 H        1.2900     1.1880    -0.0130 H     1 <1>   0.1500 
 25 H        3.7420     0.1020     3.3010 H     1 <1>   0.1500 
 26 H        3.2700     2.0220    -1.2150 H     1 <1>   0.1500 
 27 H        5.7360     0.9340     2.0990 H     1 <1>   0.1500 
 28 H        6.6670     1.9940     0.2900 H     1 <1>   0.3700 
 29 H        7.5640     3.8730    -1.7990 H     1 <1>   0.0800 
 30 H        7.8210     2.4890    -2.8190 H     1 <1>   0.0800 
 31 H        9.6070     4.0450    -0.6550 H     1 <1>   0.0800 
 32 H       10.2200     2.9450    -1.8610 H     1 <1>   0.0800 
 33 H        9.1850     0.6830    -2.0650 H     1 <1>   0.0800 
 34 H        7.8710     0.2570    -1.0070 H     1 <1>   0.0800 
 35 H       10.4540     2.6290     1.1400 H     1 <1>   0.0800 
 36 H       11.7460     3.0080     0.0340 H     1 <1>   0.0800 
 37 H       10.0060    -0.7900    -0.3170 H     1 <1>   0.0800 
 38 H        9.3610     0.2510     0.9220 H     1 <1>   0.0800 
 39 H       13.5470     1.2860    -0.7710 H     1 <1>   0.1500 
 40 H       12.7680    -1.2890     3.2230 H     1 <1>   0.1500 
 41 H       15.5270     0.3660     0.4370 H     1 <1>   0.1500 
 42 H       15.0730    -0.9590     2.4960 H     1 <1>   0.1500 
@<TRIPOS>BOND
  1   1   2  1   
  2   2   3  ar  
  3   2   4  ar  
  4   3   5  ar  
  5   3  24  1   
  6   4   6  ar  
  7   4  25  1   
  8   5   7  ar  
  9   5  26  1   
 10   6   7  ar  
 11   6  27  1   
 12   7   8  1   
 13   8   9  am  
 14   8  28  1   
 15   9  10  2   
 16   9  11  1   
 17  11  12  1   
 18  11  29  1   
 19  11  30  1   
 20  12  13  1   
 21  12  14  1   
 22  13  15  1   
 23  13  31  1   
 24  13  32  1   
 25  14  16  1   
 26  14  33  1   
 27  14  34  1   
 28  15  17  1   
 29  15  35  1   
 30  15  36  1   
 31  16  17  1   
 32  16  37  1   
 33  16  38  1   
 34  17  18  1   
 35  18  19  ar  
 36  18  20  ar  
 37  19  21  ar  
 38  20  22  ar  
 39  20  39  1   
 40  21  23  ar  
 41  21  40  1   
 42  22  23  ar  
 43  22  41  1   
 44  23  42  1   
@<TRIPOS>SUBSTRUCTURE
  1 ****  14 GROUP 4 **** **** 0

# MOE 2024.06 (io_trps.svl 2023.06)
