@<TRIPOS>MOLECULE
NONAME
44 46 1 0 0 
SMALL
USER_CHARGES


@<TRIPOS>ATOM
  1 F        0.6940    -0.6510     2.2700 F     1 <1>  -0.3400 
  2 C        0.3470     0.6090     2.0260 C.3   1 <1>   1.1640 
  3 F       -0.7100     0.5570     1.2260 F     1 <1>  -0.3400 
  4 F       -0.0880     1.0970     3.1830 F     1 <1>  -0.3400 
  5 C        1.4960     1.4290     1.4230 C.ar  1 <1>  -0.1440 
  6 C        2.3270     0.8620     0.4640 C.ar  1 <1>  -0.1500 
  7 C        1.7310     2.7450     1.8100 C.ar  1 <1>  -0.1500 
  8 C        3.3780     1.5730    -0.1060 C.ar  1 <1>   0.1000 
  9 C        2.7740     3.4650     1.2530 C.ar  1 <1>  -0.1500 
 10 N        4.2460     1.0090    -1.0470 N.pl3 1 <1>  -0.6000 
 11 C        3.5910     2.8810     0.3040 C.ar  1 <1>  -0.1500 
 12 C        4.1200    -0.1030    -1.8620 C.ar  1 <1>   0.4100 
 13 N        2.8990    -0.3900    -2.3100 N.ar  1 <1>  -0.6200 
 14 C        5.2630    -0.8570    -2.1830 C.ar  1 <1>   0.0860 
 15 C        2.7910    -1.4300    -3.1120 C.ar  1 <1>   0.1600 
 16 C        6.5450    -0.5130    -1.6190 C.2   1 <1>   0.5440 
 17 C        5.1120    -1.9420    -3.0360 C.ar  1 <1>  -0.1500 
 18 C        3.8500    -2.2280    -3.5050 C.ar  1 <1>  -0.1500 
 19 O        6.9900     0.6130    -1.7140 O.2   1 <1>  -0.5700 
 20 N        7.3040    -1.3980    -0.9170 N.am  1 <1>  -0.7300 
 21 C        6.8300    -2.6260    -0.2150 C.3   1 <1>   0.1400 
 22 C        6.3710    -2.3200     1.2200 C.3   1 <1>   0.2000 
 23 O        5.9880    -3.5060     1.8330 O.3   1 <1>  -0.5600 
 24 C        5.1410    -1.4290     1.3320 C.3   1 <1>  -0.1600 
 25 C        5.0890    -3.2610     2.8720 C.3   1 <1>   0.1200 
 26 C        4.5490    -1.8480     2.6640 C.3   1 <1>  -0.1600 
 27 H        2.1630    -0.1530     0.1480 H     1 <1>   0.1500 
 28 H        1.1050     3.2220     2.5460 H     1 <1>   0.1500 
 29 H        2.9480     4.4830     1.5580 H     1 <1>   0.1500 
 30 H        5.1770     1.4420    -1.1070 H     1 <1>   0.4000 
 31 H        4.3980     3.4460    -0.1260 H     1 <1>   0.1500 
 32 H        1.8050    -1.6600    -3.4810 H     1 <1>   0.1500 
 33 H        5.9630    -2.5380    -3.3170 H     1 <1>   0.1500 
 34 H        3.6830    -3.0590    -4.1670 H     1 <1>   0.1500 
 35 H        8.2000    -1.0240    -0.5940 H     1 <1>   0.3700 
 36 H        7.6380    -3.3360    -0.1790 H     1 <1>   0.0800 
 37 H        6.0140    -3.0700    -0.7550 H     1 <1>   0.0800 
 38 H        7.1850    -1.9150     1.7960 H     1 <1>   0.0800 
 39 H        4.4500    -1.6580     0.5410 H     1 <1>   0.0800 
 40 H        5.3920    -0.3840     1.2990 H     1 <1>   0.0800 
 41 H        5.6150    -3.3500     3.8070 H     1 <1>   0.0800 
 42 H        4.3070    -3.9990     2.8180 H     1 <1>   0.0800 
 43 H        3.4730    -1.8300     2.6510 H     1 <1>   0.0800 
 44 H        4.9020    -1.2090     3.4540 H     1 <1>   0.0800 
@<TRIPOS>BOND
  1   1   2  1   
  2   2   3  1   
  3   2   4  1   
  4   2   5  1   
  5   5   6  ar  
  6   5   7  ar  
  7   6   8  ar  
  8   6  27  1   
  9   7   9  ar  
 10   7  28  1   
 11   8  10  1   
 12   8  11  ar  
 13   9  11  ar  
 14   9  29  1   
 15  10  12  1   
 16  10  30  1   
 17  11  31  1   
 18  12  13  ar  
 19  12  14  ar  
 20  13  15  ar  
 21  14  16  1   
 22  14  17  ar  
 23  15  18  ar  
 24  15  32  1   
 25  16  19  2   
 26  16  20  am  
 27  17  18  ar  
 28  17  33  1   
 29  18  34  1   
 30  20  21  1   
 31  20  35  1   
 32  21  22  1   
 33  21  36  1   
 34  21  37  1   
 35  22  23  1   
 36  22  24  1   
 37  22  38  1   
 38  23  25  1   
 39  24  26  1   
 40  24  39  1   
 41  24  40  1   
 42  25  26  1   
 43  25  41  1   
 44  25  42  1   
 45  26  43  1   
 46  26  44  1   
@<TRIPOS>SUBSTRUCTURE
  1 ****  10 GROUP 4 **** **** 0

# MOE 2024.06 (io_trps.svl 2023.06)
