@<TRIPOS>MOLECULE
NONAME
46 47 1 0 0 
SMALL
USER_CHARGES


@<TRIPOS>ATOM
  1 S        1.5020     2.7160    -0.9140 S.3   1 <1>  -0.0800 
  2 C        1.4670     1.6820     0.5080 C.2   1 <1>  -0.1400 
  3 C        0.4870     1.5980    -1.8070 C.2   1 <1>  -0.1100 
  4 C        0.7220     0.5860     0.2740 C.2   1 <1>  -0.1500 
  5 C        2.2360     2.1460     1.7390 C.3   1 <1>   0.0810 
  6 C        0.1660     0.5370    -1.0440 C.2   1 <1>  -0.1500 
  7 C        3.7410     1.9520     1.6350 C.2   1 <1>   0.5690 
  8 O        4.3980     2.0590     2.6490 O.2   1 <1>  -0.5700 
  9 N        4.3060     1.6510     0.4340 N.am  1 <1>  -0.4300 
 10 N        5.7460     1.6190     0.1540 N.am  1 <1>  -0.4300 
 11 C        6.4900     2.6640    -0.2980 C.2   1 <1>   0.5690 
 12 O        5.9930     3.7050    -0.6760 O.2   1 <1>  -0.5700 
 13 C        8.0050     2.5310    -0.3440 C.3   1 <1>   0.1810 
 14 O        8.4070     1.1850    -0.1280 O.3   1 <1>  -0.3630 
 15 C        9.7180     0.8390    -0.1360 C.ar  1 <1>   0.0830 
 16 C       10.7580     1.7370    -0.3440 C.ar  1 <1>  -0.1500 
 17 C       10.0150    -0.4950     0.0770 C.ar  1 <1>  -0.1500 
 18 C       12.0700     1.2950    -0.3380 C.ar  1 <1>  -0.1500 
 19 C       11.3280    -0.9280     0.0820 C.ar  1 <1>  -0.1500 
 20 C       12.3840    -0.0450    -0.1250 C.ar  1 <1>  -0.1430 
 21 C       13.8330    -0.5800    -0.1100 C.3   1 <1>   0.1430 
 22 C       14.1330    -1.2140     1.2570 C.3   1 <1>  -0.2400 
 23 C       14.0020    -1.6370    -1.2110 C.3   1 <1>  -0.2400 
 24 C       14.8860     0.5150    -0.3530 C.3   1 <1>  -0.2400 
 25 H        0.2340     1.8590    -2.8190 H     1 <1>   0.1500 
 26 H        0.5320    -0.2070     0.9770 H     1 <1>   0.1500 
 27 H        1.8920     1.5950     2.5940 H     1 <1>   0.0800 
 28 H        2.0360     3.1860     1.9180 H     1 <1>   0.0800 
 29 H       -0.4490    -0.2910    -1.3540 H     1 <1>   0.1500 
 30 H        3.6850     1.5910    -0.3840 H     1 <1>   0.3700 
 31 H        6.2550     0.7760     0.4500 H     1 <1>   0.3700 
 32 H        8.4370     3.1440     0.4250 H     1 <1>   0.0800 
 33 H        8.3590     2.8420    -1.3100 H     1 <1>   0.0800 
 34 H       10.5750     2.7810    -0.5130 H     1 <1>   0.1500 
 35 H        9.2160    -1.1940     0.2380 H     1 <1>   0.1500 
 36 H       12.8370     2.0280    -0.5030 H     1 <1>   0.1500 
 37 H       11.5190    -1.9720     0.2510 H     1 <1>   0.1500 
 38 H       13.4880    -2.0520     1.4460 H     1 <1>   0.0800 
 39 H       13.9830    -0.4900     2.0380 H     1 <1>   0.0800 
 40 H       15.1500    -1.5600     1.3000 H     1 <1>   0.0800 
 41 H       13.7610    -1.2110    -2.1690 H     1 <1>   0.0800 
 42 H       13.3560    -2.4790    -1.0450 H     1 <1>   0.0800 
 43 H       15.0150    -1.9960    -1.2420 H     1 <1>   0.0800 
 44 H       14.7380     0.9750    -1.3140 H     1 <1>   0.0800 
 45 H       15.8770     0.0980    -0.3340 H     1 <1>   0.0800 
 46 H       14.8300     1.2700     0.4100 H     1 <1>   0.0800 
@<TRIPOS>BOND
  1   1   2  1   
  2   1   3  1   
  3   2   4  2   
  4   2   5  1   
  5   3   6  2   
  6   3  25  1   
  7   4   6  1   
  8   4  26  1   
  9   5   7  1   
 10   5  27  1   
 11   5  28  1   
 12   6  29  1   
 13   7   8  2   
 14   7   9  am  
 15   9  10  1   
 16   9  30  1   
 17  10  11  am  
 18  10  31  1   
 19  11  12  2   
 20  11  13  1   
 21  13  14  1   
 22  13  32  1   
 23  13  33  1   
 24  14  15  1   
 25  15  16  ar  
 26  15  17  ar  
 27  16  18  ar  
 28  16  34  1   
 29  17  19  ar  
 30  17  35  1   
 31  18  20  ar  
 32  18  36  1   
 33  19  20  ar  
 34  19  37  1   
 35  20  21  1   
 36  21  22  1   
 37  21  23  1   
 38  21  24  1   
 39  22  38  1   
 40  22  39  1   
 41  22  40  1   
 42  23  41  1   
 43  23  42  1   
 44  23  43  1   
 45  24  44  1   
 46  24  45  1   
 47  24  46  1   
@<TRIPOS>SUBSTRUCTURE
  1 ****  14 GROUP 4 **** **** 0

# MOE 2024.06 (io_trps.svl 2023.06)
