@<TRIPOS>MOLECULE
NONAME
48 48 1 0 0 
SMALL
USER_CHARGES


@<TRIPOS>ATOM
  1 N       -0.0060    -0.1470    -0.2180 N.4   1 <1>  -0.9590 
  2 C       -1.1870     0.7320    -0.0110 C.3   1 <1>   0.3430 
  3 C       -0.0580    -1.3750     0.6250 C.3   1 <1>   0.3430 
  4 C        1.2470     0.6320     0.0360 C.3   1 <1>   0.3430 
  5 C       -2.4790    -0.0320    -0.3210 C.3   1 <1>  -0.1600 
  6 C       -1.3320    -2.1670     0.3240 C.3   1 <1>  -0.1600 
  7 C        2.4600    -0.0930    -0.5530 C.3   1 <1>  -0.1600 
  8 C       -2.6050    -1.3210     0.5100 C.3   1 <1>   0.4230 
  9 C        3.7260     0.7550    -0.3990 C.3   1 <1>  -0.2400 
 10 N       -3.8380    -2.1080     0.1090 N.4   1 <1>  -0.9590 
 11 C       -5.1330    -1.3120     0.2350 C.3   1 <1>   0.3430 
 12 C       -3.9450    -3.3990     0.8910 C.3   1 <1>   0.2630 
 13 C       -6.4170    -2.0360    -0.2840 C.3   1 <1>   0.3430 
 14 N       -7.6780    -1.2030    -0.2410 N.4   1 <1>  -0.9590 
 15 C       -8.1240    -0.8390     1.1480 C.3   1 <1>   0.2630 
 16 C       -8.8020    -1.9340    -0.9240 C.3   1 <1>   0.2630 
 17 H        0.0400    -0.4220    -1.2120 H     1 <1>   0.4500 
 18 H       -1.1160     1.5960    -0.6550 H     1 <1>   0.0800 
 19 H       -1.2040     1.0810     1.0100 H     1 <1>   0.0800 
 20 H       -0.0340    -1.1000     1.6680 H     1 <1>   0.0800 
 21 H        0.8020    -1.9960     0.4260 H     1 <1>   0.0800 
 22 H        1.3900     0.7830     1.0950 H     1 <1>   0.0800 
 23 H        1.1740     1.6010    -0.4320 H     1 <1>   0.0800 
 24 H       -2.5000    -0.2560    -1.3740 H     1 <1>   0.0800 
 25 H       -3.2890     0.6380    -0.1010 H     1 <1>   0.0800 
 26 H       -1.3330    -3.0030     0.9990 H     1 <1>   0.0800 
 27 H       -1.2720    -2.5470    -0.6810 H     1 <1>   0.0800 
 28 H        2.3040    -0.2810    -1.6010 H     1 <1>   0.0800 
 29 H        2.6240    -1.0310    -0.0520 H     1 <1>   0.0800 
 30 H       -2.6840    -1.0500     1.5520 H     1 <1>   0.0800 
 31 H        3.6250     1.6960    -0.9130 H     1 <1>   0.0800 
 32 H        4.5710     0.2360    -0.8190 H     1 <1>   0.0800 
 33 H        3.9370     0.9490     0.6390 H     1 <1>   0.0800 
 34 H       -3.7040    -2.3670    -0.8830 H     1 <1>   0.4500 
 35 H       -5.0360    -0.3980    -0.3250 H     1 <1>   0.0800 
 36 H       -5.2810    -1.0530     1.2700 H     1 <1>   0.0800 
 37 H       -4.0030    -3.1990     1.9490 H     1 <1>   0.0800 
 38 H       -3.0890    -4.0290     0.7090 H     1 <1>   0.0800 
 39 H       -4.8210    -3.9560     0.5990 H     1 <1>   0.0800 
 40 H       -6.5770    -2.9270     0.3010 H     1 <1>   0.0800 
 41 H       -6.2440    -2.3360    -1.3040 H     1 <1>   0.0800 
 42 H       -7.5530    -0.3250    -0.7750 H     1 <1>   0.4500 
 43 H       -8.3080    -1.7270     1.7330 H     1 <1>   0.0800 
 44 H       -9.0400    -0.2680     1.1080 H     1 <1>   0.0800 
 45 H       -7.3800    -0.2410     1.6480 H     1 <1>   0.0800 
 46 H       -9.0220    -2.8570    -0.4120 H     1 <1>   0.0800 
 47 H       -8.5430    -2.1600    -1.9460 H     1 <1>   0.0800 
 48 H       -9.6950    -1.3280    -0.9290 H     1 <1>   0.0800 
@<TRIPOS>BOND
  1   1   2  1   
  2   1   3  1   
  3   1   4  1   
  4   1  17  1   
  5   2   5  1   
  6   2  18  1   
  7   2  19  1   
  8   3   6  1   
  9   3  20  1   
 10   3  21  1   
 11   4   7  1   
 12   4  22  1   
 13   4  23  1   
 14   5   8  1   
 15   5  24  1   
 16   5  25  1   
 17   6   8  1   
 18   6  26  1   
 19   6  27  1   
 20   7   9  1   
 21   7  28  1   
 22   7  29  1   
 23   8  10  1   
 24   8  30  1   
 25   9  31  1   
 26   9  32  1   
 27   9  33  1   
 28  10  11  1   
 29  10  12  1   
 30  10  34  1   
 31  11  13  1   
 32  11  35  1   
 33  11  36  1   
 34  12  37  1   
 35  12  38  1   
 36  12  39  1   
 37  13  14  1   
 38  13  40  1   
 39  13  41  1   
 40  14  15  1   
 41  14  16  1   
 42  14  42  1   
 43  15  43  1   
 44  15  44  1   
 45  15  45  1   
 46  16  46  1   
 47  16  47  1   
 48  16  48  1   
@<TRIPOS>SUBSTRUCTURE
  1 ****   8 GROUP 4 **** **** 0

# MOE 2024.06 (io_trps.svl 2023.06)
