@<TRIPOS>MOLECULE
NONAME
41 42 1 0 0 
SMALL
USER_CHARGES


@<TRIPOS>ATOM
  1 O       -1.2080     1.4020     1.2080 O.3   1 <1>  -0.3630 
  2 C       -1.0820     2.0480     0.0190 C.ar  1 <1>   0.0830 
  3 C       -0.0900     1.1940     2.0470 C.3   1 <1>   0.0400 
  4 C       -2.1860     2.0430    -0.8270 C.ar  1 <1>  -0.1440 
  5 C        0.0790     2.7090    -0.3710 C.ar  1 <1>  -0.1500 
  6 C       -2.1230     2.6880    -2.0530 C.ar  1 <1>  -0.1500 
  7 C       -3.4520     1.3290    -0.4030 C.3   1 <1>   0.4870 
  8 C        0.1330     3.3550    -1.5930 C.ar  1 <1>  -0.1500 
  9 C       -0.9660     3.3450    -2.4330 C.ar  1 <1>  -0.1500 
 10 N       -4.4310     2.3440     0.0760 N.4   1 <1>  -0.9590 
 11 C       -3.9750     2.9410     1.3570 C.3   1 <1>   0.4380 
 12 C       -5.8170     1.8170     0.1710 C.3   1 <1>   0.3430 
 13 C       -4.6450     4.3050     1.5030 C.3   1 <1>  -0.1950 
 14 C       -6.4140     1.6320    -1.2260 C.3   1 <1>  -0.1600 
 15 C       -4.2440     5.4560     0.6310 C.3   1 <1>  -0.2000 
 16 C       -3.8850     5.4540     2.0890 C.3   1 <1>  -0.2000 
 17 C       -7.8800     1.1950    -1.1400 C.3   1 <1>  -0.2400 
 18 H        0.2750     2.1450     2.3920 H     1 <1>   0.0800 
 19 H        0.6710     0.6700     1.4940 H     1 <1>   0.0800 
 20 H       -0.4020     0.5980     2.8860 H     1 <1>   0.0800 
 21 H        0.9500     2.7360     0.2580 H     1 <1>   0.1500 
 22 H       -2.9630     2.6860    -2.7270 H     1 <1>   0.1500 
 23 H       -3.2370     0.6160     0.3760 H     1 <1>   0.0800 
 24 H       -3.8470     0.7960    -1.2500 H     1 <1>   0.0800 
 25 H        1.0320     3.8660    -1.8930 H     1 <1>   0.1500 
 26 H       -0.9140     3.8460    -3.3860 H     1 <1>   0.1500 
 27 H       -4.4120     3.1170    -0.5990 H     1 <1>   0.4500 
 28 H       -2.9090     3.0920     1.3340 H     1 <1>   0.0800 
 29 H       -4.2100     2.3020     2.1920 H     1 <1>   0.0800 
 30 H       -6.4340     2.5170     0.7120 H     1 <1>   0.0800 
 31 H       -5.8260     0.8810     0.7060 H     1 <1>   0.0800 
 32 H       -5.6740     4.2330     1.8100 H     1 <1>   0.1000 
 33 H       -5.8710     0.8820    -1.7740 H     1 <1>   0.0800 
 34 H       -6.3660     2.5610    -1.7670 H     1 <1>   0.0800 
 35 H       -4.9950     6.1540     0.2980 H     1 <1>   0.1000 
 36 H       -3.4350     5.3580    -0.0750 H     1 <1>   0.1000 
 37 H       -2.8470     5.3380     2.3540 H     1 <1>   0.1000 
 38 H       -4.3950     6.1450     2.7400 H     1 <1>   0.1000 
 39 H       -7.9710     0.2550    -0.6220 H     1 <1>   0.0800 
 40 H       -8.2870     1.0730    -2.1290 H     1 <1>   0.0800 
 41 H       -8.4700     1.9330    -0.6240 H     1 <1>   0.0800 
@<TRIPOS>BOND
  1   1   2  1   
  2   1   3  1   
  3   2   4  ar  
  4   2   5  ar  
  5   3  18  1   
  6   3  19  1   
  7   3  20  1   
  8   4   6  ar  
  9   4   7  1   
 10   5   8  ar  
 11   5  21  1   
 12   6   9  ar  
 13   6  22  1   
 14   7  10  1   
 15   7  23  1   
 16   7  24  1   
 17   8   9  ar  
 18   8  25  1   
 19   9  26  1   
 20  10  11  1   
 21  10  12  1   
 22  10  27  1   
 23  11  13  1   
 24  11  28  1   
 25  11  29  1   
 26  12  14  1   
 27  12  30  1   
 28  12  31  1   
 29  13  15  1   
 30  13  16  1   
 31  13  32  1   
 32  14  17  1   
 33  14  33  1   
 34  14  34  1   
 35  15  16  1   
 36  15  35  1   
 37  15  36  1   
 38  16  37  1   
 39  16  38  1   
 40  17  39  1   
 41  17  40  1   
 42  17  41  1   
@<TRIPOS>SUBSTRUCTURE
  1 ****   4 GROUP 4 **** **** 0

# MOE 2024.06 (io_trps.svl 2023.06)
