@<TRIPOS>MOLECULE
NONAME
64 67 1 0 0 
SMALL
USER_CHARGES


@<TRIPOS>ATOM
  1 O        0.0590    -2.6390     0.5540 O.3   1 <1>  -0.5600 
  2 C        1.2360    -3.3900     0.4870 C.3   1 <1>   0.1200 
  3 C       -1.0990    -3.3840     0.3600 C.3   1 <1>   0.1200 
  4 C        2.4380    -2.4500     0.6480 C.3   1 <1>   0.2000 
  5 C       -2.2900    -2.4280     0.4650 C.3   1 <1>  -0.1600 
  6 O        2.2450    -1.3680    -0.2020 O.3   1 <1>  -0.6800 
  7 C        3.7830    -3.1590     0.3570 C.3   1 <1>   0.1100 
  8 C       -3.6770    -3.0820     0.2660 C.3   1 <1>   0.0000 
  9 N        4.9310    -2.2440     0.1580 N.3   1 <1>  -0.8100 
 10 C       -3.9530    -4.1720     1.3300 C.3   1 <1>  -0.1600 
 11 C       -3.8120    -3.7190    -1.1380 C.3   1 <1>  -0.1600 
 12 C       -4.7590    -1.9860     0.4060 C.3   1 <1>  -0.1600 
 13 C        5.2120    -1.3500     1.3080 C.3   1 <1>   0.1100 
 14 C        6.1560    -2.9250    -0.3080 C.3   1 <1>   0.1100 
 15 C       -5.3600    -4.7720     1.1440 C.3   1 <1>  -0.0800 
 16 C       -5.2180    -4.3160    -1.3340 C.3   1 <1>  -0.0800 
 17 C       -6.1700    -2.5720     0.2170 C.3   1 <1>  -0.0800 
 18 C        6.3550    -0.3540     0.9960 C.3   1 <1>   0.3430 
 19 C        7.2630    -1.9070    -0.6830 C.3   1 <1>   0.3430 
 20 C       -5.4640    -5.3940    -0.2610 C.3   1 <1>  -0.1600 
 21 C       -6.4110    -3.6570     1.2830 C.3   1 <1>  -0.1600 
 22 C       -6.2700    -3.2030    -1.1830 C.3   1 <1>  -0.1600 
 23 N        6.8090    -0.4990    -0.4280 N.4   1 <1>  -0.9590 
 24 C        7.7680     0.5260    -0.9000 C.3   1 <1>   0.3430 
 25 C        7.0760     1.8820    -0.9760 C.3   1 <1>  -0.2400 
 26 H        1.2780    -3.8830    -0.4700 H     1 <1>   0.0800 
 27 H        1.2260    -4.1260     1.2720 H     1 <1>   0.0800 
 28 H       -1.1460    -4.1450     1.1200 H     1 <1>   0.0800 
 29 H       -1.0520    -3.8370    -0.6150 H     1 <1>   0.0800 
 30 H        2.4400    -2.0720     1.6550 H     1 <1>   0.0800 
 31 H       -2.1640    -1.6550    -0.2720 H     1 <1>   0.0800 
 32 H       -2.2620    -1.9650     1.4360 H     1 <1>   0.0800 
 33 H        1.2770    -1.1920    -0.2060 H     1 <1>   0.4000 
 34 H        3.6580    -3.7440    -0.5380 H     1 <1>   0.0800 
 35 H        4.0000    -3.8420     1.1610 H     1 <1>   0.0800 
 36 H       -3.8710    -3.7500     2.3160 H     1 <1>   0.0800 
 37 H       -3.2310    -4.9640     1.2520 H     1 <1>   0.0800 
 38 H       -3.0870    -4.5010    -1.2670 H     1 <1>   0.0800 
 39 H       -3.6300    -2.9760    -1.8950 H     1 <1>   0.0800 
 40 H       -4.5960    -1.2150    -0.3270 H     1 <1>   0.0800 
 41 H       -4.6930    -1.5280     1.3780 H     1 <1>   0.0800 
 42 H        5.4650    -1.9320     2.1770 H     1 <1>   0.0800 
 43 H        4.3300    -0.7790     1.5420 H     1 <1>   0.0800 
 44 H        5.9270    -3.5210    -1.1760 H     1 <1>   0.0800 
 45 H        6.5210    -3.5900     0.4570 H     1 <1>   0.0800 
 46 H       -5.5340    -5.5290     1.8900 H     1 <1>   0.0800 
 47 H       -5.2930    -4.7560    -2.3140 H     1 <1>   0.0800 
 48 H       -6.9060    -1.7930     0.3190 H     1 <1>   0.0800 
 49 H        7.1780    -0.5310     1.6670 H     1 <1>   0.0800 
 50 H        5.9950     0.6460     1.1710 H     1 <1>   0.0800 
 51 H        7.5050    -2.0280    -1.7260 H     1 <1>   0.0800 
 52 H        8.1510    -2.1200    -0.1120 H     1 <1>   0.0800 
 53 H       -6.4410    -5.8250    -0.3960 H     1 <1>   0.0800 
 54 H       -4.7420    -6.1840    -0.3650 H     1 <1>   0.0800 
 55 H       -7.3980    -4.0690     1.1660 H     1 <1>   0.0800 
 56 H       -6.3540    -3.2210     2.2660 H     1 <1>   0.0800 
 57 H       -7.2560    -3.6100    -1.3300 H     1 <1>   0.0800 
 58 H       -6.1130    -2.4490    -1.9340 H     1 <1>   0.0800 
 59 H        5.9230    -0.4360    -0.9590 H     1 <1>   0.4500 
 60 H        8.1210     0.2620    -1.8840 H     1 <1>   0.0800 
 61 H        8.6170     0.5770    -0.2370 H     1 <1>   0.0800 
 62 H        6.2060     1.8310    -1.6060 H     1 <1>   0.0800 
 63 H        7.7540     2.6000    -1.4030 H     1 <1>   0.0800 
 64 H        6.7970     2.2360     0.0000 H     1 <1>   0.0800 
@<TRIPOS>BOND
  1   1   2  1   
  2   1   3  1   
  3   2   4  1   
  4   2  26  1   
  5   2  27  1   
  6   3   5  1   
  7   3  28  1   
  8   3  29  1   
  9   4   6  1   
 10   4   7  1   
 11   4  30  1   
 12   5   8  1   
 13   5  31  1   
 14   5  32  1   
 15   6  33  1   
 16   7   9  1   
 17   7  34  1   
 18   7  35  1   
 19   8  10  1   
 20   8  11  1   
 21   8  12  1   
 22   9  13  1   
 23   9  14  1   
 24  10  15  1   
 25  10  36  1   
 26  10  37  1   
 27  11  16  1   
 28  11  38  1   
 29  11  39  1   
 30  12  17  1   
 31  12  40  1   
 32  12  41  1   
 33  13  18  1   
 34  13  42  1   
 35  13  43  1   
 36  14  19  1   
 37  14  44  1   
 38  14  45  1   
 39  15  20  1   
 40  15  21  1   
 41  15  46  1   
 42  16  20  1   
 43  16  22  1   
 44  16  47  1   
 45  17  21  1   
 46  17  22  1   
 47  17  48  1   
 48  18  23  1   
 49  18  49  1   
 50  18  50  1   
 51  19  23  1   
 52  19  51  1   
 53  19  52  1   
 54  20  53  1   
 55  20  54  1   
 56  21  55  1   
 57  21  56  1   
 58  22  57  1   
 59  22  58  1   
 60  23  24  1   
 61  23  59  1   
 62  24  25  1   
 63  24  60  1   
 64  24  61  1   
 65  25  62  1   
 66  25  63  1   
 67  25  64  1   
@<TRIPOS>SUBSTRUCTURE
  1 ****   1 GROUP 4 **** **** 0

# MOE 2024.06 (io_trps.svl 2023.06)
