@<TRIPOS>MOLECULE
NONAME
35 36 1 0 0 
SMALL
USER_CHARGES


@<TRIPOS>ATOM
  1 S        0.1010     0.1030    -0.1580 S.o2  1 <1>   1.0900 
  2 O        1.3820    -0.3130     0.3610 O.2   1 <1>  -0.6500 
  3 O       -0.0810     1.4120    -0.7440 O.2   1 <1>  -0.6500 
  4 C       -1.1190    -0.1720     1.1090 C.3   1 <1>  -0.0550 
  5 C       -0.5120    -1.1490    -1.2670 C.3   1 <1>  -0.0550 
  6 C       -2.1650    -1.1690     0.5740 C.3   1 <1>   0.3000 
  7 C       -1.4100    -2.0630    -0.4320 C.3   1 <1>  -0.1600 
  8 N       -3.3340    -0.4840    -0.1030 N.am  1 <1>  -0.6600 
  9 C       -2.6860    -1.9930     1.7630 C.3   1 <1>  -0.2400 
 10 C       -4.5150    -1.1580    -0.3760 C.2   1 <1>   0.5440 
 11 C       -3.2060     0.9280    -0.6030 C.3   1 <1>   0.0600 
 12 O       -4.4720    -2.3280    -0.7030 O.2   1 <1>  -0.5700 
 13 C       -5.8060    -0.4930    -0.3040 C.ar  1 <1>   0.0860 
 14 C       -6.1060     0.4170     0.7110 C.ar  1 <1>  -0.1500 
 15 C       -6.7970    -0.7460    -1.2520 C.ar  1 <1>  -0.1500 
 16 C       -7.3310     1.0570     0.7690 C.ar  1 <1>  -0.1500 
 17 C       -8.0250    -0.1100    -1.2010 C.ar  1 <1>  -0.1500 
 18 C       -8.2920     0.7950    -0.1900 C.ar  1 <1>  -0.1500 
 19 H       -1.5590     0.7370     1.4650 H     1 <1>   0.0800 
 20 H       -0.6110    -0.6200     1.9420 H     1 <1>   0.0800 
 21 H        0.2900    -1.6980    -1.7220 H     1 <1>   0.0800 
 22 H       -1.1010    -0.6940    -2.0400 H     1 <1>   0.0800 
 23 H       -0.7810    -2.7480     0.1100 H     1 <1>   0.0800 
 24 H       -2.0660    -2.6430    -1.0550 H     1 <1>   0.0800 
 25 H       -1.8710    -2.4240     2.3160 H     1 <1>   0.0800 
 26 H       -3.3030    -2.8090     1.4350 H     1 <1>   0.0800 
 27 H       -3.2550    -1.3700     2.4300 H     1 <1>   0.0800 
 28 H       -2.4200     0.9990    -1.3310 H     1 <1>   0.0800 
 29 H       -3.0130     1.6080     0.2070 H     1 <1>   0.0800 
 30 H       -4.1100     1.2460    -1.0920 H     1 <1>   0.0800 
 31 H       -5.3670     0.6200     1.4660 H     1 <1>   0.1500 
 32 H       -6.5950    -1.4550    -2.0360 H     1 <1>   0.1500 
 33 H       -7.5400     1.7570     1.5600 H     1 <1>   0.1500 
 34 H       -8.7720    -0.3220    -1.9460 H     1 <1>   0.1500 
 35 H       -9.2470     1.2910    -0.1490 H     1 <1>   0.1500 
@<TRIPOS>BOND
  1   1   2  2   
  2   1   3  2   
  3   1   4  1   
  4   1   5  1   
  5   4   6  1   
  6   4  19  1   
  7   4  20  1   
  8   5   7  1   
  9   5  21  1   
 10   5  22  1   
 11   6   7  1   
 12   6   8  1   
 13   6   9  1   
 14   7  23  1   
 15   7  24  1   
 16   8  10  am  
 17   8  11  1   
 18   9  25  1   
 19   9  26  1   
 20   9  27  1   
 21  10  12  2   
 22  10  13  1   
 23  11  28  1   
 24  11  29  1   
 25  11  30  1   
 26  13  14  ar  
 27  13  15  ar  
 28  14  16  ar  
 29  14  31  1   
 30  15  17  ar  
 31  15  32  1   
 32  16  18  ar  
 33  16  33  1   
 34  17  18  ar  
 35  17  34  1   
 36  18  35  1   
@<TRIPOS>SUBSTRUCTURE
  1 ****   8 GROUP 4 **** **** 0

# MOE 2024.06 (io_trps.svl 2023.06)
