@<TRIPOS>MOLECULE
NONAME
35 35 1 0 0 
SMALL
USER_CHARGES


@<TRIPOS>ATOM
  1 S        0.0850     0.3400     2.1540 S.o2  1 <1>   1.3330 
  2 O        0.9250     0.0060     3.2760 O.2   1 <1>  -0.6500 
  3 O       -0.4770     1.6590     2.0030 O.2   1 <1>  -0.6500 
  4 N       -1.2130    -0.7760     2.2770 N.am  1 <1>  -0.7570 
  5 C        0.8920    -0.1790     0.6370 C.3   1 <1>  -0.0550 
  6 C       -2.4060    -0.8460     1.5800 C.ar  1 <1>   0.1990 
  7 C        2.1420     0.6470     0.2910 C.3   1 <1>  -0.1600 
  8 C       -3.2990    -1.8680     1.8790 C.ar  1 <1>  -0.1500 
  9 C       -2.7640     0.0530     0.5790 C.ar  1 <1>  -0.1500 
 10 C        2.7850     0.1620    -1.0140 C.3   1 <1>  -0.1600 
 11 C       -4.4970    -1.9920     1.2020 C.ar  1 <1>  -0.1500 
 12 C       -3.9630    -0.0730    -0.0970 C.ar  1 <1>  -0.1500 
 13 C        4.0280     0.9900    -1.3520 C.3   1 <1>  -0.2400 
 14 C       -4.8670    -1.1010     0.1910 C.ar  1 <1>   0.0860 
 15 C       -6.1250    -1.2460    -0.5110 C.2   1 <1>   0.6340 
 16 O       -6.9240    -2.1280    -0.2710 O.2   1 <1>  -0.5700 
 17 O       -6.4160    -0.3620    -1.4740 O.3   1 <1>  -0.4300 
 18 C       -7.6230    -0.4320    -2.2080 C.3   1 <1>   0.0400 
 19 H       -1.0910    -1.3470     3.1090 H     1 <1>   0.4200 
 20 H        0.1940    -0.1020    -0.1730 H     1 <1>   0.0800 
 21 H        1.1740    -1.2100     0.7290 H     1 <1>   0.0800 
 22 H        2.8540     0.5660     1.0960 H     1 <1>   0.0800 
 23 H        1.8660     1.6840     0.1950 H     1 <1>   0.0800 
 24 H       -3.0520    -2.5750     2.6490 H     1 <1>   0.1500 
 25 H       -2.1130     0.8670     0.3230 H     1 <1>   0.1500 
 26 H        2.0770     0.2450    -1.8230 H     1 <1>   0.0800 
 27 H        3.0670    -0.8730    -0.9200 H     1 <1>   0.0800 
 28 H       -5.1680    -2.7960     1.4560 H     1 <1>   0.1500 
 29 H       -4.2060     0.6430    -0.8630 H     1 <1>   0.1500 
 30 H        3.7690     2.0270    -1.4730 H     1 <1>   0.0800 
 31 H        4.4670     0.6380    -2.2690 H     1 <1>   0.0800 
 32 H        4.7610     0.9060    -0.5690 H     1 <1>   0.0800 
 33 H       -7.6360     0.3740    -2.9190 H     1 <1>   0.0800 
 34 H       -8.4500    -0.3390    -1.5250 H     1 <1>   0.0800 
 35 H       -7.6660    -1.3790    -2.7170 H     1 <1>   0.0800 
@<TRIPOS>BOND
  1   1   2  2   
  2   1   3  2   
  3   1   4  am  
  4   1   5  1   
  5   4   6  1   
  6   4  19  1   
  7   5   7  1   
  8   5  20  1   
  9   5  21  1   
 10   6   8  ar  
 11   6   9  ar  
 12   7  10  1   
 13   7  22  1   
 14   7  23  1   
 15   8  11  ar  
 16   8  24  1   
 17   9  12  ar  
 18   9  25  1   
 19  10  13  1   
 20  10  26  1   
 21  10  27  1   
 22  11  14  ar  
 23  11  28  1   
 24  12  14  ar  
 25  12  29  1   
 26  13  30  1   
 27  13  31  1   
 28  13  32  1   
 29  14  15  1   
 30  15  16  2   
 31  15  17  1   
 32  17  18  1   
 33  18  33  1   
 34  18  34  1   
 35  18  35  1   
@<TRIPOS>SUBSTRUCTURE
  1 ****   9 GROUP 4 **** **** 0

# MOE 2024.06 (io_trps.svl 2023.06)
