@<TRIPOS>MOLECULE
NONAME
38 40 1 0 0 
SMALL
USER_CHARGES


@<TRIPOS>ATOM
  1 S       -0.0640     0.2260    -1.0030 S.3   1 <1>  -0.0800 
  2 C       -0.4140     1.6160    -0.0060 C.2   1 <1>   0.1980 
  3 C       -1.7620    -0.1290    -1.0430 C.2   1 <1>  -0.1100 
  4 N       -1.6470     1.7780     0.2530 N.2   1 <1>  -0.5650 
  5 C        0.7540     2.4650     0.4370 C.3   1 <1>  -0.0600 
  6 C       -2.4470     0.7910    -0.3300 C.2   1 <1>   0.1730 
  7 C       -3.8850     0.8350    -0.1330 C.ar  1 <1>   0.0540 
  8 C       -4.7600     0.2020    -1.0150 C.ar  1 <1>  -0.1500 
  9 C       -4.4550     1.5070     0.9480 C.ar  1 <1>  -0.1500 
 10 C       -6.1290     0.2440    -0.8290 C.ar  1 <1>  -0.1500 
 11 C       -5.8230     1.5480     1.1350 C.ar  1 <1>  -0.1500 
 12 C       -6.6970     0.9260     0.2450 C.ar  1 <1>   0.0860 
 13 C       -8.1350     0.9740     0.4230 C.2   1 <1>   0.5440 
 14 O       -8.7580    -0.0710     0.4500 O.2   1 <1>  -0.5700 
 15 N       -8.8170     2.1690     0.5530 N.am  1 <1>  -0.6600 
 16 C       -8.2500     3.4930     0.1680 C.3   1 <1>   0.1400 
 17 C      -10.2550     2.2100     0.9430 C.3   1 <1>   0.1400 
 18 C       -9.0700     4.0940    -0.9790 C.3   1 <1>  -0.1600 
 19 C      -11.0870     2.7960    -0.2020 C.3   1 <1>  -0.1600 
 20 C      -10.5640     4.1740    -0.6320 C.3   1 <1>  -0.1600 
 21 H       -2.0790    -0.9950    -1.5930 H     1 <1>   0.1500 
 22 H        1.4360     1.8710     1.0160 H     1 <1>   0.0800 
 23 H        0.4010     3.2820     1.0390 H     1 <1>   0.0800 
 24 H        1.2650     2.8580    -0.4220 H     1 <1>   0.0800 
 25 H       -4.3670    -0.3290    -1.8630 H     1 <1>   0.1500 
 26 H       -3.8100     2.0020     1.6530 H     1 <1>   0.1500 
 27 H       -6.7830    -0.2590    -1.5200 H     1 <1>   0.1500 
 28 H       -6.2310     2.0680     1.9840 H     1 <1>   0.1500 
 29 H       -7.2270     3.4000    -0.1480 H     1 <1>   0.0800 
 30 H       -8.2810     4.1480     1.0220 H     1 <1>   0.0800 
 31 H      -10.3590     2.8230     1.8220 H     1 <1>   0.0800 
 32 H      -10.6150     1.2240     1.1840 H     1 <1>   0.0800 
 33 H       -8.9360     3.4840    -1.8560 H     1 <1>   0.0800 
 34 H       -8.6990     5.0780    -1.2040 H     1 <1>   0.0800 
 35 H      -12.1120     2.8790     0.1110 H     1 <1>   0.0800 
 36 H      -11.0520     2.1150    -1.0340 H     1 <1>   0.0800 
 37 H      -11.1180     4.5230    -1.4860 H     1 <1>   0.0800 
 38 H      -10.7080     4.8770     0.1700 H     1 <1>   0.0800 
@<TRIPOS>BOND
  1   1   2  1   
  2   1   3  1   
  3   2   4  2   
  4   2   5  1   
  5   3   6  2   
  6   3  21  1   
  7   4   6  1   
  8   5  22  1   
  9   5  23  1   
 10   5  24  1   
 11   6   7  1   
 12   7   8  ar  
 13   7   9  ar  
 14   8  10  ar  
 15   8  25  1   
 16   9  11  ar  
 17   9  26  1   
 18  10  12  ar  
 19  10  27  1   
 20  11  12  ar  
 21  11  28  1   
 22  12  13  1   
 23  13  14  2   
 24  13  15  am  
 25  15  16  1   
 26  15  17  1   
 27  16  18  1   
 28  16  29  1   
 29  16  30  1   
 30  17  19  1   
 31  17  31  1   
 32  17  32  1   
 33  18  20  1   
 34  18  33  1   
 35  18  34  1   
 36  19  20  1   
 37  19  35  1   
 38  19  36  1   
 39  20  37  1   
 40  20  38  1   
@<TRIPOS>SUBSTRUCTURE
  1 ****  11 GROUP 4 **** **** 0

# MOE 2024.06 (io_trps.svl 2023.06)
