@<TRIPOS>MOLECULE
NONAME
40 41 1 0 0 
SMALL
USER_CHARGES


@<TRIPOS>ATOM
  1 O        3.4810    -0.9360     1.3540 O.co2 1 <1>  -0.9000 
  2 C        3.6280    -2.0950     1.7490 C.2   1 <1>   0.9060 
  3 O        4.6780    -2.4510     2.2980 O.co2 1 <1>  -0.9000 
  4 C        2.5430    -3.1390     1.5130 C.3   1 <1>  -0.1860 
  5 C        3.1200    -4.5350     1.1640 C.3   1 <1>  -0.0190 
  6 C        1.5400    -2.6940     0.4340 C.3   1 <1>  -0.0220 
  7 C        3.9970    -4.5240    -0.0970 C.2   1 <1>   0.5690 
  8 C        1.9770    -5.5690     1.1120 C.3   1 <1>  -0.0220 
  9 C        0.5340    -3.7860     0.0720 C.2   1 <1>  -0.2760 
 10 O        3.6630    -5.0900    -1.1140 O.2   1 <1>  -0.5700 
 11 N        5.1770    -3.8680    -0.0320 N.am  1 <1>  -0.7300 
 12 C        0.7220    -5.0760     0.3910 C.2   1 <1>  -0.2760 
 13 C       -0.6470    -3.1980    -0.6900 C.3   1 <1>  -0.1020 
 14 C        5.9220    -3.4130    -1.2080 C.3   1 <1>   0.2840 
 15 C       -0.2310    -6.2310     0.1050 C.3   1 <1>  -0.1020 
 16 C        7.1430    -2.6250    -0.7670 C.ar  1 <1>  -0.1440 
 17 C        8.4110    -2.9940    -1.1910 C.ar  1 <1>   0.1600 
 18 C        7.0140    -1.5250     0.0580 C.ar  1 <1>  -0.1500 
 19 N        9.5350    -2.3670    -0.8750 N.ar  1 <1>  -0.6200 
 20 C        8.1710    -0.8650     0.4070 C.ar  1 <1>  -0.1500 
 21 C        9.3850    -1.3190    -0.0800 C.ar  1 <1>   0.1600 
 22 H        2.0100    -3.2230     2.4400 H     1 <1>   0.0800 
 23 H        3.7680    -4.8330     1.9680 H     1 <1>   0.0800 
 24 H        2.0730    -2.4010    -0.4550 H     1 <1>   0.0800 
 25 H        1.0230    -1.8240     0.8010 H     1 <1>   0.0800 
 26 H        1.7020    -5.8240     2.1190 H     1 <1>   0.0800 
 27 H        2.3440    -6.4650     0.6410 H     1 <1>   0.0800 
 28 H        5.3420    -3.3060     0.8300 H     1 <1>   0.3700 
 29 H       -1.1980    -2.5330    -0.0500 H     1 <1>   0.0800 
 30 H       -1.3190    -3.9460    -1.0590 H     1 <1>   0.0800 
 31 H       -0.2870    -2.6400    -1.5360 H     1 <1>   0.0800 
 32 H        5.2820    -2.7820    -1.8010 H     1 <1>   0.0800 
 33 H        6.2030    -4.2670    -1.7980 H     1 <1>   0.0800 
 34 H       -0.4380    -6.7660     1.0140 H     1 <1>   0.0800 
 35 H        0.2250    -6.9080    -0.5970 H     1 <1>   0.0800 
 36 H       -1.1670    -5.9070    -0.3010 H     1 <1>   0.0800 
 37 H        8.5090    -3.8550    -1.8290 H     1 <1>   0.1500 
 38 H        6.0520    -1.1960     0.4270 H     1 <1>   0.1500 
 39 H        8.1220    -0.0090     1.0550 H     1 <1>   0.1500 
 40 H       10.2790    -0.7910     0.2030 H     1 <1>   0.1500 
@<TRIPOS>BOND
  1   1   2  ar  
  2   2   3  ar  
  3   2   4  1   
  4   4   5  1   
  5   4   6  1   
  6   4  22  1   
  7   5   7  1   
  8   5   8  1   
  9   5  23  1   
 10   6   9  1   
 11   6  24  1   
 12   6  25  1   
 13   7  10  2   
 14   7  11  am  
 15   8  12  1   
 16   8  26  1   
 17   8  27  1   
 18   9  12  2   
 19   9  13  1   
 20  11  14  1   
 21  11  28  1   
 22  12  15  1   
 23  13  29  1   
 24  13  30  1   
 25  13  31  1   
 26  14  16  1   
 27  14  32  1   
 28  14  33  1   
 29  15  34  1   
 30  15  35  1   
 31  15  36  1   
 32  16  17  ar  
 33  16  18  ar  
 34  17  19  ar  
 35  17  37  1   
 36  18  20  ar  
 37  18  38  1   
 38  19  21  ar  
 39  20  21  ar  
 40  20  39  1   
 41  21  40  1   
@<TRIPOS>SUBSTRUCTURE
  1 ****  11 GROUP 4 **** **** 0

# MOE 2024.06 (io_trps.svl 2023.06)
