@<TRIPOS>MOLECULE
NONAME
52 55 1 0 0 
SMALL
USER_CHARGES


@<TRIPOS>ATOM
  1 O        0.4740    -0.7640    -0.5150 O.2   1 <1>  -0.5700 
  2 C        1.4710    -0.8470     0.1630 C.2   1 <1>   0.4950 
  3 C        2.6150    -0.0030     0.0790 C.2   1 <1>  -0.1240 
  4 C        1.5400    -2.0230     1.1140 C.3   1 <1>  -0.0990 
  5 C        3.8610    -0.4330     0.4630 C.2   1 <1>  -0.0380 
  6 C        2.4170     1.4100    -0.4960 C.3   1 <1>   0.5020 
  7 C        2.8660    -2.7600     0.9190 C.3   1 <1>  -0.1600 
  8 N        5.0760     0.2270     0.3330 N.pl3 1 <1>  -0.6000 
  9 C        4.0480    -1.8030     1.1190 C.3   1 <1>  -0.0220 
 10 N        3.2400     2.3770     0.2720 N.am  1 <1>  -0.4770 
 11 C        1.0410     2.0610    -0.7450 C.ar  1 <1>  -0.1430 
 12 C        5.4090     1.4700    -0.2460 C.ar  1 <1>   0.1000 
 13 C        4.5090     2.5420    -0.2860 C.ar  1 <1>   0.1170 
 14 C        3.0030     2.6000     1.6100 C.2   1 <1>   0.5690 
 15 C       -0.0090     2.0290     0.1680 C.ar  1 <1>  -0.1500 
 16 C        0.8470     2.7480    -1.9380 C.ar  1 <1>  -0.1500 
 17 C        6.6760     1.6440    -0.7840 C.ar  1 <1>  -0.1500 
 18 C        4.8780     3.7400    -0.8790 C.ar  1 <1>  -0.1500 
 19 O        2.1730     1.9960     2.2490 O.2   1 <1>  -0.5700 
 20 C        3.8190     3.6410     2.3680 C.3   1 <1>  -0.0990 
 21 C       -1.2120     2.6580    -0.1000 C.ar  1 <1>  -0.1500 
 22 C       -0.3530     3.3790    -2.2110 C.ar  1 <1>  -0.1500 
 23 C        7.0440     2.8460    -1.3640 C.ar  1 <1>  -0.1500 
 24 C        6.1430     3.8950    -1.4160 C.ar  1 <1>  -0.1500 
 25 C        3.2500     5.0590     2.2050 C.3   1 <1>  -0.2400 
 26 C       -1.3920     3.3410    -1.2980 C.ar  1 <1>   0.0830 
 27 O       -2.5360     3.9850    -1.6390 O.3   1 <1>  -0.3630 
 28 C       -3.6700     3.9430    -0.8020 C.3   1 <1>   0.0400 
 29 H        0.7180    -2.6910     0.9250 H     1 <1>   0.0800 
 30 H        1.4550    -1.6570     2.1220 H     1 <1>   0.0800 
 31 H        2.8530     1.3350    -1.4760 H     1 <1>   0.0800 
 32 H        2.8990    -3.1540    -0.0830 H     1 <1>   0.0800 
 33 H        2.9390    -3.5850     1.6060 H     1 <1>   0.0800 
 34 H        5.8960    -0.2870     0.6680 H     1 <1>   0.4000 
 35 H        4.1960    -1.6460     2.1740 H     1 <1>   0.0800 
 36 H        4.9320    -2.2780     0.7310 H     1 <1>   0.0800 
 37 H        0.0990     1.5010     1.0980 H     1 <1>   0.1500 
 38 H        1.6360     2.8020    -2.6680 H     1 <1>   0.1500 
 39 H        7.3820     0.8340    -0.7570 H     1 <1>   0.1500 
 40 H        4.1710     4.5490    -0.9190 H     1 <1>   0.1500 
 41 H        4.8450     3.6180     2.0520 H     1 <1>   0.0800 
 42 H        3.8060     3.3810     3.4110 H     1 <1>   0.0800 
 43 H       -1.9910     2.6010     0.6350 H     1 <1>   0.1500 
 44 H       -0.4940     3.9060    -3.1370 H     1 <1>   0.1500 
 45 H        8.0310     2.9640    -1.7800 H     1 <1>   0.1500 
 46 H        6.4260     4.8290    -1.8720 H     1 <1>   0.1500 
 47 H        3.2550     5.3510     1.1700 H     1 <1>   0.0800 
 48 H        3.8380     5.7620     2.7670 H     1 <1>   0.0800 
 49 H        2.2360     5.0900     2.5630 H     1 <1>   0.0800 
 50 H       -4.4590     4.4930    -1.2810 H     1 <1>   0.0800 
 51 H       -3.4240     4.4000     0.1400 H     1 <1>   0.0800 
 52 H       -3.9660     2.9180    -0.6690 H     1 <1>   0.0800 
@<TRIPOS>BOND
  1   1   2  2   
  2   2   3  1   
  3   2   4  1   
  4   3   5  2   
  5   3   6  1   
  6   4   7  1   
  7   4  29  1   
  8   4  30  1   
  9   5   8  1   
 10   5   9  1   
 11   6  10  1   
 12   6  11  1   
 13   6  31  1   
 14   7   9  1   
 15   7  32  1   
 16   7  33  1   
 17   8  12  1   
 18   8  34  1   
 19   9  35  1   
 20   9  36  1   
 21  10  13  1   
 22  10  14  am  
 23  11  15  ar  
 24  11  16  ar  
 25  12  13  ar  
 26  12  17  ar  
 27  13  18  ar  
 28  14  19  2   
 29  14  20  1   
 30  15  21  ar  
 31  15  37  1   
 32  16  22  ar  
 33  16  38  1   
 34  17  23  ar  
 35  17  39  1   
 36  18  24  ar  
 37  18  40  1   
 38  20  25  1   
 39  20  41  1   
 40  20  42  1   
 41  21  26  ar  
 42  21  43  1   
 43  22  26  ar  
 44  22  44  1   
 45  23  24  ar  
 46  23  45  1   
 47  24  46  1   
 48  25  47  1   
 49  25  48  1   
 50  25  49  1   
 51  26  27  1   
 52  27  28  1   
 53  28  50  1   
 54  28  51  1   
 55  28  52  1   
@<TRIPOS>SUBSTRUCTURE
  1 ****   6 GROUP 4 **** **** 0

# MOE 2024.06 (io_trps.svl 2023.06)
