@<TRIPOS>MOLECULE
NONAME
61 65 1 0 0 
SMALL
USER_CHARGES


@<TRIPOS>ATOM
  1 N       -0.4690    -0.6120     0.8260 N.4   1 <1>  -0.9590 
  2 C       -1.5070    -1.7090     0.7940 C.3   1 <1>   0.4230 
  3 C       -0.5140     0.3850    -0.3070 C.3   1 <1>   0.3430 
  4 C        0.9050    -1.2250     0.9490 C.3   1 <1>   0.3430 
  5 C       -1.8190    -2.3530    -0.5820 C.3   1 <1>  -0.0800 
  6 C       -2.8220    -1.3060     1.4920 C.3   1 <1>  -0.0800 
  7 C        0.6180     1.4480    -0.2440 C.3   1 <1>   0.3430 
  8 C        2.0550    -0.1770     1.0050 C.3   1 <1>   0.3430 
  9 C       -2.7620    -1.5030    -1.4750 C.3   1 <1>  -0.1600 
 10 C       -2.5650    -3.6710    -0.2720 C.3   1 <1>  -0.1600 
 11 C       -3.7270    -0.4310     0.5970 C.3   1 <1>  -0.1600 
 12 C       -3.5740    -2.6190     1.8020 C.3   1 <1>  -0.1600 
 13 N        2.0100     0.8580    -0.1040 N.4   1 <1>  -0.9590 
 14 C       -4.0570    -1.1710    -0.7150 C.3   1 <1>  -0.0800 
 15 C       -3.8760    -3.3760     0.4920 C.3   1 <1>  -0.0800 
 16 C        3.0630     1.9210     0.0670 C.3   1 <1>   0.4230 
 17 C       -4.7790    -2.4890    -0.3830 C.3   1 <1>  -0.1600 
 18 C        3.0130     2.9160    -1.1090 C.3   1 <1>  -0.1600 
 19 C        4.4610     1.2780     0.1520 C.3   1 <1>  -0.1600 
 20 C        4.1320     3.9650    -1.0250 C.3   1 <1>  -0.1600 
 21 C        5.5760     2.3310     0.2330 C.3   1 <1>  -0.1600 
 22 C        5.5150     3.3080    -0.9480 C.3   1 <1>  -0.0800 
 23 C        6.6060     4.3750    -0.8130 C.3   1 <1>  -0.2400 
 24 H       -0.6760    -0.1050     1.6990 H     1 <1>   0.4500 
 25 H       -1.1100    -2.5080     1.4000 H     1 <1>   0.0800 
 26 H       -1.4640     0.8920    -0.3130 H     1 <1>   0.0800 
 27 H       -0.4230    -0.1400    -1.2430 H     1 <1>   0.0800 
 28 H        1.0800    -1.8780     0.1090 H     1 <1>   0.0800 
 29 H        0.9500    -1.8350     1.8380 H     1 <1>   0.0800 
 30 H       -0.9120    -2.5900    -1.1080 H     1 <1>   0.0800 
 31 H       -2.6200    -0.8060     2.4230 H     1 <1>   0.0800 
 32 H        0.4240     2.1060     0.5870 H     1 <1>   0.0800 
 33 H        0.5660     2.0440    -1.1410 H     1 <1>   0.0800 
 34 H        2.9930    -0.7070     0.9680 H     1 <1>   0.0800 
 35 H        2.0120     0.3240     1.9590 H     1 <1>   0.0800 
 36 H       -2.3100    -0.5990    -1.8260 H     1 <1>   0.0800 
 37 H       -3.0140    -2.0670    -2.3580 H     1 <1>   0.0800 
 38 H       -1.9450    -4.3270     0.3160 H     1 <1>   0.0800 
 39 H       -2.7940    -4.1910    -1.1880 H     1 <1>   0.0800 
 40 H       -3.2740     0.5180     0.3870 H     1 <1>   0.0800 
 41 H       -4.6470    -0.2230     1.1180 H     1 <1>   0.0800 
 42 H       -4.4980    -2.4020     2.3130 H     1 <1>   0.0800 
 43 H       -2.9900    -3.2440     2.4550 H     1 <1>   0.0800 
 44 H        2.2570     0.3950    -0.9920 H     1 <1>   0.4500 
 45 H       -4.6990    -0.5610    -1.3300 H     1 <1>   0.0800 
 46 H       -4.3860    -4.2990     0.7130 H     1 <1>   0.0800 
 47 H        2.8860     2.4680     0.9810 H     1 <1>   0.0800 
 48 H       -5.0310    -3.0090    -1.2920 H     1 <1>   0.0800 
 49 H       -5.7010    -2.2830     0.1320 H     1 <1>   0.0800 
 50 H        2.0850     3.4570    -1.1180 H     1 <1>   0.0800 
 51 H        3.1170     2.3880    -2.0420 H     1 <1>   0.0800 
 52 H        4.6380     0.6670    -0.7170 H     1 <1>   0.0800 
 53 H        4.5520     0.6660     1.0300 H     1 <1>   0.0800 
 54 H        3.9810     4.5870    -0.1580 H     1 <1>   0.0800 
 55 H        4.0900     4.6030    -1.8920 H     1 <1>   0.0800 
 56 H        6.5340     1.8380     0.2370 H     1 <1>   0.0800 
 57 H        5.4910     2.8790     1.1570 H     1 <1>   0.0800 
 58 H        5.6950     2.7630    -1.8610 H     1 <1>   0.0800 
 59 H        6.4740     4.9510     0.0860 H     1 <1>   0.0800 
 60 H        6.5790     5.0460    -1.6540 H     1 <1>   0.0800 
 61 H        7.5790     3.9160    -0.7840 H     1 <1>   0.0800 
@<TRIPOS>BOND
  1   1   2  1   
  2   1   3  1   
  3   1   4  1   
  4   1  24  1   
  5   2   5  1   
  6   2   6  1   
  7   2  25  1   
  8   3   7  1   
  9   3  26  1   
 10   3  27  1   
 11   4   8  1   
 12   4  28  1   
 13   4  29  1   
 14   5   9  1   
 15   5  10  1   
 16   5  30  1   
 17   6  11  1   
 18   6  12  1   
 19   6  31  1   
 20   7  13  1   
 21   7  32  1   
 22   7  33  1   
 23   8  13  1   
 24   8  34  1   
 25   8  35  1   
 26   9  14  1   
 27   9  36  1   
 28   9  37  1   
 29  10  15  1   
 30  10  38  1   
 31  10  39  1   
 32  11  14  1   
 33  11  40  1   
 34  11  41  1   
 35  12  15  1   
 36  12  42  1   
 37  12  43  1   
 38  13  16  1   
 39  13  44  1   
 40  14  17  1   
 41  14  45  1   
 42  15  17  1   
 43  15  46  1   
 44  16  18  1   
 45  16  19  1   
 46  16  47  1   
 47  17  48  1   
 48  17  49  1   
 49  18  20  1   
 50  18  50  1   
 51  18  51  1   
 52  19  21  1   
 53  19  52  1   
 54  19  53  1   
 55  20  22  1   
 56  20  54  1   
 57  20  55  1   
 58  21  22  1   
 59  21  56  1   
 60  21  57  1   
 61  22  23  1   
 62  22  58  1   
 63  23  59  1   
 64  23  60  1   
 65  23  61  1   
@<TRIPOS>SUBSTRUCTURE
  1 ****   3 GROUP 4 **** **** 0

# MOE 2024.06 (io_trps.svl 2023.06)
