@<TRIPOS>MOLECULE
NONAME
23 23 1 0 0 
SMALL
USER_CHARGES


@<TRIPOS>ATOM
  1 S        0.1880    -0.3810     0.7210 S.3   1 <1>  -0.0800 
  2 C        1.4410     0.6930     0.1260 C.2   1 <1>   0.1040 
  3 C       -1.0710     0.8000     0.4120 C.2   1 <1>  -0.1400 
  4 N        2.7290     0.1660     0.1910 N.am  1 <1>  -0.4940 
  5 C        0.8910     1.8630    -0.3060 C.2   1 <1>   0.0190 
  6 C       -0.5400     1.9180    -0.1220 C.2   1 <1>  -0.1810 
  7 C       -2.4760     0.3700     0.7890 C.3   1 <1>  -0.0600 
  8 C        3.9260     0.8060     0.3230 C.2   1 <1>   0.5690 
  9 C        1.5920     2.9440    -0.9370 C.1   1 <1>   0.5380 
 10 C       -1.3280     3.1620    -0.5190 C.3   1 <1>  -0.0590 
 11 O        4.0280     1.9930     0.4820 O.2   1 <1>  -0.5700 
 12 C        5.1770    -0.0350     0.3000 C.3   1 <1>  -0.1790 
 13 N        2.0550     3.8260    -1.4960 N.1   1 <1>  -0.5570 
 14 H        2.7710    -0.8490     0.2590 H     1 <1>   0.3700 
 15 H       -2.7460    -0.5140     0.2400 H     1 <1>   0.0800 
 16 H       -3.1920     1.1400     0.5710 H     1 <1>   0.0800 
 17 H       -2.5190     0.1510     1.8410 H     1 <1>   0.0800 
 18 H       -2.3730     3.0500    -0.3020 H     1 <1>   0.0800 
 19 H       -1.2210     3.3480    -1.5730 H     1 <1>   0.0800 
 20 H       -0.9630     4.0180     0.0220 H     1 <1>   0.0800 
 21 H        5.2030    -0.6320    -0.5930 H     1 <1>   0.0800 
 22 H        5.2040    -0.6720     1.1640 H     1 <1>   0.0800 
 23 H        6.0410     0.6040     0.3140 H     1 <1>   0.0800 
@<TRIPOS>BOND
  1   1   2  1   
  2   1   3  1   
  3   2   4  1   
  4   2   5  2   
  5   3   6  2   
  6   3   7  1   
  7   4   8  am  
  8   4  14  1   
  9   5   6  1   
 10   5   9  1   
 11   6  10  1   
 12   7  15  1   
 13   7  16  1   
 14   7  17  1   
 15   8  11  2   
 16   8  12  1   
 17   9  13  3   
 18  10  18  1   
 19  10  19  1   
 20  10  20  1   
 21  12  21  1   
 22  12  22  1   
 23  12  23  1   
@<TRIPOS>SUBSTRUCTURE
  1 ****   5 GROUP 4 **** **** 0

# MOE 2024.06 (io_trps.svl 2023.06)
