@<TRIPOS>MOLECULE
NONAME
46 47 1 0 0 
SMALL
USER_CHARGES


@<TRIPOS>ATOM
  1 O       -5.5750    -2.5380     0.1290 O.2   1 <1>  -0.5700 
  2 C       -6.6320    -2.0240    -0.1640 C.2   1 <1>   0.5690 
  3 N       -6.8250    -0.8150    -0.7550 N.am  1 <1>  -0.6600 
  4 C       -7.9390    -2.7100     0.1200 C.3   1 <1>  -0.0990 
  5 C       -8.2600    -0.5190    -0.9430 C.3   1 <1>   0.1400 
  6 C       -5.8380     0.2430    -1.1160 C.3   1 <1>   0.3400 
  7 C       -8.9770    -1.8350    -0.6010 C.3   1 <1>   0.0640 
  8 C       -4.5180    -0.3510    -1.4680 C.1   1 <1>  -0.2000 
  9 C      -10.2500    -1.6240     0.2140 C.ar  1 <1>  -0.1430 
 10 C       -3.5450    -1.0170    -1.6070 C.1   1 <1>  -0.2000 
 11 C      -11.4690    -2.0660    -0.2810 C.ar  1 <1>  -0.1500 
 12 C      -10.2150    -0.9910     1.4500 C.ar  1 <1>  -0.1500 
 13 C       -2.5230    -2.0870    -1.5630 C.3   1 <1>   0.5430 
 14 C      -12.6320    -1.8780     0.4450 C.ar  1 <1>  -0.1500 
 15 C      -11.3780    -0.8030     2.1760 C.ar  1 <1>  -0.1500 
 16 N       -2.7510    -2.8040    -0.2860 N.4   1 <1>  -0.9590 
 17 C      -12.5870    -1.2460     1.6740 C.ar  1 <1>  -0.1500 
 18 C       -2.0300    -2.1590     0.8400 C.3   1 <1>   0.3430 
 19 C       -2.4980    -4.2580    -0.4200 C.3   1 <1>   0.3430 
 20 C       -3.0440    -1.6560     1.8580 C.3   1 <1>  -0.2400 
 21 C       -3.0980    -5.0080     0.7630 C.3   1 <1>  -0.2400 
 22 H       -8.0980    -2.7320     1.1820 H     1 <1>   0.0800 
 23 H       -7.9360    -3.7120    -0.2650 H     1 <1>   0.0800 
 24 H       -8.4640    -0.2290    -1.9600 H     1 <1>   0.0800 
 25 H       -8.5560     0.2730    -0.2770 H     1 <1>   0.0800 
 26 H       -5.7230     0.9160    -0.2850 H     1 <1>   0.0800 
 27 H       -6.2040     0.8020    -1.9600 H     1 <1>   0.0800 
 28 H       -9.2240    -2.3130    -1.5330 H     1 <1>   0.0800 
 29 H      -11.5240    -2.5610    -1.2350 H     1 <1>   0.1500 
 30 H       -9.2830    -0.6410     1.8590 H     1 <1>   0.1500 
 31 H       -1.5270    -1.6770    -1.6080 H     1 <1>   0.0800 
 32 H       -2.6740    -2.7490    -2.3990 H     1 <1>   0.0800 
 33 H      -13.5730    -2.2250     0.0540 H     1 <1>   0.1500 
 34 H      -11.3420    -0.3120     3.1330 H     1 <1>   0.1500 
 35 H       -3.7740    -2.6800    -0.1040 H     1 <1>   0.4500 
 36 H      -13.4920    -1.1000     2.2390 H     1 <1>   0.1500 
 37 H       -1.4440    -1.3270     0.4840 H     1 <1>   0.0800 
 38 H       -1.3650    -2.8650     1.3100 H     1 <1>   0.0800 
 39 H       -1.4380    -4.4480    -0.4800 H     1 <1>   0.0800 
 40 H       -2.9600    -4.6200    -1.3250 H     1 <1>   0.0800 
 41 H       -3.6850    -0.9130     1.4200 H     1 <1>   0.0800 
 42 H       -2.5260    -1.2050     2.6860 H     1 <1>   0.0800 
 43 H       -3.6430    -2.4650     2.2370 H     1 <1>   0.0800 
 44 H       -2.6050    -4.7520     1.6830 H     1 <1>   0.0800 
 45 H       -2.9790    -6.0660     0.6090 H     1 <1>   0.0800 
 46 H       -4.1510    -4.8010     0.8460 H     1 <1>   0.0800 
@<TRIPOS>BOND
  1   1   2  2   
  2   2   3  am  
  3   2   4  1   
  4   3   5  1   
  5   3   6  1   
  6   4   7  1   
  7   4  22  1   
  8   4  23  1   
  9   5   7  1   
 10   5  24  1   
 11   5  25  1   
 12   6   8  1   
 13   6  26  1   
 14   6  27  1   
 15   7   9  1   
 16   7  28  1   
 17   8  10  3   
 18   9  11  ar  
 19   9  12  ar  
 20  10  13  1   
 21  11  14  ar  
 22  11  29  1   
 23  12  15  ar  
 24  12  30  1   
 25  13  16  1   
 26  13  31  1   
 27  13  32  1   
 28  14  17  ar  
 29  14  33  1   
 30  15  17  ar  
 31  15  34  1   
 32  16  18  1   
 33  16  19  1   
 34  16  35  1   
 35  17  36  1   
 36  18  20  1   
 37  18  37  1   
 38  18  38  1   
 39  19  21  1   
 40  19  39  1   
 41  19  40  1   
 42  20  41  1   
 43  20  42  1   
 44  20  43  1   
 45  21  44  1   
 46  21  45  1   
 47  21  46  1   
@<TRIPOS>SUBSTRUCTURE
  1 ****   2 GROUP 4 **** **** 0

# MOE 2024.06 (io_trps.svl 2023.06)
