@<TRIPOS>MOLECULE
NONAME
42 45 1 0 0 
SMALL
USER_CHARGES


@<TRIPOS>ATOM
  1 O       -0.1490    -0.0300    -0.0540 O.2   1 <1>  -0.5700 
  2 C       -0.3510    -1.2300     0.0340 C.2   1 <1>   0.5650 
  3 N        0.7460    -2.1360     0.1650 N.pl3 1 <1>   0.5610 
  4 C       -1.7020    -1.7310     0.0060 C.2   1 <1>  -0.1360 
  5 N        0.6360    -3.5090     0.2870 N.2   1 <1>  -0.7070 
  6 C        2.0730    -1.8320     0.1820 C.2   1 <1>  -0.3320 
  7 C       -2.8390    -1.0030    -0.1110 C.2   1 <1>  -0.1780 
  8 C        1.8460    -3.9690     0.3750 C.2   1 <1>   0.1080 
  9 C        2.7840    -2.9480     0.3150 C.2   1 <1>  -0.0860 
 10 C        2.9430    -0.6020     0.0420 C.3   1 <1>   0.1150 
 11 C       -4.2070    -1.4590    -0.1440 C.ar  1 <1>   0.0280 
 12 C        2.1690    -5.4360     0.5330 C.3   1 <1>  -0.0590 
 13 C        4.2370    -2.5760     0.3950 C.3   1 <1>  -0.0140 
 14 C        4.2120    -1.3040    -0.4840 C.3   1 <1>  -0.1950 
 15 C       -4.5630    -2.8060    -0.0510 C.ar  1 <1>  -0.1500 
 16 C       -5.2410    -0.5330    -0.2730 C.ar  1 <1>  -0.1500 
 17 C        5.4420    -2.1320    -0.3240 C.3   1 <1>  -0.1900 
 18 C       -5.8860    -3.2060    -0.0860 C.ar  1 <1>  -0.1500 
 19 C       -6.5660    -0.9260    -0.3080 C.ar  1 <1>  -0.1500 
 20 C        5.9310    -2.9880    -1.4980 C.3   1 <1>  -0.1450 
 21 C        6.6090    -1.5310     0.4680 C.3   1 <1>  -0.1450 
 22 C       -6.8930    -2.2670    -0.2150 C.ar  1 <1>  -0.1500 
 23 H       -1.7670    -2.7980     0.0900 H     1 <1>   0.1500 
 24 H       -2.7400     0.0660    -0.1930 H     1 <1>   0.1500 
 25 H        2.5490     0.0980    -0.6750 H     1 <1>   0.0800 
 26 H        3.1060    -0.1210     0.9910 H     1 <1>   0.0800 
 27 H        3.2330    -5.5840     0.5240 H     1 <1>   0.0800 
 28 H        1.7290    -5.9900    -0.2750 H     1 <1>   0.0800 
 29 H        1.7700    -5.7940     1.4630 H     1 <1>   0.0800 
 30 H        4.4410    -2.5380     1.4520 H     1 <1>   0.1000 
 31 H        4.0130    -1.3280    -1.5420 H     1 <1>   0.1000 
 32 H       -3.8040    -3.5590     0.0500 H     1 <1>   0.1500 
 33 H       -5.0060     0.5140    -0.3470 H     1 <1>   0.1500 
 34 H       -6.1340    -4.2510    -0.0120 H     1 <1>   0.1500 
 35 H       -7.3450    -0.1910    -0.4090 H     1 <1>   0.1500 
 36 H        6.4980    -2.3870    -2.1860 H     1 <1>   0.0800 
 37 H        5.0980    -3.4200    -2.0260 H     1 <1>   0.0800 
 38 H        6.5540    -3.7880    -1.1400 H     1 <1>   0.0800 
 39 H        6.2470    -0.9180     1.2740 H     1 <1>   0.0800 
 40 H        7.2150    -0.9190    -0.1750 H     1 <1>   0.0800 
 41 H        7.2210    -2.3130     0.8800 H     1 <1>   0.0800 
 42 H       -7.9230    -2.5770    -0.2420 H     1 <1>   0.1500 
@<TRIPOS>BOND
  1   1   2  2   
  2   2   3  1   
  3   2   4  1   
  4   3   5  1   
  5   3   6  1   
  6   4   7  2   
  7   4  23  1   
  8   5   8  2   
  9   6   9  2   
 10   6  10  1   
 11   7  11  1   
 12   7  24  1   
 13   8   9  1   
 14   8  12  1   
 15   9  13  1   
 16  10  14  1   
 17  10  25  1   
 18  10  26  1   
 19  11  15  ar  
 20  11  16  ar  
 21  12  27  1   
 22  12  28  1   
 23  12  29  1   
 24  13  14  1   
 25  13  17  1   
 26  13  30  1   
 27  14  17  1   
 28  14  31  1   
 29  15  18  ar  
 30  15  32  1   
 31  16  19  ar  
 32  16  33  1   
 33  17  20  1   
 34  17  21  1   
 35  18  22  ar  
 36  18  34  1   
 37  19  22  ar  
 38  19  35  1   
 39  20  36  1   
 40  20  37  1   
 41  20  38  1   
 42  21  39  1   
 43  21  40  1   
 44  21  41  1   
 45  22  42  1   
@<TRIPOS>SUBSTRUCTURE
  1 ****   3 GROUP 4 **** **** 0

# MOE 2024.06 (io_trps.svl 2023.06)
