@<TRIPOS>MOLECULE
NONAME
29 29 1 0 0 
SMALL
USER_CHARGES


@<TRIPOS>ATOM
  1 O        0.6900    -2.1310     1.2230 O.co2 1 <1>  -0.9000 
  2 C       -0.0360    -1.2370     0.7630 C.2   1 <1>   0.9060 
  3 O        0.2980    -0.0460     0.8270 O.co2 1 <1>  -0.9000 
  4 C       -1.4350    -1.5950     0.2570 C.3   1 <1>  -0.1860 
  5 C       -2.2590    -2.0590     1.4820 C.3   1 <1>  -0.0160 
  6 C       -1.4430    -2.6460    -0.9030 C.3   1 <1>  -0.2660 
  7 C       -3.7490    -2.3490     1.2740 C.ar  1 <1>  -0.1430 
  8 C       -1.6080    -2.0940    -2.3110 C.2   1 <1>   0.9060 
  9 C       -4.4500    -1.8790     0.1740 C.ar  1 <1>  -0.1500 
 10 C       -4.4250    -3.1060     2.2200 C.ar  1 <1>  -0.1500 
 11 O       -0.8310    -2.4670    -3.1970 O.co2 1 <1>  -0.9000 
 12 O       -2.5810    -1.3720    -2.5760 O.co2 1 <1>  -0.9000 
 13 C       -5.7950    -2.1840    -0.0060 C.ar  1 <1>   0.0830 
 14 C       -5.7720    -3.3930     2.0660 C.ar  1 <1>  -0.1500 
 15 O       -6.5010    -1.7960    -1.0990 O.3   1 <1>  -0.3630 
 16 C       -6.4550    -2.9330     0.9540 C.ar  1 <1>  -0.1500 
 17 C       -5.8010    -1.4050    -2.2680 C.3   1 <1>   0.0400 
 18 H       -1.8600    -0.6780    -0.1070 H     1 <1>   0.0800 
 19 H       -2.1750    -1.3010     2.2420 H     1 <1>   0.0800 
 20 H       -1.7890    -2.9460     1.8710 H     1 <1>   0.0800 
 21 H       -2.2450    -3.3420    -0.7670 H     1 <1>   0.0800 
 22 H       -0.5300    -3.2100    -0.8760 H     1 <1>   0.0800 
 23 H       -3.9370    -1.2780    -0.5500 H     1 <1>   0.1500 
 24 H       -3.8950    -3.4720     3.0800 H     1 <1>   0.1500 
 25 H       -6.2840    -3.9770     2.8090 H     1 <1>   0.1500 
 26 H       -7.4960    -3.1560     0.8160 H     1 <1>   0.1500 
 27 H       -6.5080    -1.2920    -3.0680 H     1 <1>   0.0800 
 28 H       -5.0800    -2.1650    -2.5190 H     1 <1>   0.0800 
 29 H       -5.2990    -0.4720    -2.0870 H     1 <1>   0.0800 
@<TRIPOS>BOND
  1   1   2  ar  
  2   2   3  ar  
  3   2   4  1   
  4   4   5  1   
  5   4   6  1   
  6   4  18  1   
  7   5   7  1   
  8   5  19  1   
  9   5  20  1   
 10   6   8  1   
 11   6  21  1   
 12   6  22  1   
 13   7   9  ar  
 14   7  10  ar  
 15   8  11  ar  
 16   8  12  ar  
 17   9  13  ar  
 18   9  23  1   
 19  10  14  ar  
 20  10  24  1   
 21  13  15  1   
 22  13  16  ar  
 23  14  16  ar  
 24  14  25  1   
 25  15  17  1   
 26  16  26  1   
 27  17  27  1   
 28  17  28  1   
 29  17  29  1   
@<TRIPOS>SUBSTRUCTURE
  1 ****   9 GROUP 4 **** **** 0

# MOE 2024.06 (io_trps.svl 2023.06)
