@<TRIPOS>MOLECULE
NONAME
34 35 1 0 0 
SMALL
USER_CHARGES


@<TRIPOS>ATOM
  1 S       -1.0930     1.0440     0.9860 S.o2  1 <1>   1.4470 
  2 O       -2.3210     1.7750     0.7430 O.2   1 <1>  -0.6500 
  3 O       -0.9670     0.2910     2.2180 O.2   1 <1>  -0.6500 
  4 N       -1.0210    -0.1030    -0.2670 N.am  1 <1>  -0.8490 
  5 C        0.3660     2.0980     0.7480 C.ar  1 <1>  -0.0090 
  6 C       -1.7450    -1.3380     0.0830 C.3   1 <1>   0.1960 
  7 C       -1.3270     0.4570    -1.6040 C.3   1 <1>   0.1960 
  8 C        0.5130     3.2570     1.5040 C.ar  1 <1>   0.0820 
  9 C        1.3590     1.7880    -0.1740 C.ar  1 <1>  -0.1500 
 10 C       -1.9450    -2.2830    -1.1070 C.3   1 <1>   0.0700 
 11 C       -2.7860     0.2630    -2.0420 C.3   1 <1>   0.0700 
 12 O       -0.4480     3.5380     2.4170 O.3   1 <1>  -0.3630 
 13 C        1.6180     4.0830     1.3090 C.ar  1 <1>  -0.1500 
 14 C        2.4650     2.6050    -0.4070 C.ar  1 <1>  -0.1790 
 15 S       -3.1040    -1.5140    -2.2810 S.3   1 <1>  -0.4600 
 16 C       -0.3920     4.6730     3.2500 C.3   1 <1>   0.0400 
 17 C        2.5720     3.7590     0.3660 C.ar  1 <1>  -0.1500 
 18 C        3.4530     2.2670    -1.4230 C.2   1 <1>   0.9790 
 19 O        4.4990     2.9300    -1.5370 O.co2 1 <1>  -0.9000 
 20 O        3.2530     1.3180    -2.2020 O.co2 1 <1>  -0.9000 
 21 H       -2.7110    -1.0900     0.4930 H     1 <1>   0.0800 
 22 H       -1.1900    -1.8560     0.8480 H     1 <1>   0.0800 
 23 H       -0.6890    -0.0190    -2.3290 H     1 <1>   0.0800 
 24 H       -1.0910     1.5080    -1.6260 H     1 <1>   0.0800 
 25 H        1.2940     0.8810    -0.7510 H     1 <1>   0.1500 
 26 H       -2.3840    -3.2130    -0.7980 H     1 <1>   0.0800 
 27 H       -1.0180    -2.4650    -1.6210 H     1 <1>   0.0800 
 28 H       -2.9760     0.7450    -2.9840 H     1 <1>   0.0800 
 29 H       -3.4740     0.6310    -1.3010 H     1 <1>   0.0800 
 30 H        1.7560     4.9810     1.8780 H     1 <1>   0.1500 
 31 H       -1.2610     4.6630     3.8840 H     1 <1>   0.0800 
 32 H       -0.3980     5.5560     2.6360 H     1 <1>   0.0800 
 33 H        0.4990     4.6230     3.8500 H     1 <1>   0.0800 
 34 H        3.4250     4.4000     0.2110 H     1 <1>   0.1500 
@<TRIPOS>BOND
  1   1   2  2   
  2   1   3  2   
  3   1   4  am  
  4   1   5  1   
  5   4   6  1   
  6   4   7  1   
  7   5   8  ar  
  8   5   9  ar  
  9   6  10  1   
 10   6  21  1   
 11   6  22  1   
 12   7  11  1   
 13   7  23  1   
 14   7  24  1   
 15   8  12  1   
 16   8  13  ar  
 17   9  14  ar  
 18   9  25  1   
 19  10  15  1   
 20  10  26  1   
 21  10  27  1   
 22  11  15  1   
 23  11  28  1   
 24  11  29  1   
 25  12  16  1   
 26  13  17  ar  
 27  13  30  1   
 28  14  17  ar  
 29  14  18  1   
 30  16  31  1   
 31  16  32  1   
 32  16  33  1   
 33  17  34  1   
 34  18  19  ar  
 35  18  20  ar  
@<TRIPOS>SUBSTRUCTURE
  1 ****   5 GROUP 4 **** **** 0

# MOE 2024.06 (io_trps.svl 2023.06)
