@<TRIPOS>MOLECULE
NONAME
42 43 1 0 0 
SMALL
USER_CHARGES


@<TRIPOS>ATOM
  1 O        0.3650    -0.2260     0.6680 O.2   1 <1>  -0.5700 
  2 C        0.8260    -1.3240     0.4140 C.2   1 <1>   0.5440 
  3 N       -0.0320    -2.3980     0.3380 N.am  1 <1>  -0.6600 
  4 C        2.2500    -1.4710     0.1860 C.ar  1 <1>   0.0860 
  5 C        0.2750    -3.6810    -0.3320 C.3   1 <1>   0.1400 
  6 C       -1.4870    -2.2580     0.5690 C.3   1 <1>   0.1400 
  7 C        3.0030    -2.4490     0.8380 C.ar  1 <1>  -0.1500 
  8 C        2.9230    -0.6280    -0.6990 C.ar  1 <1>  -0.1500 
  9 C       -1.0780    -4.2120    -0.7890 C.3   1 <1>  -0.1600 
 10 C       -2.0770    -3.6150     0.1980 C.3   1 <1>  -0.1600 
 11 C        4.3580    -2.5970     0.6070 C.ar  1 <1>  -0.1500 
 12 C        4.2770    -0.7680    -0.9370 C.ar  1 <1>  -0.1500 
 13 C        5.0070    -1.7530    -0.2910 C.ar  1 <1>   0.0830 
 14 O        6.3250    -1.8290    -0.5810 O.3   1 <1>  -0.3630 
 15 C        7.1670    -2.7790     0.0320 C.3   1 <1>   0.1200 
 16 C        8.5840    -2.5830    -0.5120 C.3   1 <1>  -0.1600 
 17 C        9.6210    -3.4910     0.1720 C.3   1 <1>  -0.0800 
 18 C       11.0250    -3.1460    -0.3360 C.3   1 <1>  -0.2400 
 19 C        9.3400    -4.9800    -0.0770 C.3   1 <1>  -0.2400 
 20 H        0.7160    -4.3550     0.3820 H     1 <1>   0.0800 
 21 H        0.9440    -3.5390    -1.1640 H     1 <1>   0.0800 
 22 H       -1.8730    -1.4870    -0.0770 H     1 <1>   0.0800 
 23 H       -1.6860    -2.0000     1.5950 H     1 <1>   0.0800 
 24 H        2.5090    -3.0960     1.5420 H     1 <1>   0.1500 
 25 H        2.3660     0.1460    -1.1990 H     1 <1>   0.1500 
 26 H       -1.1040    -5.2880    -0.8010 H     1 <1>   0.0800 
 27 H       -1.2810    -3.8450    -1.7800 H     1 <1>   0.0800 
 28 H       -3.0630    -3.5190    -0.2210 H     1 <1>   0.0800 
 29 H       -2.1300    -4.2250     1.0820 H     1 <1>   0.0800 
 30 H        4.8920    -3.3650     1.1320 H     1 <1>   0.1500 
 31 H        4.7810    -0.1110    -1.6240 H     1 <1>   0.1500 
 32 H        6.7940    -3.7590    -0.2060 H     1 <1>   0.0800 
 33 H        7.1420    -2.6150     1.0960 H     1 <1>   0.0800 
 34 H        8.8640    -1.5560    -0.3540 H     1 <1>   0.0800 
 35 H        8.5810    -2.7720    -1.5710 H     1 <1>   0.0800 
 36 H        9.5970    -3.3090     1.2350 H     1 <1>   0.0800 
 37 H       11.0970    -3.3160    -1.3960 H     1 <1>   0.0800 
 38 H       11.7630    -3.7520     0.1590 H     1 <1>   0.0800 
 39 H       11.2520    -2.1130    -0.1380 H     1 <1>   0.0800 
 40 H        9.3060    -5.1870    -1.1330 H     1 <1>   0.0800 
 41 H        8.4050    -5.2760     0.3640 H     1 <1>   0.0800 
 42 H       10.1150    -5.5820     0.3630 H     1 <1>   0.0800 
@<TRIPOS>BOND
  1   1   2  2   
  2   2   3  am  
  3   2   4  1   
  4   3   5  1   
  5   3   6  1   
  6   4   7  ar  
  7   4   8  ar  
  8   5   9  1   
  9   5  20  1   
 10   5  21  1   
 11   6  10  1   
 12   6  22  1   
 13   6  23  1   
 14   7  11  ar  
 15   7  24  1   
 16   8  12  ar  
 17   8  25  1   
 18   9  10  1   
 19   9  26  1   
 20   9  27  1   
 21  10  28  1   
 22  10  29  1   
 23  11  13  ar  
 24  11  30  1   
 25  12  13  ar  
 26  12  31  1   
 27  13  14  1   
 28  14  15  1   
 29  15  16  1   
 30  15  32  1   
 31  15  33  1   
 32  16  17  1   
 33  16  34  1   
 34  16  35  1   
 35  17  18  1   
 36  17  19  1   
 37  17  36  1   
 38  18  37  1   
 39  18  38  1   
 40  18  39  1   
 41  19  40  1   
 42  19  41  1   
 43  19  42  1   
@<TRIPOS>SUBSTRUCTURE
  1 ****  11 GROUP 4 **** **** 0

# MOE 2024.06 (io_trps.svl 2023.06)
