@<TRIPOS>MOLECULE
NONAME
49 52 1 0 0 
SMALL
USER_CHARGES


@<TRIPOS>ATOM
  1 O       -1.1270     2.0050     1.0760 O.2   1 <1>  -0.5750 
  2 C       -2.2500     2.4020     0.8510 C.2   1 <1>   0.5900 
  3 C       -2.5760     3.4890    -0.0320 C.2   1 <1>   0.0470 
  4 C       -3.3850     1.6360     1.5300 C.3   1 <1>   0.4090 
  5 O       -1.6050     4.1590    -0.6420 O.3   1 <1>  -0.2870 
  6 C       -3.7710     4.0250    -0.4240 C.2   1 <1>  -0.1570 
  7 N       -3.7570     0.3480     0.8470 N.pl3 1 <1>  -0.7670 
  8 C       -2.1320     5.0930    -1.3970 C.2   1 <1>  -0.0180 
  9 C       -3.4780     5.0630    -1.3060 C.2   1 <1>  -0.1570 
 10 C       -2.9520    -0.6360     0.4290 C.cat 1 <1>   1.0690 
 11 C       -5.0640    -0.0590     0.5970 C.ar  1 <1>   0.3030 
 12 N       -1.6420    -0.6300     0.5100 N.pl3 1 <1>  -0.8390 
 13 N       -3.6520    -1.6440    -0.0830 N.pl3 1 <1>  -0.7670 
 14 C       -4.9950    -1.3100     0.0110 C.ar  1 <1>   0.3030 
 15 C       -6.2970     0.5440     0.8300 C.ar  1 <1>  -0.1170 
 16 C       -3.1590    -2.9110    -0.6810 C.3   1 <1>   0.3480 
 17 C       -6.1500    -1.9900    -0.3600 C.ar  1 <1>  -0.1170 
 18 C       -7.4460    -0.1290     0.4620 C.ar  1 <1>  -0.1570 
 19 C       -3.1820    -4.0420     0.3570 C.3   1 <1>   0.1020 
 20 C       -7.3730    -1.3900    -0.1310 C.ar  1 <1>  -0.1570 
 21 N       -2.8080    -5.3230    -0.2570 N.3   1 <1>  -0.8130 
 22 C       -1.3480    -5.4660    -0.4590 C.3   1 <1>   0.1020 
 23 C       -3.2900    -6.4570     0.5640 C.3   1 <1>   0.1020 
 24 C       -0.9930    -6.8490    -1.0350 C.3   1 <1>   0.1120 
 25 C       -2.8700    -7.8100    -0.0390 C.3   1 <1>   0.1120 
 26 O       -1.4830    -7.8600    -0.2060 O.3   1 <1>  -0.5650 
 27 H       -4.2460     2.2740     1.5960 H     1 <1>   0.0720 
 28 H       -3.0810     1.4120     2.5380 H     1 <1>   0.0720 
 29 H       -4.7710     3.7460    -0.1460 H     1 <1>   0.1430 
 30 H       -1.4840     5.7370    -1.9660 H     1 <1>   0.1430 
 31 H       -4.1930     5.6990    -1.8010 H     1 <1>   0.1430 
 32 H       -1.0590    -1.3930     0.1850 H     1 <1>   0.4450 
 33 H       -1.1230     0.2040     0.8190 H     1 <1>   0.4450 
 34 H       -6.3640     1.5140     1.2890 H     1 <1>   0.1430 
 35 H       -2.1600    -2.7770    -1.0540 H     1 <1>   0.0720 
 36 H       -3.7900    -3.1830    -1.5110 H     1 <1>   0.0720 
 37 H       -6.0920    -2.9620    -0.8160 H     1 <1>   0.1430 
 38 H       -8.4140     0.3160     0.6310 H     1 <1>   0.1430 
 39 H       -4.1850    -4.1220     0.7400 H     1 <1>   0.0720 
 40 H       -2.5190    -3.8220     1.1760 H     1 <1>   0.0720 
 41 H       -8.2850    -1.8950    -0.4100 H     1 <1>   0.1430 
 42 H       -0.8310    -5.3440     0.4780 H     1 <1>   0.0720 
 43 H       -0.9960    -4.7140    -1.1420 H     1 <1>   0.0720 
 44 H       -4.3630    -6.4260     0.6260 H     1 <1>   0.0720 
 45 H       -2.8920    -6.3860     1.5620 H     1 <1>   0.0720 
 46 H        0.0740    -6.9670    -1.0980 H     1 <1>   0.0720 
 47 H       -1.4170    -6.9730    -2.0170 H     1 <1>   0.0720 
 48 H       -3.3390    -7.9610    -0.9960 H     1 <1>   0.0720 
 49 H       -3.1500    -8.6150     0.6170 H     1 <1>   0.0720 
@<TRIPOS>BOND
  1   1   2  2   
  2   2   3  1   
  3   2   4  1   
  4   3   5  1   
  5   3   6  2   
  6   4   7  1   
  7   4  27  1   
  8   4  28  1   
  9   5   8  1   
 10   6   9  1   
 11   6  29  1   
 12   7  10  ar  
 13   7  11  1   
 14   8   9  2   
 15   8  30  1   
 16   9  31  1   
 17  10  12  ar  
 18  10  13  ar  
 19  11  14  ar  
 20  11  15  ar  
 21  12  32  1   
 22  12  33  1   
 23  13  14  1   
 24  13  16  1   
 25  14  17  ar  
 26  15  18  ar  
 27  15  34  1   
 28  16  19  1   
 29  16  35  1   
 30  16  36  1   
 31  17  20  ar  
 32  17  37  1   
 33  18  20  ar  
 34  18  38  1   
 35  19  21  1   
 36  19  39  1   
 37  19  40  1   
 38  20  41  1   
 39  21  22  1   
 40  21  23  1   
 41  22  24  1   
 42  22  42  1   
 43  22  43  1   
 44  23  25  1   
 45  23  44  1   
 46  23  45  1   
 47  24  26  1   
 48  24  46  1   
 49  24  47  1   
 50  25  26  1   
 51  25  48  1   
 52  25  49  1   
@<TRIPOS>SUBSTRUCTURE
  1 ****  10 GROUP 4 **** **** 0

# MOE 2024.06 (io_trps.svl 2023.06)
