@<TRIPOS>MOLECULE
Structure2313
26 27 1 0 0 
SMALL
USER_CHARGES


@<TRIPOS>ATOM
  1 F       -0.1830     0.4070     1.2800 F     1 <1>  -0.3400 
  2 C       -0.5000     1.4040     0.4630 C.3   1 <1>   1.1640 
  3 F       -1.1250     0.8570    -0.5710 F     1 <1>  -0.3400 
  4 F       -1.4050     2.1340     1.1040 F     1 <1>  -0.3400 
  5 C        0.7250     2.2270     0.0260 C.ar  1 <1>  -0.1440 
  6 C        1.9970     1.6630    -0.0070 C.ar  1 <1>  -0.1500 
  7 C        0.5830     3.5570    -0.3570 C.ar  1 <1>  -0.1500 
  8 C        3.1020     2.4000    -0.4040 C.ar  1 <1>   0.0830 
  9 C        1.6800     4.2990    -0.7610 C.ar  1 <1>  -0.1500 
 10 O        4.2970     1.7580    -0.3920 O.3   1 <1>  -0.3400 
 11 C        2.9380     3.7270    -0.7890 C.ar  1 <1>  -0.1500 
 12 C        5.5100     2.4480    -0.6180 C.3   1 <1>   0.2580 
 13 C        6.7220     1.5060    -0.4290 C.3   1 <1>   0.4720 
 14 C        6.0110     3.1800     0.6510 C.3   1 <1>   0.4720 
 15 N        7.3620     2.5510     0.4420 N.4   1 <1>  -0.8440 
 16 H        2.1410     0.6330     0.2770 H     1 <1>   0.1500 
 17 H       -0.3880     4.0260    -0.3480 H     1 <1>   0.1500 
 18 H        1.5450     5.3260    -1.0580 H     1 <1>   0.1500 
 19 H        3.7580     4.3360    -1.1200 H     1 <1>   0.1500 
 20 H        5.5140     3.0070    -1.5370 H     1 <1>   0.0000 
 21 H        7.2930     1.3330    -1.3230 H     1 <1>   0.0000 
 22 H        6.4900     0.6230     0.1390 H     1 <1>   0.0000 
 23 H        5.5570     2.8210     1.5570 H     1 <1>   0.0000 
 24 H        6.0550     4.2500     0.5580 H     1 <1>   0.0000 
 25 H        8.0150     3.1550    -0.0700 H     1 <1>   0.4500 
 26 H        7.7680     2.1660     1.3030 H     1 <1>   0.4500 
@<TRIPOS>BOND
  1   1   2  1   
  2   2   3  1   
  3   2   4  1   
  4   2   5  1   
  5   5   6  ar  
  6   5   7  ar  
  7   6   8  ar  
  8   6  16  1   
  9   7   9  ar  
 10   7  17  1   
 11   8  10  1   
 12   8  11  ar  
 13   9  11  ar  
 14   9  18  1   
 15  10  12  1   
 16  11  19  1   
 17  12  13  1   
 18  12  14  1   
 19  12  20  1   
 20  13  15  1   
 21  13  21  1   
 22  13  22  1   
 23  14  15  1   
 24  14  23  1   
 25  14  24  1   
 26  15  25  1   
 27  15  26  1   
@<TRIPOS>SUBSTRUCTURE
  1 ****   8 GROUP 4 **** **** 0

# MOE 2024.06 (io_trps.svl 2023.06)
