@<TRIPOS>MOLECULE
NONAME
55 56 1 0 0 
SMALL
USER_CHARGES


@<TRIPOS>ATOM
  1 O      -10.1490     1.2530     0.6790 O.3   1 <1>  -0.3630 
  2 C      -11.3130     0.7800     0.1820 C.ar  1 <1>   0.0830 
  3 C       -9.0440     1.2780    -0.2030 C.3   1 <1>   0.1200 
  4 C      -11.6870    -0.5720     0.2370 C.ar  1 <1>  -0.1440 
  5 C      -12.1410     1.7250    -0.4070 C.ar  1 <1>  -0.1500 
  6 C       -8.9730     2.6320    -0.9160 C.3   1 <1>  -0.1600 
  7 C      -12.8700    -0.9140    -0.4180 C.ar  1 <1>  -0.1500 
  8 C      -10.9120    -1.7180     0.9540 C.3   1 <1>   0.1430 
  9 C      -13.3200     1.3530    -1.0180 C.ar  1 <1>  -0.1500 
 10 C       -7.6780     2.8010    -1.7180 C.3   1 <1>   0.1100 
 11 C      -13.6820     0.0210    -1.0390 C.ar  1 <1>  -0.1440 
 12 C       -9.8110    -1.2680     1.9320 C.3   1 <1>  -0.2400 
 13 C      -10.2630    -2.6160    -0.1080 C.3   1 <1>  -0.2400 
 14 C      -11.8810    -2.5700     1.8010 C.3   1 <1>  -0.2400 
 15 N       -6.4750     2.5970    -0.8880 N.3   1 <1>  -0.8100 
 16 C      -14.9640    -0.4200    -1.7220 C.3   1 <1>  -0.0970 
 17 C       -6.2760     3.6750     0.1070 C.3   1 <1>   0.1100 
 18 C       -5.2780     2.4230    -1.7360 C.3   1 <1>   0.1100 
 19 C       -5.0240     3.4250     0.9710 C.3   1 <1>   0.3430 
 20 C       -4.0160     2.1570    -0.8890 C.3   1 <1>   0.3430 
 21 N       -3.7900     3.2400     0.1300 N.4   1 <1>  -0.9590 
 22 C       -2.5960     2.9480     0.9780 C.3   1 <1>   0.2630 
 23 H       -9.1350     0.4670    -0.9060 H     1 <1>   0.0800 
 24 H       -8.1650     1.1230     0.3960 H     1 <1>   0.0800 
 25 H      -11.8560     2.7600    -0.3870 H     1 <1>   0.1500 
 26 H       -9.0750     3.4270    -0.2010 H     1 <1>   0.0800 
 27 H       -9.7950     2.7040    -1.6040 H     1 <1>   0.0800 
 28 H      -13.1890    -1.9370    -0.4580 H     1 <1>   0.1500 
 29 H      -13.9450     2.0980    -1.4750 H     1 <1>   0.1500 
 30 H       -7.6550     3.7790    -2.1710 H     1 <1>   0.0800 
 31 H       -7.6860     2.0720    -2.5120 H     1 <1>   0.0800 
 32 H       -9.4350    -2.0980     2.5010 H     1 <1>   0.0800 
 33 H       -8.9760    -0.8490     1.4080 H     1 <1>   0.0800 
 34 H      -10.2020    -0.5370     2.6180 H     1 <1>   0.0800 
 35 H       -9.5770    -2.0420    -0.7050 H     1 <1>   0.0800 
 36 H      -11.0080    -3.0320    -0.7610 H     1 <1>   0.0800 
 37 H       -9.7250    -3.4240     0.3540 H     1 <1>   0.0800 
 38 H      -12.4280    -1.9340     2.4750 H     1 <1>   0.0800 
 39 H      -11.3460    -3.2990     2.3820 H     1 <1>   0.0800 
 40 H      -12.5820    -3.1100     1.1960 H     1 <1>   0.0800 
 41 H      -14.7870    -1.3080    -2.3030 H     1 <1>   0.0800 
 42 H      -15.3300     0.3470    -2.3800 H     1 <1>   0.0800 
 43 H      -15.7150    -0.6310    -0.9830 H     1 <1>   0.0800 
 44 H       -7.1260     3.7200     0.7650 H     1 <1>   0.0800 
 45 H       -6.1920     4.6270    -0.3900 H     1 <1>   0.0800 
 46 H       -5.1270     3.2970    -2.3470 H     1 <1>   0.0800 
 47 H       -5.4310     1.5830    -2.3930 H     1 <1>   0.0800 
 48 H       -5.1960     2.5410     1.5620 H     1 <1>   0.0800 
 49 H       -4.8890     4.2540     1.6460 H     1 <1>   0.0800 
 50 H       -3.1620     2.0810    -1.5410 H     1 <1>   0.0800 
 51 H       -4.1390     1.2100    -0.3900 H     1 <1>   0.0800 
 52 H       -3.6350     4.1180    -0.3840 H     1 <1>   0.4500 
 53 H       -2.7410     2.0300     1.5240 H     1 <1>   0.0800 
 54 H       -2.4320     3.7470     1.6830 H     1 <1>   0.0800 
 55 H       -1.7160     2.8470     0.3630 H     1 <1>   0.0800 
@<TRIPOS>BOND
  1   1   2  1   
  2   1   3  1   
  3   2   4  ar  
  4   2   5  ar  
  5   3   6  1   
  6   3  23  1   
  7   3  24  1   
  8   4   7  ar  
  9   4   8  1   
 10   5   9  ar  
 11   5  25  1   
 12   6  10  1   
 13   6  26  1   
 14   6  27  1   
 15   7  11  ar  
 16   7  28  1   
 17   8  12  1   
 18   8  13  1   
 19   8  14  1   
 20   9  11  ar  
 21   9  29  1   
 22  10  15  1   
 23  10  30  1   
 24  10  31  1   
 25  11  16  1   
 26  12  32  1   
 27  12  33  1   
 28  12  34  1   
 29  13  35  1   
 30  13  36  1   
 31  13  37  1   
 32  14  38  1   
 33  14  39  1   
 34  14  40  1   
 35  15  17  1   
 36  15  18  1   
 37  16  41  1   
 38  16  42  1   
 39  16  43  1   
 40  17  19  1   
 41  17  44  1   
 42  17  45  1   
 43  18  20  1   
 44  18  46  1   
 45  18  47  1   
 46  19  21  1   
 47  19  48  1   
 48  19  49  1   
 49  20  21  1   
 50  20  50  1   
 51  20  51  1   
 52  21  22  1   
 53  21  52  1   
 54  22  53  1   
 55  22  54  1   
 56  22  55  1   
@<TRIPOS>SUBSTRUCTURE
  1 ****   3 GROUP 4 **** **** 0

# MOE 2024.06 (io_trps.svl 2023.06)
