@<TRIPOS>MOLECULE
NONAME
25 25 1 0 0 
SMALL
USER_CHARGES


@<TRIPOS>ATOM
  1 O       -0.3190     0.1720    -0.5140 O.3   1 <1>  -0.6800 
  2 C       -1.2980     0.6120     0.3660 C.3   1 <1>   0.1200 
  3 C       -2.6290    -0.0760     0.0340 C.3   1 <1>  -0.1600 
  4 C       -2.5500    -1.6080     0.0130 C.3   1 <1>   0.5660 
  5 N       -1.7770    -2.0490    -1.1420 N.4   1 <1>  -0.8530 
  6 C       -3.9100    -2.2760    -0.0890 C.ar  1 <1>  -0.1440 
  7 C       -4.2330    -3.2840     0.8100 C.ar  1 <1>  -0.1500 
  8 C       -4.8350    -1.9170    -1.0640 C.ar  1 <1>  -0.1500 
  9 C       -5.4560    -3.9250     0.7340 C.ar  1 <1>  -0.1500 
 10 C       -6.0580    -2.5610    -1.1370 C.ar  1 <1>  -0.1500 
 11 C       -6.3680    -3.5650    -0.2400 C.ar  1 <1>  -0.1500 
 12 H        0.4860     0.7350    -0.4260 H     1 <1>   0.4000 
 13 H       -1.3930     1.6820     0.2620 H     1 <1>   0.0800 
 14 H       -0.9790     0.3850     1.3700 H     1 <1>   0.0800 
 15 H       -3.0030     0.3020    -0.9010 H     1 <1>   0.0800 
 16 H       -3.3390     0.2100     0.7900 H     1 <1>   0.0800 
 17 H       -2.0640    -1.9370     0.9180 H     1 <1>   0.0800 
 18 H       -2.3420    -1.9530    -1.9860 H     1 <1>   0.4500 
 19 H       -1.4820    -3.0210    -1.0390 H     1 <1>   0.4500 
 20 H       -0.9590    -1.4160    -1.2040 H     1 <1>   0.4500 
 21 H       -3.5440    -3.5860     1.5820 H     1 <1>   0.1500 
 22 H       -4.6340    -1.1370    -1.7770 H     1 <1>   0.1500 
 23 H       -5.7040    -4.7060     1.4340 H     1 <1>   0.1500 
 24 H       -6.7750    -2.2810    -1.8910 H     1 <1>   0.1500 
 25 H       -7.3210    -4.0650    -0.2970 H     1 <1>   0.1500 
@<TRIPOS>BOND
  1   1   2  1   
  2   1  12  1   
  3   2   3  1   
  4   2  13  1   
  5   2  14  1   
  6   3   4  1   
  7   3  15  1   
  8   3  16  1   
  9   4   5  1   
 10   4   6  1   
 11   4  17  1   
 12   5  18  1   
 13   5  19  1   
 14   5  20  1   
 15   6   7  ar  
 16   6   8  ar  
 17   7   9  ar  
 18   7  21  1   
 19   8  10  ar  
 20   8  22  1   
 21   9  11  ar  
 22   9  23  1   
 23  10  11  ar  
 24  10  24  1   
 25  11  25  1   
@<TRIPOS>SUBSTRUCTURE
  1 ****   6 GROUP 4 **** **** 0

# MOE 2024.06 (io_trps.svl 2023.06)
