@<TRIPOS>MOLECULE
NONAME
34 34 1 0 0 
SMALL
USER_CHARGES


@<TRIPOS>ATOM
  1 O        0.7700     0.5160    -1.2660 O.2   1 <1>  -0.5700 
  2 C        1.7620     0.5500    -0.5850 C.2   1 <1>   0.5690 
  3 N        2.8730     1.1820    -1.0340 N.am  1 <1>  -0.5470 
  4 C        1.7390    -0.0970     0.7800 C.3   1 <1>  -0.1790 
  5 C        4.1360     1.3000    -0.4280 C.ar  1 <1>   0.1170 
  6 C        4.9820     0.2000    -0.2460 C.ar  1 <1>   0.0830 
  7 C        4.5510     2.5530    -0.0050 C.ar  1 <1>  -0.1500 
  8 O        4.5480    -1.0170    -0.6900 O.3   1 <1>  -0.3620 
  9 C        6.2190     0.3770     0.3620 C.ar  1 <1>  -0.1500 
 10 C        5.7880     2.7300     0.6030 C.ar  1 <1>   0.0830 
 11 C        5.3850    -2.1530    -0.6640 C.3   1 <1>   0.0400 
 12 C        6.6340     1.6300     0.7850 C.ar  1 <1>   0.1170 
 13 O        6.2220     3.9470     1.0470 O.3   1 <1>  -0.3630 
 14 N        7.8970     1.7480     1.3910 N.am  1 <1>  -0.5470 
 15 C        5.3850     5.0840     1.0210 C.3   1 <1>   0.0400 
 16 C        9.0080     2.3800     0.9420 C.2   1 <1>   0.5690 
 17 O       10.0000     2.4140     1.6240 O.2   1 <1>  -0.5700 
 18 C        9.0310     3.0270    -0.4230 C.3   1 <1>  -0.1790 
 19 H        2.7690     1.5570    -1.9770 H     1 <1>   0.3700 
 20 H        0.7230    -0.2790     1.0760 H     1 <1>   0.0800 
 21 H        2.2640    -1.0320     0.7420 H     1 <1>   0.0800 
 22 H        2.2040     0.5460     1.5030 H     1 <1>   0.0800 
 23 H        3.8830     3.3780    -0.1590 H     1 <1>   0.1500 
 24 H        6.8870    -0.4480     0.5160 H     1 <1>   0.1500 
 25 H        5.6260    -2.3880     0.3570 H     1 <1>   0.0800 
 26 H        6.2720    -1.9490    -1.2360 H     1 <1>   0.0800 
 27 H        4.8470    -2.9720    -1.1080 H     1 <1>   0.0800 
 28 H        8.0010     1.3730     2.3340 H     1 <1>   0.3700 
 29 H        5.9230     5.9020     1.4650 H     1 <1>   0.0800 
 30 H        4.4970     4.8790     1.5930 H     1 <1>   0.0800 
 31 H        5.1440     5.3180     0.0000 H     1 <1>   0.0800 
 32 H       10.0470     3.2090    -0.7190 H     1 <1>   0.0800 
 33 H        8.5660     2.3840    -1.1460 H     1 <1>   0.0800 
 34 H        8.5060     3.9630    -0.3850 H     1 <1>   0.0800 
@<TRIPOS>BOND
  1   1   2  2   
  2   2   3  am  
  3   2   4  1   
  4   3   5  1   
  5   3  19  1   
  6   4  20  1   
  7   4  21  1   
  8   4  22  1   
  9   5   6  ar  
 10   5   7  ar  
 11   6   8  1   
 12   6   9  ar  
 13   7  10  ar  
 14   7  23  1   
 15   8  11  1   
 16   9  12  ar  
 17   9  24  1   
 18  10  12  ar  
 19  10  13  1   
 20  11  25  1   
 21  11  26  1   
 22  11  27  1   
 23  12  14  1   
 24  13  15  1   
 25  14  16  am  
 26  14  28  1   
 27  15  29  1   
 28  15  30  1   
 29  15  31  1   
 30  16  17  2   
 31  16  18  1   
 32  18  32  1   
 33  18  33  1   
 34  18  34  1   
@<TRIPOS>SUBSTRUCTURE
  1 ****   7 GROUP 4 **** **** 0

# MOE 2024.06 (io_trps.svl 2023.06)
