@<TRIPOS>MOLECULE
NONAME
38 39 1 0 0 
SMALL
USER_CHARGES


@<TRIPOS>ATOM
  1 CL       0.0140    -0.2740     0.1650 Cl    1 <1>  -0.1770 
  2 C       -1.5950    -0.9530     0.1830 C.ar  1 <1>   0.1770 
  3 C       -2.6760    -0.1410    -0.1050 C.ar  1 <1>  -0.1500 
  4 C       -1.7620    -2.2920     0.4840 C.ar  1 <1>  -0.1500 
  5 C       -3.9540    -0.6770    -0.0900 C.ar  1 <1>  -0.1500 
  6 C       -3.0400    -2.8250     0.4980 C.ar  1 <1>  -0.1500 
  7 C       -4.1380    -2.0260     0.2140 C.ar  1 <1>   0.0830 
  8 O       -5.3520    -2.6300     0.2540 O.3   1 <1>  -0.3630 
  9 C       -6.5410    -1.9180    -0.0270 C.3   1 <1>   0.1200 
 10 C       -7.7540    -2.8540     0.0740 C.3   1 <1>   0.2000 
 11 O       -7.7270    -3.7740    -0.9650 O.3   1 <1>  -0.6800 
 12 C       -9.0720    -2.0780    -0.0020 C.3   1 <1>   0.0700 
 13 S      -10.4900    -3.2660     0.1010 S.3   1 <1>  -0.3310 
 14 C      -11.9420    -2.2300     0.0340 C.ar  1 <1>   0.7220 
 15 N      -11.7160    -0.9270    -0.0510 N.ar  1 <1>  -0.6200 
 16 N      -13.0880    -2.8840     0.0780 N.ar  1 <1>  -0.6200 
 17 C      -12.8020    -0.1910    -0.0990 C.ar  1 <1>   0.1670 
 18 C      -14.1540    -2.1220     0.0280 C.ar  1 <1>   0.1670 
 19 C      -14.0600    -0.7510    -0.0620 C.ar  1 <1>  -0.1500 
 20 C      -12.6120     1.3070    -0.1980 C.3   1 <1>  -0.0970 
 21 C      -15.4970    -2.8190     0.0750 C.3   1 <1>  -0.0970 
 22 H       -2.5150     0.8960    -0.3370 H     1 <1>   0.1500 
 23 H       -0.9050    -2.9040     0.7030 H     1 <1>   0.1500 
 24 H       -4.7840    -0.0360    -0.3170 H     1 <1>   0.1500 
 25 H       -3.1950    -3.8640     0.7280 H     1 <1>   0.1500 
 26 H       -6.4730    -1.5060    -1.0180 H     1 <1>   0.0800 
 27 H       -6.6260    -1.1270     0.6960 H     1 <1>   0.0800 
 28 H       -7.7120    -3.3960     1.0040 H     1 <1>   0.0800 
 29 H       -8.5410    -4.3180    -0.9310 H     1 <1>   0.4000 
 30 H       -9.1610    -1.5430    -0.9310 H     1 <1>   0.0800 
 31 H       -9.1710    -1.3970     0.8230 H     1 <1>   0.0800 
 32 H      -14.9400    -0.1380    -0.1020 H     1 <1>   0.1500 
 33 H      -12.0580     1.5420    -1.0890 H     1 <1>   0.0800 
 34 H      -12.0600     1.6580     0.6550 H     1 <1>   0.0800 
 35 H      -13.5570     1.8160    -0.2330 H     1 <1>   0.0800 
 36 H      -15.5780    -3.4960    -0.7560 H     1 <1>   0.0800 
 37 H      -16.3030    -2.1110     0.0290 H     1 <1>   0.0800 
 38 H      -15.5770    -3.3820     0.9870 H     1 <1>   0.0800 
@<TRIPOS>BOND
  1   1   2  1   
  2   2   3  ar  
  3   2   4  ar  
  4   3   5  ar  
  5   3  22  1   
  6   4   6  ar  
  7   4  23  1   
  8   5   7  ar  
  9   5  24  1   
 10   6   7  ar  
 11   6  25  1   
 12   7   8  1   
 13   8   9  1   
 14   9  10  1   
 15   9  26  1   
 16   9  27  1   
 17  10  11  1   
 18  10  12  1   
 19  10  28  1   
 20  11  29  1   
 21  12  13  1   
 22  12  30  1   
 23  12  31  1   
 24  13  14  1   
 25  14  15  ar  
 26  14  16  ar  
 27  15  17  ar  
 28  16  18  ar  
 29  17  19  ar  
 30  17  20  1   
 31  18  19  ar  
 32  18  21  1   
 33  19  32  1   
 34  20  33  1   
 35  20  34  1   
 36  20  35  1   
 37  21  36  1   
 38  21  37  1   
 39  21  38  1   
@<TRIPOS>SUBSTRUCTURE
  1 ****  12 GROUP 4 **** **** 0

# MOE 2024.06 (io_trps.svl 2023.06)
