@<TRIPOS>MOLECULE
NONAME
49 53 1 0 0 
SMALL
USER_CHARGES


@<TRIPOS>ATOM
  1 O       -0.4970    -0.0510    -2.0480 O.2   1 <1>  -0.5700 
  2 C       -0.4740    -0.5830    -0.9660 C.2   1 <1>   0.5690 
  3 N        0.4120    -1.5310    -0.5710 N.am  1 <1>  -0.6600 
  4 C       -1.4340    -0.2270     0.1390 C.3   1 <1>  -0.0190 
  5 C        0.1280    -2.0220     0.8010 C.3   1 <1>   0.1400 
  6 C        1.5660    -2.0200    -1.3530 C.3   1 <1>   0.2840 
  7 C       -1.2530    -1.4190     1.0760 C.3   1 <1>   0.4180 
  8 C       -2.9530    -0.3000    -0.1620 C.3   1 <1>  -0.0190 
  9 C        2.8380    -1.8420    -0.5380 C.ar  1 <1>  -0.1440 
 10 O       -2.2650    -2.2550     0.6140 O.3   1 <1>  -0.5600 
 11 C       -1.8310    -1.0740     2.4250 C.2   1 <1>  -0.2880 
 12 C       -3.7380     0.9620     0.1200 C.2   1 <1>   0.6590 
 13 C       -3.3680    -1.4390     0.7750 C.3   1 <1>   0.3380 
 14 C        3.3570    -0.5720    -0.3370 C.ar  1 <1>  -0.1500 
 15 C        3.4850    -2.9370     0.0160 C.ar  1 <1>  -0.1500 
 16 C       -3.1460    -1.0640     2.2330 C.2   1 <1>  -0.2880 
 17 O       -4.9130     0.9300     0.3790 O.2   1 <1>  -0.5700 
 18 O       -3.0740     2.1030     0.0360 O.3   1 <1>  -0.4300 
 19 C        4.5080    -0.3960     0.4100 C.ar  1 <1>  -0.1500 
 20 C        4.6360    -2.7630     0.7640 C.ar  1 <1>  -0.1500 
 21 C       -3.7140     3.3430     0.2310 C.3   1 <1>   0.2630 
 22 C        5.1490    -1.4920     0.9610 C.ar  1 <1>  -0.1500 
 23 C       -2.6630     4.4440     0.2310 C.ar  1 <1>  -0.1440 
 24 C       -1.6840     4.4840    -0.7520 C.ar  1 <1>  -0.1500 
 25 C       -2.6770     5.4230     1.2130 C.ar  1 <1>  -0.1500 
 26 C       -0.7320     5.4890    -0.7530 C.ar  1 <1>  -0.1500 
 27 C       -1.7260     6.4300     1.2130 C.ar  1 <1>  -0.1500 
 28 C       -0.7530     6.4630     0.2300 C.ar  1 <1>  -0.1500 
 29 H       -1.1130     0.6790     0.6190 H     1 <1>   0.0800 
 30 H        0.8600    -1.6300     1.4840 H     1 <1>   0.0800 
 31 H        0.1010    -3.0970     0.8460 H     1 <1>   0.0800 
 32 H        1.6430    -1.4650    -2.2720 H     1 <1>   0.0800 
 33 H        1.4150    -3.0570    -1.5970 H     1 <1>   0.0800 
 34 H       -3.1240    -0.5940    -1.1810 H     1 <1>   0.0800 
 35 H       -1.2100    -0.8720     3.2790 H     1 <1>   0.1500 
 36 H       -4.2780    -1.9660     0.5430 H     1 <1>   0.0800 
 37 H        2.8590     0.2830    -0.7620 H     1 <1>   0.1500 
 38 H        3.0960    -3.9300    -0.1300 H     1 <1>   0.1500 
 39 H       -3.9780    -0.8470     2.8810 H     1 <1>   0.1500 
 40 H        4.9050     0.5920     0.5620 H     1 <1>   0.1500 
 41 H        5.1350    -3.6150     1.1910 H     1 <1>   0.1500 
 42 H       -4.2370     3.3110     1.1720 H     1 <1>   0.0800 
 43 H       -4.4180     3.4910    -0.5680 H     1 <1>   0.0800 
 44 H        6.0440    -1.3570     1.5420 H     1 <1>   0.1500 
 45 H       -1.6570     3.7300    -1.5200 H     1 <1>   0.1500 
 46 H       -3.4270     5.4100     1.9840 H     1 <1>   0.1500 
 47 H        0.0240     5.5110    -1.5180 H     1 <1>   0.1500 
 48 H       -1.7430     7.1870     1.9770 H     1 <1>   0.1500 
 49 H       -0.0130     7.2440     0.2290 H     1 <1>   0.1500 
@<TRIPOS>BOND
  1   1   2  2   
  2   2   3  am  
  3   2   4  1   
  4   3   5  1   
  5   3   6  1   
  6   4   7  1   
  7   4   8  1   
  8   4  29  1   
  9   5   7  1   
 10   5  30  1   
 11   5  31  1   
 12   6   9  1   
 13   6  32  1   
 14   6  33  1   
 15   7  10  1   
 16   7  11  1   
 17   8  12  1   
 18   8  13  1   
 19   8  34  1   
 20   9  14  ar  
 21   9  15  ar  
 22  10  13  1   
 23  11  16  2   
 24  11  35  1   
 25  12  17  2   
 26  12  18  1   
 27  13  16  1   
 28  13  36  1   
 29  14  19  ar  
 30  14  37  1   
 31  15  20  ar  
 32  15  38  1   
 33  16  39  1   
 34  18  21  1   
 35  19  22  ar  
 36  19  40  1   
 37  20  22  ar  
 38  20  41  1   
 39  21  23  1   
 40  21  42  1   
 41  21  43  1   
 42  22  44  1   
 43  23  24  ar  
 44  23  25  ar  
 45  24  26  ar  
 46  24  45  1   
 47  25  27  ar  
 48  25  46  1   
 49  26  28  ar  
 50  26  47  1   
 51  27  28  ar  
 52  27  48  1   
 53  28  49  1   
@<TRIPOS>SUBSTRUCTURE
  1 ****   4 GROUP 4 **** **** 0

# MOE 2024.06 (io_trps.svl 2023.06)
