@<TRIPOS>MOLECULE
NONAME
41 43 1 0 0 
SMALL
USER_CHARGES


@<TRIPOS>ATOM
  1 N       -3.2520    -1.0350    -0.9530 N.4   1 <1>  -0.9590 
  2 C       -3.6130     0.3620    -0.5590 C.3   1 <1>   0.3430 
  3 C       -2.7790    -1.8180     0.2200 C.3   1 <1>   0.3430 
  4 C       -2.2560    -1.0310    -2.0690 C.3   1 <1>   0.2630 
  5 C       -5.1380     0.5580    -0.4230 C.3   1 <1>   0.0000 
  6 C       -2.8720    -3.3060    -0.0910 C.3   1 <1>  -0.2400 
  7 C       -5.7570    -0.3670     0.6560 C.3   1 <1>  -0.1600 
  8 C       -5.8580     0.3030    -1.7720 C.3   1 <1>  -0.1600 
  9 C       -5.3980     2.0260    -0.0070 C.3   1 <1>  -0.1600 
 10 C       -7.2690    -0.1050     0.7930 C.3   1 <1>  -0.0800 
 11 C       -7.3690     0.5650    -1.6390 C.3   1 <1>  -0.0800 
 12 C       -6.9070     2.3000     0.1310 C.3   1 <1>  -0.0800 
 13 C       -7.9540    -0.3670    -0.5610 C.3   1 <1>  -0.1600 
 14 C       -7.4950     1.3620     1.2000 C.3   1 <1>  -0.1600 
 15 C       -7.5950     2.0280    -1.2180 C.3   1 <1>  -0.1600 
 16 H       -4.1230    -1.4720    -1.2890 H     1 <1>   0.4500 
 17 H       -3.2560     1.0520    -1.3070 H     1 <1>   0.0800 
 18 H       -3.1350     0.6180     0.3720 H     1 <1>   0.0800 
 19 H       -3.3990    -1.6020     1.0760 H     1 <1>   0.0800 
 20 H       -1.7640    -1.5490     0.4640 H     1 <1>   0.0800 
 21 H       -1.3300    -0.5840    -1.7430 H     1 <1>   0.0800 
 22 H       -2.6360    -0.4670    -2.9060 H     1 <1>   0.0800 
 23 H       -2.0560    -2.0370    -2.3990 H     1 <1>   0.0800 
 24 H       -3.8810    -3.5820    -0.3440 H     1 <1>   0.0800 
 25 H       -2.5860    -3.8660     0.7820 H     1 <1>   0.0800 
 26 H       -2.2080    -3.5850    -0.8890 H     1 <1>   0.0800 
 27 H       -5.2840    -0.1960     1.6080 H     1 <1>   0.0800 
 28 H       -5.6190    -1.4020     0.3990 H     1 <1>   0.0800 
 29 H       -5.7180    -0.7120    -2.0980 H     1 <1>   0.0800 
 30 H       -5.4570     0.9500    -2.5340 H     1 <1>   0.0800 
 31 H       -4.9880     2.7000    -0.7400 H     1 <1>   0.0800 
 32 H       -4.9180     2.2380     0.9330 H     1 <1>   0.0800 
 33 H       -7.6880    -0.7560     1.5430 H     1 <1>   0.0800 
 34 H       -7.8590     0.3810    -2.5810 H     1 <1>   0.0800 
 35 H       -7.0690     3.3250     0.4210 H     1 <1>   0.0800 
 36 H       -9.0130    -0.1940    -0.4690 H     1 <1>   0.0800 
 37 H       -7.8200    -1.3950    -0.8500 H     1 <1>   0.0800 
 38 H       -8.5490     1.5500     1.3070 H     1 <1>   0.0800 
 39 H       -7.0340     1.5550     2.1530 H     1 <1>   0.0800 
 40 H       -8.6510     2.2220    -1.1320 H     1 <1>   0.0800 
 41 H       -7.2050     2.6920    -1.9700 H     1 <1>   0.0800 
@<TRIPOS>BOND
  1   1   2  1   
  2   1   3  1   
  3   1   4  1   
  4   1  16  1   
  5   2   5  1   
  6   2  17  1   
  7   2  18  1   
  8   3   6  1   
  9   3  19  1   
 10   3  20  1   
 11   4  21  1   
 12   4  22  1   
 13   4  23  1   
 14   5   7  1   
 15   5   8  1   
 16   5   9  1   
 17   6  24  1   
 18   6  25  1   
 19   6  26  1   
 20   7  10  1   
 21   7  27  1   
 22   7  28  1   
 23   8  11  1   
 24   8  29  1   
 25   8  30  1   
 26   9  12  1   
 27   9  31  1   
 28   9  32  1   
 29  10  13  1   
 30  10  14  1   
 31  10  33  1   
 32  11  13  1   
 33  11  15  1   
 34  11  34  1   
 35  12  14  1   
 36  12  15  1   
 37  12  35  1   
 38  13  36  1   
 39  13  37  1   
 40  14  38  1   
 41  14  39  1   
 42  15  40  1   
 43  15  41  1   
@<TRIPOS>SUBSTRUCTURE
  1 ****   5 GROUP 4 **** **** 0

# MOE 2024.06 (io_trps.svl 2023.06)
