@<TRIPOS>MOLECULE
NONAME
49 50 1 0 0 
SMALL
USER_CHARGES


@<TRIPOS>ATOM
  1 S       -0.9870    -0.5610    -0.3440 S.o2  1 <1>   1.3330 
  2 O        0.2580     0.0680     0.0220 O.2   1 <1>  -0.6500 
  3 O       -2.2320     0.1050    -0.0470 O.2   1 <1>  -0.6500 
  4 N       -1.0230    -2.1280     0.3920 N.am  1 <1>  -0.6930 
  5 C       -0.9340    -0.9380    -2.0840 C.3   1 <1>  -0.1350 
  6 C        0.1150    -2.9300     0.3930 C.ar  1 <1>   0.1990 
  7 C       -2.3420    -2.7550     0.7170 C.3   1 <1>   0.3370 
  8 C        0.1940    -4.0670    -0.4060 C.ar  1 <1>  -0.1500 
  9 C        1.2020    -2.6090     1.1950 C.ar  1 <1>  -0.1500 
 10 C       -3.3770    -2.7500    -0.4480 C.2   1 <1>   0.5690 
 11 C       -2.7560    -2.3150     2.1280 C.3   1 <1>  -0.2400 
 12 C        1.3240    -4.8630    -0.3940 C.ar  1 <1>  -0.1500 
 13 C        2.3340    -3.4030     1.2070 C.ar  1 <1>  -0.1500 
 14 O       -3.0470    -3.4160    -1.4070 O.2   1 <1>  -0.5700 
 15 N       -4.6080    -2.1170    -0.4650 N.am  1 <1>  -0.6600 
 16 C        2.4010    -4.5370     0.4140 C.ar  1 <1>  -0.1430 
 17 C       -5.6330    -2.4910    -1.4840 C.3   1 <1>   0.1400 
 18 C       -5.0390    -0.9450     0.3480 C.3   1 <1>   0.1400 
 19 C        3.6440    -5.4080     0.4270 C.3   1 <1>  -0.0970 
 20 C       -6.9470    -2.8500    -0.7810 C.3   1 <1>  -0.1600 
 21 C       -6.3340    -1.2820     1.0940 C.3   1 <1>  -0.1600 
 22 C       -7.4430    -1.7070     0.1190 C.3   1 <1>  -0.0800 
 23 C       -8.7040    -2.1260     0.8820 C.3   1 <1>  -0.2400 
 24 H       -0.8400    -0.0330    -2.6500 H     1 <1>   0.0800 
 25 H       -1.8290    -1.4390    -2.3910 H     1 <1>   0.0800 
 26 H       -0.0930    -1.5670    -2.2990 H     1 <1>   0.0800 
 27 H       -2.1480    -3.8060     0.8370 H     1 <1>   0.0800 
 28 H       -0.6320    -4.3270    -1.0420 H     1 <1>   0.1500 
 29 H        1.1550    -1.7270     1.8080 H     1 <1>   0.1500 
 30 H       -2.7210    -1.2470     2.2340 H     1 <1>   0.0800 
 31 H       -2.0750    -2.7390     2.8430 H     1 <1>   0.0800 
 32 H       -3.7440    -2.6720     2.3540 H     1 <1>   0.0800 
 33 H        1.3640    -5.7380    -1.0200 H     1 <1>   0.1500 
 34 H        3.1640    -3.1310     1.8360 H     1 <1>   0.1500 
 35 H       -5.3080    -3.3320    -2.0710 H     1 <1>   0.0800 
 36 H       -5.7860    -1.6590    -2.1500 H     1 <1>   0.0800 
 37 H       -5.2120    -0.1140    -0.3140 H     1 <1>   0.0800 
 38 H       -4.2890    -0.6330     1.0410 H     1 <1>   0.0800 
 39 H        3.3920    -6.4280     0.2010 H     1 <1>   0.0800 
 40 H        4.1120    -5.3810     1.3950 H     1 <1>   0.0800 
 41 H        4.3450    -5.0520    -0.3070 H     1 <1>   0.0800 
 42 H       -6.7900    -3.7390    -0.1960 H     1 <1>   0.0800 
 43 H       -7.6910    -3.0740    -1.5240 H     1 <1>   0.0800 
 44 H       -6.6520    -0.4180     1.6490 H     1 <1>   0.0800 
 45 H       -6.1360    -2.0710     1.7980 H     1 <1>   0.0800 
 46 H       -7.6880    -0.8640    -0.5060 H     1 <1>   0.0800 
 47 H       -8.5010    -2.9680     1.5200 H     1 <1>   0.0800 
 48 H       -9.4830    -2.3980     0.1920 H     1 <1>   0.0800 
 49 H       -9.0600    -1.3130     1.4900 H     1 <1>   0.0800 
@<TRIPOS>BOND
  1   1   2  2   
  2   1   3  2   
  3   1   4  am  
  4   1   5  1   
  5   4   6  1   
  6   4   7  1   
  7   5  24  1   
  8   5  25  1   
  9   5  26  1   
 10   6   8  ar  
 11   6   9  ar  
 12   7  10  1   
 13   7  11  1   
 14   7  27  1   
 15   8  12  ar  
 16   8  28  1   
 17   9  13  ar  
 18   9  29  1   
 19  10  14  2   
 20  10  15  am  
 21  11  30  1   
 22  11  31  1   
 23  11  32  1   
 24  12  16  ar  
 25  12  33  1   
 26  13  16  ar  
 27  13  34  1   
 28  15  17  1   
 29  15  18  1   
 30  16  19  1   
 31  17  20  1   
 32  17  35  1   
 33  17  36  1   
 34  18  21  1   
 35  18  37  1   
 36  18  38  1   
 37  19  39  1   
 38  19  40  1   
 39  19  41  1   
 40  20  22  1   
 41  20  42  1   
 42  20  43  1   
 43  21  22  1   
 44  21  44  1   
 45  21  45  1   
 46  22  23  1   
 47  22  46  1   
 48  23  47  1   
 49  23  48  1   
 50  23  49  1   
@<TRIPOS>SUBSTRUCTURE
  1 ****   7 GROUP 4 **** **** 0

# MOE 2024.06 (io_trps.svl 2023.06)
