@<TRIPOS>MOLECULE
NONAME
37 38 1 0 0 
SMALL
USER_CHARGES


@<TRIPOS>ATOM
  1 CL      -0.1880    -0.0660    -0.5800 Cl    1 <1>  -0.1770 
  2 C        1.5260    -0.0270    -0.2550 C.ar  1 <1>   0.1770 
  3 C        2.3350    -1.0240    -0.7720 C.ar  1 <1>  -0.1500 
  4 C        2.0460     1.0000     0.5130 C.ar  1 <1>  -0.1500 
  5 C        3.6970    -0.9970    -0.5160 C.ar  1 <1>  -0.1500 
  6 C        3.4080     1.0280     0.7690 C.ar  1 <1>  -0.1500 
  7 C        4.2220     0.0320     0.2540 C.ar  1 <1>   0.1020 
  8 S        5.9790     0.1440     0.6350 S.3   1 <1>  -0.3320 
  9 C        6.7980    -1.2970    -0.1770 C.3   1 <1>   0.0700 
 10 C        8.2910    -1.2240     0.1390 C.3   1 <1>  -0.1600 
 11 C        9.0440    -2.3870    -0.5120 C.3   1 <1>   0.1400 
 12 N       10.4790    -2.3010    -0.1830 N.am  1 <1>  -0.4200 
 13 C       11.0630    -2.8620     0.9160 C.2   1 <1>   0.6900 
 14 C       11.4180    -1.6180    -0.8970 C.2   1 <1>   0.5690 
 15 O       10.4770    -3.4810     1.7760 O.2   1 <1>  -0.5700 
 16 N       12.3870    -2.6140     0.9490 N.am  1 <1>  -0.7300 
 17 O       11.2220    -1.0080    -1.9220 O.2   1 <1>  -0.5700 
 18 C       12.7740    -1.7520    -0.1750 C.3   1 <1>   0.3610 
 19 C       13.8350    -2.4760    -1.0070 C.3   1 <1>  -0.2400 
 20 C       13.2940    -0.4240     0.3790 C.3   1 <1>  -0.2400 
 21 H        1.9000    -1.8080    -1.3650 H     1 <1>   0.1500 
 22 H        1.3950     1.7620     0.9020 H     1 <1>   0.1500 
 23 H        4.3210    -1.7710    -0.9180 H     1 <1>   0.1500 
 24 H        3.8380     1.8140     1.3630 H     1 <1>   0.1500 
 25 H        6.6110    -1.2180    -1.2330 H     1 <1>   0.0800 
 26 H        6.3500    -2.1890     0.2260 H     1 <1>   0.0800 
 27 H        8.4260    -1.2640     1.2070 H     1 <1>   0.0800 
 28 H        8.6830    -0.2920    -0.2300 H     1 <1>   0.0800 
 29 H        8.9270    -2.3510    -1.5820 H     1 <1>   0.0800 
 30 H        8.6580    -3.3270    -0.1550 H     1 <1>   0.0800 
 31 H       12.9580    -2.7640     1.7790 H     1 <1>   0.3700 
 32 H       13.4580    -3.4250    -1.3470 H     1 <1>   0.0800 
 33 H       14.7280    -2.6340    -0.4300 H     1 <1>   0.0800 
 34 H       14.0830    -1.8850    -1.8700 H     1 <1>   0.0800 
 35 H       12.5460     0.0430     0.9960 H     1 <1>   0.0800 
 36 H       13.5200     0.2420    -0.4350 H     1 <1>   0.0800 
 37 H       14.1880    -0.5750     0.9560 H     1 <1>   0.0800 
@<TRIPOS>BOND
  1   1   2  1   
  2   2   3  ar  
  3   2   4  ar  
  4   3   5  ar  
  5   3  21  1   
  6   4   6  ar  
  7   4  22  1   
  8   5   7  ar  
  9   5  23  1   
 10   6   7  ar  
 11   6  24  1   
 12   7   8  1   
 13   8   9  1   
 14   9  10  1   
 15   9  25  1   
 16   9  26  1   
 17  10  11  1   
 18  10  27  1   
 19  10  28  1   
 20  11  12  1   
 21  11  29  1   
 22  11  30  1   
 23  12  13  am  
 24  12  14  am  
 25  13  15  2   
 26  13  16  am  
 27  14  17  2   
 28  14  18  1   
 29  16  18  1   
 30  16  31  1   
 31  18  19  1   
 32  18  20  1   
 33  19  32  1   
 34  19  33  1   
 35  19  34  1   
 36  20  35  1   
 37  20  36  1   
 38  20  37  1   
@<TRIPOS>SUBSTRUCTURE
  1 ****  10 GROUP 4 **** **** 0

# MOE 2024.06 (io_trps.svl 2023.06)
