@<TRIPOS>MOLECULE
NONAME
30 30 1 0 0 
SMALL
USER_CHARGES


@<TRIPOS>ATOM
  1 S       -0.1340     0.0970    -0.2570 S.o2  1 <1>   1.3330 
  2 O       -0.0990    -1.2460     0.2780 O.2   1 <1>  -0.6500 
  3 O       -0.1870     0.2910    -1.6890 O.2   1 <1>  -0.6500 
  4 N        1.2340     0.9120     0.3180 N.am  1 <1>  -0.8490 
  5 C       -1.4870     0.9830     0.5300 C.3   1 <1>  -0.0550 
  6 C        1.4780     2.2280    -0.3180 C.3   1 <1>   0.1960 
  7 C        2.4440     0.0810     0.2780 C.3   1 <1>   0.1960 
  8 C       -2.8860     0.4370     0.1930 C.3   1 <1>  -0.2400 
  9 C        2.9630     2.6750    -0.3120 C.3   1 <1>   0.2000 
 10 C        3.6530     0.7890     0.9450 C.3   1 <1>   0.2000 
 11 O        3.6250     2.1870     0.8130 O.3   1 <1>  -0.5600 
 12 C        3.1160     4.1940    -0.2980 C.3   1 <1>  -0.2400 
 13 C        4.9930     0.2980     0.3960 C.3   1 <1>  -0.2400 
 14 H       -1.4450     2.0140     0.2390 H     1 <1>   0.0800 
 15 H       -1.3500     0.9410     1.5940 H     1 <1>   0.0800 
 16 H        0.8880     2.9650     0.1980 H     1 <1>   0.0800 
 17 H        1.1550     2.2250    -1.3440 H     1 <1>   0.0800 
 18 H        2.6770    -0.1570    -0.7460 H     1 <1>   0.0800 
 19 H        2.2740    -0.8490     0.7930 H     1 <1>   0.0800 
 20 H       -3.0590     0.4900    -0.8680 H     1 <1>   0.0800 
 21 H       -3.6420     1.0110     0.6980 H     1 <1>   0.0800 
 22 H       -2.9650    -0.5910     0.5030 H     1 <1>   0.0800 
 23 H        3.4600     2.2810    -1.1820 H     1 <1>   0.0800 
 24 H        3.6190     0.5890     2.0020 H     1 <1>   0.0800 
 25 H        2.6680     4.6050     0.5890 H     1 <1>   0.0800 
 26 H        2.6400     4.6240    -1.1610 H     1 <1>   0.0800 
 27 H        4.1590     4.4540    -0.3190 H     1 <1>   0.0800 
 28 H        5.0700     0.4990    -0.6570 H     1 <1>   0.0800 
 29 H        5.0870    -0.7610     0.5520 H     1 <1>   0.0800 
 30 H        5.7980     0.7900     0.9120 H     1 <1>   0.0800 
@<TRIPOS>BOND
  1   1   2  2   
  2   1   3  2   
  3   1   4  am  
  4   1   5  1   
  5   4   6  1   
  6   4   7  1   
  7   5   8  1   
  8   5  14  1   
  9   5  15  1   
 10   6   9  1   
 11   6  16  1   
 12   6  17  1   
 13   7  10  1   
 14   7  18  1   
 15   7  19  1   
 16   8  20  1   
 17   8  21  1   
 18   8  22  1   
 19   9  11  1   
 20   9  12  1   
 21   9  23  1   
 22  10  11  1   
 23  10  13  1   
 24  10  24  1   
 25  12  25  1   
 26  12  26  1   
 27  12  27  1   
 28  13  28  1   
 29  13  29  1   
 30  13  30  1   
@<TRIPOS>SUBSTRUCTURE
  1 ****   4 GROUP 4 **** **** 0

# MOE 2024.06 (io_trps.svl 2023.06)
