@<TRIPOS>MOLECULE
NONAME
41 42 1 0 0 
SMALL
USER_CHARGES


@<TRIPOS>ATOM
  1 O       -0.2260     0.5020     0.5080 O.2   1 <1>  -0.5700 
  2 C       -0.7750     1.5070     0.0960 C.2   1 <1>   0.5440 
  3 N       -0.0030     2.5570    -0.3680 N.am  1 <1>  -0.6600 
  4 C       -2.2230     1.5550     0.0990 C.ar  1 <1>   0.0860 
  5 C        1.4750     2.5440    -0.1890 C.3   1 <1>   0.1400 
  6 C       -0.5630     3.6940    -1.1560 C.3   1 <1>   0.1400 
  7 C       -2.9210     2.4920     0.8600 C.ar  1 <1>  -0.1500 
  8 C       -2.9700     0.6520    -0.6570 C.ar  1 <1>  -0.1500 
  9 C        1.8350     3.2160     1.1400 C.3   1 <1>  -0.1600 
 10 C        0.0420     5.0580    -0.7880 C.3   1 <1>  -0.1600 
 11 C       -4.3030     2.5460     0.8510 C.ar  1 <1>  -0.1500 
 12 C       -4.3520     0.6980    -0.6730 C.ar  1 <1>  -0.1500 
 13 C        1.6960     4.7480     1.1420 C.3   1 <1>  -0.1600 
 14 C        0.3160     5.2710     0.7110 C.3   1 <1>  -0.1600 
 15 C       -5.0290     1.6510     0.0730 C.ar  1 <1>   0.0820 
 16 O       -6.3840     1.6400     0.0160 O.3   1 <1>  -0.2320 
 17 C       -7.2240     2.6660     0.1510 C.2   1 <1>   0.6590 
 18 O       -6.8650     3.8100     0.2700 O.2   1 <1>  -0.5700 
 19 C       -8.6970     2.2790     0.1360 C.3   1 <1>  -0.0990 
 20 C       -9.6730     3.4500     0.3510 C.3   1 <1>  -0.2400 
 21 H        1.9570     3.0420    -1.0110 H     1 <1>   0.0800 
 22 H        1.8280     1.5270    -0.1770 H     1 <1>   0.0800 
 23 H       -1.6260     3.7520    -1.0130 H     1 <1>   0.0800 
 24 H       -0.3940     3.5030    -2.2020 H     1 <1>   0.0800 
 25 H       -2.3640     3.1840     1.4670 H     1 <1>   0.1500 
 26 H       -2.4480    -0.0920    -1.2340 H     1 <1>   0.1500 
 27 H        2.8570     2.9730     1.3700 H     1 <1>   0.0800 
 28 H        1.2270     2.7900     1.9190 H     1 <1>   0.0800 
 29 H       -0.6510     5.8110    -1.1200 H     1 <1>   0.0800 
 30 H        0.9460     5.2110    -1.3510 H     1 <1>   0.0800 
 31 H       -4.8040     3.2810     1.4550 H     1 <1>   0.1500 
 32 H       -4.9090    -0.0070    -1.2630 H     1 <1>   0.1500 
 33 H        2.4510     5.1720     0.5030 H     1 <1>   0.0800 
 34 H        1.8950     5.0980     2.1400 H     1 <1>   0.0800 
 35 H       -0.4590     4.8190     1.3050 H     1 <1>   0.0800 
 36 H        0.2940     6.3290     0.9070 H     1 <1>   0.0800 
 37 H       -8.8570     1.5460     0.9050 H     1 <1>   0.0800 
 38 H       -8.9090     1.8160    -0.8100 H     1 <1>   0.0800 
 39 H       -9.4900     3.9190     1.3020 H     1 <1>   0.0800 
 40 H      -10.6890     3.0990     0.3290 H     1 <1>   0.0800 
 41 H       -9.5460     4.1880    -0.4230 H     1 <1>   0.0800 
@<TRIPOS>BOND
  1   1   2  2   
  2   2   3  am  
  3   2   4  1   
  4   3   5  1   
  5   3   6  1   
  6   4   7  ar  
  7   4   8  ar  
  8   5   9  1   
  9   5  21  1   
 10   5  22  1   
 11   6  10  1   
 12   6  23  1   
 13   6  24  1   
 14   7  11  ar  
 15   7  25  1   
 16   8  12  ar  
 17   8  26  1   
 18   9  13  1   
 19   9  27  1   
 20   9  28  1   
 21  10  14  1   
 22  10  29  1   
 23  10  30  1   
 24  11  15  ar  
 25  11  31  1   
 26  12  15  ar  
 27  12  32  1   
 28  13  14  1   
 29  13  33  1   
 30  13  34  1   
 31  14  35  1   
 32  14  36  1   
 33  15  16  1   
 34  16  17  1   
 35  17  18  2   
 36  17  19  1   
 37  19  20  1   
 38  19  37  1   
 39  19  38  1   
 40  20  39  1   
 41  20  40  1   
 42  20  41  1   
@<TRIPOS>SUBSTRUCTURE
  1 ****   7 GROUP 4 **** **** 0

# MOE 2024.06 (io_trps.svl 2023.06)
