@<TRIPOS>MOLECULE
NONAME
41 41 1 0 0 
SMALL
USER_CHARGES


@<TRIPOS>ATOM
  1 S        0.1570    -0.1080    -0.5320 S.o2  1 <1>   1.4470 
  2 O       -1.1480    -0.6910    -0.7300 O.2   1 <1>  -0.6500 
  3 O        1.2730    -0.5220    -1.3470 O.2   1 <1>  -0.6500 
  4 N        0.5720    -0.6800     0.9630 N.am  1 <1>  -0.9780 
  5 C        0.0840     1.6920    -0.3330 C.ar  1 <1>  -0.0090 
  6 C        1.2310     2.4640    -0.4350 C.ar  1 <1>  -0.1500 
  7 C       -1.1140     2.3340    -0.0530 C.ar  1 <1>  -0.1500 
  8 C        1.2130     3.8430    -0.2740 C.ar  1 <1>  -0.1430 
  9 C       -1.1890     3.7110     0.1180 C.ar  1 <1>  -0.1430 
 10 C       -0.0120     4.4410     0.0010 C.ar  1 <1>  -0.1500 
 11 C        2.5330     4.6360    -0.4060 C.3   1 <1>   0.1440 
 12 C       -2.5130     4.4470     0.4270 C.3   1 <1>   0.1440 
 13 C        3.1220     4.4230    -1.8080 C.3   1 <1>  -0.2400 
 14 C        3.5350     4.1440     0.6490 C.3   1 <1>  -0.2400 
 15 C        2.3560     6.1510    -0.2050 C.3   1 <1>  -0.2400 
 16 C       -2.8090     5.4630    -0.6870 C.3   1 <1>  -0.2400 
 17 C       -3.7250     3.5050     0.5250 C.3   1 <1>  -0.2400 
 18 C       -2.3920     5.1830     1.7700 C.3   1 <1>  -0.2400 
 19 H        1.3380    -1.3170     0.7600 H     1 <1>   0.4200 
 20 H       -0.2230    -1.2600     1.2160 H     1 <1>   0.4200 
 21 H        2.1570     1.9610    -0.6470 H     1 <1>   0.1500 
 22 H       -1.9900     1.7170     0.0270 H     1 <1>   0.1500 
 23 H       -0.0670     5.5030     0.1320 H     1 <1>   0.1500 
 24 H        3.3610     3.3890    -1.9770 H     1 <1>   0.0800 
 25 H        4.0230     4.9970    -1.9340 H     1 <1>   0.0800 
 26 H        2.4130     4.7310    -2.5550 H     1 <1>   0.0800 
 27 H        4.4480     4.7110     0.6000 H     1 <1>   0.0800 
 28 H        3.7780     3.1090     0.5020 H     1 <1>   0.0800 
 29 H        3.1160     4.2560     1.6340 H     1 <1>   0.0800 
 30 H        3.2990     6.6590    -0.3060 H     1 <1>   0.0800 
 31 H        1.9710     6.3590     0.7780 H     1 <1>   0.0800 
 32 H        1.6820     6.5540    -0.9390 H     1 <1>   0.0800 
 33 H       -2.8600     4.9610    -1.6370 H     1 <1>   0.0800 
 34 H       -2.0420     6.2140    -0.7440 H     1 <1>   0.0800 
 35 H       -3.7470     5.9580    -0.5110 H     1 <1>   0.0800 
 36 H       -3.5830     2.7870     1.3130 H     1 <1>   0.0800 
 37 H       -3.8740     2.9820    -0.4040 H     1 <1>   0.0800 
 38 H       -4.6200     4.0600     0.7390 H     1 <1>   0.0800 
 39 H       -2.1490     4.4830     2.5500 H     1 <1>   0.0800 
 40 H       -3.3170     5.6690     2.0220 H     1 <1>   0.0800 
 41 H       -1.6210     5.9300     1.7370 H     1 <1>   0.0800 
@<TRIPOS>BOND
  1   1   2  2   
  2   1   3  2   
  3   1   4  am  
  4   1   5  1   
  5   4  19  1   
  6   4  20  1   
  7   5   6  ar  
  8   5   7  ar  
  9   6   8  ar  
 10   6  21  1   
 11   7   9  ar  
 12   7  22  1   
 13   8  10  ar  
 14   8  11  1   
 15   9  10  ar  
 16   9  12  1   
 17  10  23  1   
 18  11  13  1   
 19  11  14  1   
 20  11  15  1   
 21  12  16  1   
 22  12  17  1   
 23  12  18  1   
 24  13  24  1   
 25  13  25  1   
 26  13  26  1   
 27  14  27  1   
 28  14  28  1   
 29  14  29  1   
 30  15  30  1   
 31  15  31  1   
 32  15  32  1   
 33  16  33  1   
 34  16  34  1   
 35  16  35  1   
 36  17  36  1   
 37  17  37  1   
 38  17  38  1   
 39  18  39  1   
 40  18  40  1   
 41  18  41  1   
@<TRIPOS>SUBSTRUCTURE
  1 ****   6 GROUP 4 **** **** 0

# MOE 2024.06 (io_trps.svl 2023.06)
