@<TRIPOS>MOLECULE
NONAME
37 39 1 0 0 
SMALL
USER_CHARGES


@<TRIPOS>ATOM
  1 S        0.0280     0.2140    -0.2040 S.o2  1 <1>   1.5010 
  2 O       -0.2790     0.5390    -1.5790 O.2   1 <1>  -0.6500 
  3 O       -0.3750     1.1340     0.8380 O.2   1 <1>  -0.6500 
  4 N        1.7530     0.0290    -0.0640 N.am  1 <1>  -0.6930 
  5 C       -0.5930    -1.4240     0.2130 C.2   1 <1>  -0.0630 
  6 C        2.4890    -0.9660    -0.7410 C.ar  1 <1>   0.1990 
  7 C        2.3550     0.8000     1.0550 C.3   1 <1>   0.1960 
  8 C       -1.9010    -1.8550     0.0120 C.2   1 <1>   0.1080 
  9 C        0.0100    -2.5010     0.7790 C.2   1 <1>  -0.3020 
 10 C        3.7260    -1.3940    -0.2440 C.ar  1 <1>  -0.1440 
 11 C        2.0210    -1.5730    -1.9080 C.ar  1 <1>  -0.1500 
 12 C        3.8800     0.7040     1.0710 C.3   1 <1>  -0.1600 
 13 N       -2.0930    -3.0750     0.4030 N.2   1 <1>  -0.7070 
 14 C       -3.0130    -1.0250    -0.5940 C.3   1 <1>  -0.0590 
 15 N       -0.9070    -3.4770     0.8770 N.pl3 1 <1>   0.3140 
 16 C        4.4370    -2.4000    -0.8770 C.ar  1 <1>  -0.1500 
 17 C        4.3180    -0.7560     1.0000 C.3   1 <1>  -0.0170 
 18 C        2.7320    -2.5760    -2.5380 C.ar  1 <1>  -0.1500 
 19 C       -0.7110    -4.8260     1.4170 C.3   1 <1>   0.0160 
 20 C        3.9420    -2.9960    -2.0220 C.ar  1 <1>  -0.1500 
 21 H        1.9610     0.4250     1.9840 H     1 <1>   0.0800 
 22 H        2.0710     1.8350     0.9650 H     1 <1>   0.0800 
 23 H        1.0280    -2.6140     1.1030 H     1 <1>   0.1500 
 24 H        1.0930    -1.2730    -2.3520 H     1 <1>   0.1500 
 25 H        4.2610     1.1620     1.9660 H     1 <1>   0.0800 
 26 H        4.2740     1.2430     0.2260 H     1 <1>   0.0800 
 27 H       -2.7890    -0.8060    -1.6220 H     1 <1>   0.0800 
 28 H       -3.1260    -0.1050    -0.0510 H     1 <1>   0.0800 
 29 H       -3.9400    -1.5680    -0.5500 H     1 <1>   0.0800 
 30 H        5.3850    -2.7270    -0.4850 H     1 <1>   0.1500 
 31 H        5.3920    -0.8050     0.9720 H     1 <1>   0.0800 
 32 H        3.9740    -1.2880     1.8700 H     1 <1>   0.0800 
 33 H        2.3430    -3.0280    -3.4350 H     1 <1>   0.1500 
 34 H        0.3370    -5.0530     1.4500 H     1 <1>   0.0800 
 35 H       -1.2160    -5.5300     0.7820 H     1 <1>   0.0800 
 36 H       -1.1290    -4.8690     2.4050 H     1 <1>   0.0800 
 37 H        4.4980    -3.7770    -2.5110 H     1 <1>   0.1500 
@<TRIPOS>BOND
  1   1   2  2   
  2   1   3  2   
  3   1   4  am  
  4   1   5  1   
  5   4   6  1   
  6   4   7  1   
  7   5   8  1   
  8   5   9  2   
  9   6  10  ar  
 10   6  11  ar  
 11   7  12  1   
 12   7  21  1   
 13   7  22  1   
 14   8  13  2   
 15   8  14  1   
 16   9  15  1   
 17   9  23  1   
 18  10  16  ar  
 19  10  17  1   
 20  11  18  ar  
 21  11  24  1   
 22  12  17  1   
 23  12  25  1   
 24  12  26  1   
 25  13  15  1   
 26  14  27  1   
 27  14  28  1   
 28  14  29  1   
 29  15  19  1   
 30  16  20  ar  
 31  16  30  1   
 32  17  31  1   
 33  17  32  1   
 34  18  20  ar  
 35  18  33  1   
 36  19  34  1   
 37  19  35  1   
 38  19  36  1   
 39  20  37  1   
@<TRIPOS>SUBSTRUCTURE
  1 ****   4 GROUP 4 **** **** 0

# MOE 2024.06 (io_trps.svl 2023.06)
