@<TRIPOS>MOLECULE
NONAME
57 59 1 0 0 
SMALL
USER_CHARGES


@<TRIPOS>ATOM
  1 O      -12.6670     1.5460    -0.5810 O.3   1 <1>  -0.3630 
  2 C      -12.2690     0.2910    -0.2290 C.ar  1 <1>   0.0830 
  3 C      -14.0310     1.8480    -0.7780 C.3   1 <1>   0.2640 
  4 C      -12.8930    -0.9060    -0.6170 C.ar  1 <1>   0.0830 
  5 C      -11.1420     0.2440     0.5740 C.ar  1 <1>  -0.1500 
  6 C      -14.2320     3.3460    -0.6050 C.ar  1 <1>  -0.1440 
  7 O      -13.9830    -0.8690    -1.4390 O.3   1 <1>  -0.3630 
  8 C      -12.3660    -2.1130    -0.1630 C.ar  1 <1>  -0.1500 
  9 C      -10.6140    -0.9600     1.0100 C.ar  1 <1>  -0.1440 
 10 C      -14.3920     3.8850     0.6630 C.ar  1 <1>  -0.1500 
 11 C      -14.2610     4.1840    -1.7090 C.ar  1 <1>  -0.1500 
 12 C      -14.5910    -2.0410    -1.9360 C.3   1 <1>   0.0400 
 13 C      -11.2390    -2.1390     0.6410 C.ar  1 <1>  -0.1500 
 14 C       -9.3610    -0.9770     1.8740 C.3   1 <1>   0.2530 
 15 C      -14.5870     5.2460     0.8250 C.ar  1 <1>  -0.1500 
 16 C      -14.4560     5.5460    -1.5480 C.ar  1 <1>  -0.1500 
 17 N       -8.2730    -0.2260     1.2170 N.3   1 <1>  -0.8100 
 18 C      -14.6200     6.0770    -0.2810 C.ar  1 <1>  -0.1500 
 19 C       -7.0830    -0.0850     2.0810 C.3   1 <1>   0.1100 
 20 C       -7.8950    -0.8020    -0.0970 C.3   1 <1>   0.1100 
 21 C       -5.9790     0.7700     1.4080 C.3   1 <1>   0.3430 
 22 C       -6.7690     0.0050    -0.7880 C.3   1 <1>   0.3430 
 23 N       -6.3800     1.2110     0.0240 N.4   1 <1>  -0.9590 
 24 C       -5.4330     2.1410    -0.6420 C.3   1 <1>   0.4230 
 25 C       -5.2030     3.3670     0.2410 C.3   1 <1>  -0.2400 
 26 C       -6.0080     2.5920    -1.9860 C.3   1 <1>  -0.2400 
 27 H      -14.6130     1.3040    -0.0550 H     1 <1>   0.0800 
 28 H      -14.3040     1.5420    -1.7720 H     1 <1>   0.0800 
 29 H      -10.6740     1.1700     0.8560 H     1 <1>   0.1500 
 30 H      -12.8160    -3.0520    -0.4240 H     1 <1>   0.1500 
 31 H      -14.3610     3.2450     1.5270 H     1 <1>   0.1500 
 32 H      -14.1290     3.7790    -2.6970 H     1 <1>   0.1500 
 33 H      -13.8610    -2.6050    -2.4900 H     1 <1>   0.0800 
 34 H      -15.3960    -1.7500    -2.5870 H     1 <1>   0.0800 
 35 H      -14.9780    -2.6120    -1.1110 H     1 <1>   0.0800 
 36 H      -10.8530    -3.0870     0.9740 H     1 <1>   0.1500 
 37 H       -9.0500    -1.9910     2.0600 H     1 <1>   0.0800 
 38 H       -9.5950    -0.5170     2.8200 H     1 <1>   0.0800 
 39 H      -14.7100     5.6570     1.8110 H     1 <1>   0.1500 
 40 H      -14.4780     6.1900    -2.4090 H     1 <1>   0.1500 
 41 H      -14.7710     7.1350    -0.1560 H     1 <1>   0.1500 
 42 H       -6.6840    -1.0560     2.3200 H     1 <1>   0.0800 
 43 H       -7.3670     0.3860     3.0070 H     1 <1>   0.0800 
 44 H       -8.7510    -0.8060    -0.7510 H     1 <1>   0.0800 
 45 H       -7.5780    -1.8240     0.0240 H     1 <1>   0.0800 
 46 H       -5.0660     0.2010     1.3640 H     1 <1>   0.0800 
 47 H       -5.7980     1.6300     2.0300 H     1 <1>   0.0800 
 48 H       -7.1250     0.3080    -1.7580 H     1 <1>   0.0800 
 49 H       -5.9130    -0.6320    -0.9360 H     1 <1>   0.0800 
 50 H       -7.2770     1.6980     0.1710 H     1 <1>   0.4500 
 51 H       -4.4900     1.6440    -0.8100 H     1 <1>   0.0800 
 52 H       -6.1360     3.8350     0.5020 H     1 <1>   0.0800 
 53 H       -4.6080     4.0890    -0.2890 H     1 <1>   0.0800 
 54 H       -4.6610     3.1140     1.1330 H     1 <1>   0.0800 
 55 H       -6.9930     3.0060    -1.8650 H     1 <1>   0.0800 
 56 H       -6.0370     1.7840    -2.6930 H     1 <1>   0.0800 
 57 H       -5.3780     3.3530    -2.4120 H     1 <1>   0.0800 
@<TRIPOS>BOND
  1   1   2  1   
  2   1   3  1   
  3   2   4  ar  
  4   2   5  ar  
  5   3   6  1   
  6   3  27  1   
  7   3  28  1   
  8   4   7  1   
  9   4   8  ar  
 10   5   9  ar  
 11   5  29  1   
 12   6  10  ar  
 13   6  11  ar  
 14   7  12  1   
 15   8  13  ar  
 16   8  30  1   
 17   9  13  ar  
 18   9  14  1   
 19  10  15  ar  
 20  10  31  1   
 21  11  16  ar  
 22  11  32  1   
 23  12  33  1   
 24  12  34  1   
 25  12  35  1   
 26  13  36  1   
 27  14  17  1   
 28  14  37  1   
 29  14  38  1   
 30  15  18  ar  
 31  15  39  1   
 32  16  18  ar  
 33  16  40  1   
 34  17  19  1   
 35  17  20  1   
 36  18  41  1   
 37  19  21  1   
 38  19  42  1   
 39  19  43  1   
 40  20  22  1   
 41  20  44  1   
 42  20  45  1   
 43  21  23  1   
 44  21  46  1   
 45  21  47  1   
 46  22  23  1   
 47  22  48  1   
 48  22  49  1   
 49  23  24  1   
 50  23  50  1   
 51  24  25  1   
 52  24  26  1   
 53  24  51  1   
 54  25  52  1   
 55  25  53  1   
 56  25  54  1   
 57  26  55  1   
 58  26  56  1   
 59  26  57  1   
@<TRIPOS>SUBSTRUCTURE
  1 ****   5 GROUP 4 **** **** 0

# MOE 2024.06 (io_trps.svl 2023.06)
