@<TRIPOS>MOLECULE
NONAME
50 51 1 0 0 
SMALL
USER_CHARGES


@<TRIPOS>ATOM
  1 F       -0.2260     0.2500     1.0600 F     1 <1>  -0.3400 
  2 C        0.9210     0.4360     0.4110 C.3   1 <1>   1.1640 
  3 F        0.7950    -0.2260    -0.7310 F     1 <1>  -0.3400 
  4 F        1.8570    -0.1870     1.1120 F     1 <1>  -0.3400 
  5 C        1.1770     1.9370     0.1760 C.ar  1 <1>  -0.1440 
  6 C        0.3340     2.7170    -0.6280 C.ar  1 <1>  -0.1440 
  7 C        2.2740     2.5480     0.7800 C.ar  1 <1>  -0.1500 
  8 C        0.6150     4.0640    -0.8170 C.ar  1 <1>  -0.1500 
  9 C       -0.9040     2.1620    -1.3290 C.3   1 <1>   0.4870 
 10 C        2.5370     3.8910     0.5910 C.ar  1 <1>  -0.1500 
 11 C        1.7090     4.6500    -0.2100 C.ar  1 <1>  -0.1500 
 12 N       -2.0130     1.9850    -0.3480 N.4   1 <1>  -0.9590 
 13 C       -3.1950     1.3460    -1.0110 C.3   1 <1>   0.3430 
 14 C       -2.3790     3.2680     0.3220 C.3   1 <1>   0.3430 
 15 C       -4.3230     1.0650    -0.0100 C.3   1 <1>  -0.0190 
 16 C       -3.4620     3.0090     1.3720 C.3   1 <1>  -0.1600 
 17 C       -5.5160     0.5120    -0.7830 C.2   1 <1>   0.5690 
 18 C       -4.7030     2.3470     0.7560 C.3   1 <1>  -0.1600 
 19 O       -5.6370     0.8940    -1.9240 O.2   1 <1>  -0.5700 
 20 N       -6.4010    -0.3710    -0.2160 N.am  1 <1>  -0.6600 
 21 C       -6.3420    -0.8750     1.1830 C.3   1 <1>   0.1400 
 22 C       -7.5610    -0.8750    -1.0050 C.3   1 <1>   0.1400 
 23 C       -5.5720    -2.1930     1.2200 C.3   1 <1>  -0.2400 
 24 C       -8.7700     0.0270    -0.7700 C.3   1 <1>  -0.2400 
 25 H        2.9480     1.9860     1.4080 H     1 <1>   0.1500 
 26 H       -0.0100     4.6810    -1.4420 H     1 <1>   0.1500 
 27 H       -0.6680     1.2200    -1.7970 H     1 <1>   0.0800 
 28 H       -1.2120     2.8440    -2.1050 H     1 <1>   0.0800 
 29 H        3.3910     4.3460     1.0650 H     1 <1>   0.1500 
 30 H        1.9210     5.6960    -0.3600 H     1 <1>   0.1500 
 31 H       -1.6800     1.3460     0.3880 H     1 <1>   0.4500 
 32 H       -2.9050     0.4190    -1.4790 H     1 <1>   0.0800 
 33 H       -3.5730     2.0000    -1.7810 H     1 <1>   0.0800 
 34 H       -2.7480     3.9710    -0.4080 H     1 <1>   0.0800 
 35 H       -1.5140     3.6990     0.8020 H     1 <1>   0.0800 
 36 H       -3.9710     0.3190     0.6760 H     1 <1>   0.0800 
 37 H       -3.7460     3.9470     1.8180 H     1 <1>   0.0800 
 38 H       -3.0600     2.3910     2.1560 H     1 <1>   0.0800 
 39 H       -5.4170     2.1200     1.5300 H     1 <1>   0.0800 
 40 H       -5.1750     3.0390     0.0770 H     1 <1>   0.0800 
 41 H       -7.3410    -1.0300     1.5550 H     1 <1>   0.0800 
 42 H       -5.8710    -0.1540     1.8270 H     1 <1>   0.0800 
 43 H       -7.7920    -1.8860    -0.7160 H     1 <1>   0.0800 
 44 H       -7.3170    -0.8830    -2.0550 H     1 <1>   0.0800 
 45 H       -6.0710    -2.9360     0.6230 H     1 <1>   0.0800 
 46 H       -5.5220    -2.5540     2.2310 H     1 <1>   0.0800 
 47 H       -4.5700    -2.0630     0.8550 H     1 <1>   0.0800 
 48 H       -9.0540     0.0270     0.2660 H     1 <1>   0.0800 
 49 H       -9.6010    -0.3270    -1.3510 H     1 <1>   0.0800 
 50 H       -8.5450     1.0320    -1.0810 H     1 <1>   0.0800 
@<TRIPOS>BOND
  1   1   2  1   
  2   2   3  1   
  3   2   4  1   
  4   2   5  1   
  5   5   6  ar  
  6   5   7  ar  
  7   6   8  ar  
  8   6   9  1   
  9   7  10  ar  
 10   7  25  1   
 11   8  11  ar  
 12   8  26  1   
 13   9  12  1   
 14   9  27  1   
 15   9  28  1   
 16  10  11  ar  
 17  10  29  1   
 18  11  30  1   
 19  12  13  1   
 20  12  14  1   
 21  12  31  1   
 22  13  15  1   
 23  13  32  1   
 24  13  33  1   
 25  14  16  1   
 26  14  34  1   
 27  14  35  1   
 28  15  17  1   
 29  15  18  1   
 30  15  36  1   
 31  16  18  1   
 32  16  37  1   
 33  16  38  1   
 34  17  19  2   
 35  17  20  am  
 36  18  39  1   
 37  18  40  1   
 38  20  21  1   
 39  20  22  1   
 40  21  23  1   
 41  21  41  1   
 42  21  42  1   
 43  22  24  1   
 44  22  43  1   
 45  22  44  1   
 46  23  45  1   
 47  23  46  1   
 48  23  47  1   
 49  24  48  1   
 50  24  49  1   
 51  24  50  1   
@<TRIPOS>SUBSTRUCTURE
  1 ****  12 GROUP 4 **** **** 0

# MOE 2024.06 (io_trps.svl 2023.06)
