@<TRIPOS>MOLECULE
NONAME
38 40 1 0 0 
SMALL
USER_CHARGES


@<TRIPOS>ATOM
  1 O       -0.0800    -0.3650    -1.0590 O.2   1 <1>  -0.5700 
  2 C       -0.0360    -1.4010    -0.4380 C.2   1 <1>   0.4950 
  3 C        1.1780    -1.9440     0.0950 C.2   1 <1>   0.0290 
  4 C       -1.3720    -2.0970    -0.2400 C.3   1 <1>  -0.0990 
  5 C        1.1070    -3.1760     0.8320 C.2   1 <1>   0.4950 
  6 C        2.3670    -1.2760    -0.1140 C.2   1 <1>  -0.0500 
  7 C       -1.2410    -3.6160    -0.0640 C.3   1 <1>   0.0000 
  8 O        2.0650    -3.7240     1.3310 O.2   1 <1>  -0.5700 
  9 C       -0.2210    -3.8820     1.0520 C.3   1 <1>  -0.0990 
 10 N        3.5950    -1.6640     0.3270 N.pl3 1 <1>  -0.6000 
 11 C       -2.6020    -4.2080     0.3300 C.3   1 <1>  -0.2400 
 12 C       -0.7890    -4.2760    -1.3800 C.3   1 <1>  -0.2400 
 13 C        4.8560    -1.0610     0.1710 C.ar  1 <1>   0.1000 
 14 C        5.0420     0.1300    -0.5020 C.ar  1 <1>  -0.1500 
 15 C        5.9680    -1.7130     0.7320 C.ar  1 <1>  -0.1500 
 16 C        6.3280     0.6740    -0.6180 C.ar  1 <1>   0.0000 
 17 C        7.2340    -1.1900     0.6250 C.ar  1 <1>  -0.1500 
 18 C        7.4020     0.0170    -0.0610 C.ar  1 <1>  -0.1520 
 19 C        6.8920     1.8200    -1.2050 C.2   1 <1>   0.1390 
 20 N        8.4950     0.7850    -0.3400 N.pl3 1 <1>   0.3000 
 21 N        8.1720     1.8940    -1.0450 N.2   1 <1>  -0.7070 
 22 H       -1.8390    -1.6630     0.6260 H     1 <1>   0.0800 
 23 H       -2.0040    -1.8840    -1.0850 H     1 <1>   0.0800 
 24 H        2.3380    -0.3580    -0.6780 H     1 <1>   0.1500 
 25 H       -0.0430    -4.9410     1.1310 H     1 <1>   0.0800 
 26 H       -0.6130    -3.5520     1.9970 H     1 <1>   0.0800 
 27 H        3.6070    -2.5480     0.8660 H     1 <1>   0.4000 
 28 H       -2.9600    -3.7750     1.2480 H     1 <1>   0.0800 
 29 H       -2.5270    -5.2730     0.4680 H     1 <1>   0.0800 
 30 H       -3.3340    -4.0200    -0.4370 H     1 <1>   0.0800 
 31 H       -1.5080    -4.0930    -2.1600 H     1 <1>   0.0800 
 32 H       -0.7010    -5.3420    -1.2550 H     1 <1>   0.0800 
 33 H        0.1630    -3.9040    -1.7150 H     1 <1>   0.0800 
 34 H        4.2220     0.6600    -0.9440 H     1 <1>   0.1500 
 35 H        5.8110    -2.6400     1.2540 H     1 <1>   0.1500 
 36 H        8.0830    -1.6920     1.0560 H     1 <1>   0.1500 
 37 H        6.3110     2.5580    -1.7320 H     1 <1>   0.1500 
 38 H        9.4570     0.5690    -0.0590 H     1 <1>   0.2700 
@<TRIPOS>BOND
  1   1   2  2   
  2   2   3  1   
  3   2   4  1   
  4   3   5  1   
  5   3   6  2   
  6   4   7  1   
  7   4  22  1   
  8   4  23  1   
  9   5   8  2   
 10   5   9  1   
 11   6  10  1   
 12   6  24  1   
 13   7   9  1   
 14   7  11  1   
 15   7  12  1   
 16   9  25  1   
 17   9  26  1   
 18  10  13  1   
 19  10  27  1   
 20  11  28  1   
 21  11  29  1   
 22  11  30  1   
 23  12  31  1   
 24  12  32  1   
 25  12  33  1   
 26  13  14  ar  
 27  13  15  ar  
 28  14  16  ar  
 29  14  34  1   
 30  15  17  ar  
 31  15  35  1   
 32  16  18  ar  
 33  16  19  1   
 34  17  18  ar  
 35  17  36  1   
 36  18  20  1   
 37  19  21  2   
 38  19  37  1   
 39  20  21  1   
 40  20  38  1   
@<TRIPOS>SUBSTRUCTURE
  1 ****  10 GROUP 4 **** **** 0

# MOE 2024.06 (io_trps.svl 2023.06)
