@<TRIPOS>MOLECULE
NONAME
37 37 1 0 0 
SMALL
USER_CHARGES


@<TRIPOS>ATOM
  1 O       -0.4990     0.0090     1.0610 O.2   1 <1>  -0.5700 
  2 C       -0.8640    -1.0370     0.5680 C.2   1 <1>   0.6900 
  3 N       -2.1900    -1.2600     0.4710 N.am  1 <1>  -0.7300 
  4 N        0.0220    -1.9410     0.1020 N.am  1 <1>  -0.7300 
  5 C       -2.9750    -2.5030     0.3140 C.3   1 <1>   0.3000 
  6 C        1.4840    -1.8350     0.1630 C.3   1 <1>   0.2200 
  7 C       -3.0700    -2.9240    -1.1760 C.3   1 <1>   0.1200 
  8 C       -2.3950    -3.6240     1.1880 C.3   1 <1>  -0.2400 
  9 C       -4.3770    -2.1720     0.8290 C.3   1 <1>  -0.2400 
 10 C        2.0440    -1.9340    -1.2600 C.3   1 <1>  -0.1600 
 11 C        2.0220    -2.9600     1.0520 C.3   1 <1>  -0.1600 
 12 O       -1.8200    -3.0190    -1.7790 O.3   1 <1>  -0.6800 
 13 C        3.5800    -1.9450    -1.2530 C.3   1 <1>  -0.1600 
 14 C        3.5580    -2.9730     1.0640 C.3   1 <1>  -0.1600 
 15 C        4.1220    -3.0700    -0.3600 C.3   1 <1>  -0.1600 
 16 H       -2.7280    -0.4870     0.8590 H     1 <1>   0.3700 
 17 H       -0.3530    -2.8080    -0.2890 H     1 <1>   0.3700 
 18 H        1.7630    -0.8840     0.5880 H     1 <1>   0.0800 
 19 H       -3.6450    -2.2020    -1.7290 H     1 <1>   0.0800 
 20 H       -3.5510    -3.8820    -1.2640 H     1 <1>   0.0800 
 21 H       -2.2480    -3.2790     2.1960 H     1 <1>   0.0800 
 22 H       -1.4610    -3.9830     0.8000 H     1 <1>   0.0800 
 23 H       -3.0700    -4.4600     1.2110 H     1 <1>   0.0800 
 24 H       -4.3420    -1.8850     1.8650 H     1 <1>   0.0800 
 25 H       -5.0180    -3.0310     0.7410 H     1 <1>   0.0800 
 26 H       -4.8120    -1.3710     0.2570 H     1 <1>   0.0800 
 27 H        1.6970    -1.0940    -1.8360 H     1 <1>   0.0800 
 28 H        1.6880    -2.8370    -1.7240 H     1 <1>   0.0800 
 29 H        1.6670    -3.9080     0.6870 H     1 <1>   0.0800 
 30 H        1.6590    -2.8210     2.0550 H     1 <1>   0.0800 
 31 H       -1.3770    -2.1430    -1.7170 H     1 <1>   0.4000 
 32 H        3.9400    -0.9980    -0.8910 H     1 <1>   0.0800 
 33 H        3.9440    -2.0740    -2.2580 H     1 <1>   0.0800 
 34 H        3.9070    -3.8060     1.6490 H     1 <1>   0.0800 
 35 H        3.9170    -2.0700     1.5280 H     1 <1>   0.0800 
 36 H        5.1970    -3.0160    -0.3270 H     1 <1>   0.0800 
 37 H        3.8530    -4.0220    -0.7850 H     1 <1>   0.0800 
@<TRIPOS>BOND
  1   1   2  2   
  2   2   3  am  
  3   2   4  am  
  4   3   5  1   
  5   3  16  1   
  6   4   6  1   
  7   4  17  1   
  8   5   7  1   
  9   5   8  1   
 10   5   9  1   
 11   6  10  1   
 12   6  11  1   
 13   6  18  1   
 14   7  12  1   
 15   7  19  1   
 16   7  20  1   
 17   8  21  1   
 18   8  22  1   
 19   8  23  1   
 20   9  24  1   
 21   9  25  1   
 22   9  26  1   
 23  10  13  1   
 24  10  27  1   
 25  10  28  1   
 26  11  14  1   
 27  11  29  1   
 28  11  30  1   
 29  12  31  1   
 30  13  15  1   
 31  13  32  1   
 32  13  33  1   
 33  14  15  1   
 34  14  34  1   
 35  14  35  1   
 36  15  36  1   
 37  15  37  1   
@<TRIPOS>SUBSTRUCTURE
  1 ****   4 GROUP 4 **** **** 0

# MOE 2024.06 (io_trps.svl 2023.06)
