@<TRIPOS>MOLECULE
NONAME
36 37 1 0 0 
SMALL
USER_CHARGES


@<TRIPOS>ATOM
  1 CL       0.7540    -0.1300    -1.8930 Cl    1 <1>  -0.1770 
  2 C        2.3580    -0.0940    -1.2040 C.ar  1 <1>   0.1770 
  3 C        3.4120     0.3810    -1.9620 C.ar  1 <1>  -0.1500 
  4 C        2.5530    -0.5400     0.0890 C.ar  1 <1>  -0.1500 
  5 C        4.6820     0.4070    -1.4120 C.ar  1 <1>  -0.1500 
  6 C        3.8260    -0.5100     0.6310 C.ar  1 <1>  -0.1500 
  7 C        4.9080    -0.0370    -0.1100 C.ar  1 <1>   0.1170 
  8 N        6.2090    -0.0060     0.4410 N.am  1 <1>  -0.2370 
  9 C        6.8260    -1.0440     1.0860 C.2   1 <1>   0.5690 
 10 C        7.0440     1.0770     0.4250 C.2   1 <1>   0.5690 
 11 O        6.2960    -2.0730     1.4330 O.2   1 <1>  -0.5700 
 12 C        8.2920    -0.7060     1.4090 C.3   1 <1>   0.2510 
 13 O        6.8040     2.1550    -0.0540 O.2   1 <1>  -0.5700 
 14 C        8.3500     0.8000     1.1220 C.3   1 <1>  -0.0990 
 15 N        9.3270    -1.3930     0.5780 N.3   1 <1>  -0.8100 
 16 C       10.6990    -1.2240     1.1550 C.3   1 <1>   0.1710 
 17 C        9.0430    -2.8290     0.3820 C.3   1 <1>   0.0300 
 18 C       11.8560    -1.6080     0.2250 C.2   1 <1>   0.6590 
 19 O       12.4620    -2.6410     0.3640 O.2   1 <1>  -0.5700 
 20 O       12.1670    -0.7300    -0.7240 O.3   1 <1>  -0.4300 
 21 C       13.2050    -0.9740    -1.6490 C.3   1 <1>   0.0400 
 22 H        3.2370     0.7250    -2.9650 H     1 <1>   0.1500 
 23 H        1.7180    -0.9060     0.6590 H     1 <1>   0.1500 
 24 H        5.5050     0.7810    -1.9970 H     1 <1>   0.1500 
 25 H        3.9800    -0.8600     1.6370 H     1 <1>   0.1500 
 26 H        8.4660    -0.9090     2.4510 H     1 <1>   0.0800 
 27 H        8.3850     1.3640     2.0350 H     1 <1>   0.0800 
 28 H        9.1670     1.0790     0.4820 H     1 <1>   0.0800 
 29 H       10.7830    -1.8140     2.0500 H     1 <1>   0.0800 
 30 H       10.8540    -0.1970     1.4290 H     1 <1>   0.0800 
 31 H        8.1320    -2.9600    -0.1760 H     1 <1>   0.0800 
 32 H        8.9470    -3.3310     1.3300 H     1 <1>   0.0800 
 33 H        9.8330    -3.2980    -0.1800 H     1 <1>   0.0800 
 34 H       13.2710    -0.1350    -2.3180 H     1 <1>   0.0800 
 35 H       12.9760    -1.8700    -2.1990 H     1 <1>   0.0800 
 36 H       14.1300    -1.0950    -1.1110 H     1 <1>   0.0800 
@<TRIPOS>BOND
  1   1   2  1   
  2   2   3  ar  
  3   2   4  ar  
  4   3   5  ar  
  5   3  22  1   
  6   4   6  ar  
  7   4  23  1   
  8   5   7  ar  
  9   5  24  1   
 10   6   7  ar  
 11   6  25  1   
 12   7   8  1   
 13   8   9  am  
 14   8  10  am  
 15   9  11  2   
 16   9  12  1   
 17  10  13  2   
 18  10  14  1   
 19  12  14  1   
 20  12  15  1   
 21  12  26  1   
 22  14  27  1   
 23  14  28  1   
 24  15  16  1   
 25  15  17  1   
 26  16  18  1   
 27  16  29  1   
 28  16  30  1   
 29  17  31  1   
 30  17  32  1   
 31  17  33  1   
 32  18  19  2   
 33  18  20  1   
 34  20  21  1   
 35  21  34  1   
 36  21  35  1   
 37  21  36  1   
@<TRIPOS>SUBSTRUCTURE
  1 ****   8 GROUP 4 **** **** 0

# MOE 2024.06 (io_trps.svl 2023.06)
