@<TRIPOS>MOLECULE
NONAME
32 34 1 0 0 
SMALL
USER_CHARGES


@<TRIPOS>ATOM
  1 CL       9.1180    -0.8570    -1.0210 Cl    1 <1>  -0.1770 
  2 C        7.6170    -1.6070    -0.5540 C.ar  1 <1>   0.4870 
  3 N        7.6200    -2.9010    -0.3850 N.ar  1 <1>  -0.6200 
  4 C        6.4830    -0.8130    -0.3820 C.ar  1 <1>   0.2270 
  5 C        6.4480    -3.4290    -0.0260 C.ar  1 <1>   0.7200 
  6 N        6.2090     0.5270    -0.4910 N.2   1 <1>  -0.5650 
  7 C        5.3500    -1.4970    -0.0180 C.ar  1 <1>   0.1050 
  8 N        5.2960    -2.8220     0.1590 N.ar  1 <1>  -0.5670 
  9 N        6.4690    -4.7550     0.1410 N.pl3 1 <1>  -0.9000 
 10 C        4.9590     0.6160    -0.1920 C.2   1 <1>   0.0370 
 11 N        4.3670    -0.5750     0.1050 N.pl3 1 <1>   0.0480 
 12 C        2.9800    -0.8440     0.5330 C.3   1 <1>   0.4560 
 13 O        2.1940     0.3030     0.3980 O.3   1 <1>  -0.5600 
 14 C        2.2920    -1.9180    -0.3220 C.3   1 <1>   0.2000 
 15 C        0.8600    -0.1030     0.3700 C.3   1 <1>   0.2000 
 16 O        2.3590    -3.1790     0.2940 O.3   1 <1>  -0.6800 
 17 C        0.8580    -1.3970    -0.4500 C.3   1 <1>   0.2000 
 18 C       -0.0280     0.9930    -0.2270 C.3   1 <1>   0.1200 
 19 O       -0.0690    -2.2900     0.0690 O.3   1 <1>  -0.6800 
 20 O       -1.3530     0.5750    -0.2050 O.3   1 <1>  -0.6800 
 21 H        7.3010    -5.2110    -0.2300 H     1 <1>   0.4000 
 22 H        5.5940    -5.2540     0.0060 H     1 <1>   0.4000 
 23 H        4.4000     1.5380    -0.1680 H     1 <1>   0.1500 
 24 H        2.9670    -1.1270     1.5710 H     1 <1>   0.0800 
 25 H        2.7520    -1.9830    -1.2930 H     1 <1>   0.0800 
 26 H        0.5680    -0.2970     1.3890 H     1 <1>   0.0800 
 27 H        3.3050    -3.4580     0.3620 H     1 <1>   0.4000 
 28 H        0.6110    -1.2030    -1.4790 H     1 <1>   0.0800 
 29 H        0.2420     1.1900    -1.2500 H     1 <1>   0.0800 
 30 H        0.0400     1.8990     0.3490 H     1 <1>   0.0800 
 31 H        0.4340    -3.0960     0.3410 H     1 <1>   0.4000 
 32 H       -1.4170    -0.4020    -0.3000 H     1 <1>   0.4000 
@<TRIPOS>BOND
  1   1   2  1   
  2   2   3  ar  
  3   2   4  ar  
  4   3   5  ar  
  5   4   6  1   
  6   4   7  ar  
  7   5   8  ar  
  8   5   9  1   
  9   6  10  2   
 10   7   8  ar  
 11   7  11  1   
 12   9  21  1   
 13   9  22  1   
 14  10  11  1   
 15  10  23  1   
 16  11  12  1   
 17  12  13  1   
 18  12  14  1   
 19  12  24  1   
 20  13  15  1   
 21  14  16  1   
 22  14  17  1   
 23  14  25  1   
 24  15  17  1   
 25  15  18  1   
 26  15  26  1   
 27  16  27  1   
 28  17  19  1   
 29  17  28  1   
 30  18  20  1   
 31  18  29  1   
 32  18  30  1   
 33  19  31  1   
 34  20  32  1   
@<TRIPOS>SUBSTRUCTURE
  1 ****  11 GROUP 4 **** **** 0

# MOE 2024.06 (io_trps.svl 2023.06)
