@<TRIPOS>MOLECULE
NONAME
51 52 1 0 0 
SMALL
USER_CHARGES


@<TRIPOS>ATOM
  1 O        0.9260     0.6160     1.4030 O.3   1 <1>  -0.4300 
  2 C        1.3910     0.3800     0.1740 C.2   1 <1>   0.5390 
  3 C       -0.0660     1.6050     1.3320 C.3   1 <1>   0.1200 
  4 N        0.8770     1.0780    -0.7410 N.2   1 <1>  -0.6960 
  5 C        2.4630    -0.7080     0.0190 C.3   1 <1>   0.1220 
  6 C       -0.0800     2.0030    -0.1510 C.3   1 <1>   0.1660 
  7 C        3.8030    -0.0670     0.4000 C.2   1 <1>   0.5390 
  8 C        2.4930    -1.2400    -1.4370 C.3   1 <1>  -0.2400 
  9 C        2.1740    -1.9170     0.9400 C.3   1 <1>  -0.2400 
 10 C        0.2830     3.4910    -0.4470 C.3   1 <1>   0.0000 
 11 O        3.8850     0.5170     1.5980 O.3   1 <1>  -0.4300 
 12 N        4.8620    -0.0470    -0.2840 N.2   1 <1>  -0.6960 
 13 C       -0.7440     4.4300     0.2110 C.3   1 <1>  -0.2400 
 14 C        1.6890     3.8680     0.0590 C.3   1 <1>  -0.2400 
 15 C        0.2360     3.7400    -1.9650 C.3   1 <1>  -0.2400 
 16 C        5.1850     1.0160     1.7720 C.3   1 <1>   0.1200 
 17 C        5.8920     0.6680     0.4550 C.3   1 <1>   0.1660 
 18 C        6.4620     1.8790    -0.3450 C.3   1 <1>   0.0000 
 19 C        5.3730     2.8930    -0.7460 C.3   1 <1>  -0.2400 
 20 C        7.1420     1.3720    -1.6300 C.3   1 <1>  -0.2400 
 21 C        7.5290     2.6100     0.4890 C.3   1 <1>  -0.2400 
 22 H        0.2000     2.4100     1.9910 H     1 <1>   0.0800 
 23 H       -1.0040     1.1750     1.6300 H     1 <1>   0.0800 
 24 H       -1.0540     1.7960    -0.5590 H     1 <1>   0.0800 
 25 H        2.7250    -0.4390    -2.1180 H     1 <1>   0.0800 
 26 H        1.5370    -1.6500    -1.7090 H     1 <1>   0.0800 
 27 H        3.2450    -2.0010    -1.5480 H     1 <1>   0.0800 
 28 H        2.1710    -1.6130     1.9720 H     1 <1>   0.0800 
 29 H        2.9300    -2.6720     0.8140 H     1 <1>   0.0800 
 30 H        1.2140    -2.3430     0.7080 H     1 <1>   0.0800 
 31 H       -0.7130     4.3560     1.2830 H     1 <1>   0.0800 
 32 H       -1.7400     4.1910    -0.1200 H     1 <1>   0.0800 
 33 H       -0.5400     5.4530    -0.0540 H     1 <1>   0.0800 
 34 H        1.7740     3.7440     1.1220 H     1 <1>   0.0800 
 35 H        1.9140     4.8920    -0.1790 H     1 <1>   0.0800 
 36 H        2.4300     3.2470    -0.4110 H     1 <1>   0.0800 
 37 H       -0.7330     3.4910    -2.3600 H     1 <1>   0.0800 
 38 H        0.9680     3.1330    -2.4690 H     1 <1>   0.0800 
 39 H        0.4430     4.7700    -2.1920 H     1 <1>   0.0800 
 40 H        5.6400     0.5150     2.6070 H     1 <1>   0.0800 
 41 H        5.1260     2.0720     1.9600 H     1 <1>   0.0800 
 42 H        6.6970    -0.0150     0.6640 H     1 <1>   0.0800 
 43 H        4.6230     2.4170    -1.3540 H     1 <1>   0.0800 
 44 H        5.7990     3.6990    -1.3160 H     1 <1>   0.0800 
 45 H        4.8900     3.3120     0.1170 H     1 <1>   0.0800 
 46 H        6.4240     0.8850    -2.2670 H     1 <1>   0.0800 
 47 H        7.9150     0.6630    -1.3950 H     1 <1>   0.0800 
 48 H        7.5790     2.1860    -2.1800 H     1 <1>   0.0800 
 49 H        7.1030     3.0490     1.3730 H     1 <1>   0.0800 
 50 H        7.9780     3.4010    -0.0870 H     1 <1>   0.0800 
 51 H        8.3070     1.9290     0.7860 H     1 <1>   0.0800 
@<TRIPOS>BOND
  1   1   2  1   
  2   1   3  1   
  3   2   4  2   
  4   2   5  1   
  5   3   6  1   
  6   3  22  1   
  7   3  23  1   
  8   4   6  1   
  9   5   7  1   
 10   5   8  1   
 11   5   9  1   
 12   6  10  1   
 13   6  24  1   
 14   7  11  1   
 15   7  12  2   
 16   8  25  1   
 17   8  26  1   
 18   8  27  1   
 19   9  28  1   
 20   9  29  1   
 21   9  30  1   
 22  10  13  1   
 23  10  14  1   
 24  10  15  1   
 25  11  16  1   
 26  12  17  1   
 27  13  31  1   
 28  13  32  1   
 29  13  33  1   
 30  14  34  1   
 31  14  35  1   
 32  14  36  1   
 33  15  37  1   
 34  15  38  1   
 35  15  39  1   
 36  16  17  1   
 37  16  40  1   
 38  16  41  1   
 39  17  18  1   
 40  17  42  1   
 41  18  19  1   
 42  18  20  1   
 43  18  21  1   
 44  19  43  1   
 45  19  44  1   
 46  19  45  1   
 47  20  46  1   
 48  20  47  1   
 49  20  48  1   
 50  21  49  1   
 51  21  50  1   
 52  21  51  1   
@<TRIPOS>SUBSTRUCTURE
  1 ****   7 GROUP 4 **** **** 0

# MOE 2024.06 (io_trps.svl 2023.06)
