@<TRIPOS>MOLECULE
NONAME
49 52 1 0 0 
SMALL
USER_CHARGES


@<TRIPOS>ATOM
  1 O        1.4940    -1.5560    -0.2460 O.3   1 <1>  -0.3630 
  2 C        2.6860    -1.3600     0.3250 C.ar  1 <1>   0.0830 
  3 C        0.9080    -2.6790     0.4120 C.3   1 <1>   0.4000 
  4 C        2.9010    -2.2900     1.2990 C.ar  1 <1>   0.0830 
  5 C        3.6230    -0.3890     0.0320 C.ar  1 <1>  -0.1500 
  6 O        1.8530    -3.1150     1.3870 O.3   1 <1>  -0.3630 
  7 C        4.0670    -2.3030     2.0370 C.ar  1 <1>  -0.1500 
  8 C        4.8120    -0.3850     0.7560 C.ar  1 <1>  -0.1440 
  9 C        5.0240    -1.3380     1.7530 C.ar  1 <1>  -0.1500 
 10 C        5.8880     0.6460     0.4540 C.3   1 <1>   0.2540 
 11 N        7.0660    -0.0110    -0.1440 N.3   1 <1>  -0.8100 
 12 C        6.7460    -0.6790    -1.4330 C.3   1 <1>   0.1100 
 13 C        8.2000     0.9280    -0.3080 C.3   1 <1>   0.1100 
 14 C        7.9770    -1.3830    -2.0550 C.3   1 <1>   0.3430 
 15 C        9.4520     0.2370    -0.9050 C.3   1 <1>   0.3430 
 16 N        9.1840    -1.2130    -1.1870 N.4   1 <1>  -0.9590 
 17 C       10.3750    -1.9790    -1.6340 C.3   1 <1>   0.4860 
 18 C       11.4680    -1.8280    -0.5960 C.ar  1 <1>  -0.1430 
 19 C       11.3440    -2.4320     0.6470 C.ar  1 <1>  -0.1500 
 20 C       12.5970    -1.0730    -0.8800 C.ar  1 <1>  -0.1500 
 21 C       12.3320    -2.2780     1.6060 C.ar  1 <1>  -0.1430 
 22 C       13.5850    -0.9170     0.0760 C.ar  1 <1>  -0.1500 
 23 C       13.4500    -1.5160     1.3150 C.ar  1 <1>  -0.1500 
 24 C       12.1950    -2.9380     2.9670 C.3   1 <1>  -0.0970 
 25 H        0.7350    -3.4650    -0.3010 H     1 <1>   0.0800 
 26 H       -0.0010    -2.3760     0.9010 H     1 <1>   0.0800 
 27 H        3.4180     0.3300    -0.7390 H     1 <1>   0.1500 
 28 H        4.2160    -3.0420     2.8030 H     1 <1>   0.1500 
 29 H        5.9450    -1.3280     2.3110 H     1 <1>   0.1500 
 30 H        6.1710     1.1260     1.3760 H     1 <1>   0.0800 
 31 H        5.5050     1.4010    -0.2120 H     1 <1>   0.0800 
 32 H        6.3560     0.0400    -2.1330 H     1 <1>   0.0800 
 33 H        5.9820    -1.4230    -1.2770 H     1 <1>   0.0800 
 34 H        8.4610     1.3440     0.6510 H     1 <1>   0.0800 
 35 H        7.9100     1.7460    -0.9470 H     1 <1>   0.0800 
 36 H        8.1620    -0.9720    -3.0330 H     1 <1>   0.0800 
 37 H        7.7520    -2.4300    -2.1730 H     1 <1>   0.0800 
 38 H       10.2640     0.3300    -0.2020 H     1 <1>   0.0800 
 39 H        9.7420     0.7450    -1.8100 H     1 <1>   0.0800 
 40 H        8.8900    -1.5730    -0.2670 H     1 <1>   0.4500 
 41 H       10.7200    -1.6100    -2.5850 H     1 <1>   0.0800 
 42 H       10.1260    -3.0230    -1.7400 H     1 <1>   0.0800 
 43 H       10.4800    -3.0300     0.8820 H     1 <1>   0.1500 
 44 H       12.7260    -0.6020    -1.8390 H     1 <1>   0.1500 
 45 H       14.4630    -0.3330    -0.1410 H     1 <1>   0.1500 
 46 H       14.2250    -1.3880     2.0530 H     1 <1>   0.1500 
 47 H       11.7080    -2.2670     3.6520 H     1 <1>   0.0800 
 48 H       13.1630    -3.1910     3.3600 H     1 <1>   0.0800 
 49 H       11.6160    -3.8420     2.8950 H     1 <1>   0.0800 
@<TRIPOS>BOND
  1   1   2  1   
  2   1   3  1   
  3   2   4  ar  
  4   2   5  ar  
  5   3   6  1   
  6   3  25  1   
  7   3  26  1   
  8   4   6  1   
  9   4   7  ar  
 10   5   8  ar  
 11   5  27  1   
 12   7   9  ar  
 13   7  28  1   
 14   8   9  ar  
 15   8  10  1   
 16   9  29  1   
 17  10  11  1   
 18  10  30  1   
 19  10  31  1   
 20  11  12  1   
 21  11  13  1   
 22  12  14  1   
 23  12  32  1   
 24  12  33  1   
 25  13  15  1   
 26  13  34  1   
 27  13  35  1   
 28  14  16  1   
 29  14  36  1   
 30  14  37  1   
 31  15  16  1   
 32  15  38  1   
 33  15  39  1   
 34  16  17  1   
 35  16  40  1   
 36  17  18  1   
 37  17  41  1   
 38  17  42  1   
 39  18  19  ar  
 40  18  20  ar  
 41  19  21  ar  
 42  19  43  1   
 43  20  22  ar  
 44  20  44  1   
 45  21  23  ar  
 46  21  24  1   
 47  22  23  ar  
 48  22  45  1   
 49  23  46  1   
 50  24  47  1   
 51  24  48  1   
 52  24  49  1   
@<TRIPOS>SUBSTRUCTURE
  1 ****  11 GROUP 4 **** **** 0

# MOE 2024.06 (io_trps.svl 2023.06)
