@<TRIPOS>MOLECULE
NONAME
39 40 1 0 0 
SMALL
USER_CHARGES


@<TRIPOS>ATOM
  1 O       -0.5140    -0.5270    -0.5340 O.2   1 <1>  -0.5700 
  2 C       -0.3990    -1.7320    -0.4200 C.2   1 <1>   0.5440 
  3 N        0.8660    -2.2740    -0.3730 N.am  1 <1>  -0.6600 
  4 C       -1.5930    -2.5520    -0.3270 C.ar  1 <1>   0.0860 
  5 C        1.1590    -3.6540     0.1220 C.3   1 <1>   0.1400 
  6 C        2.0740    -1.4280    -0.6190 C.3   1 <1>   0.1400 
  7 C       -2.6000    -2.2390     0.5820 C.ar  1 <1>  -0.1500 
  8 C       -1.7850    -3.6670    -1.1470 C.ar  1 <1>  -0.1500 
  9 C        2.5740    -3.7420     0.7310 C.3   1 <1>   0.2000 
 10 C        3.2840    -2.2840    -1.0550 C.3   1 <1>   0.2000 
 11 C       -3.7460    -3.0090     0.6730 C.ar  1 <1>   0.0820 
 12 C       -2.9220    -4.4490    -1.0500 C.ar  1 <1>  -0.1500 
 13 O        3.5560    -3.3580    -0.1900 O.3   1 <1>  -0.5600 
 14 C        2.9200    -5.1580     1.1810 C.3   1 <1>  -0.2400 
 15 C        4.5640    -1.4590    -1.1500 C.3   1 <1>  -0.2400 
 16 O       -4.6990    -2.6630     1.5690 O.3   1 <1>  -0.2320 
 17 C       -3.9060    -4.1250    -0.1340 C.ar  1 <1>  -0.1500 
 18 C       -5.9640    -2.4010     1.2500 C.2   1 <1>   0.6590 
 19 O       -6.8450    -2.5550     2.0520 O.2   1 <1>  -0.5700 
 20 C       -6.2710    -1.8580    -0.1310 C.3   1 <1>  -0.1790 
 21 H        1.0860    -4.3500    -0.6950 H     1 <1>   0.0800 
 22 H        0.4360    -3.9310     0.8700 H     1 <1>   0.0800 
 23 H        2.3160    -0.8880     0.2790 H     1 <1>   0.0800 
 24 H        1.8560    -0.7060    -1.3880 H     1 <1>   0.0800 
 25 H       -2.4830    -1.3790     1.2180 H     1 <1>   0.1500 
 26 H       -1.0290    -3.9160    -1.8720 H     1 <1>   0.1500 
 27 H        2.6400    -3.0750     1.5740 H     1 <1>   0.0800 
 28 H        3.0670    -2.7090    -2.0200 H     1 <1>   0.0800 
 29 H       -3.0420    -5.3090    -1.6880 H     1 <1>   0.1500 
 30 H        2.8910    -5.8330     0.3450 H     1 <1>   0.0800 
 31 H        2.2190    -5.4940     1.9230 H     1 <1>   0.0800 
 32 H        3.9050    -5.1710     1.6120 H     1 <1>   0.0800 
 33 H        4.8160    -1.0510    -0.1880 H     1 <1>   0.0800 
 34 H        4.4320    -0.6510    -1.8460 H     1 <1>   0.0800 
 35 H        5.3720    -2.0790    -1.4950 H     1 <1>   0.0800 
 36 H       -4.7880    -4.7370    -0.0460 H     1 <1>   0.1500 
 37 H       -5.5800    -1.0740    -0.3790 H     1 <1>   0.0800 
 38 H       -7.2680    -1.4590    -0.1450 H     1 <1>   0.0800 
 39 H       -6.2020    -2.6420    -0.8610 H     1 <1>   0.0800 
@<TRIPOS>BOND
  1   1   2  2   
  2   2   3  am  
  3   2   4  1   
  4   3   5  1   
  5   3   6  1   
  6   4   7  ar  
  7   4   8  ar  
  8   5   9  1   
  9   5  21  1   
 10   5  22  1   
 11   6  10  1   
 12   6  23  1   
 13   6  24  1   
 14   7  11  ar  
 15   7  25  1   
 16   8  12  ar  
 17   8  26  1   
 18   9  13  1   
 19   9  14  1   
 20   9  27  1   
 21  10  13  1   
 22  10  15  1   
 23  10  28  1   
 24  11  16  1   
 25  11  17  ar  
 26  12  17  ar  
 27  12  29  1   
 28  14  30  1   
 29  14  31  1   
 30  14  32  1   
 31  15  33  1   
 32  15  34  1   
 33  15  35  1   
 34  16  18  1   
 35  17  36  1   
 36  18  19  2   
 37  18  20  1   
 38  20  37  1   
 39  20  38  1   
 40  20  39  1   
@<TRIPOS>SUBSTRUCTURE
  1 ****   4 GROUP 4 **** **** 0

# MOE 2024.06 (io_trps.svl 2023.06)
