@<TRIPOS>MOLECULE
NONAME
46 48 1 0 0 
SMALL
USER_CHARGES


@<TRIPOS>ATOM
  1 BR       0.1530    -0.6160    -1.3360 Br    1 <1>  -0.1110 
  2 C        1.9830    -0.5340    -0.7580 C.ar  1 <1>   0.1110 
  3 C        2.9730    -0.9950    -1.6040 C.ar  1 <1>  -0.1500 
  4 C        2.2690    -0.0130     0.4890 C.ar  1 <1>  -0.1500 
  5 C        4.2870    -0.9370    -1.1770 C.ar  1 <1>  -0.1500 
  6 C        3.5890     0.0360     0.8990 C.ar  1 <1>  -0.1500 
  7 C        4.6230    -0.4350     0.0840 C.ar  1 <1>   0.0860 
  8 C        5.9960    -0.4010     0.5450 C.2   1 <1>   0.5440 
  9 O        6.5060     0.6440     0.9060 O.2   1 <1>  -0.5700 
 10 N        6.7570    -1.5270     0.6350 N.am  1 <1>  -0.4300 
 11 N        6.3210    -2.9170     0.4280 N.am  1 <1>  -0.4300 
 12 C        6.3570    -3.6030    -0.7480 C.2   1 <1>   0.5690 
 13 O        6.8520    -3.1410    -1.7530 O.2   1 <1>  -0.5700 
 14 C        5.7270    -4.9930    -0.8160 C.3   1 <1>  -0.0190 
 15 C        4.1950    -4.9210    -0.6560 C.3   1 <1>  -0.1600 
 16 C        6.3430    -5.9690     0.2080 C.3   1 <1>  -0.1600 
 17 C        3.5550    -6.3140    -0.7490 C.3   1 <1>  -0.1600 
 18 C        5.6990    -7.3600     0.1090 C.3   1 <1>  -0.1600 
 19 C        4.1710    -7.2890     0.2690 C.3   1 <1>   0.0630 
 20 C        3.5390    -8.6740     0.1580 C.ar  1 <1>  -0.1430 
 21 C        3.6430    -9.4250    -1.0050 C.ar  1 <1>  -0.1500 
 22 C        2.8430    -9.2040     1.2360 C.ar  1 <1>  -0.1500 
 23 C        3.0640   -10.6800    -1.0900 C.ar  1 <1>  -0.1500 
 24 C        2.2630   -10.4580     1.1540 C.ar  1 <1>  -0.1500 
 25 C        2.3730   -11.1980    -0.0090 C.ar  1 <1>  -0.1500 
 26 H        2.7200    -1.3850    -2.5740 H     1 <1>   0.1500 
 27 H        1.4750     0.3480     1.1190 H     1 <1>   0.1500 
 28 H        5.0730    -1.2790    -1.8300 H     1 <1>   0.1500 
 29 H        3.8360     0.4460     1.8640 H     1 <1>   0.1500 
 30 H        7.7490    -1.3700     0.8450 H     1 <1>   0.3700 
 31 H        5.9110    -3.3820     1.2430 H     1 <1>   0.3700 
 32 H        5.9340    -5.3810    -1.8000 H     1 <1>   0.0800 
 33 H        3.7840    -4.2900    -1.4270 H     1 <1>   0.0800 
 34 H        3.9430    -4.4810     0.2940 H     1 <1>   0.0800 
 35 H        6.2070    -5.5940     1.2070 H     1 <1>   0.0800 
 36 H        7.4020    -6.0550     0.0290 H     1 <1>   0.0800 
 37 H        3.6920    -6.6970    -1.7450 H     1 <1>   0.0800 
 38 H        2.4960    -6.2390    -0.5720 H     1 <1>   0.0800 
 39 H        6.1060    -8.0030     0.8710 H     1 <1>   0.0800 
 40 H        5.9440    -7.7920    -0.8460 H     1 <1>   0.0800 
 41 H        3.9660    -6.9020     1.2520 H     1 <1>   0.0800 
 42 H        4.1750    -9.0390    -1.8560 H     1 <1>   0.1500 
 43 H        2.7470    -8.6440     2.1490 H     1 <1>   0.1500 
 44 H        3.1510   -11.2530    -1.9960 H     1 <1>   0.1500 
 45 H        1.7260   -10.8590     1.9960 H     1 <1>   0.1500 
 46 H        1.9230   -12.1730    -0.0740 H     1 <1>   0.1500 
@<TRIPOS>BOND
  1   1   2  1   
  2   2   3  ar  
  3   2   4  ar  
  4   3   5  ar  
  5   3  26  1   
  6   4   6  ar  
  7   4  27  1   
  8   5   7  ar  
  9   5  28  1   
 10   6   7  ar  
 11   6  29  1   
 12   7   8  1   
 13   8   9  2   
 14   8  10  am  
 15  10  11  1   
 16  10  30  1   
 17  11  12  am  
 18  11  31  1   
 19  12  13  2   
 20  12  14  1   
 21  14  15  1   
 22  14  16  1   
 23  14  32  1   
 24  15  17  1   
 25  15  33  1   
 26  15  34  1   
 27  16  18  1   
 28  16  35  1   
 29  16  36  1   
 30  17  19  1   
 31  17  37  1   
 32  17  38  1   
 33  18  19  1   
 34  18  39  1   
 35  18  40  1   
 36  19  20  1   
 37  19  41  1   
 38  20  21  ar  
 39  20  22  ar  
 40  21  23  ar  
 41  21  42  1   
 42  22  24  ar  
 43  22  43  1   
 44  23  25  ar  
 45  23  44  1   
 46  24  25  ar  
 47  24  45  1   
 48  25  46  1   
@<TRIPOS>SUBSTRUCTURE
  1 ****  15 GROUP 4 **** **** 0

# MOE 2024.06 (io_trps.svl 2023.06)
