@<TRIPOS>MOLECULE
NONAME
56 58 1 0 0 
SMALL
USER_CHARGES


@<TRIPOS>ATOM
  1 S        0.7100     0.2930     0.3790 S.o2  1 <1>   1.4470 
  2 O        1.4700     0.3740     1.6080 O.2   1 <1>  -0.6500 
  3 O        1.2410    -0.4360    -0.7500 O.2   1 <1>  -0.6500 
  4 N        0.4840     1.9310    -0.1310 N.am  1 <1>  -0.6930 
  5 C       -0.9790    -0.2480     0.7640 C.ar  1 <1>  -0.0090 
  6 C       -0.4880     2.2300    -1.0800 C.ar  1 <1>   0.1990 
  7 C        1.6830     2.8230    -0.0580 C.3   1 <1>   0.2570 
  8 C       -1.8550    -0.6360    -0.2420 C.ar  1 <1>  -0.1500 
  9 C       -1.4520    -0.2590     2.0720 C.ar  1 <1>  -0.1500 
 10 C       -1.6930     2.8420    -0.7220 C.ar  1 <1>  -0.1430 
 11 C       -0.2730     1.8970    -2.4130 C.ar  1 <1>  -0.1500 
 12 C        2.8160     2.4720    -1.0390 C.2   1 <1>   0.5690 
 13 C       -3.1540    -1.0190     0.0430 C.ar  1 <1>  -0.1500 
 14 C       -2.7500    -0.6420     2.3640 C.ar  1 <1>  -0.1500 
 15 C       -2.6450     3.1030    -1.6960 C.ar  1 <1>  -0.1500 
 16 C       -2.0100     3.2350     0.7190 C.3   1 <1>  -0.0160 
 17 C       -1.2260     2.1610    -3.3780 C.ar  1 <1>  -0.1500 
 18 O        2.7350     2.9570    -2.1460 O.2   1 <1>  -0.5700 
 19 N        3.8840     1.6690    -0.6990 N.am  1 <1>  -0.6600 
 20 C       -3.6100    -1.0230     1.3490 C.ar  1 <1>  -0.1430 
 21 C       -2.4170     2.7650    -3.0180 C.ar  1 <1>  -0.1500 
 22 C       -1.6510     4.7010     0.9740 C.3   1 <1>  -0.2400 
 23 C        4.2220     1.1820     0.6700 C.3   1 <1>   0.1400 
 24 C        4.7770     1.1150    -1.7580 C.3   1 <1>   0.1400 
 25 C       -5.0340    -1.4440     1.6640 C.3   1 <1>  -0.0970 
 26 C        5.6790     1.5200     1.0030 C.3   1 <1>  -0.1600 
 27 C        6.2360     1.4640    -1.4500 C.3   1 <1>  -0.1600 
 28 C        6.6480     0.9770    -0.0550 C.3   1 <1>  -0.1600 
 29 H        2.0470     2.8480     0.9500 H     1 <1>   0.0800 
 30 H        1.3670     3.8230    -0.2930 H     1 <1>   0.0800 
 31 H       -1.5180    -0.6340    -1.2650 H     1 <1>   0.1500 
 32 H       -0.7970     0.0360     2.8740 H     1 <1>   0.1500 
 33 H        0.6520     1.4270    -2.6970 H     1 <1>   0.1500 
 34 H       -3.8080    -1.3130    -0.7600 H     1 <1>   0.1500 
 35 H       -3.0860    -0.6430     3.3870 H     1 <1>   0.1500 
 36 H       -3.5740     3.5740    -1.4280 H     1 <1>   0.1500 
 37 H       -1.4780     2.6110     1.4130 H     1 <1>   0.0800 
 38 H       -3.0600     3.0870     0.9060 H     1 <1>   0.0800 
 39 H       -1.0390     1.8990    -4.4040 H     1 <1>   0.1500 
 40 H       -3.1620     2.9740    -3.7650 H     1 <1>   0.1500 
 41 H       -1.8880     4.9690     1.9880 H     1 <1>   0.0800 
 42 H       -2.2030     5.3400     0.3080 H     1 <1>   0.0800 
 43 H       -0.6000     4.8580     0.8100 H     1 <1>   0.0800 
 44 H        4.0750     0.1150     0.7070 H     1 <1>   0.0800 
 45 H        3.5930     1.6280     1.4160 H     1 <1>   0.0800 
 46 H        4.5130     1.5010    -2.7270 H     1 <1>   0.0800 
 47 H        4.6550     0.0450    -1.7870 H     1 <1>   0.0800 
 48 H       -5.0730    -2.5080     1.8160 H     1 <1>   0.0800 
 49 H       -5.6900    -1.1840     0.8530 H     1 <1>   0.0800 
 50 H       -5.3850    -0.9530     2.5540 H     1 <1>   0.0800 
 51 H        5.9270     1.1050     1.9640 H     1 <1>   0.0800 
 52 H        5.7800     2.5890     1.0720 H     1 <1>   0.0800 
 53 H        6.3570     2.5320    -1.5170 H     1 <1>   0.0800 
 54 H        6.8720     1.0150    -2.1930 H     1 <1>   0.0800 
 55 H        6.6330    -0.1000    -0.0350 H     1 <1>   0.0800 
 56 H        7.6500     1.3020     0.1640 H     1 <1>   0.0800 
@<TRIPOS>BOND
  1   1   2  2   
  2   1   3  2   
  3   1   4  am  
  4   1   5  1   
  5   4   6  1   
  6   4   7  1   
  7   5   8  ar  
  8   5   9  ar  
  9   6  10  ar  
 10   6  11  ar  
 11   7  12  1   
 12   7  29  1   
 13   7  30  1   
 14   8  13  ar  
 15   8  31  1   
 16   9  14  ar  
 17   9  32  1   
 18  10  15  ar  
 19  10  16  1   
 20  11  17  ar  
 21  11  33  1   
 22  12  18  2   
 23  12  19  am  
 24  13  20  ar  
 25  13  34  1   
 26  14  20  ar  
 27  14  35  1   
 28  15  21  ar  
 29  15  36  1   
 30  16  22  1   
 31  16  37  1   
 32  16  38  1   
 33  17  21  ar  
 34  17  39  1   
 35  19  23  1   
 36  19  24  1   
 37  20  25  1   
 38  21  40  1   
 39  22  41  1   
 40  22  42  1   
 41  22  43  1   
 42  23  26  1   
 43  23  44  1   
 44  23  45  1   
 45  24  27  1   
 46  24  46  1   
 47  24  47  1   
 48  25  48  1   
 49  25  49  1   
 50  25  50  1   
 51  26  28  1   
 52  26  51  1   
 53  26  52  1   
 54  27  28  1   
 55  27  53  1   
 56  27  54  1   
 57  28  55  1   
 58  28  56  1   
@<TRIPOS>SUBSTRUCTURE
  1 ****   4 GROUP 4 **** **** 0

# MOE 2024.06 (io_trps.svl 2023.06)
