@<TRIPOS>MOLECULE
NONAME
50 52 1 0 0 
SMALL
USER_CHARGES


@<TRIPOS>ATOM
  1 O       -0.7080    -0.4970     1.5880 O.2   1 <1>  -0.5700 
  2 C        0.2010    -0.9710     0.9260 C.2   1 <1>   0.5440 
  3 N        0.7410    -0.2030    -0.0830 N.am  1 <1>  -0.6600 
  4 C        0.6560    -2.3220     1.1930 C.ar  1 <1>   0.0860 
  5 C        0.4820     1.2630    -0.1840 C.3   1 <1>   0.1400 
  6 C        1.4460    -0.7530    -1.2810 C.3   1 <1>   0.1400 
  7 C       -0.2590    -3.3830     1.2910 C.ar  1 <1>   0.1170 
  8 C        2.0150    -2.6000     1.3540 C.ar  1 <1>  -0.1500 
  9 C        1.7630     2.0100    -0.5940 C.3   1 <1>   0.1200 
 10 C        2.6780     0.1020    -1.6180 C.3   1 <1>   0.1200 
 11 N       -1.6290    -3.1110     1.2020 N.am  1 <1>  -0.5470 
 12 C        0.2120    -4.6760     1.4990 C.ar  1 <1>  -0.1500 
 13 C        2.4680    -3.8860     1.5670 C.ar  1 <1>  -0.1500 
 14 O        2.3210     1.4490    -1.7500 O.3   1 <1>  -0.5600 
 15 C       -2.6780    -3.8470     0.7320 C.2   1 <1>   0.5690 
 16 C        1.5620    -4.9300     1.6340 C.ar  1 <1>  -0.1500 
 17 O       -2.5710    -4.9760     0.3230 O.2   1 <1>  -0.5700 
 18 C       -4.0380    -3.1830     0.7140 C.3   1 <1>  -0.0990 
 19 C       -4.1000    -1.9880    -0.2530 C.3   1 <1>   0.0630 
 20 C       -5.4390    -1.2690    -0.1070 C.ar  1 <1>  -0.1440 
 21 C       -3.8620    -2.4070    -1.7100 C.3   1 <1>  -0.2400 
 22 C       -5.4760     0.0270     0.3880 C.ar  1 <1>  -0.1500 
 23 C       -6.6320    -1.8890    -0.4560 C.ar  1 <1>  -0.1500 
 24 C       -6.6820     0.6910     0.5330 C.ar  1 <1>  -0.1500 
 25 C       -7.8380    -1.2260    -0.3120 C.ar  1 <1>  -0.1500 
 26 C       -7.8640     0.0650     0.1820 C.ar  1 <1>  -0.1500 
 27 H        0.1350     1.6480     0.7590 H     1 <1>   0.0800 
 28 H       -0.2840     1.4390    -0.9190 H     1 <1>   0.0800 
 29 H        0.7720    -0.7360    -2.1200 H     1 <1>   0.0800 
 30 H        1.7450    -1.7730    -1.1240 H     1 <1>   0.0800 
 31 H        2.7210    -1.7890     1.3090 H     1 <1>   0.1500 
 32 H        2.4930     1.9680     0.1960 H     1 <1>   0.0800 
 33 H        1.5400     3.0410    -0.8040 H     1 <1>   0.0800 
 34 H        3.1060    -0.2160    -2.5520 H     1 <1>   0.0800 
 35 H        3.4240     0.0170    -0.8480 H     1 <1>   0.0800 
 36 H       -1.8530    -2.1370     1.4470 H     1 <1>   0.3700 
 37 H       -0.4860    -5.4920     1.5640 H     1 <1>   0.1500 
 38 H        3.5210    -4.0820     1.6840 H     1 <1>   0.1500 
 39 H        1.9080    -5.9370     1.7950 H     1 <1>   0.1500 
 40 H       -4.2670    -2.8500     1.7090 H     1 <1>   0.0800 
 41 H       -4.7750    -3.9150     0.4380 H     1 <1>   0.0800 
 42 H       -3.3200    -1.2940     0.0130 H     1 <1>   0.0800 
 43 H       -4.5650    -3.1610    -2.0140 H     1 <1>   0.0800 
 44 H       -2.8680    -2.8000    -1.8340 H     1 <1>   0.0800 
 45 H       -3.9720    -1.5550    -2.3580 H     1 <1>   0.0800 
 46 H       -4.5660     0.5290     0.6670 H     1 <1>   0.1500 
 47 H       -6.6300    -2.8930    -0.8420 H     1 <1>   0.1500 
 48 H       -6.6990     1.6960     0.9180 H     1 <1>   0.1500 
 49 H       -8.7560    -1.7150    -0.5860 H     1 <1>   0.1500 
 50 H       -8.8020     0.5820     0.2940 H     1 <1>   0.1500 
@<TRIPOS>BOND
  1   1   2  2   
  2   2   3  am  
  3   2   4  1   
  4   3   5  1   
  5   3   6  1   
  6   4   7  ar  
  7   4   8  ar  
  8   5   9  1   
  9   5  27  1   
 10   5  28  1   
 11   6  10  1   
 12   6  29  1   
 13   6  30  1   
 14   7  11  1   
 15   7  12  ar  
 16   8  13  ar  
 17   8  31  1   
 18   9  14  1   
 19   9  32  1   
 20   9  33  1   
 21  10  14  1   
 22  10  34  1   
 23  10  35  1   
 24  11  15  am  
 25  11  36  1   
 26  12  16  ar  
 27  12  37  1   
 28  13  16  ar  
 29  13  38  1   
 30  15  17  2   
 31  15  18  1   
 32  16  39  1   
 33  18  19  1   
 34  18  40  1   
 35  18  41  1   
 36  19  20  1   
 37  19  21  1   
 38  19  42  1   
 39  20  22  ar  
 40  20  23  ar  
 41  21  43  1   
 42  21  44  1   
 43  21  45  1   
 44  22  24  ar  
 45  22  46  1   
 46  23  25  ar  
 47  23  47  1   
 48  24  26  ar  
 49  24  48  1   
 50  25  26  ar  
 51  25  49  1   
 52  26  50  1   
@<TRIPOS>SUBSTRUCTURE
  1 ****  11 GROUP 4 **** **** 0

# MOE 2024.06 (io_trps.svl 2023.06)
