@<TRIPOS>MOLECULE
NONAME
44 46 1 0 0 
SMALL
USER_CHARGES


@<TRIPOS>ATOM
  1 O        0.6790    -0.1380     3.1520 O.3   1 <1>  -0.0190 
  2 N        1.9350    -0.0190     2.8660 N.2   1 <1>  -0.4100 
  3 C        0.1830    -0.7740     2.1290 C.2   1 <1>   0.2980 
  4 C        2.1460    -0.5740     1.7250 C.2   1 <1>   0.4620 
  5 N        1.0140    -1.0800     1.2150 N.2   1 <1>  -0.5650 
  6 C       -1.3130    -1.0780     2.1300 C.3   1 <1>   0.5230 
  7 C        3.4270    -0.6510     1.0440 C.ar  1 <1>   0.0540 
  8 N       -1.7960    -1.5140     0.7740 N.4   1 <1>  -0.9590 
  9 C        3.6100    -1.4310    -0.1000 C.ar  1 <1>  -0.1500 
 10 C        4.5310     0.0630     1.5120 C.ar  1 <1>  -0.1500 
 11 C       -1.8030    -0.3760    -0.1950 C.3   1 <1>   0.3430 
 12 C       -3.1090    -2.2180     0.8360 C.3   1 <1>   0.3430 
 13 C        4.8340    -1.4980    -0.7540 C.ar  1 <1>   0.0830 
 14 C        5.7560     0.0110     0.8730 C.ar  1 <1>  -0.1500 
 15 C       -2.1320    -0.8980    -1.5940 C.3   1 <1>  -0.1600 
 16 C       -3.4600    -2.7690    -0.5480 C.3   1 <1>  -0.1600 
 17 O        5.0270    -2.2580    -1.8710 O.3   1 <1>  -0.3630 
 18 C        5.9210    -0.7680    -0.2670 C.ar  1 <1>   0.0830 
 19 C       -3.4580    -1.6700    -1.6180 C.3   1 <1>  -0.1600 
 20 C        4.0720    -3.1960    -2.3130 C.3   1 <1>   0.0400 
 21 O        7.1060    -0.8510    -0.9340 O.3   1 <1>  -0.3630 
 22 C        8.2470    -0.1360    -0.5200 C.3   1 <1>   0.0400 
 23 H       -1.8520    -0.2010     2.4460 H     1 <1>   0.0800 
 24 H       -1.4920    -1.8600     2.8490 H     1 <1>   0.0800 
 25 H       -1.0850    -2.1750     0.4240 H     1 <1>   0.4500 
 26 H        2.7720    -1.9860    -0.4720 H     1 <1>   0.1500 
 27 H        4.4320     0.6730     2.3930 H     1 <1>   0.1500 
 28 H       -0.8360     0.1030    -0.2150 H     1 <1>   0.0800 
 29 H       -2.5400     0.3530     0.0980 H     1 <1>   0.0800 
 30 H       -3.8780    -1.5320     1.1520 H     1 <1>   0.0800 
 31 H       -3.0640    -3.0310     1.5420 H     1 <1>   0.0800 
 32 H        6.5680     0.5830     1.2790 H     1 <1>   0.1500 
 33 H       -1.3310    -1.5310    -1.9360 H     1 <1>   0.0800 
 34 H       -2.1930    -0.0660    -2.2740 H     1 <1>   0.0800 
 35 H       -4.4350    -3.2240    -0.5080 H     1 <1>   0.0800 
 36 H       -2.7590    -3.5410    -0.8140 H     1 <1>   0.0800 
 37 H       -3.6090    -2.1070    -2.5920 H     1 <1>   0.0800 
 38 H       -4.2740    -0.9890    -1.4370 H     1 <1>   0.0800 
 39 H        4.4940    -3.7280    -3.1470 H     1 <1>   0.0800 
 40 H        3.1870    -2.6720    -2.6250 H     1 <1>   0.0800 
 41 H        3.8600    -3.8820    -1.5120 H     1 <1>   0.0800 
 42 H        9.0450    -0.3590    -1.2040 H     1 <1>   0.0800 
 43 H        8.5170    -0.4530     0.4720 H     1 <1>   0.0800 
 44 H        8.0280     0.9170    -0.5460 H     1 <1>   0.0800 
@<TRIPOS>BOND
  1   1   2  1   
  2   1   3  1   
  3   2   4  2   
  4   3   5  2   
  5   3   6  1   
  6   4   5  1   
  7   4   7  1   
  8   6   8  1   
  9   6  23  1   
 10   6  24  1   
 11   7   9  ar  
 12   7  10  ar  
 13   8  11  1   
 14   8  12  1   
 15   8  25  1   
 16   9  13  ar  
 17   9  26  1   
 18  10  14  ar  
 19  10  27  1   
 20  11  15  1   
 21  11  28  1   
 22  11  29  1   
 23  12  16  1   
 24  12  30  1   
 25  12  31  1   
 26  13  17  1   
 27  13  18  ar  
 28  14  18  ar  
 29  14  32  1   
 30  15  19  1   
 31  15  33  1   
 32  15  34  1   
 33  16  19  1   
 34  16  35  1   
 35  16  36  1   
 36  17  20  1   
 37  18  21  1   
 38  19  37  1   
 39  19  38  1   
 40  20  39  1   
 41  20  40  1   
 42  20  41  1   
 43  21  22  1   
 44  22  42  1   
 45  22  43  1   
 46  22  44  1   
@<TRIPOS>SUBSTRUCTURE
  1 ****   5 GROUP 4 **** **** 0

# MOE 2024.06 (io_trps.svl 2023.06)
