@<TRIPOS>MOLECULE
NONAME
34 35 1 0 0 
SMALL
USER_CHARGES


@<TRIPOS>ATOM
  1 CL      -0.2220     1.8510     1.8290 Cl    1 <1>  -0.1770 
  2 C       -1.7530     1.9030     0.9930 C.ar  1 <1>   0.1770 
  3 C       -1.9010     2.5700    -0.2140 C.ar  1 <1>  -0.0090 
  4 C       -2.8130     1.2500     1.5930 C.ar  1 <1>  -0.1500 
  5 S       -0.5140     3.4260    -0.9950 S.o2  1 <1>   1.4470 
  6 C       -3.1640     2.5610    -0.7970 C.ar  1 <1>  -0.1500 
  7 C       -4.0560     1.2580     0.9890 C.ar  1 <1>  -0.1500 
  8 O        0.6180     2.5350    -1.1110 O.2   1 <1>  -0.6500 
  9 O       -0.9750     4.1090    -2.1850 O.2   1 <1>  -0.6500 
 10 N       -0.1110     4.6300     0.1270 N.am  1 <1>  -0.8490 
 11 C       -4.2640     1.9230    -0.2200 C.ar  1 <1>   0.0860 
 12 C        1.2410     5.1300    -0.0330 C.3   1 <1>   0.1960 
 13 C       -0.9680     5.8030     0.1210 C.3   1 <1>   0.1960 
 14 C       -5.5660     1.9560    -0.8650 C.2   1 <1>   0.5440 
 15 C        1.2740     6.4200     0.7810 C.3   1 <1>  -0.1600 
 16 C       -0.1920     6.8280     0.9380 C.3   1 <1>  -0.1600 
 17 O       -5.6510     2.0690    -2.0710 O.2   1 <1>  -0.5700 
 18 N       -6.7180     1.8790    -0.1280 N.am  1 <1>  -0.7300 
 19 C       -8.0970     1.8920    -0.6830 C.3   1 <1>   0.0600 
 20 H       -2.6580     0.7360     2.5260 H     1 <1>   0.1500 
 21 H       -3.3080     3.0680    -1.7390 H     1 <1>   0.1500 
 22 H       -4.8700     0.7340     1.4580 H     1 <1>   0.1500 
 23 H        1.4320     5.3450    -1.0720 H     1 <1>   0.0800 
 24 H        1.9610     4.4100     0.3220 H     1 <1>   0.0800 
 25 H       -1.9300     5.5870     0.5540 H     1 <1>   0.0800 
 26 H       -1.0960     6.1720    -0.8840 H     1 <1>   0.0800 
 27 H        1.8490     7.1720     0.2700 H     1 <1>   0.0800 
 28 H        1.7160     6.2330     1.7440 H     1 <1>   0.0800 
 29 H       -0.4870     6.7600     1.9700 H     1 <1>   0.0800 
 30 H       -0.3780     7.8260     0.5830 H     1 <1>   0.0800 
 31 H       -6.6550     1.8910     0.8910 H     1 <1>   0.3700 
 32 H       -8.0720     1.8540    -1.7590 H     1 <1>   0.0800 
 33 H       -8.6020     2.7940    -0.3820 H     1 <1>   0.0800 
 34 H       -8.6440     1.0400    -0.3210 H     1 <1>   0.0800 
@<TRIPOS>BOND
  1   1   2  1   
  2   2   3  ar  
  3   2   4  ar  
  4   3   5  1   
  5   3   6  ar  
  6   4   7  ar  
  7   4  20  1   
  8   5   8  2   
  9   5   9  2   
 10   5  10  am  
 11   6  11  ar  
 12   6  21  1   
 13   7  11  ar  
 14   7  22  1   
 15  10  12  1   
 16  10  13  1   
 17  11  14  1   
 18  12  15  1   
 19  12  23  1   
 20  12  24  1   
 21  13  16  1   
 22  13  25  1   
 23  13  26  1   
 24  14  17  2   
 25  14  18  am  
 26  15  16  1   
 27  15  27  1   
 28  15  28  1   
 29  16  29  1   
 30  16  30  1   
 31  18  19  1   
 32  18  31  1   
 33  19  32  1   
 34  19  33  1   
 35  19  34  1   
@<TRIPOS>SUBSTRUCTURE
  1 ****   3 GROUP 4 **** **** 0

# MOE 2024.06 (io_trps.svl 2023.06)
