@<TRIPOS>MOLECULE
NONAME
51 52 1 0 0 
SMALL
USER_CHARGES


@<TRIPOS>ATOM
  1 S        0.0590     0.2890    -1.2510 S.3   1 <1>  -0.4600 
  2 C       -1.0040     0.7310     0.1480 C.3   1 <1>   0.1500 
  3 C        1.6960     0.8880    -0.7460 C.3   1 <1>   0.0700 
  4 C       -2.3190    -0.0380    -0.0110 C.3   1 <1>  -0.1600 
  5 C       -1.2220     2.2490     0.1380 C.3   1 <1>  -0.1600 
  6 C        2.7340     0.2800    -1.6880 C.3   1 <1>   0.1400 
  7 C       -3.3320     0.3780     1.0650 C.3   1 <1>  -0.1600 
  8 C       -2.2390     2.6640     1.2110 C.3   1 <1>  -0.1600 
  9 N        4.0680     0.8860    -1.4460 N.am  1 <1>  -0.7300 
 10 C       -3.5600     1.8960     1.0530 C.3   1 <1>  -0.1600 
 11 C        4.8570     0.6270    -0.3590 C.2   1 <1>   0.5440 
 12 O        4.4280    -0.1110     0.5060 O.2   1 <1>  -0.5700 
 13 C        6.1810     1.2100    -0.2470 C.ar  1 <1>   0.0860 
 14 C        6.4750     2.4670    -0.7760 C.ar  1 <1>  -0.1500 
 15 C        7.2030     0.5200     0.4030 C.ar  1 <1>  -0.1500 
 16 C        7.7490     3.0150    -0.6820 C.ar  1 <1>   0.0820 
 17 C        8.4850     1.0440     0.5110 C.ar  1 <1>   0.0820 
 18 O        8.0600     4.2440    -1.1860 O.3   1 <1>  -0.3620 
 19 C        8.7580     2.2960    -0.0420 C.ar  1 <1>   0.0820 
 20 O        9.4980     0.3810     1.1410 O.3   1 <1>  -0.3620 
 21 C        7.1210     5.0280    -1.8870 C.3   1 <1>   0.0400 
 22 O       10.0100     2.8130     0.0240 O.3   1 <1>  -0.3630 
 23 C        9.3230    -0.9190     1.6600 C.3   1 <1>   0.0400 
 24 C       10.3340     3.4820     1.2190 C.3   1 <1>   0.0400 
 25 H       -0.4970     0.4230     1.0460 H     1 <1>   0.0800 
 26 H        1.8610     0.5710     0.2690 H     1 <1>   0.0800 
 27 H        1.6800     1.9600    -0.8160 H     1 <1>   0.0800 
 28 H       -2.1270    -1.0940     0.0590 H     1 <1>   0.0800 
 29 H       -2.7320     0.1640    -0.9840 H     1 <1>   0.0800 
 30 H       -1.5890     2.5460    -0.8290 H     1 <1>   0.0800 
 31 H       -0.2910     2.7540     0.3160 H     1 <1>   0.0800 
 32 H        2.4430     0.4560    -2.7090 H     1 <1>   0.0800 
 33 H        2.7870    -0.7830    -1.5220 H     1 <1>   0.0800 
 34 H       -2.9680     0.0790     2.0330 H     1 <1>   0.0800 
 35 H       -4.2670    -0.1290     0.8940 H     1 <1>   0.0800 
 36 H       -2.4270     3.7220     1.1410 H     1 <1>   0.0800 
 37 H       -1.8280     2.4660     2.1870 H     1 <1>   0.0800 
 38 H        4.4750     1.3750    -2.2440 H     1 <1>   0.3700 
 39 H       -4.2310     2.1660     1.8500 H     1 <1>   0.0800 
 40 H       -4.0240     2.1780     0.1230 H     1 <1>   0.0800 
 41 H        5.6850     3.0110    -1.2530 H     1 <1>   0.1500 
 42 H        6.9610    -0.4390     0.8200 H     1 <1>   0.1500 
 43 H        7.6110     5.9340    -2.1960 H     1 <1>   0.0800 
 44 H        6.3020     5.2630    -1.2310 H     1 <1>   0.0800 
 45 H        6.7860     4.4830    -2.7510 H     1 <1>   0.0800 
 46 H       10.2610    -1.2390     2.0770 H     1 <1>   0.0800 
 47 H        9.0360    -1.5790     0.8600 H     1 <1>   0.0800 
 48 H        8.5720    -0.8910     2.4290 H     1 <1>   0.0800 
 49 H       11.3410     3.8480     1.1350 H     1 <1>   0.0800 
 50 H       10.2590     2.7900     2.0380 H     1 <1>   0.0800 
 51 H        9.6510     4.3020     1.3510 H     1 <1>   0.0800 
@<TRIPOS>BOND
  1   1   2  1   
  2   1   3  1   
  3   2   4  1   
  4   2   5  1   
  5   2  25  1   
  6   3   6  1   
  7   3  26  1   
  8   3  27  1   
  9   4   7  1   
 10   4  28  1   
 11   4  29  1   
 12   5   8  1   
 13   5  30  1   
 14   5  31  1   
 15   6   9  1   
 16   6  32  1   
 17   6  33  1   
 18   7  10  1   
 19   7  34  1   
 20   7  35  1   
 21   8  10  1   
 22   8  36  1   
 23   8  37  1   
 24   9  11  am  
 25   9  38  1   
 26  10  39  1   
 27  10  40  1   
 28  11  12  2   
 29  11  13  1   
 30  13  14  ar  
 31  13  15  ar  
 32  14  16  ar  
 33  14  41  1   
 34  15  17  ar  
 35  15  42  1   
 36  16  18  1   
 37  16  19  ar  
 38  17  19  ar  
 39  17  20  1   
 40  18  21  1   
 41  19  22  1   
 42  20  23  1   
 43  21  43  1   
 44  21  44  1   
 45  21  45  1   
 46  22  24  1   
 47  23  46  1   
 48  23  47  1   
 49  23  48  1   
 50  24  49  1   
 51  24  50  1   
 52  24  51  1   
@<TRIPOS>SUBSTRUCTURE
  1 ****  11 GROUP 4 **** **** 0

# MOE 2024.06 (io_trps.svl 2023.06)
