@<TRIPOS>MOLECULE
NONAME
53 55 1 0 0 
SMALL
USER_CHARGES


@<TRIPOS>ATOM
  1 O        0.1020    -1.4060     1.0670 O.3   1 <1>  -0.3630 
  2 C       -1.0000    -1.5310     0.2620 C.ar  1 <1>   0.0830 
  3 C        0.2420    -0.3080     1.9420 C.3   1 <1>   0.1200 
  4 C       -1.0470    -2.6030    -0.6490 C.ar  1 <1>   0.1000 
  5 C       -2.0650    -0.6350     0.3220 C.ar  1 <1>  -0.1500 
  6 C        1.5900    -0.4320     2.6460 C.3   1 <1>  -0.2400 
  7 N       -0.0360    -3.5640    -0.7910 N.pl3 1 <1>  -0.8380 
  8 C       -2.1590    -2.7340    -1.4690 C.ar  1 <1>  -0.1500 
  9 C       -3.1630    -0.7890    -0.5070 C.ar  1 <1>  -0.1500 
 10 C        1.2350    -3.1160    -1.4370 C.3   1 <1>   0.2090 
 11 C        0.0890    -4.5710     0.3030 C.3   1 <1>   0.2090 
 12 C       -3.2100    -1.8390    -1.4030 C.ar  1 <1>  -0.1500 
 13 C        2.3520    -2.8270    -0.4130 C.3   1 <1>   0.3430 
 14 C        1.2320    -4.2380     1.2860 C.3   1 <1>   0.3430 
 15 N        2.5320    -3.9380     0.5920 N.4   1 <1>  -0.9590 
 16 C        3.6120    -3.6240     1.5610 C.3   1 <1>   0.4860 
 17 C        4.9170    -3.4820     0.8010 C.ar  1 <1>  -0.1430 
 18 C        5.6180    -4.5860     0.3250 C.ar  1 <1>  -0.1430 
 19 C        5.4100    -2.2040     0.5710 C.ar  1 <1>  -0.1500 
 20 C        6.7880    -4.3860    -0.3930 C.ar  1 <1>  -0.1500 
 21 C        5.1610    -6.0210     0.5640 C.3   1 <1>  -0.0970 
 22 C        6.5790    -2.0200    -0.1420 C.ar  1 <1>  -0.1500 
 23 C        7.2730    -3.1120    -0.6300 C.ar  1 <1>  -0.1430 
 24 C        8.5570    -2.9180    -1.4170 C.3   1 <1>  -0.0970 
 25 H       -0.5640    -0.3340     2.6560 H     1 <1>   0.0800 
 26 H        0.1970     0.5990     1.3630 H     1 <1>   0.0800 
 27 H       -2.0720     0.1930     1.0040 H     1 <1>   0.1500 
 28 H        1.6310    -1.3410     3.2170 H     1 <1>   0.0800 
 29 H        1.7140     0.3960     3.3220 H     1 <1>   0.0800 
 30 H        2.3890    -0.4030     1.9290 H     1 <1>   0.0800 
 31 H       -2.1950    -3.5510    -2.1660 H     1 <1>   0.1500 
 32 H       -3.9820    -0.0920    -0.4540 H     1 <1>   0.1500 
 33 H        1.0460    -2.2240    -2.0110 H     1 <1>   0.0800 
 34 H        1.5640    -3.8770    -2.1230 H     1 <1>   0.0800 
 35 H        0.2580    -5.5400    -0.1330 H     1 <1>   0.0800 
 36 H       -0.8390    -4.6210     0.8470 H     1 <1>   0.0800 
 37 H       -4.0630    -1.9610    -2.0490 H     1 <1>   0.1500 
 38 H        2.1070    -1.9130     0.1000 H     1 <1>   0.0800 
 39 H        3.2730    -2.6620    -0.9480 H     1 <1>   0.0800 
 40 H        1.3580    -5.0660     1.9630 H     1 <1>   0.0800 
 41 H        0.9300    -3.3840     1.8680 H     1 <1>   0.0800 
 42 H        2.8340    -4.7630     0.0630 H     1 <1>   0.4500 
 43 H        3.7050    -4.4140     2.2870 H     1 <1>   0.0800 
 44 H        3.3880    -2.7080     2.0810 H     1 <1>   0.0800 
 45 H        4.8950    -1.3350     0.9430 H     1 <1>   0.1500 
 46 H        7.3370    -5.2300    -0.7730 H     1 <1>   0.1500 
 47 H        4.8360    -6.1580     1.5790 H     1 <1>   0.0800 
 48 H        5.9730    -6.7060     0.3930 H     1 <1>   0.0800 
 49 H        4.3640    -6.2790    -0.1100 H     1 <1>   0.0800 
 50 H        6.9510    -1.0250    -0.3150 H     1 <1>   0.1500 
 51 H        9.2510    -3.7110    -1.2030 H     1 <1>   0.0800 
 52 H        9.0240    -1.9840    -1.1580 H     1 <1>   0.0800 
 53 H        8.3440    -2.9180    -2.4710 H     1 <1>   0.0800 
@<TRIPOS>BOND
  1   1   2  1   
  2   1   3  1   
  3   2   4  ar  
  4   2   5  ar  
  5   3   6  1   
  6   3  25  1   
  7   3  26  1   
  8   4   7  1   
  9   4   8  ar  
 10   5   9  ar  
 11   5  27  1   
 12   6  28  1   
 13   6  29  1   
 14   6  30  1   
 15   7  10  1   
 16   7  11  1   
 17   8  12  ar  
 18   8  31  1   
 19   9  12  ar  
 20   9  32  1   
 21  10  13  1   
 22  10  33  1   
 23  10  34  1   
 24  11  14  1   
 25  11  35  1   
 26  11  36  1   
 27  12  37  1   
 28  13  15  1   
 29  13  38  1   
 30  13  39  1   
 31  14  15  1   
 32  14  40  1   
 33  14  41  1   
 34  15  16  1   
 35  15  42  1   
 36  16  17  1   
 37  16  43  1   
 38  16  44  1   
 39  17  18  ar  
 40  17  19  ar  
 41  18  20  ar  
 42  18  21  1   
 43  19  22  ar  
 44  19  45  1   
 45  20  23  ar  
 46  20  46  1   
 47  21  47  1   
 48  21  48  1   
 49  21  49  1   
 50  22  23  ar  
 51  22  50  1   
 52  23  24  1   
 53  24  51  1   
 54  24  52  1   
 55  24  53  1   
@<TRIPOS>SUBSTRUCTURE
  1 ****  13 GROUP 4 **** **** 0

# MOE 2024.06 (io_trps.svl 2023.06)
