@<TRIPOS>MOLECULE
NONAME
49 50 1 0 0 
SMALL
USER_CHARGES


@<TRIPOS>ATOM
  1 O       -0.5820    -0.1960     0.0900 O.2   1 <1>  -0.5700 
  2 C        0.0300    -1.2070    -0.2150 C.2   1 <1>   0.6340 
  3 O        1.2140    -1.0610    -0.8200 O.3   1 <1>  -0.4300 
  4 C       -0.4490    -2.5570     0.0380 C.ar  1 <1>   0.0860 
  5 C        1.7730     0.2090    -1.1000 C.3   1 <1>   0.0400 
  6 C       -1.7190    -2.8190     0.5990 C.ar  1 <1>   0.1170 
  7 C        0.3580    -3.6560    -0.2780 C.ar  1 <1>  -0.1500 
  8 N       -2.5710    -1.7500     0.9330 N.am  1 <1>  -0.5470 
  9 C       -2.1140    -4.1320     0.8310 C.ar  1 <1>  -0.1500 
 10 C       -0.0470    -4.9630    -0.0580 C.ar  1 <1>   0.0830 
 11 C       -3.9320    -1.6450     1.0300 C.2   1 <1>   0.5690 
 12 C       -1.3010    -5.2060     0.5050 C.ar  1 <1>   0.0830 
 13 O        0.7330    -6.0410    -0.3680 O.3   1 <1>  -0.3630 
 14 O       -4.6920    -2.5730     0.8990 O.2   1 <1>  -0.5700 
 15 C       -4.5550    -0.2570     1.2520 C.3   1 <1>   0.4040 
 16 O       -1.6720    -6.4980     0.7120 O.3   1 <1>  -0.3620 
 17 C        2.0040    -5.9000    -0.9620 C.3   1 <1>   0.0400 
 18 N       -5.8110    -0.0390     0.4400 N.4   1 <1>  -0.9590 
 19 C       -2.9490    -6.8510     1.1970 C.3   1 <1>   0.0400 
 20 C       -5.5290    -0.0580    -1.0270 C.3   1 <1>   0.3430 
 21 C       -6.5600     1.1760     0.8670 C.3   1 <1>   0.3430 
 22 C       -6.8460    -0.0020    -1.8040 C.3   1 <1>  -0.1600 
 23 C       -7.8920     1.2500     0.1180 C.3   1 <1>  -0.1600 
 24 C       -7.6930     1.2120    -1.4030 C.3   1 <1>  -0.1600 
 25 H        2.7200     0.0640    -1.5870 H     1 <1>   0.0800 
 26 H        1.9110     0.7420    -0.1750 H     1 <1>   0.0800 
 27 H        1.1040     0.7510    -1.7470 H     1 <1>   0.0800 
 28 H        1.3240    -3.4700    -0.7060 H     1 <1>   0.1500 
 29 H       -2.0510    -0.8590     0.9470 H     1 <1>   0.3700 
 30 H       -3.0700    -4.3120     1.2790 H     1 <1>   0.1500 
 31 H       -3.8280     0.4970     1.0050 H     1 <1>   0.0800 
 32 H       -4.7880    -0.1700     2.2990 H     1 <1>   0.0800 
 33 H        2.4080    -6.8840    -1.1160 H     1 <1>   0.0800 
 34 H        2.6420    -5.3450    -0.2980 H     1 <1>   0.0800 
 35 H        1.8950    -5.4000    -1.9080 H     1 <1>   0.0800 
 36 H       -6.4030    -0.8680     0.6200 H     1 <1>   0.4500 
 37 H       -3.0070    -7.9240     1.2270 H     1 <1>   0.0800 
 38 H       -3.6960    -6.4630     0.5280 H     1 <1>   0.0800 
 39 H       -3.0700    -6.4510     2.1870 H     1 <1>   0.0800 
 40 H       -5.0010    -0.9610    -1.2920 H     1 <1>   0.0800 
 41 H       -4.9180     0.7880    -1.2950 H     1 <1>   0.0800 
 42 H       -5.9790     2.0590     0.6500 H     1 <1>   0.0800 
 43 H       -6.7490     1.1440     1.9280 H     1 <1>   0.0800 
 44 H       -7.3980    -0.9100    -1.6310 H     1 <1>   0.0800 
 45 H       -6.6300     0.0450    -2.8570 H     1 <1>   0.0800 
 46 H       -8.3970     2.1610     0.3870 H     1 <1>   0.0800 
 47 H       -8.5210     0.4320     0.4260 H     1 <1>   0.0800 
 48 H       -8.6510     1.1670    -1.8960 H     1 <1>   0.0800 
 49 H       -7.2030     2.1160    -1.7250 H     1 <1>   0.0800 
@<TRIPOS>BOND
  1   1   2  2   
  2   2   3  1   
  3   2   4  1   
  4   3   5  1   
  5   4   6  ar  
  6   4   7  ar  
  7   5  25  1   
  8   5  26  1   
  9   5  27  1   
 10   6   8  1   
 11   6   9  ar  
 12   7  10  ar  
 13   7  28  1   
 14   8  11  am  
 15   8  29  1   
 16   9  12  ar  
 17   9  30  1   
 18  10  12  ar  
 19  10  13  1   
 20  11  14  2   
 21  11  15  1   
 22  12  16  1   
 23  13  17  1   
 24  15  18  1   
 25  15  31  1   
 26  15  32  1   
 27  16  19  1   
 28  17  33  1   
 29  17  34  1   
 30  17  35  1   
 31  18  20  1   
 32  18  21  1   
 33  18  36  1   
 34  19  37  1   
 35  19  38  1   
 36  19  39  1   
 37  20  22  1   
 38  20  40  1   
 39  20  41  1   
 40  21  23  1   
 41  21  42  1   
 42  21  43  1   
 43  22  24  1   
 44  22  44  1   
 45  22  45  1   
 46  23  24  1   
 47  23  46  1   
 48  23  47  1   
 49  24  48  1   
 50  24  49  1   
@<TRIPOS>SUBSTRUCTURE
  1 ****   8 GROUP 4 **** **** 0

# MOE 2024.06 (io_trps.svl 2023.06)
