@<TRIPOS>MOLECULE
NONAME
47 49 1 0 0 
SMALL
USER_CHARGES


@<TRIPOS>ATOM
  1 F       -0.6010    -2.9420    -2.1630 F     1 <1>  -0.1900 
  2 C       -1.3850    -2.4180    -1.2490 C.ar  1 <1>   0.1900 
  3 C       -1.0180    -2.4960     0.1010 C.ar  1 <1>   0.1000 
  4 C       -2.5480    -1.8080    -1.6760 C.ar  1 <1>  -0.1500 
  5 N        0.1530    -3.1050     0.5730 N.pl3 1 <1>  -0.8380 
  6 C       -1.8870    -1.9230     1.0210 C.ar  1 <1>  -0.1500 
  7 C       -3.3930    -1.2470    -0.7320 C.ar  1 <1>  -0.1500 
  8 C        1.4220    -2.4040     0.2060 C.3   1 <1>   0.2090 
  9 C        0.2100    -4.5880     0.3970 C.3   1 <1>   0.2090 
 10 C       -3.0590    -1.3070     0.6120 C.ar  1 <1>  -0.1500 
 11 C        2.6310    -3.0200     0.9390 C.3   1 <1>   0.3430 
 12 C        1.4250    -5.1890     1.1330 C.3   1 <1>   0.3430 
 13 N        2.7200    -4.5170     0.7510 N.4   1 <1>  -0.9590 
 14 C        3.8830    -5.0950     1.4760 C.3   1 <1>   0.4860 
 15 C        5.1490    -4.4910     0.9040 C.ar  1 <1>  -0.1430 
 16 C        5.5860    -4.8510    -0.3630 C.ar  1 <1>  -0.1500 
 17 C        5.8760    -3.5650     1.6380 C.ar  1 <1>  -0.1500 
 18 C        6.7280    -4.2850    -0.9050 C.ar  1 <1>  -0.1430 
 19 C        7.0190    -2.9970     1.1050 C.ar  1 <1>  -0.1500 
 20 C        7.4500    -3.3500    -0.1700 C.ar  1 <1>   0.0830 
 21 C        7.1910    -4.6920    -2.2970 C.3   1 <1>  -0.0970 
 22 O        8.5620    -2.8210    -0.7440 O.3   1 <1>  -0.3630 
 23 C        9.4240    -1.9500    -0.0450 C.3   1 <1>   0.0400 
 24 H       -2.7880    -1.7730    -2.7230 H     1 <1>   0.1500 
 25 H       -1.6390    -1.9630     2.0660 H     1 <1>   0.1500 
 26 H       -4.3050    -0.7670    -1.0420 H     1 <1>   0.1500 
 27 H        1.3390    -1.3630     0.4700 H     1 <1>   0.0800 
 28 H        1.5780    -2.4610    -0.8580 H     1 <1>   0.0800 
 29 H        0.2650    -4.8290    -0.6510 H     1 <1>   0.0800 
 30 H       -0.6950    -5.0220     0.7880 H     1 <1>   0.0800 
 31 H       -3.7170    -0.8700     1.3440 H     1 <1>   0.1500 
 32 H        2.5360    -2.7930     1.9880 H     1 <1>   0.0800 
 33 H        3.5320    -2.5500     0.5790 H     1 <1>   0.0800 
 34 H        1.4790    -6.2430     0.9150 H     1 <1>   0.0800 
 35 H        1.2600    -5.0770     2.1920 H     1 <1>   0.0800 
 36 H        2.8860    -4.6720    -0.2500 H     1 <1>   0.4500 
 37 H        3.9100    -6.1650     1.3460 H     1 <1>   0.0800 
 38 H        3.8130    -4.8780     2.5290 H     1 <1>   0.0800 
 39 H        5.0450    -5.5810    -0.9400 H     1 <1>   0.1500 
 40 H        5.5680    -3.2770     2.6290 H     1 <1>   0.1500 
 41 H        7.5630    -2.2830     1.6950 H     1 <1>   0.1500 
 42 H        6.5370    -5.4230    -2.7350 H     1 <1>   0.0800 
 43 H        8.1810    -5.1100    -2.2420 H     1 <1>   0.0800 
 44 H        7.2220    -3.8290    -2.9380 H     1 <1>   0.0800 
 45 H       10.2460    -1.7050    -0.6930 H     1 <1>   0.0800 
 46 H        9.7900    -2.4510     0.8340 H     1 <1>   0.0800 
 47 H        8.8850    -1.0570     0.2130 H     1 <1>   0.0800 
@<TRIPOS>BOND
  1   1   2  1   
  2   2   3  ar  
  3   2   4  ar  
  4   3   5  1   
  5   3   6  ar  
  6   4   7  ar  
  7   4  24  1   
  8   5   8  1   
  9   5   9  1   
 10   6  10  ar  
 11   6  25  1   
 12   7  10  ar  
 13   7  26  1   
 14   8  11  1   
 15   8  27  1   
 16   8  28  1   
 17   9  12  1   
 18   9  29  1   
 19   9  30  1   
 20  10  31  1   
 21  11  13  1   
 22  11  32  1   
 23  11  33  1   
 24  12  13  1   
 25  12  34  1   
 26  12  35  1   
 27  13  14  1   
 28  13  36  1   
 29  14  15  1   
 30  14  37  1   
 31  14  38  1   
 32  15  16  ar  
 33  15  17  ar  
 34  16  18  ar  
 35  16  39  1   
 36  17  19  ar  
 37  17  40  1   
 38  18  20  ar  
 39  18  21  1   
 40  19  20  ar  
 41  19  41  1   
 42  20  22  1   
 43  21  42  1   
 44  21  43  1   
 45  21  44  1   
 46  22  23  1   
 47  23  45  1   
 48  23  46  1   
 49  23  47  1   
@<TRIPOS>SUBSTRUCTURE
  1 ****  11 GROUP 4 **** **** 0

# MOE 2024.06 (io_trps.svl 2023.06)
