@<TRIPOS>MOLECULE
NONAME
45 47 1 0 0 
SMALL
USER_CHARGES


@<TRIPOS>ATOM
  1 CL       2.2200    -0.2520    -3.2120 Cl    1 <1>  -0.1770 
  2 C        2.8750     0.7010    -1.9080 C.ar  1 <1>   0.1770 
  3 C        3.1010     0.1100    -0.6800 C.ar  1 <1>  -0.1500 
  4 C        3.1610     2.0360    -2.1180 C.ar  1 <1>  -0.1500 
  5 C        3.6230     0.8730     0.3520 C.ar  1 <1>  -0.1500 
  6 C        3.6830     2.7870    -1.0770 C.ar  1 <1>  -0.1500 
  7 C        3.9260     2.2210     0.1720 C.ar  1 <1>  -0.0090 
  8 S        4.6110     3.2200     1.5250 S.o2  1 <1>   1.4470 
  9 O        5.1290     2.3580     2.5670 O.2   1 <1>  -0.6500 
 10 O        3.6640     4.2580     1.8680 O.2   1 <1>  -0.6500 
 11 N        5.9530     3.9690     0.8070 N.am  1 <1>  -0.8490 
 12 C        7.0580     3.0290     0.5920 C.3   1 <1>   0.1960 
 13 C        6.3850     5.1430     1.5710 C.3   1 <1>   0.1960 
 14 C        8.1870     3.7030    -0.1920 C.3   1 <1>  -0.1600 
 15 C        7.4970     5.8820     0.8230 C.3   1 <1>  -0.1600 
 16 C        8.6960     4.9590     0.5350 C.3   1 <1>  -0.0190 
 17 C        9.8070     5.6540    -0.2660 C.2   1 <1>   0.5690 
 18 O        9.4800     6.5010    -1.0650 O.2   1 <1>  -0.5700 
 19 N       11.1300     5.3240    -0.0880 N.am  1 <1>  -0.6600 
 20 C       11.6650     4.2030     0.7460 C.3   1 <1>   0.1400 
 21 C       12.2140     6.0940    -0.7760 C.3   1 <1>   0.1400 
 22 C       12.6850     3.3670    -0.0480 C.3   1 <1>   0.1200 
 23 C       13.1970     5.1480    -1.4830 C.3   1 <1>   0.1200 
 24 O       13.6810     4.1840    -0.5900 O.3   1 <1>  -0.5600 
 25 H        2.8690    -0.9300    -0.5370 H     1 <1>   0.1500 
 26 H        2.9770     2.4780    -3.0810 H     1 <1>   0.1500 
 27 H        3.7980     0.4160     1.3130 H     1 <1>   0.1500 
 28 H        3.9080     3.8300    -1.2320 H     1 <1>   0.1500 
 29 H        6.7060     2.1770     0.0330 H     1 <1>   0.0800 
 30 H        7.4320     2.6770     1.5410 H     1 <1>   0.0800 
 31 H        6.7260     4.8400     2.5480 H     1 <1>   0.0800 
 32 H        5.5550     5.8190     1.7000 H     1 <1>   0.0800 
 33 H        7.8220     3.9740    -1.1680 H     1 <1>   0.0800 
 34 H        8.9920     3.0040    -0.3270 H     1 <1>   0.0800 
 35 H        7.8220     6.7250     1.4070 H     1 <1>   0.0800 
 36 H        7.0930     6.2620    -0.0990 H     1 <1>   0.0800 
 37 H        9.0950     4.6730     1.4900 H     1 <1>   0.0800 
 38 H       10.8790     3.5510     1.0750 H     1 <1>   0.0800 
 39 H       12.1490     4.6110     1.6160 H     1 <1>   0.0800 
 40 H       12.7490     6.6770    -0.0470 H     1 <1>   0.0800 
 41 H       11.8020     6.7740    -1.5000 H     1 <1>   0.0800 
 42 H       12.2010     2.8380    -0.8510 H     1 <1>   0.0800 
 43 H       13.1650     2.6530     0.5970 H     1 <1>   0.0800 
 44 H       14.0390     5.7020    -1.8580 H     1 <1>   0.0800 
 45 H       12.7160     4.6490    -2.3060 H     1 <1>   0.0800 
@<TRIPOS>BOND
  1   1   2  1   
  2   2   3  ar  
  3   2   4  ar  
  4   3   5  ar  
  5   3  25  1   
  6   4   6  ar  
  7   4  26  1   
  8   5   7  ar  
  9   5  27  1   
 10   6   7  ar  
 11   6  28  1   
 12   7   8  1   
 13   8   9  2   
 14   8  10  2   
 15   8  11  am  
 16  11  12  1   
 17  11  13  1   
 18  12  14  1   
 19  12  29  1   
 20  12  30  1   
 21  13  15  1   
 22  13  31  1   
 23  13  32  1   
 24  14  16  1   
 25  14  33  1   
 26  14  34  1   
 27  15  16  1   
 28  15  35  1   
 29  15  36  1   
 30  16  17  1   
 31  16  37  1   
 32  17  18  2   
 33  17  19  am  
 34  19  20  1   
 35  19  21  1   
 36  20  22  1   
 37  20  38  1   
 38  20  39  1   
 39  21  23  1   
 40  21  40  1   
 41  21  41  1   
 42  22  24  1   
 43  22  42  1   
 44  22  43  1   
 45  23  24  1   
 46  23  44  1   
 47  23  45  1   
@<TRIPOS>SUBSTRUCTURE
  1 ****  12 GROUP 4 **** **** 0

# MOE 2024.06 (io_trps.svl 2023.06)
