@<TRIPOS>MOLECULE
NONAME
40 41 1 0 0 
SMALL
USER_CHARGES


@<TRIPOS>ATOM
  1 BR       1.6690     1.0560    -1.5310 Br    1 <1>  -0.1110 
  2 C        0.9500     2.5390    -0.5260 C.ar  1 <1>   0.1110 
  3 C        1.7920     3.2770     0.2910 C.ar  1 <1>   0.0820 
  4 C       -0.3970     2.8160    -0.6570 C.ar  1 <1>  -0.1500 
  5 O        3.1030     2.9270     0.3540 O.3   1 <1>  -0.3630 
  6 C        1.2370     4.3370     0.9990 C.ar  1 <1>  -0.1500 
  7 C       -0.9570     3.8770     0.0510 C.ar  1 <1>  -0.1440 
  8 C        4.0230     3.6390     1.1700 C.3   1 <1>   0.1810 
  9 C       -0.1140     4.6230     0.8740 C.ar  1 <1>  -0.1500 
 10 C       -2.4530     4.2490    -0.0430 C.3   1 <1>   0.1440 
 11 C        5.4220     3.0500     1.0650 C.2   1 <1>   0.5690 
 12 C       -2.5930     5.6870    -0.5650 C.3   1 <1>  -0.2400 
 13 C       -3.0960     4.1450     1.3480 C.3   1 <1>  -0.2400 
 14 C       -3.2450     3.3320    -0.9910 C.3   1 <1>  -0.2400 
 15 O        6.2940     3.5720     1.7140 O.2   1 <1>  -0.5700 
 16 N        5.6000     1.9740     0.2450 N.am  1 <1>  -0.5470 
 17 C        6.6780     1.2100    -0.0850 C.ar  1 <1>   0.7370 
 18 N        7.8680     1.4740     0.4410 N.ar  1 <1>  -0.6200 
 19 N        6.3890     0.2400    -0.9430 N.ar  1 <1>  -0.6200 
 20 C        8.8510     0.6910     0.0700 C.ar  1 <1>   0.1600 
 21 C        7.3910    -0.5310    -1.2980 C.ar  1 <1>   0.1600 
 22 C        8.6620    -0.3440    -0.8130 C.ar  1 <1>  -0.1500 
 23 H       -0.9730     2.1920    -1.3110 H     1 <1>   0.1500 
 24 H        1.8300     4.9510     1.6500 H     1 <1>   0.1500 
 25 H        3.6910     3.5810     2.1900 H     1 <1>   0.0800 
 26 H        4.0450     4.6630     0.8460 H     1 <1>   0.0800 
 27 H       -0.5100     5.4500     1.4360 H     1 <1>   0.1500 
 28 H       -2.1150     5.7780    -1.5250 H     1 <1>   0.0800 
 29 H       -3.6290     5.9520    -0.6730 H     1 <1>   0.0800 
 30 H       -2.1380     6.3910     0.1060 H     1 <1>   0.0800 
 31 H       -2.9740     3.1490     1.7360 H     1 <1>   0.0800 
 32 H       -4.1480     4.3640     1.2970 H     1 <1>   0.0800 
 33 H       -2.6460     4.8340     2.0380 H     1 <1>   0.0800 
 34 H       -3.2020     2.3110    -0.6540 H     1 <1>   0.0800 
 35 H       -2.8500     3.3880    -1.9900 H     1 <1>   0.0800 
 36 H       -4.2780     3.6260    -1.0260 H     1 <1>   0.0800 
 37 H        4.7610     1.6540    -0.2330 H     1 <1>   0.3700 
 38 H        9.8280     0.8820     0.4810 H     1 <1>   0.1500 
 39 H        7.1920    -1.3290    -1.9940 H     1 <1>   0.1500 
 40 H        9.4750    -0.9800    -1.1110 H     1 <1>   0.1500 
@<TRIPOS>BOND
  1   1   2  1   
  2   2   3  ar  
  3   2   4  ar  
  4   3   5  1   
  5   3   6  ar  
  6   4   7  ar  
  7   4  23  1   
  8   5   8  1   
  9   6   9  ar  
 10   6  24  1   
 11   7   9  ar  
 12   7  10  1   
 13   8  11  1   
 14   8  25  1   
 15   8  26  1   
 16   9  27  1   
 17  10  12  1   
 18  10  13  1   
 19  10  14  1   
 20  11  15  2   
 21  11  16  am  
 22  12  28  1   
 23  12  29  1   
 24  12  30  1   
 25  13  31  1   
 26  13  32  1   
 27  13  33  1   
 28  14  34  1   
 29  14  35  1   
 30  14  36  1   
 31  16  17  1   
 32  16  37  1   
 33  17  18  ar  
 34  17  19  ar  
 35  18  20  ar  
 36  19  21  ar  
 37  20  22  ar  
 38  20  38  1   
 39  21  22  ar  
 40  21  39  1   
 41  22  40  1   
@<TRIPOS>SUBSTRUCTURE
  1 ****   5 GROUP 4 **** **** 0

# MOE 2024.06 (io_trps.svl 2023.06)
