@<TRIPOS>MOLECULE
NONAME
60 63 1 0 0 
SMALL
USER_CHARGES


@<TRIPOS>ATOM
  1 O       -1.7050    -3.0460    -3.2280 O.2   1 <1>  -0.5700 
  2 C       -1.4830    -3.0690    -2.0350 C.2   1 <1>   0.7160 
  3 N       -0.2620    -3.5060    -1.6430 N.am  1 <1>  -0.7300 
  4 C       -2.4930    -2.6670    -1.0820 C.2   1 <1>  -0.0860 
  5 C        0.0490    -4.0910    -0.3280 C.3   1 <1>   0.3200 
  6 C       -2.4560    -1.7540    -0.0540 C.2   1 <1>  -0.3320 
  7 C       -3.7920    -3.1910    -1.0610 C.2   1 <1>  -0.1500 
  8 C        0.6800    -5.4540    -0.5360 C.2   1 <1>  -0.0400 
  9 N       -3.6590    -1.7100     0.5730 N.pl3 1 <1>   0.0480 
 10 C       -1.2670    -0.8840     0.3360 C.3   1 <1>  -0.0600 
 11 C       -4.4930    -2.6100    -0.0480 C.2   1 <1>  -0.2050 
 12 O        1.8370    -5.5330    -1.1670 O.3   1 <1>  -0.2800 
 13 C        0.2530    -6.6840    -0.1760 C.2   1 <1>  -0.1500 
 14 C       -4.0590    -0.7300     1.6160 C.3   1 <1>   0.0960 
 15 C       -5.8730    -2.8560     0.2910 C.ar  1 <1>   0.0530 
 16 C        2.1730    -6.8070    -1.2240 C.2   1 <1>  -0.0100 
 17 C        1.2350    -7.5740    -0.6290 C.2   1 <1>  -0.1500 
 18 C       -4.5760     0.5740     0.9800 C.3   1 <1>  -0.1600 
 19 C       -6.8570    -2.7500    -0.6880 C.ar  1 <1>  -0.1500 
 20 C       -6.2710    -3.1960     1.5810 C.ar  1 <1>  -0.1500 
 21 C       -5.6520     0.2950    -0.0720 C.3   1 <1>   0.3430 
 22 C       -8.1940    -2.9320    -0.3840 C.ar  1 <1>  -0.1500 
 23 C       -7.6060    -3.3760     1.8930 C.ar  1 <1>  -0.1500 
 24 N       -6.0800     1.5470    -0.7490 N.4   1 <1>  -0.9590 
 25 C       -8.5710    -3.2380     0.9110 C.ar  1 <1>  -0.1500 
 26 C       -6.9260     2.4240     0.1350 C.3   1 <1>   0.3430 
 27 C       -6.8280     1.2100    -2.0110 C.3   1 <1>   0.3430 
 28 C       -7.4910     3.6320    -0.6390 C.3   1 <1>   0.1200 
 29 C       -7.3960     2.4710    -2.6890 C.3   1 <1>   0.1200 
 30 O       -8.1700     3.2010    -1.7820 O.3   1 <1>  -0.5600 
 31 H        0.3420    -3.8420    -2.3940 H     1 <1>   0.3700 
 32 H       -0.8440    -4.1920     0.2630 H     1 <1>   0.0800 
 33 H        0.7400    -3.4520     0.1930 H     1 <1>   0.0800 
 34 H       -4.1470    -3.9370    -1.7530 H     1 <1>   0.1500 
 35 H       -0.4410    -1.0430    -0.3340 H     1 <1>   0.0800 
 36 H       -0.9430    -1.1230     1.3340 H     1 <1>   0.0800 
 37 H       -1.5260     0.1570     0.2920 H     1 <1>   0.0800 
 38 H       -0.6460    -6.9620     0.3440 H     1 <1>   0.1500 
 39 H       -3.2110    -0.5230     2.2440 H     1 <1>   0.0800 
 40 H       -4.8200    -1.1620     2.2370 H     1 <1>   0.0800 
 41 H        3.0950    -7.0790    -1.7070 H     1 <1>   0.1500 
 42 H        1.2140    -8.6430    -0.5100 H     1 <1>   0.1500 
 43 H       -3.7470     1.0820     0.5230 H     1 <1>   0.0800 
 44 H       -4.9690     1.1950     1.7640 H     1 <1>   0.0800 
 45 H       -6.5660    -2.5330    -1.7000 H     1 <1>   0.1500 
 46 H       -5.5250    -3.3330     2.3430 H     1 <1>   0.1500 
 47 H       -6.5010    -0.1920     0.3830 H     1 <1>   0.0800 
 48 H       -5.2430    -0.3770    -0.8110 H     1 <1>   0.0800 
 49 H       -8.9430    -2.8480    -1.1530 H     1 <1>   0.1500 
 50 H       -7.8970    -3.6350     2.8970 H     1 <1>   0.1500 
 51 H       -5.2400     2.0730    -1.0240 H     1 <1>   0.4500 
 52 H       -9.6110    -3.3820     1.1530 H     1 <1>   0.1500 
 53 H       -6.3450     2.7790     0.9700 H     1 <1>   0.0800 
 54 H       -7.7550     1.8560     0.5250 H     1 <1>   0.0800 
 55 H       -7.6490     0.5500    -1.7810 H     1 <1>   0.0800 
 56 H       -6.1760     0.6970    -2.7000 H     1 <1>   0.0800 
 57 H       -6.7070     4.3080    -0.9340 H     1 <1>   0.0800 
 58 H       -8.1930     4.1690    -0.0250 H     1 <1>   0.0800 
 59 H       -8.0320     2.1950    -3.5120 H     1 <1>   0.0800 
 60 H       -6.6080     3.1030    -3.0620 H     1 <1>   0.0800 
@<TRIPOS>BOND
  1   1   2  2   
  2   2   3  am  
  3   2   4  1   
  4   3   5  1   
  5   3  31  1   
  6   4   6  2   
  7   4   7  1   
  8   5   8  1   
  9   5  32  1   
 10   5  33  1   
 11   6   9  1   
 12   6  10  1   
 13   7  11  2   
 14   7  34  1   
 15   8  12  1   
 16   8  13  2   
 17   9  11  1   
 18   9  14  1   
 19  10  35  1   
 20  10  36  1   
 21  10  37  1   
 22  11  15  1   
 23  12  16  1   
 24  13  17  1   
 25  13  38  1   
 26  14  18  1   
 27  14  39  1   
 28  14  40  1   
 29  15  19  ar  
 30  15  20  ar  
 31  16  17  2   
 32  16  41  1   
 33  17  42  1   
 34  18  21  1   
 35  18  43  1   
 36  18  44  1   
 37  19  22  ar  
 38  19  45  1   
 39  20  23  ar  
 40  20  46  1   
 41  21  24  1   
 42  21  47  1   
 43  21  48  1   
 44  22  25  ar  
 45  22  49  1   
 46  23  25  ar  
 47  23  50  1   
 48  24  26  1   
 49  24  27  1   
 50  24  51  1   
 51  25  52  1   
 52  26  28  1   
 53  26  53  1   
 54  26  54  1   
 55  27  29  1   
 56  27  55  1   
 57  27  56  1   
 58  28  30  1   
 59  28  57  1   
 60  28  58  1   
 61  29  30  1   
 62  29  59  1   
 63  29  60  1   
@<TRIPOS>SUBSTRUCTURE
  1 ****  11 GROUP 4 **** **** 0

# MOE 2024.06 (io_trps.svl 2023.06)
