@<TRIPOS>MOLECULE
NONAME
35 37 1 0 0 
SMALL
USER_CHARGES


@<TRIPOS>ATOM
  1 S       -0.1540    -0.1010     0.8710 S.3   1 <1>  -0.0800 
  2 C        1.4320     0.5600     0.5360 C.2   1 <1>   0.1240 
  3 C       -0.8940     1.4300     0.4120 C.2   1 <1>  -0.1400 
  4 N        2.6030    -0.1030     0.6790 N.pl3 1 <1>  -0.5340 
  5 C        1.3850     1.8450     0.1070 C.2   1 <1>  -0.0860 
  6 C        0.0290     2.3300     0.0320 C.2   1 <1>  -0.1810 
  7 C       -2.3950     1.6070     0.4730 C.3   1 <1>   0.0200 
  8 C        3.7420     0.5640     0.3780 C.2   1 <1>   0.6410 
  9 C        2.6450     2.4640    -0.1790 C.2   1 <1>   0.8670 
 10 C       -0.3620     3.7280    -0.4240 C.3   1 <1>   0.0210 
 11 C       -2.7290     3.1050     0.3510 C.3   1 <1>  -0.1600 
 12 S        5.2160    -0.3900     0.5940 S.3   1 <1>  -0.3710 
 13 N        3.8250     1.7770    -0.0320 N.2   1 <1>  -0.6610 
 14 O        2.7160     3.6220    -0.5630 O.2   1 <1>  -0.5700 
 15 C       -1.8730     3.8050    -0.7260 C.3   1 <1>  -0.1600 
 16 C        6.5640     0.7890     0.1380 C.3   1 <1>   0.2080 
 17 C        7.9060     0.0840     0.2920 C.2   1 <1>  -0.2760 
 18 C        8.8000     0.4220     1.2250 C.2   1 <1>  -0.3000 
 19 C        8.1530    -1.0330    -0.7120 C.3   1 <1>  -0.1020 
 20 H        2.6580    -1.0700     1.0020 H     1 <1>   0.4000 
 21 H       -2.7770     1.2200     1.4010 H     1 <1>   0.0800 
 22 H       -2.8430     1.0590    -0.3380 H     1 <1>   0.0800 
 23 H        0.1880     3.9950    -1.3090 H     1 <1>   0.0800 
 24 H       -0.1070     4.4280     0.3520 H     1 <1>   0.0800 
 25 H       -2.5440     3.5800     1.2990 H     1 <1>   0.0800 
 26 H       -3.7750     3.2210     0.1230 H     1 <1>   0.0800 
 27 H       -2.0600     3.3330    -1.6760 H     1 <1>   0.0800 
 28 H       -2.1650     4.8370    -0.8110 H     1 <1>   0.0800 
 29 H        6.4810     1.6320     0.8020 H     1 <1>   0.0800 
 30 H        6.3930     1.1080    -0.8760 H     1 <1>   0.0800 
 31 H        9.7550    -0.0580     1.3510 H     1 <1>   0.1500 
 32 H        8.6550     1.2080     1.9460 H     1 <1>   0.1500 
 33 H        8.0880    -0.6520    -1.7160 H     1 <1>   0.0800 
 34 H        7.4280    -1.8170    -0.5910 H     1 <1>   0.0800 
 35 H        9.1320    -1.4560    -0.5730 H     1 <1>   0.0800 
@<TRIPOS>BOND
  1   1   2  1   
  2   1   3  1   
  3   2   4  1   
  4   2   5  2   
  5   3   6  2   
  6   3   7  1   
  7   4   8  1   
  8   4  20  1   
  9   5   6  1   
 10   5   9  1   
 11   6  10  1   
 12   7  11  1   
 13   7  21  1   
 14   7  22  1   
 15   8  12  1   
 16   8  13  2   
 17   9  13  1   
 18   9  14  2   
 19  10  15  1   
 20  10  23  1   
 21  10  24  1   
 22  11  15  1   
 23  11  25  1   
 24  11  26  1   
 25  12  16  1   
 26  15  27  1   
 27  15  28  1   
 28  16  17  1   
 29  16  29  1   
 30  16  30  1   
 31  17  18  2   
 32  17  19  1   
 33  18  31  1   
 34  18  32  1   
 35  19  33  1   
 36  19  34  1   
 37  19  35  1   
@<TRIPOS>SUBSTRUCTURE
  1 ****   9 GROUP 4 **** **** 0

# MOE 2024.06 (io_trps.svl 2023.06)
