@<TRIPOS>MOLECULE
NONAME
35 36 1 0 0 
SMALL
USER_CHARGES


@<TRIPOS>ATOM
  1 O       -1.0270     2.3950    -0.6320 O.2   1 <1>  -0.5700 
  2 C       -1.9910     1.8330    -0.1970 C.2   1 <1>   0.6590 
  3 O       -2.8260     1.1290    -0.9360 O.3   1 <1>  -0.4300 
  4 C       -2.4640     1.9180     1.2270 C.3   1 <1>  -0.0990 
  5 C       -3.8940     0.6030    -0.1940 C.3   1 <1>   0.2800 
  6 C       -3.9250     1.4840     1.0740 C.3   1 <1>  -0.0190 
  7 C       -3.5280    -0.8500     0.1390 C.3   1 <1>  -0.2400 
  8 C       -5.1500     0.6250    -1.0750 C.3   1 <1>  -0.2400 
  9 C       -4.8540     2.6880     0.9430 C.2   1 <1>   0.5690 
 10 O       -5.8280     2.7080     1.6530 O.2   1 <1>  -0.5700 
 11 N       -4.5490     3.6780     0.0430 N.am  1 <1>  -0.5470 
 12 C       -5.1860     4.8910    -0.2630 C.ar  1 <1>   0.1170 
 13 C       -6.1260     5.4980     0.5650 C.ar  1 <1>  -0.1500 
 14 C       -4.8470     5.5280    -1.4510 C.ar  1 <1>  -0.1500 
 15 C       -6.7200     6.7000     0.2160 C.ar  1 <1>  -0.1440 
 16 C       -5.4320     6.7290    -1.8060 C.ar  1 <1>  -0.1500 
 17 C       -6.3680     7.3150    -0.9740 C.ar  1 <1>  -0.1500 
 18 C       -7.7470     7.3450     1.1300 C.3   1 <1>  -0.0970 
 19 H       -2.3530     2.9110     1.6250 H     1 <1>   0.0800 
 20 H       -1.9080     1.2190     1.8230 H     1 <1>   0.0800 
 21 H       -4.2450     0.9130     1.9280 H     1 <1>   0.0800 
 22 H       -2.6240    -0.9070     0.7180 H     1 <1>   0.0800 
 23 H       -3.3930    -1.4170    -0.7660 H     1 <1>   0.0800 
 24 H       -4.3190    -1.3080     0.7050 H     1 <1>   0.0800 
 25 H       -5.3380     1.6030    -1.4790 H     1 <1>   0.0800 
 26 H       -6.0080     0.3240    -0.5010 H     1 <1>   0.0800 
 27 H       -5.0400    -0.0600    -1.8970 H     1 <1>   0.0800 
 28 H       -3.7590     3.4780    -0.5700 H     1 <1>   0.3700 
 29 H       -6.3980     5.0330     1.4930 H     1 <1>   0.1500 
 30 H       -4.1210     5.0840    -2.1080 H     1 <1>   0.1500 
 31 H       -5.1600     7.2100    -2.7300 H     1 <1>   0.1500 
 32 H       -6.8210     8.2500    -1.2540 H     1 <1>   0.1500 
 33 H       -8.1490     6.6230     1.8180 H     1 <1>   0.0800 
 34 H       -8.5580     7.7490     0.5510 H     1 <1>   0.0800 
 35 H       -7.2880     8.1390     1.6900 H     1 <1>   0.0800 
@<TRIPOS>BOND
  1   1   2  2   
  2   2   3  1   
  3   2   4  1   
  4   3   5  1   
  5   4   6  1   
  6   4  19  1   
  7   4  20  1   
  8   5   6  1   
  9   5   7  1   
 10   5   8  1   
 11   6   9  1   
 12   6  21  1   
 13   7  22  1   
 14   7  23  1   
 15   7  24  1   
 16   8  25  1   
 17   8  26  1   
 18   8  27  1   
 19   9  10  2   
 20   9  11  am  
 21  11  12  1   
 22  11  28  1   
 23  12  13  ar  
 24  12  14  ar  
 25  13  15  ar  
 26  13  29  1   
 27  14  16  ar  
 28  14  30  1   
 29  15  17  ar  
 30  15  18  1   
 31  16  17  ar  
 32  16  31  1   
 33  17  32  1   
 34  18  33  1   
 35  18  34  1   
 36  18  35  1   
@<TRIPOS>SUBSTRUCTURE
  1 ****  11 GROUP 4 **** **** 0

# MOE 2024.06 (io_trps.svl 2023.06)
