@<TRIPOS>MOLECULE
NONAME
35 36 1 0 0 
SMALL
USER_CHARGES


@<TRIPOS>ATOM
  1 F        2.3630     1.4700    -1.9970 F     1 <1>  -0.1900 
  2 C        1.5300     2.3070    -1.4380 C.ar  1 <1>   0.1900 
  3 C        1.4370     2.3540    -0.0510 C.ar  1 <1>  -0.1440 
  4 C        0.7800     3.1200    -2.2660 C.ar  1 <1>  -0.1500 
  5 C        0.5560     3.2650     0.5210 C.ar  1 <1>  -0.1500 
  6 C        2.2790     1.4440     0.8420 C.3   1 <1>   0.0450 
  7 C       -0.0850     4.0070    -1.6580 C.ar  1 <1>   0.1900 
  8 C       -0.2110     4.0960    -0.2830 C.ar  1 <1>  -0.1500 
  9 C        3.6540     2.0280     1.1110 C.2   1 <1>   0.5690 
 10 F       -0.8100     4.7910    -2.4080 F     1 <1>  -0.1900 
 11 O        3.9650     2.2890     2.2480 O.2   1 <1>  -0.5700 
 12 N        4.4900     2.2340     0.0620 N.am  1 <1>  -0.7300 
 13 C        5.8300     2.8310     0.1410 C.3   1 <1>   0.2200 
 14 C        5.8160     4.1700    -0.6020 C.3   1 <1>  -0.1600 
 15 C        6.8410     1.8600    -0.4800 C.3   1 <1>  -0.1600 
 16 C        7.2190     4.7930    -0.6510 C.3   1 <1>  -0.1600 
 17 C        8.2460     2.4780    -0.5290 C.3   1 <1>  -0.1600 
 18 C        8.2350     3.8230    -1.2700 C.3   1 <1>  -0.1600 
 19 H        0.8650     3.0660    -3.3350 H     1 <1>   0.1500 
 20 H        0.4670     3.3350     1.5930 H     1 <1>   0.1500 
 21 H        2.3980     0.4780     0.3870 H     1 <1>   0.0800 
 22 H        1.7800     1.2940     1.7820 H     1 <1>   0.0800 
 23 H       -0.8960     4.8050     0.1480 H     1 <1>   0.1500 
 24 H        4.1600     2.0290    -0.8830 H     1 <1>   0.3700 
 25 H        6.0930     3.0020     1.1730 H     1 <1>   0.0800 
 26 H        5.1450     4.8460    -0.1000 H     1 <1>   0.0800 
 27 H        5.4640     4.0220    -1.6080 H     1 <1>   0.0800 
 28 H        6.5340     1.6110    -1.4800 H     1 <1>   0.0800 
 29 H        6.8700     0.9580     0.1050 H     1 <1>   0.0800 
 30 H        7.5310     5.0450     0.3480 H     1 <1>   0.0800 
 31 H        7.1910     5.7020    -1.2270 H     1 <1>   0.0800 
 32 H        8.9220     1.8000    -1.0200 H     1 <1>   0.0800 
 33 H        8.6030     2.6290     0.4760 H     1 <1>   0.0800 
 34 H        9.2180     4.2600    -1.2360 H     1 <1>   0.0800 
 35 H        7.9850     3.6570    -2.3040 H     1 <1>   0.0800 
@<TRIPOS>BOND
  1   1   2  1   
  2   2   3  ar  
  3   2   4  ar  
  4   3   5  ar  
  5   3   6  1   
  6   4   7  ar  
  7   4  19  1   
  8   5   8  ar  
  9   5  20  1   
 10   6   9  1   
 11   6  21  1   
 12   6  22  1   
 13   7   8  ar  
 14   7  10  1   
 15   8  23  1   
 16   9  11  2   
 17   9  12  am  
 18  12  13  1   
 19  12  24  1   
 20  13  14  1   
 21  13  15  1   
 22  13  25  1   
 23  14  16  1   
 24  14  26  1   
 25  14  27  1   
 26  15  17  1   
 27  15  28  1   
 28  15  29  1   
 29  16  18  1   
 30  16  30  1   
 31  16  31  1   
 32  17  18  1   
 33  17  32  1   
 34  17  33  1   
 35  18  34  1   
 36  18  35  1   
@<TRIPOS>SUBSTRUCTURE
  1 ****  12 GROUP 4 **** **** 0

# MOE 2024.06 (io_trps.svl 2023.06)
