@<TRIPOS>MOLECULE
NONAME
44 46 1 0 0 
SMALL
USER_CHARGES


@<TRIPOS>ATOM
  1 O        0.4560     1.1340    -1.7950 O.2   1 <1>  -0.5700 
  2 C        1.5840     1.3700    -1.4120 C.2   1 <1>   0.6900 
  3 N        2.2500     0.5680    -0.4980 N.am  1 <1>  -0.4690 
  4 N        2.1890     2.4660    -1.8920 N.am  1 <1>  -0.7300 
  5 C        3.5500     0.8700    -0.0740 C.2   1 <1>  -0.0290 
  6 C        1.5090    -0.6140     0.0480 C.3   1 <1>   0.0600 
  7 C        3.4610     2.9930    -1.3970 C.3   1 <1>   0.5020 
  8 C        4.1680     2.0280    -0.4490 C.2   1 <1>  -0.1240 
  9 C        4.2300    -0.1740     0.8170 C.3   1 <1>  -0.1020 
 10 C        3.1780     4.3320    -0.7200 C.ar  1 <1>  -0.1440 
 11 C        5.4520     2.5230    -0.0470 C.2   1 <1>   0.7060 
 12 C        3.7240     5.5010    -1.2430 C.ar  1 <1>  -0.1500 
 13 C        2.3840     4.3910     0.4280 C.ar  1 <1>  -0.1500 
 14 O        5.9590     2.2730     1.0280 O.2   1 <1>  -0.5700 
 15 O        6.1070     3.3210    -0.9060 O.3   1 <1>  -0.4300 
 16 C        3.4620     6.6920    -0.5960 C.ar  1 <1>   0.0830 
 17 C        2.1300     5.5990     1.0630 C.ar  1 <1>  -0.1500 
 18 C        7.3200     4.0160    -0.6830 C.3   1 <1>   0.2000 
 19 O        3.8870     7.9180    -0.9180 O.3   1 <1>  -0.3630 
 20 C        2.6880     6.7410     0.5250 C.ar  1 <1>   0.0830 
 21 C        8.4810     3.0390    -0.4820 C.3   1 <1>  -0.2400 
 22 C        7.1620     5.0260     0.4560 C.3   1 <1>  -0.2400 
 23 C        3.3450     8.8050     0.0590 C.3   1 <1>   0.4000 
 24 O        2.5870     8.0010     0.9600 O.3   1 <1>  -0.3630 
 25 H        1.6000     3.1130    -2.4090 H     1 <1>   0.3700 
 26 H        0.4520    -0.5300    -0.1310 H     1 <1>   0.0800 
 27 H        1.6530    -0.6830     1.1110 H     1 <1>   0.0800 
 28 H        1.8660    -1.5110    -0.4240 H     1 <1>   0.0800 
 29 H        4.0870     3.1540    -2.2590 H     1 <1>   0.0800 
 30 H        3.8250    -0.1290     1.8110 H     1 <1>   0.0800 
 31 H        5.2910    -0.0300     0.8810 H     1 <1>   0.0800 
 32 H        4.0870    -1.1610     0.4180 H     1 <1>   0.0800 
 33 H        4.3420     5.5020    -2.1230 H     1 <1>   0.1500 
 34 H        1.9590     3.4860     0.8320 H     1 <1>   0.1500 
 35 H        1.5210     5.6560     1.9470 H     1 <1>   0.1500 
 36 H        7.5070     4.5680    -1.5890 H     1 <1>   0.0800 
 37 H        8.3940     2.5170     0.4540 H     1 <1>   0.0800 
 38 H        9.4090     3.5800    -0.4710 H     1 <1>   0.0800 
 39 H        8.5120     2.3280    -1.2870 H     1 <1>   0.0800 
 40 H        7.0420     4.5310     1.4030 H     1 <1>   0.0800 
 41 H        6.3140     5.6610     0.2760 H     1 <1>   0.0800 
 42 H        8.0400     5.6430     0.5150 H     1 <1>   0.0800 
 43 H        2.6970     9.5180    -0.4200 H     1 <1>   0.0800 
 44 H        4.1440     9.2880     0.5920 H     1 <1>   0.0800 
@<TRIPOS>BOND
  1   1   2  2   
  2   2   3  am  
  3   2   4  am  
  4   3   5  1   
  5   3   6  1   
  6   4   7  1   
  7   4  25  1   
  8   5   8  2   
  9   5   9  1   
 10   6  26  1   
 11   6  27  1   
 12   6  28  1   
 13   7   8  1   
 14   7  10  1   
 15   7  29  1   
 16   8  11  1   
 17   9  30  1   
 18   9  31  1   
 19   9  32  1   
 20  10  12  ar  
 21  10  13  ar  
 22  11  14  2   
 23  11  15  1   
 24  12  16  ar  
 25  12  33  1   
 26  13  17  ar  
 27  13  34  1   
 28  15  18  1   
 29  16  19  1   
 30  16  20  ar  
 31  17  20  ar  
 32  17  35  1   
 33  18  21  1   
 34  18  22  1   
 35  18  36  1   
 36  19  23  1   
 37  20  24  1   
 38  21  37  1   
 39  21  38  1   
 40  21  39  1   
 41  22  40  1   
 42  22  41  1   
 43  22  42  1   
 44  23  24  1   
 45  23  43  1   
 46  23  44  1   
@<TRIPOS>SUBSTRUCTURE
  1 ****  10 GROUP 4 **** **** 0

# MOE 2024.06 (io_trps.svl 2023.06)
