@<TRIPOS>MOLECULE
NONAME
23 24 1 0 0 
SMALL
USER_CHARGES


@<TRIPOS>ATOM
  1 S        0.2400     0.2220     0.0100 S.3   1 <1>  -0.3310 
  2 C        0.0980    -1.5740     0.0270 C.2   1 <1>   0.0700 
  3 C       -1.4830     0.8920     0.0000 C.3   1 <1>   0.0700 
  4 N        1.2720    -2.3140     0.0370 N.pl3 1 <1>   0.6010 
  5 C       -1.0890    -2.2380     0.0320 C.2   1 <1>  -0.1360 
  6 C       -1.3990     2.4150    -0.0150 C.3   1 <1>   0.1800 
  7 N        2.5620    -1.9710     0.0360 N.2   1 <1>  -0.7070 
  8 C        1.1870    -3.6750     0.0500 C.2   1 <1>   0.3120 
  9 C       -1.0850    -3.6570     0.0460 C.2   1 <1>   0.3750 
 10 F       -2.6420     2.8770    -0.0220 F     1 <1>  -0.3400 
 11 C        3.1460    -3.1280     0.0480 C.2   1 <1>   0.3660 
 12 N       -0.0020    -4.3620     0.0550 N.2   1 <1>  -0.5760 
 13 N        2.3680    -4.2090     0.0580 N.2   1 <1>  -0.5650 
 14 C       -2.4150    -4.3770     0.0500 C.3   1 <1>  -0.1790 
 15 H       -1.9700     0.5410     0.8920 H     1 <1>   0.0800 
 16 H       -1.9660     0.5230    -0.8870 H     1 <1>   0.0800 
 17 H       -2.0370    -1.7390     0.0250 H     1 <1>   0.1500 
 18 H       -0.9220     2.7880    -0.9050 H     1 <1>   0.0800 
 19 H       -0.9250     2.8050     0.8680 H     1 <1>   0.0800 
 20 H        4.2200    -3.2320     0.0510 H     1 <1>   0.1500 
 21 H       -2.9790    -4.1040     0.9230 H     1 <1>   0.0800 
 22 H       -2.2620    -5.4420     0.0620 H     1 <1>   0.0800 
 23 H       -2.9750    -4.1220    -0.8300 H     1 <1>   0.0800 
@<TRIPOS>BOND
  1   1   2  1   
  2   1   3  1   
  3   2   4  1   
  4   2   5  2   
  5   3   6  1   
  6   3  15  1   
  7   3  16  1   
  8   4   7  1   
  9   4   8  1   
 10   5   9  1   
 11   5  17  1   
 12   6  10  1   
 13   6  18  1   
 14   6  19  1   
 15   7  11  2   
 16   8  12  1   
 17   8  13  2   
 18   9  12  2   
 19   9  14  1   
 20  11  13  1   
 21  11  20  1   
 22  14  21  1   
 23  14  22  1   
 24  14  23  1   
@<TRIPOS>SUBSTRUCTURE
  1 ****   2 GROUP 4 **** **** 0

# MOE 2024.06 (io_trps.svl 2023.06)
