@<TRIPOS>MOLECULE
NONAME
44 47 1 0 0 
SMALL
USER_CHARGES


@<TRIPOS>ATOM
  1 F       -1.7840    -0.7140     2.7480 F     1 <1>  -0.1900 
  2 C       -2.9010    -0.3230     2.1960 C.ar  1 <1>   0.1900 
  3 C       -4.0440    -0.2670     2.9700 C.ar  1 <1>  -0.1500 
  4 C       -2.8980     0.0210     0.8570 C.ar  1 <1>  -0.1500 
  5 C       -5.2240     0.1490     2.3770 C.ar  1 <1>  -0.1500 
  6 C       -4.0830     0.4360     0.2710 C.ar  1 <1>  -0.1500 
  7 C       -5.2510     0.5010     1.0330 C.ar  1 <1>   0.0830 
  8 O       -6.4500     0.8960     0.5360 O.3   1 <1>  -0.3630 
  9 C       -6.5930     1.2780    -0.8280 C.3   1 <1>   0.1810 
 10 C       -8.0250     1.6820    -1.1570 C.2   1 <1>   0.5690 
 11 O       -8.2680     2.0270    -2.2880 O.2   1 <1>  -0.5700 
 12 N       -8.9660     1.6400    -0.1740 N.am  1 <1>  -0.7300 
 13 C      -10.3970     1.9760    -0.2390 C.3   1 <1>   0.3000 
 14 C      -10.9930     1.7500     1.1630 C.3   1 <1>  -0.1600 
 15 C      -11.1270     1.0660    -1.2440 C.3   1 <1>  -0.1600 
 16 C      -10.5940     3.4530    -0.6320 C.3   1 <1>  -0.1600 
 17 C      -12.4970     2.0850     1.1650 C.3   1 <1>  -0.0800 
 18 C      -12.6320     1.4020    -1.2610 C.3   1 <1>  -0.0800 
 19 C      -12.0970     3.7970    -0.6470 C.3   1 <1>  -0.0800 
 20 C      -13.2160     1.1810     0.1470 C.3   1 <1>  -0.1600 
 21 C      -12.6860     3.5580     0.7570 C.3   1 <1>  -0.1600 
 22 C      -12.8140     2.8800    -1.6580 C.3   1 <1>  -0.1600 
 23 H       -4.0070    -0.5420     4.0090 H     1 <1>   0.1500 
 24 H       -1.9850    -0.0370     0.2910 H     1 <1>   0.1500 
 25 H       -6.1300     0.2030     2.9540 H     1 <1>   0.1500 
 26 H       -4.0720     0.7010    -0.7690 H     1 <1>   0.1500 
 27 H       -6.3140     0.4450    -1.4460 H     1 <1>   0.0800 
 28 H       -5.9420     2.1110    -1.0180 H     1 <1>   0.0800 
 29 H       -8.6490     1.3330     0.7470 H     1 <1>   0.3700 
 30 H      -10.4900     2.3750     1.8790 H     1 <1>   0.0800 
 31 H      -10.8580     0.7230     1.4550 H     1 <1>   0.0800 
 32 H      -10.9880     0.0350    -0.9730 H     1 <1>   0.0800 
 33 H      -10.7250     1.2110    -2.2310 H     1 <1>   0.0800 
 34 H      -10.1850     3.6300    -1.6100 H     1 <1>   0.0800 
 35 H      -10.0820     4.0890     0.0670 H     1 <1>   0.0800 
 36 H      -12.9060     1.9240     2.1480 H     1 <1>   0.0800 
 37 H      -13.1370     0.7690    -1.9710 H     1 <1>   0.0800 
 38 H      -12.2310     4.8270    -0.9300 H     1 <1>   0.0800 
 39 H      -14.2690     1.4040     0.1420 H     1 <1>   0.0800 
 40 H      -13.1040     0.1490     0.4300 H     1 <1>   0.0800 
 41 H      -12.1990     4.2010     1.4700 H     1 <1>   0.0800 
 42 H      -13.7330     3.8050     0.7580 H     1 <1>   0.0800 
 43 H      -13.8620     3.1220    -1.6880 H     1 <1>   0.0800 
 44 H      -12.4130     3.0440    -2.6440 H     1 <1>   0.0800 
@<TRIPOS>BOND
  1   1   2  1   
  2   2   3  ar  
  3   2   4  ar  
  4   3   5  ar  
  5   3  23  1   
  6   4   6  ar  
  7   4  24  1   
  8   5   7  ar  
  9   5  25  1   
 10   6   7  ar  
 11   6  26  1   
 12   7   8  1   
 13   8   9  1   
 14   9  10  1   
 15   9  27  1   
 16   9  28  1   
 17  10  11  2   
 18  10  12  am  
 19  12  13  1   
 20  12  29  1   
 21  13  14  1   
 22  13  15  1   
 23  13  16  1   
 24  14  17  1   
 25  14  30  1   
 26  14  31  1   
 27  15  18  1   
 28  15  32  1   
 29  15  33  1   
 30  16  19  1   
 31  16  34  1   
 32  16  35  1   
 33  17  20  1   
 34  17  21  1   
 35  17  36  1   
 36  18  20  1   
 37  18  22  1   
 38  18  37  1   
 39  19  21  1   
 40  19  22  1   
 41  19  38  1   
 42  20  39  1   
 43  20  40  1   
 44  21  41  1   
 45  21  42  1   
 46  22  43  1   
 47  22  44  1   
@<TRIPOS>SUBSTRUCTURE
  1 ****  12 GROUP 4 **** **** 0

# MOE 2024.06 (io_trps.svl 2023.06)
