@<TRIPOS>MOLECULE
NONAME
41 42 1 0 0 
SMALL
USER_CHARGES


@<TRIPOS>ATOM
  1 S        0.3590    -0.8940     1.3580 S.o2  1 <1>   1.4470 
  2 O        0.7500    -0.2630     2.5960 O.2   1 <1>  -0.6500 
  3 O        0.4710    -2.3200     1.1730 O.2   1 <1>  -0.6500 
  4 N        1.3700    -0.2580     0.1230 N.am  1 <1>  -0.7570 
  5 C       -1.2760    -0.3230     0.8240 C.ar  1 <1>  -0.0090 
  6 C        1.5010     1.0930    -0.1870 C.ar  1 <1>   0.1990 
  7 C       -2.1570    -1.1650     0.1590 C.ar  1 <1>  -0.1500 
  8 C       -1.6830     0.9860     1.0360 C.ar  1 <1>  -0.1500 
  9 C        1.2690     1.5740    -1.4770 C.ar  1 <1>   0.1600 
 10 C        1.8640     2.0160     0.7780 C.ar  1 <1>  -0.1500 
 11 C       -3.3900    -0.7150    -0.2770 C.ar  1 <1>  -0.1500 
 12 C       -2.9160     1.4410     0.6000 C.ar  1 <1>  -0.1500 
 13 N        1.3530     2.8380    -1.8580 N.ar  1 <1>  -0.6200 
 14 C        1.9560     3.3380     0.4010 C.ar  1 <1>  -0.1500 
 15 C       -3.7970     0.5970    -0.0690 C.ar  1 <1>  -0.1430 
 16 C        1.6930     3.6980    -0.9120 C.ar  1 <1>   0.1670 
 17 C       -5.1810     1.0560    -0.5780 C.3   1 <1>   0.1440 
 18 C        1.7880     5.1470    -1.3410 C.3   1 <1>  -0.0970 
 19 C       -5.4800     2.5330    -0.2690 C.3   1 <1>  -0.2400 
 20 C       -6.2790     0.2120     0.0870 C.3   1 <1>  -0.2400 
 21 C       -5.2520     0.8780    -2.1010 C.3   1 <1>  -0.2400 
 22 H        1.4490    -0.9410    -0.6230 H     1 <1>   0.4200 
 23 H       -1.8780    -2.1900    -0.0220 H     1 <1>   0.1500 
 24 H       -1.0250     1.6670     1.5500 H     1 <1>   0.1500 
 25 H        0.9910     0.8650    -2.2350 H     1 <1>   0.1500 
 26 H        2.0740     1.7110     1.7880 H     1 <1>   0.1500 
 27 H       -4.0360    -1.4080    -0.7870 H     1 <1>   0.1500 
 28 H       -3.1620     2.4670     0.7980 H     1 <1>   0.1500 
 29 H        2.2330     4.0830     1.1240 H     1 <1>   0.1500 
 30 H        2.5210     5.2410    -2.1220 H     1 <1>   0.0800 
 31 H        2.0710     5.7780    -0.5200 H     1 <1>   0.0800 
 32 H        0.8370     5.4710    -1.7200 H     1 <1>   0.0800 
 33 H       -5.4700     2.7070     0.7920 H     1 <1>   0.0800 
 34 H       -6.4510     2.8080    -0.6410 H     1 <1>   0.0800 
 35 H       -4.7530     3.1720    -0.7370 H     1 <1>   0.0800 
 36 H       -6.2140     0.3030     1.1570 H     1 <1>   0.0800 
 37 H       -6.1790    -0.8260    -0.1690 H     1 <1>   0.0800 
 38 H       -7.2530     0.5410    -0.2260 H     1 <1>   0.0800 
 39 H       -4.4650     1.4390    -2.5740 H     1 <1>   0.0800 
 40 H       -6.1960     1.2270    -2.4810 H     1 <1>   0.0800 
 41 H       -5.1420    -0.1540    -2.3780 H     1 <1>   0.0800 
@<TRIPOS>BOND
  1   1   2  2   
  2   1   3  2   
  3   1   4  am  
  4   1   5  1   
  5   4   6  1   
  6   4  22  1   
  7   5   7  ar  
  8   5   8  ar  
  9   6   9  ar  
 10   6  10  ar  
 11   7  11  ar  
 12   7  23  1   
 13   8  12  ar  
 14   8  24  1   
 15   9  13  ar  
 16   9  25  1   
 17  10  14  ar  
 18  10  26  1   
 19  11  15  ar  
 20  11  27  1   
 21  12  15  ar  
 22  12  28  1   
 23  13  16  ar  
 24  14  16  ar  
 25  14  29  1   
 26  15  17  1   
 27  16  18  1   
 28  17  19  1   
 29  17  20  1   
 30  17  21  1   
 31  18  30  1   
 32  18  31  1   
 33  18  32  1   
 34  19  33  1   
 35  19  34  1   
 36  19  35  1   
 37  20  36  1   
 38  20  37  1   
 39  20  38  1   
 40  21  39  1   
 41  21  40  1   
 42  21  41  1   
@<TRIPOS>SUBSTRUCTURE
  1 ****   8 GROUP 4 **** **** 0

# MOE 2024.06 (io_trps.svl 2023.06)
