@<TRIPOS>MOLECULE
NONAME
30 30 1 0 0 
SMALL
USER_CHARGES


@<TRIPOS>ATOM
  1 S       -0.1490    -0.2570    -0.2200 S.3   1 <1>  -0.3710 
  2 C        1.3200     0.7380     0.0430 C.2   1 <1>   0.6510 
  3 C       -1.5250     0.9490     0.0360 C.3   1 <1>   0.0700 
  4 N        1.1270     1.9710     0.3260 N.2   1 <1>  -0.6210 
  5 N        2.5410     0.1010    -0.0750 N.am  1 <1>  -0.4200 
  6 C       -2.8500     0.2120    -0.1640 C.3   1 <1>  -0.1600 
  7 C        2.2260     2.7530     0.5410 C.2   1 <1>   0.0210 
  8 C        3.6690     0.8800     0.1490 C.2   1 <1>   0.6160 
  9 C        2.6880    -1.3360    -0.4280 C.3   1 <1>   0.1400 
 10 C       -4.0410     1.1570     0.0340 C.3   1 <1>  -0.1600 
 11 O        2.0350     3.9400     0.8090 O.3   1 <1>  -0.8500 
 12 C        3.4950     2.2170     0.4570 C.2   1 <1>  -0.1360 
 13 O        4.7950     0.3530     0.0660 O.2   1 <1>  -0.5700 
 14 C        2.6750    -2.1910     0.8390 C.3   1 <1>  -0.2400 
 15 C       -5.3690     0.4210    -0.1660 C.3   1 <1>  -0.2400 
 16 H       -1.3900     1.7430    -0.6800 H     1 <1>   0.0800 
 17 H       -1.4240     1.3410     1.0330 H     1 <1>   0.0800 
 18 H       -2.9090    -0.5980     0.5430 H     1 <1>   0.0800 
 19 H       -2.8750    -0.2000    -1.1580 H     1 <1>   0.0800 
 20 H        3.6160    -1.4840    -0.9530 H     1 <1>   0.0800 
 21 H        1.9010    -1.6400    -1.0940 H     1 <1>   0.0800 
 22 H       -3.9750     1.9700    -0.6700 H     1 <1>   0.0800 
 23 H       -4.0100     1.5730     1.0270 H     1 <1>   0.0800 
 24 H        4.3400     2.8480     0.6330 H     1 <1>   0.1500 
 25 H        3.4910    -1.9080     1.4820 H     1 <1>   0.0800 
 26 H        2.7870    -3.2270     0.5790 H     1 <1>   0.0800 
 27 H        1.7460    -2.0670     1.3660 H     1 <1>   0.0800 
 28 H       -5.4280     0.0160    -1.1600 H     1 <1>   0.0800 
 29 H       -6.1910     1.1010    -0.0240 H     1 <1>   0.0800 
 30 H       -5.4630    -0.3830     0.5430 H     1 <1>   0.0800 
@<TRIPOS>BOND
  1   1   2  1   
  2   1   3  1   
  3   2   4  2   
  4   2   5  1   
  5   3   6  1   
  6   3  16  1   
  7   3  17  1   
  8   4   7  1   
  9   5   8  am  
 10   5   9  1   
 11   6  10  1   
 12   6  18  1   
 13   6  19  1   
 14   7  11  1   
 15   7  12  2   
 16   8  12  1   
 17   8  13  2   
 18   9  14  1   
 19   9  20  1   
 20   9  21  1   
 21  10  15  1   
 22  10  22  1   
 23  10  23  1   
 24  12  24  1   
 25  14  25  1   
 26  14  26  1   
 27  14  27  1   
 28  15  28  1   
 29  15  29  1   
 30  15  30  1   
@<TRIPOS>SUBSTRUCTURE
  1 ****   2 GROUP 4 **** **** 0

# MOE 2024.06 (io_trps.svl 2023.06)
