@<TRIPOS>MOLECULE
NONAME
33 35 1 0 0 
SMALL
USER_CHARGES


@<TRIPOS>ATOM
  1 CL       0.0460     1.3300     1.3280 Cl    1 <1>  -0.1770 
  2 C       -1.5070     1.7620     0.6550 C.ar  1 <1>   0.1770 
  3 C       -1.6020     2.7170    -0.3550 C.ar  1 <1>   0.0860 
  4 C       -2.6230     1.1200     1.1580 C.ar  1 <1>  -0.1500 
  5 C       -0.4490     3.4040    -0.8930 C.2   1 <1>   0.5440 
  6 C       -2.8740     2.9870    -0.8590 C.ar  1 <1>  -0.1500 
  7 C       -3.8740     1.4170     0.6490 C.ar  1 <1>  -0.1500 
  8 O       -0.1860     3.2530    -2.0690 O.2   1 <1>  -0.5700 
  9 N        0.3220     4.2600    -0.1370 N.am  1 <1>  -0.6600 
 10 C       -4.0110     2.3540    -0.3700 C.ar  1 <1>  -0.0230 
 11 C       -0.0110     4.7160     1.2460 C.3   1 <1>   0.1400 
 12 C        1.5870     4.8630    -0.6580 C.3   1 <1>   0.1400 
 13 N       -5.2930     2.6570    -0.9050 N.pl3 1 <1>   0.3260 
 14 C        0.0800     6.2490     1.3460 C.3   1 <1>   0.1200 
 15 C        1.5870     6.3860    -0.4490 C.3   1 <1>   0.1200 
 16 C       -5.8400     3.8510    -1.1670 C.2   1 <1>   0.0360 
 17 C       -6.2830     1.8270    -1.2610 C.2   1 <1>   0.0360 
 18 O        1.3210     6.7040     0.8890 O.3   1 <1>  -0.5600 
 19 N       -7.0360     3.7550    -1.6310 N.2   1 <1>  -0.3380 
 20 N       -7.3220     2.4530    -1.6900 N.2   1 <1>  -0.3380 
 21 H       -2.5070     0.3910     1.9420 H     1 <1>   0.1500 
 22 H       -2.9570     3.7050    -1.6590 H     1 <1>   0.1500 
 23 H       -4.7400     0.9160     1.0500 H     1 <1>   0.1500 
 24 H        0.6840     4.2770     1.9390 H     1 <1>   0.0800 
 25 H       -1.0020     4.4060     1.5240 H     1 <1>   0.0800 
 26 H        1.7100     4.6500    -1.7050 H     1 <1>   0.0800 
 27 H        2.4230     4.4340    -0.1350 H     1 <1>   0.0800 
 28 H       -0.0250     6.5610     2.3700 H     1 <1>   0.0800 
 29 H       -0.6940     6.7150     0.7610 H     1 <1>   0.0800 
 30 H        0.8420     6.8510    -1.0710 H     1 <1>   0.0800 
 31 H        2.5500     6.7930    -0.6990 H     1 <1>   0.0800 
 32 H       -5.3190     4.7750    -0.9990 H     1 <1>   0.1500 
 33 H       -6.1950     0.7590    -1.1900 H     1 <1>   0.1500 
@<TRIPOS>BOND
  1   1   2  1   
  2   2   3  ar  
  3   2   4  ar  
  4   3   5  1   
  5   3   6  ar  
  6   4   7  ar  
  7   4  21  1   
  8   5   8  2   
  9   5   9  am  
 10   6  10  ar  
 11   6  22  1   
 12   7  10  ar  
 13   7  23  1   
 14   9  11  1   
 15   9  12  1   
 16  10  13  1   
 17  11  14  1   
 18  11  24  1   
 19  11  25  1   
 20  12  15  1   
 21  12  26  1   
 22  12  27  1   
 23  13  16  1   
 24  13  17  1   
 25  14  18  1   
 26  14  28  1   
 27  14  29  1   
 28  15  18  1   
 29  15  30  1   
 30  15  31  1   
 31  16  19  2   
 32  16  32  1   
 33  17  20  2   
 34  17  33  1   
 35  19  20  1   
@<TRIPOS>SUBSTRUCTURE
  1 ****   3 GROUP 4 **** **** 0

# MOE 2024.06 (io_trps.svl 2023.06)
