@<TRIPOS>MOLECULE
NONAME
38 39 1 0 0 
SMALL
USER_CHARGES


@<TRIPOS>ATOM
  1 CL      -0.2310    -0.5410     0.8290 Cl    1 <1>  -0.1770 
  2 C        1.3930    -1.1090     0.5340 C.ar  1 <1>   0.1770 
  3 C        1.5850    -2.3790     0.0220 C.ar  1 <1>  -0.1500 
  4 C        2.4620    -0.2800     0.8160 C.ar  1 <1>  -0.1500 
  5 C        2.8740    -2.8240    -0.2100 C.ar  1 <1>  -0.1500 
  6 C        3.7530    -0.7270     0.5830 C.ar  1 <1>  -0.1500 
  7 C        3.9620    -2.0060     0.0660 C.ar  1 <1>   0.0830 
  8 O        5.1890    -2.5240    -0.1930 O.3   1 <1>  -0.3630 
  9 C        6.3620    -1.7800     0.0240 C.3   1 <1>   0.1200 
 10 C        7.5430    -2.6720    -0.3740 C.3   1 <1>   0.3430 
 11 N        8.8680    -1.9910    -0.2020 N.4   1 <1>  -0.9590 
 12 C        9.0800    -0.9010    -1.1920 C.3   1 <1>   0.3430 
 13 C        9.9760    -2.9800    -0.2990 C.3   1 <1>   0.3430 
 14 C        9.7000     0.3190    -0.5110 C.3   1 <1>  -0.1600 
 15 C       11.2100    -2.5030     0.4720 C.3   1 <1>  -0.1600 
 16 C       10.8350     0.0370     0.4910 C.3   1 <1>  -0.1600 
 17 C       11.7630    -1.1180     0.0850 C.3   1 <1>  -0.1600 
 18 H        0.7360    -3.0040    -0.1890 H     1 <1>   0.1500 
 19 H        2.2790     0.7030     1.2140 H     1 <1>   0.1500 
 20 H        3.0400    -3.8100    -0.6080 H     1 <1>   0.1500 
 21 H        4.5670    -0.0670     0.8110 H     1 <1>   0.1500 
 22 H        6.4090    -1.5250     1.0680 H     1 <1>   0.0800 
 23 H        6.3120    -0.8970    -0.5890 H     1 <1>   0.0800 
 24 H        7.4230    -2.9750    -1.4010 H     1 <1>   0.0800 
 25 H        7.5140    -3.5540     0.2450 H     1 <1>   0.0800 
 26 H        8.9240    -1.5730     0.7370 H     1 <1>   0.4500 
 27 H        8.1470    -0.6130    -1.6490 H     1 <1>   0.0800 
 28 H        9.7370    -1.2450    -1.9750 H     1 <1>   0.0800 
 29 H       10.2320    -3.1460    -1.3330 H     1 <1>   0.0800 
 30 H        9.6610    -3.9240     0.1180 H     1 <1>   0.0800 
 31 H        8.9270     0.8810    -0.0160 H     1 <1>   0.0800 
 32 H       10.0850     0.9540    -1.2900 H     1 <1>   0.0800 
 33 H       11.9900    -3.2270     0.3060 H     1 <1>   0.0800 
 34 H       10.9980    -2.5250     1.5270 H     1 <1>   0.0800 
 35 H       10.4290    -0.1550     1.4700 H     1 <1>   0.0800 
 36 H       11.4250     0.9340     0.5800 H     1 <1>   0.0800 
 37 H       11.9900    -1.0740    -0.9670 H     1 <1>   0.0800 
 38 H       12.6960    -0.9860     0.6080 H     1 <1>   0.0800 
@<TRIPOS>BOND
  1   1   2  1   
  2   2   3  ar  
  3   2   4  ar  
  4   3   5  ar  
  5   3  18  1   
  6   4   6  ar  
  7   4  19  1   
  8   5   7  ar  
  9   5  20  1   
 10   6   7  ar  
 11   6  21  1   
 12   7   8  1   
 13   8   9  1   
 14   9  10  1   
 15   9  22  1   
 16   9  23  1   
 17  10  11  1   
 18  10  24  1   
 19  10  25  1   
 20  11  12  1   
 21  11  13  1   
 22  11  26  1   
 23  12  14  1   
 24  12  27  1   
 25  12  28  1   
 26  13  15  1   
 27  13  29  1   
 28  13  30  1   
 29  14  16  1   
 30  14  31  1   
 31  14  32  1   
 32  15  17  1   
 33  15  33  1   
 34  15  34  1   
 35  16  17  1   
 36  16  35  1   
 37  16  36  1   
 38  17  37  1   
 39  17  38  1   
@<TRIPOS>SUBSTRUCTURE
  1 ****   9 GROUP 4 **** **** 0

# MOE 2024.06 (io_trps.svl 2023.06)
