@<TRIPOS>MOLECULE
NONAME
46 48 1 0 0 
SMALL
USER_CHARGES


@<TRIPOS>ATOM
  1 O       -0.9640     0.4260     3.0780 O.2   1 <1>  -0.5700 
  2 C       -0.3080     0.9500     2.2090 C.2   1 <1>   0.5690 
  3 N       -0.7360     1.1760     0.9330 N.am  1 <1>  -0.5470 
  4 C        1.1180     1.4080     2.5220 C.3   1 <1>   0.1710 
  5 C       -1.9220     0.9210     0.2280 C.ar  1 <1>   0.1170 
  6 N        1.9790     1.5570     1.3070 N.3   1 <1>  -0.8100 
  7 C       -1.9580     1.1520    -1.1490 C.ar  1 <1>  -0.1430 
  8 C       -3.0700     0.4470     0.8560 C.ar  1 <1>  -0.1500 
  9 C        3.1520     2.3940     1.6090 C.3   1 <1>   0.1100 
 10 C        2.3980     0.2330     0.8060 C.3   1 <1>   0.1100 
 11 C       -3.1210     0.9060    -1.8600 C.ar  1 <1>  -0.1500 
 12 C       -0.7330     1.6710    -1.8950 C.3   1 <1>  -0.0970 
 13 C       -4.2310     0.2000     0.1440 C.ar  1 <1>  -0.1430 
 14 C        3.9450     2.6470     0.3280 C.3   1 <1>  -0.1600 
 15 C        3.1610     0.3960    -0.5080 C.3   1 <1>  -0.1600 
 16 C       -4.2520     0.4330    -1.2190 C.ar  1 <1>  -0.1500 
 17 C       -5.4720    -0.3180     0.8490 C.3   1 <1>  -0.0970 
 18 C        4.3560     1.3280    -0.3130 C.3   1 <1>   0.5600 
 19 O        5.3230     0.7170     0.4790 O.3   1 <1>  -0.5600 
 20 O        4.9790     1.5830    -1.5260 O.3   1 <1>  -0.5600 
 21 C        6.2640     0.1110    -0.3330 C.3   1 <1>   0.1200 
 22 C        5.9810     0.6540    -1.7210 C.3   1 <1>   0.1200 
 23 H        0.0250     1.5710     0.3720 H     1 <1>   0.3700 
 24 H        1.5660     0.7140     3.2110 H     1 <1>   0.0800 
 25 H        1.0340     2.3580     3.0180 H     1 <1>   0.0800 
 26 H       -3.0590     0.2700     1.9140 H     1 <1>   0.1500 
 27 H        3.7780     1.9050     2.3370 H     1 <1>   0.0800 
 28 H        2.8310     3.3390     2.0130 H     1 <1>   0.0800 
 29 H        1.5360    -0.3900     0.6370 H     1 <1>   0.0800 
 30 H        3.0280    -0.2530     1.5350 H     1 <1>   0.0800 
 31 H       -3.1590     1.0810    -2.9200 H     1 <1>   0.1500 
 32 H       -0.4200     2.6140    -1.4820 H     1 <1>   0.0800 
 33 H       -0.9490     1.8170    -2.9380 H     1 <1>   0.0800 
 34 H        0.0720     0.9640    -1.8130 H     1 <1>   0.0800 
 35 H        4.8220     3.2270     0.5440 H     1 <1>   0.0800 
 36 H        3.3290     3.1980    -0.3580 H     1 <1>   0.0800 
 37 H        2.5010     0.8210    -1.2400 H     1 <1>   0.0800 
 38 H        3.4880    -0.5640    -0.8590 H     1 <1>   0.0800 
 39 H       -5.1480     0.2480    -1.7850 H     1 <1>   0.1500 
 40 H       -5.2160    -0.7480     1.8000 H     1 <1>   0.0800 
 41 H       -5.9500    -1.0730     0.2510 H     1 <1>   0.0800 
 42 H       -6.1620     0.4910     1.0090 H     1 <1>   0.0800 
 43 H        6.1360    -0.9560    -0.2880 H     1 <1>   0.0800 
 44 H        7.2460     0.3850     0.0110 H     1 <1>   0.0800 
 45 H        6.8370     1.1420    -2.1500 H     1 <1>   0.0800 
 46 H        5.6200    -0.1160    -2.3790 H     1 <1>   0.0800 
@<TRIPOS>BOND
  1   1   2  2   
  2   2   3  am  
  3   2   4  1   
  4   3   5  1   
  5   3  23  1   
  6   4   6  1   
  7   4  24  1   
  8   4  25  1   
  9   5   7  ar  
 10   5   8  ar  
 11   6   9  1   
 12   6  10  1   
 13   7  11  ar  
 14   7  12  1   
 15   8  13  ar  
 16   8  26  1   
 17   9  14  1   
 18   9  27  1   
 19   9  28  1   
 20  10  15  1   
 21  10  29  1   
 22  10  30  1   
 23  11  16  ar  
 24  11  31  1   
 25  12  32  1   
 26  12  33  1   
 27  12  34  1   
 28  13  16  ar  
 29  13  17  1   
 30  14  18  1   
 31  14  35  1   
 32  14  36  1   
 33  15  18  1   
 34  15  37  1   
 35  15  38  1   
 36  16  39  1   
 37  17  40  1   
 38  17  41  1   
 39  17  42  1   
 40  18  19  1   
 41  18  20  1   
 42  19  21  1   
 43  20  22  1   
 44  21  22  1   
 45  21  43  1   
 46  21  44  1   
 47  22  45  1   
 48  22  46  1   
@<TRIPOS>SUBSTRUCTURE
  1 ****   3 GROUP 4 **** **** 0

# MOE 2024.06 (io_trps.svl 2023.06)
