@<TRIPOS>MOLECULE
NONAME
33 34 1 0 0 
SMALL
USER_CHARGES


@<TRIPOS>ATOM
  1 CL      -0.1910    -0.4010    -0.1270 Cl    1 <1>  -0.1770 
  2 C        1.4470    -0.9940    -0.1810 C.ar  1 <1>   0.1770 
  3 C        2.3780    -0.5010     0.7130 C.ar  1 <1>  -0.1500 
  4 C        1.7960    -1.9470    -1.1170 C.ar  1 <1>  -0.1500 
  5 C        3.6780    -0.9750     0.6680 C.ar  1 <1>  -0.1500 
  6 C        3.0980    -2.4150    -1.1510 C.ar  1 <1>  -0.1500 
  7 C        4.0680    -1.9480    -0.2590 C.ar  1 <1>   0.0860 
  8 C        5.4260    -2.4590    -0.3070 C.2   1 <1>   0.5440 
  9 O        5.9000    -2.8450    -1.3570 O.2   1 <1>  -0.5700 
 10 N        6.1790    -2.5250     0.8350 N.am  1 <1>  -0.7300 
 11 C        7.5750    -3.0230     0.9800 C.3   1 <1>   0.2200 
 12 C        8.5500    -2.4490    -0.0760 C.3   1 <1>   0.2000 
 13 C        7.5430    -4.5520     0.9720 C.3   1 <1>  -0.2400 
 14 O        9.8640    -2.7470     0.2790 O.3   1 <1>  -0.5600 
 15 C        8.5450    -0.9280    -0.2000 C.3   1 <1>  -0.1600 
 16 C       10.7320    -1.9080    -0.4090 C.3   1 <1>   0.1200 
 17 C        9.9700    -0.6020    -0.6220 C.3   1 <1>  -0.1600 
 18 H        2.0840     0.2460     1.4290 H     1 <1>   0.1500 
 19 H        1.0580    -2.3150    -1.8070 H     1 <1>   0.1500 
 20 H        4.4020    -0.5780     1.3570 H     1 <1>   0.1500 
 21 H        3.3790    -3.1560    -1.8810 H     1 <1>   0.1500 
 22 H        5.7080    -2.3670     1.7250 H     1 <1>   0.3700 
 23 H        7.9330    -2.6970     1.9410 H     1 <1>   0.0800 
 24 H        8.3710    -2.9020    -1.0360 H     1 <1>   0.0800 
 25 H        7.2010    -4.9120     0.0180 H     1 <1>   0.0800 
 26 H        6.8950    -4.9190     1.7470 H     1 <1>   0.0800 
 27 H        8.5320    -4.9360     1.1440 H     1 <1>   0.0800 
 28 H        8.3280    -0.4830     0.7550 H     1 <1>   0.0800 
 29 H        7.8150    -0.6010    -0.9190 H     1 <1>   0.0800 
 30 H       10.9720    -2.3760    -1.3490 H     1 <1>   0.0800 
 31 H       11.6240    -1.7740     0.1780 H     1 <1>   0.0800 
 32 H       10.3860     0.1850    -0.0190 H     1 <1>   0.0800 
 33 H       10.0180    -0.3150    -1.6580 H     1 <1>   0.0800 
@<TRIPOS>BOND
  1   1   2  1   
  2   2   3  ar  
  3   2   4  ar  
  4   3   5  ar  
  5   3  18  1   
  6   4   6  ar  
  7   4  19  1   
  8   5   7  ar  
  9   5  20  1   
 10   6   7  ar  
 11   6  21  1   
 12   7   8  1   
 13   8   9  2   
 14   8  10  am  
 15  10  11  1   
 16  10  22  1   
 17  11  12  1   
 18  11  13  1   
 19  11  23  1   
 20  12  14  1   
 21  12  15  1   
 22  12  24  1   
 23  13  25  1   
 24  13  26  1   
 25  13  27  1   
 26  14  16  1   
 27  15  17  1   
 28  15  28  1   
 29  15  29  1   
 30  16  17  1   
 31  16  30  1   
 32  16  31  1   
 33  17  32  1   
 34  17  33  1   
@<TRIPOS>SUBSTRUCTURE
  1 ****   8 GROUP 4 **** **** 0

# MOE 2024.06 (io_trps.svl 2023.06)
