@<TRIPOS>MOLECULE
NONAME
41 41 1 0 0 
SMALL
USER_CHARGES


@<TRIPOS>ATOM
  1 S       -0.0300     0.2530    -0.8630 S.o2  1 <1>   1.5760 
  2 O        0.8460    -0.8960    -0.8880 O.2   1 <1>  -0.6500 
  3 O       -0.3530     0.9580    -2.0830 O.2   1 <1>  -0.6500 
  4 N       -1.4860    -0.1020    -0.0740 N.am  1 <1>  -0.8490 
  5 N        0.6600     1.3550     0.2230 N.am  1 <1>  -0.8490 
  6 C       -2.3340    -1.0540    -0.8320 C.3   1 <1>   0.2760 
  7 C       -2.2480     1.1530     0.1380 C.3   1 <1>   0.1960 
  8 C        1.0960     0.7110     1.4660 C.3   1 <1>   0.1160 
  9 C        1.7750     2.0810    -0.3850 C.3   1 <1>   0.1160 
 10 C       -3.7260    -1.2370    -0.1710 C.3   1 <1>   0.1960 
 11 C       -1.6830    -2.4400    -0.9240 C.3   1 <1>  -0.2400 
 12 C       -3.6030     0.9230     0.8210 C.3   1 <1>   0.1960 
 13 N       -4.4420     0.0280     0.0200 N.am  1 <1>  -0.8490 
 14 S       -5.9420    -0.2350     0.7410 S.o2  1 <1>   1.5760 
 15 O       -6.6870    -1.1710    -0.0710 O.2   1 <1>  -0.6500 
 16 O       -5.7250    -0.4870     2.1470 O.2   1 <1>  -0.6500 
 17 N       -6.6310     1.2990     0.5530 N.am  1 <1>  -0.8490 
 18 C       -7.8330     1.4500     1.3740 C.3   1 <1>   0.1160 
 19 C       -6.9340     1.6070    -0.8470 C.3   1 <1>   0.1160 
 20 H       -2.4930    -0.6770    -1.8300 H     1 <1>   0.0800 
 21 H       -2.4200     1.6470    -0.8040 H     1 <1>   0.0800 
 22 H       -1.6860     1.8250     0.7610 H     1 <1>   0.0800 
 23 H        0.2700     0.1900     1.9210 H     1 <1>   0.0800 
 24 H        1.4540     1.4510     2.1600 H     1 <1>   0.0800 
 25 H        1.8830     0.0010     1.2700 H     1 <1>   0.0800 
 26 H        1.4330     2.6160    -1.2550 H     1 <1>   0.0800 
 27 H        2.5520     1.3950    -0.6830 H     1 <1>   0.0800 
 28 H        2.1790     2.7940     0.3130 H     1 <1>   0.0800 
 29 H       -3.5990    -1.7290     0.7800 H     1 <1>   0.0800 
 30 H       -4.3200    -1.8820    -0.7960 H     1 <1>   0.0800 
 31 H       -1.2990    -2.7400     0.0350 H     1 <1>   0.0800 
 32 H       -0.8910    -2.4480    -1.6490 H     1 <1>   0.0800 
 33 H       -2.4010    -3.1710    -1.2500 H     1 <1>   0.0800 
 34 H       -4.0990     1.8720     0.9380 H     1 <1>   0.0800 
 35 H       -3.4360     0.5100     1.8020 H     1 <1>   0.0800 
 36 H       -7.5890     1.2960     2.4120 H     1 <1>   0.0800 
 37 H       -8.5810     0.7310     1.0820 H     1 <1>   0.0800 
 38 H       -8.2340     2.4430     1.2660 H     1 <1>   0.0800 
 39 H       -6.0400     1.5320    -1.4430 H     1 <1>   0.0800 
 40 H       -7.3130     2.6110    -0.9320 H     1 <1>   0.0800 
 41 H       -7.6660     0.9190    -1.2370 H     1 <1>   0.0800 
@<TRIPOS>BOND
  1   1   2  2   
  2   1   3  2   
  3   1   4  am  
  4   1   5  am  
  5   4   6  1   
  6   4   7  1   
  7   5   8  1   
  8   5   9  1   
  9   6  10  1   
 10   6  11  1   
 11   6  20  1   
 12   7  12  1   
 13   7  21  1   
 14   7  22  1   
 15   8  23  1   
 16   8  24  1   
 17   8  25  1   
 18   9  26  1   
 19   9  27  1   
 20   9  28  1   
 21  10  13  1   
 22  10  29  1   
 23  10  30  1   
 24  11  31  1   
 25  11  32  1   
 26  11  33  1   
 27  12  13  1   
 28  12  34  1   
 29  12  35  1   
 30  13  14  am  
 31  14  15  2   
 32  14  16  2   
 33  14  17  am  
 34  17  18  1   
 35  17  19  1   
 36  18  36  1   
 37  18  37  1   
 38  18  38  1   
 39  19  39  1   
 40  19  40  1   
 41  19  41  1   
@<TRIPOS>SUBSTRUCTURE
  1 ****   7 GROUP 4 **** **** 0

# MOE 2024.06 (io_trps.svl 2023.06)
