@<TRIPOS>MOLECULE
NONAME
43 44 1 0 0 
SMALL
USER_CHARGES


@<TRIPOS>ATOM
  1 O        0.7300    -3.5000     0.9920 O.3   1 <1>  -0.5600 
  2 C        0.5850    -2.8530    -0.2450 C.3   1 <1>   0.1200 
  3 C        0.4600    -4.8730     0.9630 C.3   1 <1>   0.1200 
  4 C       -0.7780    -3.1640    -0.9090 C.3   1 <1>   0.3430 
  5 C       -1.0160    -5.1380     0.5870 C.3   1 <1>   0.3430 
  6 N       -1.6800    -3.9160     0.0210 N.4   1 <1>  -0.9590 
  7 C       -3.0680    -4.1390    -0.4900 C.3   1 <1>   0.3430 
  8 C       -3.8840    -2.8280    -0.4530 C.3   1 <1>   0.2000 
  9 O       -3.5120    -2.0940     0.6740 O.3   1 <1>  -0.6800 
 10 C       -5.3960    -3.0750    -0.4090 C.3   1 <1>   0.1200 
 11 O       -6.0420    -1.8350    -0.2150 O.3   1 <1>  -0.3630 
 12 C       -7.3940    -1.7510    -0.1350 C.ar  1 <1>   0.0820 
 13 C       -7.9330    -0.4850     0.0190 C.ar  1 <1>  -0.1500 
 14 C       -8.2440    -2.8500    -0.1990 C.ar  1 <1>  -0.1500 
 15 C       -9.3030    -0.2970     0.1100 C.ar  1 <1>  -0.1430 
 16 C       -9.6120    -2.6660    -0.1090 C.ar  1 <1>  -0.1500 
 17 C      -10.1500    -1.3980     0.0460 C.ar  1 <1>  -0.1430 
 18 C       -9.8450     1.1160     0.2790 C.3   1 <1>  -0.0970 
 19 C      -11.6620    -1.2430     0.1420 C.3   1 <1>  -0.0970 
 20 H        1.3960    -3.1530    -0.8860 H     1 <1>   0.0800 
 21 H        0.6740    -1.7950    -0.0670 H     1 <1>   0.0800 
 22 H        0.6730    -5.2750     1.9380 H     1 <1>   0.0800 
 23 H        1.1250    -5.3380     0.2550 H     1 <1>   0.0800 
 24 H       -0.6060    -3.7440    -1.8010 H     1 <1>   0.0800 
 25 H       -1.2400    -2.2360    -1.2050 H     1 <1>   0.0800 
 26 H       -1.5450    -5.4590     1.4690 H     1 <1>   0.0800 
 27 H       -1.0520    -5.9450    -0.1250 H     1 <1>   0.0800 
 28 H       -1.8090    -3.2610     0.8200 H     1 <1>   0.4500 
 29 H       -3.5650    -4.8550     0.1430 H     1 <1>   0.0800 
 30 H       -3.0490    -4.5390    -1.4900 H     1 <1>   0.0800 
 31 H       -3.6540    -2.2340    -1.3200 H     1 <1>   0.0800 
 32 H       -4.1950    -1.4000     0.8320 H     1 <1>   0.4000 
 33 H       -5.6540    -3.7230     0.4120 H     1 <1>   0.0800 
 34 H       -5.7440    -3.4970    -1.3360 H     1 <1>   0.0800 
 35 H       -7.2650     0.3550     0.0660 H     1 <1>   0.1500 
 36 H       -7.8730    -3.8490    -0.3170 H     1 <1>   0.1500 
 37 H      -10.2600    -3.5230    -0.1590 H     1 <1>   0.1500 
 38 H       -9.0470     1.8360     0.3050 H     1 <1>   0.0800 
 39 H      -10.3970     1.1910     1.1980 H     1 <1>   0.0800 
 40 H      -10.4930     1.3620    -0.5430 H     1 <1>   0.0800 
 41 H      -11.9260    -0.7930     1.0810 H     1 <1>   0.0800 
 42 H      -12.1530    -2.1970     0.0750 H     1 <1>   0.0800 
 43 H      -12.0200    -0.6230    -0.6590 H     1 <1>   0.0800 
@<TRIPOS>BOND
  1   1   2  1   
  2   1   3  1   
  3   2   4  1   
  4   2  20  1   
  5   2  21  1   
  6   3   5  1   
  7   3  22  1   
  8   3  23  1   
  9   4   6  1   
 10   4  24  1   
 11   4  25  1   
 12   5   6  1   
 13   5  26  1   
 14   5  27  1   
 15   6   7  1   
 16   6  28  1   
 17   7   8  1   
 18   7  29  1   
 19   7  30  1   
 20   8   9  1   
 21   8  10  1   
 22   8  31  1   
 23   9  32  1   
 24  10  11  1   
 25  10  33  1   
 26  10  34  1   
 27  11  12  1   
 28  12  13  ar  
 29  12  14  ar  
 30  13  15  ar  
 31  13  35  1   
 32  14  16  ar  
 33  14  36  1   
 34  15  17  ar  
 35  15  18  1   
 36  16  17  ar  
 37  16  37  1   
 38  17  19  1   
 39  18  38  1   
 40  18  39  1   
 41  18  40  1   
 42  19  41  1   
 43  19  42  1   
 44  19  43  1   
@<TRIPOS>SUBSTRUCTURE
  1 ****  10 GROUP 4 **** **** 0

# MOE 2024.06 (io_trps.svl 2023.06)
