@<TRIPOS>MOLECULE
NONAME
40 42 1 0 0 
SMALL
USER_CHARGES


@<TRIPOS>ATOM
  1 O       -0.4200     0.7710     0.5610 O.3   1 <1>  -0.3630 
  2 C       -1.6530     1.2810     0.3150 C.ar  1 <1>   0.0830 
  3 C        0.5940     0.8120    -0.4150 C.3   1 <1>   0.1200 
  4 C       -2.0210     1.8870    -0.8830 C.ar  1 <1>  -0.1500 
  5 C       -2.5840     1.1830     1.3350 C.ar  1 <1>  -0.1500 
  6 C        1.8400     0.1550     0.1720 C.3   1 <1>  -0.2400 
  7 C       -3.3050     2.3740    -1.0440 C.ar  1 <1>  -0.1500 
  8 C       -3.8650     1.6760     1.1660 C.ar  1 <1>  -0.1500 
  9 C       -4.2560     2.2720    -0.0320 C.ar  1 <1>   0.0280 
 10 C       -5.5830     2.7770    -0.2440 C.2   1 <1>  -0.1780 
 11 C       -6.7770     2.1960     0.0110 C.2   1 <1>  -0.0380 
 12 N       -7.9810     2.8390    -0.2760 N.pl3 1 <1>  -0.8380 
 13 C       -6.9700     0.7790     0.5890 C.3   1 <1>   0.3380 
 14 C       -8.7300     2.0960    -1.3370 C.3   1 <1>   0.2090 
 15 C       -8.8540     2.9540     0.9330 C.3   1 <1>   0.2090 
 16 O       -6.3040    -0.1330    -0.2100 O.3   1 <1>  -0.6800 
 17 C       -8.4860     0.4620     0.5970 C.3   1 <1>  -0.0800 
 18 C       -9.0480     0.6670    -0.8330 C.3   1 <1>  -0.1600 
 19 C       -9.1580     1.5380     1.4820 C.3   1 <1>  -0.1600 
 20 H        0.2540     0.2740    -1.2830 H     1 <1>   0.0800 
 21 H        0.7870     1.8410    -0.6630 H     1 <1>   0.0800 
 22 H       -1.3260     1.9870    -1.6940 H     1 <1>   0.1500 
 23 H       -2.2950     0.7220     2.2620 H     1 <1>   0.1500 
 24 H        1.6310    -0.8680     0.4300 H     1 <1>   0.0800 
 25 H        2.1600     0.6890     1.0480 H     1 <1>   0.0800 
 26 H        2.6350     0.1720    -0.5510 H     1 <1>   0.0800 
 27 H       -3.5840     2.8400    -1.9720 H     1 <1>   0.1500 
 28 H       -4.5660     1.6070     1.9760 H     1 <1>   0.1500 
 29 H       -5.6040     3.7560    -0.6870 H     1 <1>   0.1500 
 30 H       -6.5670     0.7130     1.5830 H     1 <1>   0.0800 
 31 H       -9.6360     2.6230    -1.5800 H     1 <1>   0.0800 
 32 H       -8.1210     2.0440    -2.2240 H     1 <1>   0.0800 
 33 H       -8.3430     3.5410     1.6780 H     1 <1>   0.0800 
 34 H       -9.7660     3.4630     0.6720 H     1 <1>   0.0800 
 35 H       -5.4670     0.2880    -0.4910 H     1 <1>   0.4000 
 36 H       -8.6730    -0.5280     0.9710 H     1 <1>   0.0800 
 37 H      -10.1110     0.5090    -0.8430 H     1 <1>   0.0800 
 38 H       -8.6110    -0.0490    -1.5060 H     1 <1>   0.0800 
 39 H       -8.7960     1.4650     2.4920 H     1 <1>   0.0800 
 40 H      -10.2220     1.3870     1.5090 H     1 <1>   0.0800 
@<TRIPOS>BOND
  1   1   2  1   
  2   1   3  1   
  3   2   4  ar  
  4   2   5  ar  
  5   3   6  1   
  6   3  20  1   
  7   3  21  1   
  8   4   7  ar  
  9   4  22  1   
 10   5   8  ar  
 11   5  23  1   
 12   6  24  1   
 13   6  25  1   
 14   6  26  1   
 15   7   9  ar  
 16   7  27  1   
 17   8   9  ar  
 18   8  28  1   
 19   9  10  1   
 20  10  11  2   
 21  10  29  1   
 22  11  12  1   
 23  11  13  1   
 24  12  14  1   
 25  12  15  1   
 26  13  16  1   
 27  13  17  1   
 28  13  30  1   
 29  14  18  1   
 30  14  31  1   
 31  14  32  1   
 32  15  19  1   
 33  15  33  1   
 34  15  34  1   
 35  16  35  1   
 36  17  18  1   
 37  17  19  1   
 38  17  36  1   
 39  18  37  1   
 40  18  38  1   
 41  19  39  1   
 42  19  40  1   
@<TRIPOS>SUBSTRUCTURE
  1 ****   9 GROUP 4 **** **** 0

# MOE 2024.06 (io_trps.svl 2023.06)
