@<TRIPOS>MOLECULE
NONAME
39 39 1 0 0 
SMALL
USER_CHARGES


@<TRIPOS>ATOM
  1 S       -0.4740    -0.3420     1.0080 S.o2  1 <1>   1.3330 
  2 O       -1.2980     0.2790     2.0130 O.2   1 <1>  -0.6500 
  3 O       -0.5000    -1.7670     0.7930 O.2   1 <1>  -0.6500 
  4 N        1.1190     0.0920     1.4730 N.am  1 <1>  -0.7570 
  5 C       -0.6740     0.5350    -0.5440 C.3   1 <1>  -0.0550 
  6 C        2.3460    -0.3960     1.0310 C.ar  1 <1>   0.1990 
  7 C       -2.0590     0.3460    -1.1840 C.3   1 <1>  -0.1600 
  8 C        3.5020     0.0470     1.6630 C.ar  1 <1>  -0.1500 
  9 C        2.4760    -1.3020    -0.0180 C.ar  1 <1>  -0.1500 
 10 C       -2.1720     1.1150    -2.5060 C.3   1 <1>  -0.1600 
 11 C        4.7490    -0.3980     1.2620 C.ar  1 <1>  -0.1500 
 12 C        3.7220    -1.7460    -0.4210 C.ar  1 <1>  -0.1500 
 13 C       -3.5530     0.9200    -3.1360 C.3   1 <1>  -0.2400 
 14 C        4.8720    -1.2980     0.2140 C.ar  1 <1>   0.1170 
 15 N        6.1350    -1.7540    -0.1930 N.am  1 <1>  -0.4770 
 16 C        6.9590    -1.0840    -1.0660 C.2   1 <1>   0.5690 
 17 C        6.5770    -3.0610     0.3570 C.3   1 <1>   0.0600 
 18 O        8.0420    -1.5110    -1.3900 O.2   1 <1>  -0.5700 
 19 C        6.5130     0.2340    -1.6580 C.3   1 <1>  -0.1790 
 20 H        1.0860     0.5910     2.3570 H     1 <1>   0.4200 
 21 H        0.0740     0.1980    -1.2350 H     1 <1>   0.0800 
 22 H       -0.5130     1.5820    -0.3740 H     1 <1>   0.0800 
 23 H       -2.8160     0.6910    -0.4990 H     1 <1>   0.0800 
 24 H       -2.2260    -0.7040    -1.3610 H     1 <1>   0.0800 
 25 H        3.4270     0.7450     2.4770 H     1 <1>   0.1500 
 26 H        1.6070    -1.6760    -0.5260 H     1 <1>   0.1500 
 27 H       -1.4190     0.7690    -3.1950 H     1 <1>   0.0800 
 28 H       -2.0090     2.1650    -2.3320 H     1 <1>   0.0800 
 29 H        5.6360    -0.0500     1.7620 H     1 <1>   0.1500 
 30 H        3.8090    -2.4490    -1.2300 H     1 <1>   0.1500 
 31 H       -3.7310    -0.1210    -3.3400 H     1 <1>   0.0800 
 32 H       -3.6170     1.4650    -4.0610 H     1 <1>   0.0800 
 33 H       -4.3230     1.2790    -2.4750 H     1 <1>   0.0800 
 34 H        5.9120    -3.3840     1.1390 H     1 <1>   0.0800 
 35 H        7.5720    -2.9690     0.7560 H     1 <1>   0.0800 
 36 H        6.5840    -3.7960    -0.4290 H     1 <1>   0.0800 
 37 H        5.5860     0.1030    -2.1820 H     1 <1>   0.0800 
 38 H        7.2550     0.5930    -2.3470 H     1 <1>   0.0800 
 39 H        6.3850     0.9590    -0.8760 H     1 <1>   0.0800 
@<TRIPOS>BOND
  1   1   2  2   
  2   1   3  2   
  3   1   4  am  
  4   1   5  1   
  5   4   6  1   
  6   4  20  1   
  7   5   7  1   
  8   5  21  1   
  9   5  22  1   
 10   6   8  ar  
 11   6   9  ar  
 12   7  10  1   
 13   7  23  1   
 14   7  24  1   
 15   8  11  ar  
 16   8  25  1   
 17   9  12  ar  
 18   9  26  1   
 19  10  13  1   
 20  10  27  1   
 21  10  28  1   
 22  11  14  ar  
 23  11  29  1   
 24  12  14  ar  
 25  12  30  1   
 26  13  31  1   
 27  13  32  1   
 28  13  33  1   
 29  14  15  1   
 30  15  16  am  
 31  15  17  1   
 32  16  18  2   
 33  16  19  1   
 34  17  34  1   
 35  17  35  1   
 36  17  36  1   
 37  19  37  1   
 38  19  38  1   
 39  19  39  1   
@<TRIPOS>SUBSTRUCTURE
  1 ****   9 GROUP 4 **** **** 0

# MOE 2024.06 (io_trps.svl 2023.06)
