@<TRIPOS>MOLECULE
NONAME
56 57 1 0 0 
SMALL
USER_CHARGES


@<TRIPOS>ATOM
  1 O        6.4970    -2.7960     0.3570 O.2   1 <1>  -0.5700 
  2 C        5.7690    -3.7650     0.2850 C.2   1 <1>   0.7800 
  3 O        6.2010    -4.8860    -0.2890 O.3   1 <1>  -0.4300 
  4 N        4.4800    -3.7430     0.7470 N.am  1 <1>  -0.6600 
  5 C        7.5200    -4.9850    -0.7780 C.3   1 <1>   0.1200 
  6 C        3.8960    -2.5150     1.3600 C.3   1 <1>   0.1400 
  7 C        3.4940    -4.8290     0.4770 C.3   1 <1>   0.1400 
  8 C        7.7020    -6.3790    -1.3700 C.3   1 <1>  -0.2400 
  9 C        2.7550    -1.9770     0.4780 C.3   1 <1>   0.3430 
 10 C        2.3410    -4.2940    -0.3950 C.3   1 <1>   0.3430 
 11 N        1.7310    -3.0400     0.1740 N.4   1 <1>  -0.9590 
 12 C        0.5910    -2.5230    -0.6450 C.3   1 <1>   0.3430 
 13 C       -0.3810    -1.7170     0.2430 C.3   1 <1>   0.2000 
 14 O       -0.4180    -2.2920     1.5160 O.3   1 <1>  -0.6800 
 15 C       -1.8030    -1.6800    -0.3270 C.3   1 <1>   0.1200 
 16 O       -2.6600    -1.1310     0.6480 O.3   1 <1>  -0.3630 
 17 C       -3.9740    -1.1470     0.3350 C.ar  1 <1>   0.0820 
 18 C       -4.7500    -2.2480     0.6890 C.ar  1 <1>  -0.1440 
 19 C       -4.5370    -0.0640    -0.3350 C.ar  1 <1>  -0.1440 
 20 C       -6.0870    -2.2710     0.3280 C.ar  1 <1>  -0.1500 
 21 C       -4.1720    -3.4200     1.4700 C.3   1 <1>  -0.0970 
 22 C       -5.8760    -0.1130    -0.6850 C.ar  1 <1>  -0.1500 
 23 C       -3.7240     1.1740    -0.6870 C.3   1 <1>  -0.0970 
 24 C       -6.6530    -1.2130    -0.3630 C.ar  1 <1>  -0.1440 
 25 C       -8.1200    -1.2520    -0.7530 C.3   1 <1>  -0.0970 
 26 H        8.2010    -4.8210     0.0410 H     1 <1>   0.0800 
 27 H        7.6660    -4.2250    -1.5270 H     1 <1>   0.0800 
 28 H        4.6470    -1.7510     1.4740 H     1 <1>   0.0800 
 29 H        3.5220    -2.7490     2.3410 H     1 <1>   0.0800 
 30 H        3.1050    -5.1950     1.4120 H     1 <1>   0.0800 
 31 H        3.9620    -5.6580    -0.0250 H     1 <1>   0.0800 
 32 H        7.5460    -7.1270    -0.6130 H     1 <1>   0.0800 
 33 H        8.7030    -6.4820    -1.7490 H     1 <1>   0.0800 
 34 H        7.0130    -6.5330    -2.1800 H     1 <1>   0.0800 
 35 H        3.1830    -1.6090    -0.4400 H     1 <1>   0.0800 
 36 H        2.2850    -1.1490     0.9830 H     1 <1>   0.0800 
 37 H        1.5870    -5.0590    -0.4880 H     1 <1>   0.0800 
 38 H        2.7290    -4.0910    -1.3800 H     1 <1>   0.0800 
 39 H        1.2770    -3.2700     1.0800 H     1 <1>   0.4500 
 40 H        0.0480    -3.3550    -1.0610 H     1 <1>   0.0800 
 41 H        0.9460    -1.9170    -1.4630 H     1 <1>   0.0800 
 42 H       -0.0240    -0.7070     0.3500 H     1 <1>   0.0800 
 43 H       -1.2060    -1.9290     1.9880 H     1 <1>   0.4000 
 44 H       -2.1490    -2.6710    -0.5660 H     1 <1>   0.0800 
 45 H       -1.8530    -1.0660    -1.2090 H     1 <1>   0.0800 
 46 H       -6.6970    -3.1180     0.5880 H     1 <1>   0.1500 
 47 H       -3.5280    -3.0640     2.2530 H     1 <1>   0.0800 
 48 H       -3.6110    -4.0590     0.8140 H     1 <1>   0.0800 
 49 H       -4.9580    -3.9980     1.9230 H     1 <1>   0.0800 
 50 H       -6.3220     0.7140    -1.2090 H     1 <1>   0.1500 
 51 H       -3.1670     1.0040    -1.5900 H     1 <1>   0.0800 
 52 H       -3.0430     1.4120     0.1100 H     1 <1>   0.0800 
 53 H       -4.3700     2.0200    -0.8350 H     1 <1>   0.0800 
 54 H       -8.4360    -2.2660    -0.9230 H     1 <1>   0.0800 
 55 H       -8.2850    -0.6900    -1.6540 H     1 <1>   0.0800 
 56 H       -8.7160    -0.8290     0.0360 H     1 <1>   0.0800 
@<TRIPOS>BOND
  1   1   2  2   
  2   2   3  1   
  3   2   4  am  
  4   3   5  1   
  5   4   6  1   
  6   4   7  1   
  7   5   8  1   
  8   5  26  1   
  9   5  27  1   
 10   6   9  1   
 11   6  28  1   
 12   6  29  1   
 13   7  10  1   
 14   7  30  1   
 15   7  31  1   
 16   8  32  1   
 17   8  33  1   
 18   8  34  1   
 19   9  11  1   
 20   9  35  1   
 21   9  36  1   
 22  10  11  1   
 23  10  37  1   
 24  10  38  1   
 25  11  12  1   
 26  11  39  1   
 27  12  13  1   
 28  12  40  1   
 29  12  41  1   
 30  13  14  1   
 31  13  15  1   
 32  13  42  1   
 33  14  43  1   
 34  15  16  1   
 35  15  44  1   
 36  15  45  1   
 37  16  17  1   
 38  17  18  ar  
 39  17  19  ar  
 40  18  20  ar  
 41  18  21  1   
 42  19  22  ar  
 43  19  23  1   
 44  20  24  ar  
 45  20  46  1   
 46  21  47  1   
 47  21  48  1   
 48  21  49  1   
 49  22  24  ar  
 50  22  50  1   
 51  23  51  1   
 52  23  52  1   
 53  23  53  1   
 54  24  25  1   
 55  25  54  1   
 56  25  55  1   
 57  25  56  1   
@<TRIPOS>SUBSTRUCTURE
  1 ****  13 GROUP 4 **** **** 0

# MOE 2024.06 (io_trps.svl 2023.06)
