@<TRIPOS>MOLECULE
NONAME
39 40 1 0 0 
SMALL
USER_CHARGES


@<TRIPOS>ATOM
  1 S       -0.3230     0.1510    -1.7870 S.o2  1 <1>   1.4470 
  2 O       -0.9530     1.3280    -2.3450 O.2   1 <1>  -0.6500 
  3 O        0.4340    -0.7230    -2.6580 O.2   1 <1>  -0.6500 
  4 N        0.7610     0.6860    -0.5960 N.am  1 <1>  -0.8490 
  5 C       -1.5470    -0.8000    -0.8430 C.ar  1 <1>  -0.0090 
  6 C        1.6220     1.7520    -1.1090 C.3   1 <1>   0.1960 
  7 C        1.5430    -0.4190    -0.0340 C.3   1 <1>   0.1960 
  8 C       -2.1580    -0.2600     0.2820 C.ar  1 <1>  -0.1500 
  9 C       -1.9050    -2.0890    -1.2190 C.ar  1 <1>  -0.1500 
 10 C        2.4930     2.3190     0.0160 C.3   1 <1>  -0.1600 
 11 C        2.3970     0.0820     1.1320 C.3   1 <1>  -0.1600 
 12 C       -3.0880    -0.9810     1.0110 C.ar  1 <1>  -0.1500 
 13 C       -2.8340    -2.8160    -0.4940 C.ar  1 <1>  -0.1500 
 14 C        3.3360     1.2200     0.6870 C.3   1 <1>  -0.0190 
 15 C       -3.4320    -2.2650     0.6260 C.ar  1 <1>  -0.1430 
 16 C        4.1660     1.7850     1.8510 C.2   1 <1>   0.6590 
 17 C       -4.4500    -3.0580     1.4240 C.3   1 <1>  -0.0960 
 18 O        3.7650     1.7260     2.9820 O.2   1 <1>  -0.5700 
 19 O        5.3410     2.3640     1.6070 O.3   1 <1>  -0.4300 
 20 C        6.0410     2.3870     0.3800 C.3   1 <1>   0.0400 
 21 H        1.0150     2.5500    -1.5060 H     1 <1>   0.0800 
 22 H        2.2390     1.3720    -1.9080 H     1 <1>   0.0800 
 23 H        2.1750    -0.8510    -0.7940 H     1 <1>   0.0800 
 24 H        0.8800    -1.1880     0.3280 H     1 <1>   0.0800 
 25 H       -1.8990     0.7390     0.5910 H     1 <1>   0.1500 
 26 H       -1.4510    -2.5320    -2.0900 H     1 <1>   0.1500 
 27 H        1.8520     2.7810     0.7480 H     1 <1>   0.0800 
 28 H        3.1300     3.0850    -0.3850 H     1 <1>   0.0800 
 29 H        2.9760    -0.7330     1.5270 H     1 <1>   0.0800 
 30 H        1.7420     0.4260     1.9140 H     1 <1>   0.0800 
 31 H       -3.5420    -0.5370     1.8800 H     1 <1>   0.1500 
 32 H       -3.0900    -3.8140    -0.8080 H     1 <1>   0.1500 
 33 H        4.0030     0.8030    -0.0430 H     1 <1>   0.0800 
 34 H       -5.1860    -2.4010     1.8520 H     1 <1>   0.0800 
 35 H       -3.9570    -3.5910     2.2170 H     1 <1>   0.0800 
 36 H       -4.9570    -3.7660     0.7920 H     1 <1>   0.0800 
 37 H        6.9570     2.9300     0.5310 H     1 <1>   0.0800 
 38 H        5.4440     2.8850    -0.3630 H     1 <1>   0.0800 
 39 H        6.2640     1.3770     0.0830 H     1 <1>   0.0800 
@<TRIPOS>BOND
  1   1   2  2   
  2   1   3  2   
  3   1   4  am  
  4   1   5  1   
  5   4   6  1   
  6   4   7  1   
  7   5   8  ar  
  8   5   9  ar  
  9   6  10  1   
 10   6  21  1   
 11   6  22  1   
 12   7  11  1   
 13   7  23  1   
 14   7  24  1   
 15   8  12  ar  
 16   8  25  1   
 17   9  13  ar  
 18   9  26  1   
 19  10  14  1   
 20  10  27  1   
 21  10  28  1   
 22  11  14  1   
 23  11  29  1   
 24  11  30  1   
 25  12  15  ar  
 26  12  31  1   
 27  13  15  ar  
 28  13  32  1   
 29  14  16  1   
 30  14  33  1   
 31  15  17  1   
 32  16  18  2   
 33  16  19  1   
 34  17  34  1   
 35  17  35  1   
 36  17  36  1   
 37  19  20  1   
 38  20  37  1   
 39  20  38  1   
 40  20  39  1   
@<TRIPOS>SUBSTRUCTURE
  1 ****   4 GROUP 4 **** **** 0

# MOE 2024.06 (io_trps.svl 2023.06)
