@<TRIPOS>MOLECULE
NONAME
37 38 1 0 0 
SMALL
USER_CHARGES


@<TRIPOS>ATOM
  1 O        0.0060     0.6510    -1.1270 O.2   1 <1>  -0.5700 
  2 C       -0.1560     1.2270    -0.0700 C.2   1 <1>   0.6900 
  3 N       -1.3810     1.3590     0.4700 N.am  1 <1>  -0.7300 
  4 N        0.8840     1.7590     0.6080 N.am  1 <1>  -0.7300 
  5 C       -2.6290     0.9840    -0.2070 C.3   1 <1>   0.3640 
  6 C        2.2920     1.7130     0.1660 C.3   1 <1>   0.1400 
  7 C       -3.6440     2.1160    -0.0200 C.ar  1 <1>  -0.1430 
  8 C       -3.0930    -0.3560     0.3760 C.3   1 <1>  -0.1600 
  9 C        2.9350     3.0790     0.4070 C.3   1 <1>  -0.1600 
 10 C       -4.9420     1.8750     0.4240 C.ar  1 <1>  -0.1430 
 11 C       -3.2650     3.4170    -0.3260 C.ar  1 <1>  -0.1500 
 12 C       -4.5750    -0.6100     0.0820 C.3   1 <1>  -0.1600 
 13 C        4.4030     3.0880    -0.0320 C.3   1 <1>  -0.2400 
 14 C       -5.8240     2.9330     0.5770 C.ar  1 <1>  -0.1500 
 15 C       -5.4300     0.4690     0.7530 C.3   1 <1>  -0.0170 
 16 C       -4.1510     4.4680    -0.1730 C.ar  1 <1>  -0.1500 
 17 C       -5.4330     4.2260     0.2820 C.ar  1 <1>  -0.1500 
 18 H       -1.5200     1.9980     1.2460 H     1 <1>   0.3700 
 19 H        0.7200     2.1110     1.5460 H     1 <1>   0.3700 
 20 H       -2.4530     0.8640    -1.2630 H     1 <1>   0.0800 
 21 H        2.3400     1.4640    -0.8820 H     1 <1>   0.0800 
 22 H        2.8120     0.9510     0.7210 H     1 <1>   0.0800 
 23 H       -2.9470    -0.3570     1.4420 H     1 <1>   0.0800 
 24 H       -2.4960    -1.1430    -0.0500 H     1 <1>   0.0800 
 25 H        2.8800     3.3230     1.4540 H     1 <1>   0.0800 
 26 H        2.3960     3.8250    -0.1510 H     1 <1>   0.0800 
 27 H       -2.2720     3.6180    -0.6910 H     1 <1>   0.1500 
 28 H       -4.8620    -1.5800     0.4500 H     1 <1>   0.0800 
 29 H       -4.7410    -0.5900    -0.9820 H     1 <1>   0.0800 
 30 H        4.9680     2.3590     0.5220 H     1 <1>   0.0800 
 31 H        4.8330     4.0590     0.1420 H     1 <1>   0.0800 
 32 H        4.4820     2.8640    -1.0820 H     1 <1>   0.0800 
 33 H       -6.8260     2.7540     0.9270 H     1 <1>   0.1500 
 34 H       -6.4520     0.3550     0.4370 H     1 <1>   0.0800 
 35 H       -5.3980     0.3380     1.8210 H     1 <1>   0.0800 
 36 H       -3.8430     5.4710    -0.4110 H     1 <1>   0.1500 
 37 H       -6.1250     5.0410     0.4040 H     1 <1>   0.1500 
@<TRIPOS>BOND
  1   1   2  2   
  2   2   3  am  
  3   2   4  am  
  4   3   5  1   
  5   3  18  1   
  6   4   6  1   
  7   4  19  1   
  8   5   7  1   
  9   5   8  1   
 10   5  20  1   
 11   6   9  1   
 12   6  21  1   
 13   6  22  1   
 14   7  10  ar  
 15   7  11  ar  
 16   8  12  1   
 17   8  23  1   
 18   8  24  1   
 19   9  13  1   
 20   9  25  1   
 21   9  26  1   
 22  10  14  ar  
 23  10  15  1   
 24  11  16  ar  
 25  11  27  1   
 26  12  15  1   
 27  12  28  1   
 28  12  29  1   
 29  13  30  1   
 30  13  31  1   
 31  13  32  1   
 32  14  17  ar  
 33  14  33  1   
 34  15  34  1   
 35  15  35  1   
 36  16  17  ar  
 37  16  36  1   
 38  17  37  1   
@<TRIPOS>SUBSTRUCTURE
  1 ****   3 GROUP 4 **** **** 0

# MOE 2024.06 (io_trps.svl 2023.06)
