@<TRIPOS>MOLECULE
NONAME
38 39 1 0 0 
SMALL
USER_CHARGES


@<TRIPOS>ATOM
  1 O        0.6540    -1.1090     1.3720 O.2   1 <1>  -0.5700 
  2 C        0.7120    -1.5890     0.2660 C.2   1 <1>   0.5690 
  3 N        1.7050    -1.2680    -0.6040 N.am  1 <1>  -0.7300 
  4 C       -0.3530    -2.5960    -0.1820 C.3   1 <1>  -0.0190 
  5 C        2.8070    -0.3150    -0.3200 C.3   1 <1>   0.1400 
  6 C       -1.7660    -1.9950    -0.1140 C.3   1 <1>  -0.2400 
  7 C       -0.2880    -3.8860     0.6520 C.3   1 <1>  -0.2400 
  8 C        4.1270    -1.0700    -0.1600 C.3   1 <1>   0.0210 
  9 C        5.3120    -0.1330     0.0100 C.2   1 <1>  -0.1810 
 10 C        6.6510    -0.5850     0.0470 C.ar  1 <1>   0.0000 
 11 C        5.3350     1.2160     0.1520 C.2   1 <1>  -0.3020 
 12 C        7.4460     0.5440     0.2100 C.ar  1 <1>  -0.1520 
 13 C        7.2550    -1.8440    -0.0420 C.ar  1 <1>  -0.1500 
 14 N        6.6270     1.6410     0.2740 N.pl3 1 <1>   0.0330 
 15 C        8.8360     0.4380     0.2810 C.ar  1 <1>  -0.1500 
 16 C        8.6260    -1.9550     0.0280 C.ar  1 <1>  -0.1440 
 17 C        9.4140    -0.8080     0.1890 C.ar  1 <1>  -0.1500 
 18 C        9.3080    -3.3080    -0.0670 C.3   1 <1>  -0.0970 
 19 H        1.7200    -1.6980    -1.5290 H     1 <1>   0.3700 
 20 H       -0.1570    -2.8570    -1.2060 H     1 <1>   0.0800 
 21 H        2.5970     0.2330     0.5840 H     1 <1>   0.0800 
 22 H        2.8840     0.3880    -1.1310 H     1 <1>   0.0800 
 23 H       -2.0100    -1.7320     0.9010 H     1 <1>   0.0800 
 24 H       -2.4950    -2.6980    -0.4750 H     1 <1>   0.0800 
 25 H       -1.8180    -1.1050    -0.7160 H     1 <1>   0.0800 
 26 H       -0.4910    -3.6690     1.6870 H     1 <1>   0.0800 
 27 H        0.6920    -4.3230     0.5830 H     1 <1>   0.0800 
 28 H       -1.0100    -4.6010     0.3000 H     1 <1>   0.0800 
 29 H        4.2970    -1.6750    -1.0320 H     1 <1>   0.0800 
 30 H        4.0660    -1.7110     0.7010 H     1 <1>   0.0800 
 31 H        4.5130     1.9090     0.1770 H     1 <1>   0.1500 
 32 H        6.6290    -2.7080    -0.1640 H     1 <1>   0.1500 
 33 H        6.9440     2.6060     0.4000 H     1 <1>   0.2700 
 34 H        9.4390     1.3190     0.4060 H     1 <1>   0.1500 
 35 H       10.4830    -0.9080     0.2420 H     1 <1>   0.1500 
 36 H        8.5850    -4.0950    -0.1800 H     1 <1>   0.0800 
 37 H        9.8780    -3.4920     0.8260 H     1 <1>   0.0800 
 38 H        9.9690    -3.3250    -0.9140 H     1 <1>   0.0800 
@<TRIPOS>BOND
  1   1   2  2   
  2   2   3  am  
  3   2   4  1   
  4   3   5  1   
  5   3  19  1   
  6   4   6  1   
  7   4   7  1   
  8   4  20  1   
  9   5   8  1   
 10   5  21  1   
 11   5  22  1   
 12   6  23  1   
 13   6  24  1   
 14   6  25  1   
 15   7  26  1   
 16   7  27  1   
 17   7  28  1   
 18   8   9  1   
 19   8  29  1   
 20   8  30  1   
 21   9  10  1   
 22   9  11  2   
 23  10  12  ar  
 24  10  13  ar  
 25  11  14  1   
 26  11  31  1   
 27  12  14  1   
 28  12  15  ar  
 29  13  16  ar  
 30  13  32  1   
 31  14  33  1   
 32  15  17  ar  
 33  15  34  1   
 34  16  17  ar  
 35  16  18  1   
 36  17  35  1   
 37  18  36  1   
 38  18  37  1   
 39  18  38  1   
@<TRIPOS>SUBSTRUCTURE
  1 ****   8 GROUP 4 **** **** 0

# MOE 2024.06 (io_trps.svl 2023.06)
