@<TRIPOS>MOLECULE
NONAME
35 36 1 0 0 
SMALL
USER_CHARGES


@<TRIPOS>ATOM
  1 O       -1.0610     3.0640     0.9310 O.3   1 <1>  -0.3630 
  2 C       -1.8970     2.1570     0.3670 C.ar  1 <1>   0.0830 
  3 C       -1.0000     4.3920     0.4630 C.3   1 <1>   0.0400 
  4 C       -1.9220     0.8960     0.9400 C.ar  1 <1>  -0.1500 
  5 C       -2.7060     2.4250    -0.7330 C.ar  1 <1>  -0.1500 
  6 C       -2.7330    -0.1030     0.4250 C.ar  1 <1>  -0.1430 
  7 C       -3.5250     1.4340    -1.2440 C.ar  1 <1>  -0.1500 
  8 C       -3.5390     0.1750    -0.6690 C.ar  1 <1>  -0.1500 
  9 C       -2.7300    -1.4910     1.0460 C.3   1 <1>  -0.0170 
 10 C       -1.8590    -2.4690     0.2340 C.3   1 <1>  -0.0800 
 11 C       -1.8920    -3.8750     0.8570 C.3   1 <1>  -0.1600 
 12 C       -0.4020    -1.9810     0.1140 C.3   1 <1>  -0.1600 
 13 C       -0.9820    -4.8510     0.1080 C.3   1 <1>   0.3430 
 14 C        0.4810    -2.9900    -0.6190 C.3   1 <1>   0.3430 
 15 N        0.4030    -4.3080     0.0660 N.4   1 <1>  -0.9060 
 16 H       -0.2940     4.9280     1.0700 H     1 <1>   0.0800 
 17 H       -1.9740     4.8390     0.5540 H     1 <1>   0.0800 
 18 H       -0.6720     4.3860    -0.5620 H     1 <1>   0.0800 
 19 H       -1.2950     0.7130     1.7930 H     1 <1>   0.1500 
 20 H       -2.7130     3.3920    -1.1990 H     1 <1>   0.1500 
 21 H       -4.1550     1.6430    -2.0920 H     1 <1>   0.1500 
 22 H       -4.1820    -0.5840    -1.0780 H     1 <1>   0.1500 
 23 H       -3.7430    -1.8520     1.0880 H     1 <1>   0.0800 
 24 H       -2.3710    -1.4290     2.0590 H     1 <1>   0.0800 
 25 H       -2.2760    -2.5290    -0.7590 H     1 <1>   0.0800 
 26 H       -2.8990    -4.2540     0.8300 H     1 <1>   0.0800 
 27 H       -1.5940    -3.8320     1.8910 H     1 <1>   0.0800 
 28 H        0.0080    -1.7840     1.0890 H     1 <1>   0.0800 
 29 H       -0.3740    -1.0560    -0.4360 H     1 <1>   0.0800 
 30 H       -1.3510    -4.9870    -0.8960 H     1 <1>   0.0800 
 31 H       -0.9900    -5.8090     0.6050 H     1 <1>   0.0800 
 32 H        1.5000    -2.6350    -0.6320 H     1 <1>   0.0800 
 33 H        0.1440    -3.0860    -1.6390 H     1 <1>   0.0800 
 34 H        1.0270    -4.9780    -0.4010 H     1 <1>   0.4500 
 35 H        0.7440    -4.1960     1.0280 H     1 <1>   0.4500 
@<TRIPOS>BOND
  1   1   2  1   
  2   1   3  1   
  3   2   4  ar  
  4   2   5  ar  
  5   3  16  1   
  6   3  17  1   
  7   3  18  1   
  8   4   6  ar  
  9   4  19  1   
 10   5   7  ar  
 11   5  20  1   
 12   6   8  ar  
 13   6   9  1   
 14   7   8  ar  
 15   7  21  1   
 16   8  22  1   
 17   9  10  1   
 18   9  23  1   
 19   9  24  1   
 20  10  11  1   
 21  10  12  1   
 22  10  25  1   
 23  11  13  1   
 24  11  26  1   
 25  11  27  1   
 26  12  14  1   
 27  12  28  1   
 28  12  29  1   
 29  13  15  1   
 30  13  30  1   
 31  13  31  1   
 32  14  15  1   
 33  14  32  1   
 34  14  33  1   
 35  15  34  1   
 36  15  35  1   
@<TRIPOS>SUBSTRUCTURE
  1 ****   6 GROUP 4 **** **** 0

# MOE 2024.06 (io_trps.svl 2023.06)
