@<TRIPOS>MOLECULE
NONAME
62 65 1 0 0 
SMALL
USER_CHARGES


@<TRIPOS>ATOM
  1 O        0.2880     0.3840    -1.4360 O.2   1 <1>  -0.5700 
  2 C        0.2700    -0.5080    -0.6210 C.2   1 <1>   0.4950 
  3 C        1.4270    -1.1250    -0.0630 C.2   1 <1>  -0.1240 
  4 C       -1.0900    -1.0070    -0.1630 C.3   1 <1>  -0.0990 
  5 C        1.3710    -2.2090     0.7480 C.2   1 <1>  -0.0380 
  6 C        2.7840    -0.4960    -0.3920 C.3   1 <1>   0.3400 
  7 C       -1.0900    -2.5180     0.1540 C.3   1 <1>   0.0000 
  8 N        2.5080    -2.7920     1.2450 N.pl3 1 <1>  -0.6000 
  9 C        0.0470    -2.8460     1.1490 C.3   1 <1>  -0.0220 
 10 C        3.9840    -1.3910    -0.0310 C.2   1 <1>  -0.1240 
 11 C        2.8900     0.8240     0.3860 C.ar  1 <1>  -0.1440 
 12 C       -2.4440    -2.9100     0.7690 C.3   1 <1>  -0.2400 
 13 C       -0.9000    -3.3250    -1.1440 C.3   1 <1>  -0.2400 
 14 C        3.7720    -2.4450     0.8110 C.2   1 <1>  -0.0380 
 15 C        5.2340    -1.0260    -0.6530 C.2   1 <1>   0.6160 
 16 C        3.0260     2.0450    -0.2650 C.ar  1 <1>   0.0820 
 17 C        2.8410     0.8060     1.7740 C.ar  1 <1>  -0.1500 
 18 C        4.8510    -3.3700     1.3570 C.3   1 <1>  -0.1020 
 19 O        6.1030    -1.8620    -0.8160 O.2   1 <1>  -0.5700 
 20 N        5.4800     0.2510    -1.0990 N.am  1 <1>  -0.5470 
 21 O        3.1070     2.0610    -1.6150 O.3   1 <1>  -0.3630 
 22 C        3.1120     3.2260     0.4610 C.ar  1 <1>  -0.1500 
 23 C        2.9210     1.9870     2.5070 C.ar  1 <1>   0.0820 
 24 C        6.5810     0.8420    -1.6810 C.ar  1 <1>   0.4270 
 25 C        2.2390     2.9240    -2.3150 C.3   1 <1>   0.0400 
 26 C        3.0540     3.1940     1.8410 C.ar  1 <1>  -0.1500 
 27 O        2.8790     2.0380     3.8640 O.3   1 <1>  -0.3620 
 28 N        6.6000     2.1590    -1.5310 N.ar  1 <1>  -0.6200 
 29 C        7.5680     0.1450    -2.3790 C.ar  1 <1>  -0.1500 
 30 C        2.8640     0.8560     4.6330 C.3   1 <1>   0.0400 
 31 C        7.6290     2.7950    -2.0670 C.ar  1 <1>   0.1600 
 32 C        8.6330     0.8180    -2.9330 C.ar  1 <1>  -0.1500 
 33 C        8.6560     2.1870    -2.7650 C.ar  1 <1>  -0.1500 
 34 H       -1.8160    -0.7920    -0.9270 H     1 <1>   0.0800 
 35 H       -1.3620    -0.4470     0.7120 H     1 <1>   0.0800 
 36 H        2.8050    -0.3350    -1.4550 H     1 <1>   0.0800 
 37 H        2.4200    -3.6090     1.8590 H     1 <1>   0.4000 
 38 H       -0.2090    -2.4850     2.1300 H     1 <1>   0.0800 
 39 H        0.1620    -3.9140     1.2140 H     1 <1>   0.0800 
 40 H       -2.6240    -2.3630     1.6780 H     1 <1>   0.0800 
 41 H       -2.4660    -3.9610     0.9970 H     1 <1>   0.0800 
 42 H       -3.2460    -2.6970     0.0840 H     1 <1>   0.0800 
 43 H        0.0470    -3.1090    -1.6060 H     1 <1>   0.0800 
 44 H       -1.6770    -3.0930    -1.8520 H     1 <1>   0.0800 
 45 H       -0.9370    -4.3810    -0.9420 H     1 <1>   0.0800 
 46 H        2.7380    -0.1390     2.2730 H     1 <1>   0.1500 
 47 H        5.8100    -2.8880     1.3790 H     1 <1>   0.0800 
 48 H        4.9200    -4.2490     0.7430 H     1 <1>   0.0800 
 49 H        4.6210    -3.6630     2.3650 H     1 <1>   0.0800 
 50 H        4.7820     0.9580    -0.8600 H     1 <1>   0.3700 
 51 H        3.2350     4.1650    -0.0450 H     1 <1>   0.1500 
 52 H        2.2530     2.6420    -3.3520 H     1 <1>   0.0800 
 53 H        2.5830     3.9360    -2.2060 H     1 <1>   0.0800 
 54 H        1.2440     2.8130    -1.9200 H     1 <1>   0.0800 
 55 H        3.1190     4.1020     2.4120 H     1 <1>   0.1500 
 56 H        7.5010    -0.9190    -2.4910 H     1 <1>   0.1500 
 57 H        2.8790     1.1330     5.6710 H     1 <1>   0.0800 
 58 H        3.7380     0.2750     4.3950 H     1 <1>   0.0800 
 59 H        1.9650     0.3080     4.4130 H     1 <1>   0.0800 
 60 H        7.6530     3.8640    -1.9420 H     1 <1>   0.1500 
 61 H        9.4080     0.3010    -3.4710 H     1 <1>   0.1500 
 62 H        9.4600     2.7740    -3.1700 H     1 <1>   0.1500 
@<TRIPOS>BOND
  1   1   2  2   
  2   2   3  1   
  3   2   4  1   
  4   3   5  2   
  5   3   6  1   
  6   4   7  1   
  7   4  34  1   
  8   4  35  1   
  9   5   8  1   
 10   5   9  1   
 11   6  10  1   
 12   6  11  1   
 13   6  36  1   
 14   7   9  1   
 15   7  12  1   
 16   7  13  1   
 17   8  14  1   
 18   8  37  1   
 19   9  38  1   
 20   9  39  1   
 21  10  14  2   
 22  10  15  1   
 23  11  16  ar  
 24  11  17  ar  
 25  12  40  1   
 26  12  41  1   
 27  12  42  1   
 28  13  43  1   
 29  13  44  1   
 30  13  45  1   
 31  14  18  1   
 32  15  19  2   
 33  15  20  am  
 34  16  21  1   
 35  16  22  ar  
 36  17  23  ar  
 37  17  46  1   
 38  18  47  1   
 39  18  48  1   
 40  18  49  1   
 41  20  24  1   
 42  20  50  1   
 43  21  25  1   
 44  22  26  ar  
 45  22  51  1   
 46  23  26  ar  
 47  23  27  1   
 48  24  28  ar  
 49  24  29  ar  
 50  25  52  1   
 51  25  53  1   
 52  25  54  1   
 53  26  55  1   
 54  27  30  1   
 55  28  31  ar  
 56  29  32  ar  
 57  29  56  1   
 58  30  57  1   
 59  30  58  1   
 60  30  59  1   
 61  31  33  ar  
 62  31  60  1   
 63  32  33  ar  
 64  32  61  1   
 65  33  62  1   
@<TRIPOS>SUBSTRUCTURE
  1 ****   6 GROUP 4 **** **** 0

# MOE 2024.06 (io_trps.svl 2023.06)
