@<TRIPOS>MOLECULE
NONAME
45 46 1 0 0 
SMALL
USER_CHARGES


@<TRIPOS>ATOM
  1 O        0.6500    -0.3710    -0.0400 O.2   1 <1>  -0.5700 
  2 C        0.6070    -1.5180     0.3540 C.2   1 <1>   0.7800 
  3 O       -0.3200    -2.3530    -0.1120 O.3   1 <1>  -0.4300 
  4 N        1.5140    -2.0130     1.2550 N.am  1 <1>  -0.6600 
  5 C       -1.2950    -1.9090    -1.0300 C.3   1 <1>   0.1200 
  6 C        1.6220    -3.4610     1.5950 C.3   1 <1>   0.1400 
  7 C        2.6090    -1.1590     1.8000 C.3   1 <1>   0.1400 
  8 C       -2.1990    -3.0900    -1.3690 C.3   1 <1>  -0.2400 
  9 C        2.9970    -4.0070     1.1620 C.3   1 <1>   0.3430 
 10 C        3.9780    -1.7050     1.3560 C.3   1 <1>   0.3430 
 11 N        4.1410    -3.1700     1.6890 N.4   1 <1>  -0.9590 
 12 C        5.5020    -3.6950     1.2990 C.3   1 <1>   0.3430 
 13 C        5.6930    -4.1260    -0.1730 C.3   1 <1>   0.0630 
 14 C        7.1280    -4.6190    -0.3160 C.ar  1 <1>  -0.1440 
 15 C        5.4020    -3.0430    -1.2270 C.3   1 <1>  -0.2400 
 16 C        7.3790    -5.9640    -0.5470 C.ar  1 <1>  -0.1500 
 17 C        8.2020    -3.7440    -0.2060 C.ar  1 <1>  -0.1500 
 18 C        8.6780    -6.4280    -0.6590 C.ar  1 <1>  -0.1500 
 19 C        9.5010    -4.2080    -0.3180 C.ar  1 <1>  -0.1500 
 20 C        9.7400    -5.5510    -0.5430 C.ar  1 <1>  -0.1500 
 21 H       -0.7960    -1.5390    -1.9100 H     1 <1>   0.0800 
 22 H       -1.8570    -1.1120    -0.5720 H     1 <1>   0.0800 
 23 H        0.8490    -4.0300     1.1060 H     1 <1>   0.0800 
 24 H        1.4930    -3.5870     2.6560 H     1 <1>   0.0800 
 25 H        2.5470    -1.1430     2.8740 H     1 <1>   0.0800 
 26 H        2.5060    -0.1430     1.4560 H     1 <1>   0.0800 
 27 H       -1.6260    -3.8820    -1.8180 H     1 <1>   0.0800 
 28 H       -2.9540    -2.7780    -2.0660 H     1 <1>   0.0800 
 29 H       -2.6840    -3.4530    -0.4810 H     1 <1>   0.0800 
 30 H        3.0240    -4.0200     0.0850 H     1 <1>   0.0800 
 31 H        3.0960    -5.0230     1.5060 H     1 <1>   0.0800 
 32 H        4.7550    -1.1310     1.8330 H     1 <1>   0.0800 
 33 H        4.0650    -1.5530     0.2950 H     1 <1>   0.0800 
 34 H        4.0900    -3.2270     2.7150 H     1 <1>   0.4500 
 35 H        5.7260    -4.5550     1.9090 H     1 <1>   0.0800 
 36 H        6.2450    -2.9500     1.5320 H     1 <1>   0.0800 
 37 H        5.0460    -4.9610    -0.3720 H     1 <1>   0.0800 
 38 H        5.9360    -2.1340    -1.0130 H     1 <1>   0.0800 
 39 H        4.3510    -2.8310    -1.2880 H     1 <1>   0.0800 
 40 H        5.7180    -3.3920    -2.1950 H     1 <1>   0.0800 
 41 H        6.5730    -6.6700    -0.6460 H     1 <1>   0.1500 
 42 H        8.0480    -2.6930    -0.0370 H     1 <1>   0.1500 
 43 H        8.8650    -7.4730    -0.8390 H     1 <1>   0.1500 
 44 H       10.3290    -3.5250    -0.2330 H     1 <1>   0.1500 
 45 H       10.7500    -5.9120    -0.6310 H     1 <1>   0.1500 
@<TRIPOS>BOND
  1   1   2  2   
  2   2   3  1   
  3   2   4  am  
  4   3   5  1   
  5   4   6  1   
  6   4   7  1   
  7   5   8  1   
  8   5  21  1   
  9   5  22  1   
 10   6   9  1   
 11   6  23  1   
 12   6  24  1   
 13   7  10  1   
 14   7  25  1   
 15   7  26  1   
 16   8  27  1   
 17   8  28  1   
 18   8  29  1   
 19   9  11  1   
 20   9  30  1   
 21   9  31  1   
 22  10  11  1   
 23  10  32  1   
 24  10  33  1   
 25  11  12  1   
 26  11  34  1   
 27  12  13  1   
 28  12  35  1   
 29  12  36  1   
 30  13  14  1   
 31  13  15  1   
 32  13  37  1   
 33  14  16  ar  
 34  14  17  ar  
 35  15  38  1   
 36  15  39  1   
 37  15  40  1   
 38  16  18  ar  
 39  16  41  1   
 40  17  19  ar  
 41  17  42  1   
 42  18  20  ar  
 43  18  43  1   
 44  19  20  ar  
 45  19  44  1   
 46  20  45  1   
@<TRIPOS>SUBSTRUCTURE
  1 ****  11 GROUP 4 **** **** 0

# MOE 2024.06 (io_trps.svl 2023.06)
