@<TRIPOS>MOLECULE
NONAME
48 51 1 0 0 
SMALL
USER_CHARGES


@<TRIPOS>ATOM
  1 O       -0.0030     0.1640     0.1460 O.2   1 <1>  -0.5700 
  2 C        1.2050     0.2560     0.0900 C.2   1 <1>   0.7800 
  3 O        1.7910     1.4550     0.0770 O.3   1 <1>  -0.4300 
  4 N        1.9740    -0.8620     0.0570 N.am  1 <1>  -0.5470 
  5 C        1.0270     2.6420     0.1360 C.3   1 <1>   0.0400 
  6 C        3.3630    -1.0450    -0.0130 C.ar  1 <1>   0.1170 
  7 C        4.2060    -0.1640    -0.6810 C.ar  1 <1>  -0.1500 
  8 C        3.9270    -2.1610     0.5910 C.ar  1 <1>  -0.1500 
  9 C        5.5700    -0.3880    -0.7310 C.ar  1 <1>  -0.1500 
 10 C        5.2900    -2.3870     0.5380 C.ar  1 <1>  -0.1500 
 11 C        6.1370    -1.5000    -0.1200 C.ar  1 <1>   0.1170 
 12 N        7.5280    -1.6810    -0.2120 N.am  1 <1>  -0.5470 
 13 C        8.4020    -2.4410     0.5200 C.2   1 <1>   0.5690 
 14 O        8.0480    -3.1200     1.4560 O.2   1 <1>  -0.5700 
 15 C        9.8940    -2.4000     0.1190 C.3   1 <1>   0.0610 
 16 C       10.0750    -2.8650    -1.3510 C.3   1 <1>  -0.1600 
 17 C       10.7580    -3.3260     1.0180 C.3   1 <1>  -0.1600 
 18 C       10.4500    -0.9580     0.2500 C.3   1 <1>  -0.1600 
 19 C       11.5560    -2.8080    -1.7710 C.3   1 <1>  -0.0800 
 20 C       12.2420    -3.2760     0.6100 C.3   1 <1>  -0.0800 
 21 C       11.9320    -0.8960    -0.1650 C.3   1 <1>  -0.0800 
 22 C       12.3780    -3.7310    -0.8540 C.3   1 <1>  -0.1600 
 23 C       12.0680    -1.3630    -1.6270 C.3   1 <1>  -0.1600 
 24 C       12.7520    -1.8300     0.7430 C.3   1 <1>  -0.1600 
 25 H        1.4130    -1.7010     0.1740 H     1 <1>   0.3700 
 26 H        1.6980     3.4810     0.1150 H     1 <1>   0.0800 
 27 H        0.4590     2.6440     1.0510 H     1 <1>   0.0800 
 28 H        0.3660     2.6730    -0.7130 H     1 <1>   0.0800 
 29 H        3.7980     0.7010    -1.1710 H     1 <1>   0.1500 
 30 H        3.2980    -2.8600     1.1120 H     1 <1>   0.1500 
 31 H        6.1980     0.3130    -1.2500 H     1 <1>   0.1500 
 32 H        5.6920    -3.2630     1.0140 H     1 <1>   0.1500 
 33 H        7.9750    -1.1200    -0.9320 H     1 <1>   0.3700 
 34 H        9.5010    -2.2440    -2.0150 H     1 <1>   0.0800 
 35 H        9.7100    -3.8720    -1.4550 H     1 <1>   0.0800 
 36 H       10.6590    -3.0250     2.0470 H     1 <1>   0.0800 
 37 H       10.4000    -4.3380     0.9450 H     1 <1>   0.0800 
 38 H       10.3480    -0.6270     1.2700 H     1 <1>   0.0800 
 39 H        9.8880    -0.2800    -0.3660 H     1 <1>   0.0800 
 40 H       11.6570    -3.1300    -2.7930 H     1 <1>   0.0800 
 41 H       12.8160    -3.9250     1.2490 H     1 <1>   0.0800 
 42 H       12.2960     0.1130    -0.0700 H     1 <1>   0.0800 
 43 H       13.4130    -3.7080    -1.1470 H     1 <1>   0.0800 
 44 H       12.0330    -4.7460    -0.9530 H     1 <1>   0.0800 
 45 H       13.1000    -1.3130    -1.9280 H     1 <1>   0.0800 
 46 H       11.5100    -0.7090    -2.2740 H     1 <1>   0.0800 
 47 H       13.7920    -1.7840     0.4690 H     1 <1>   0.0800 
 48 H       12.6710    -1.5080     1.7670 H     1 <1>   0.0800 
@<TRIPOS>BOND
  1   1   2  2   
  2   2   3  1   
  3   2   4  am  
  4   3   5  1   
  5   4   6  1   
  6   4  25  1   
  7   5  26  1   
  8   5  27  1   
  9   5  28  1   
 10   6   7  ar  
 11   6   8  ar  
 12   7   9  ar  
 13   7  29  1   
 14   8  10  ar  
 15   8  30  1   
 16   9  11  ar  
 17   9  31  1   
 18  10  11  ar  
 19  10  32  1   
 20  11  12  1   
 21  12  13  am  
 22  12  33  1   
 23  13  14  2   
 24  13  15  1   
 25  15  16  1   
 26  15  17  1   
 27  15  18  1   
 28  16  19  1   
 29  16  34  1   
 30  16  35  1   
 31  17  20  1   
 32  17  36  1   
 33  17  37  1   
 34  18  21  1   
 35  18  38  1   
 36  18  39  1   
 37  19  22  1   
 38  19  23  1   
 39  19  40  1   
 40  20  22  1   
 41  20  24  1   
 42  20  41  1   
 43  21  23  1   
 44  21  24  1   
 45  21  42  1   
 46  22  43  1   
 47  22  44  1   
 48  23  45  1   
 49  23  46  1   
 50  24  47  1   
 51  24  48  1   
@<TRIPOS>SUBSTRUCTURE
  1 ****  12 GROUP 4 **** **** 0

# MOE 2024.06 (io_trps.svl 2023.06)
