@<TRIPOS>MOLECULE
NONAME
38 40 1 0 0 
SMALL
USER_CHARGES


@<TRIPOS>ATOM
  1 F       -0.2600     0.0730     0.4010 F     1 <1>  -0.3400 
  2 C       -0.6030     1.3560     0.3950 C.3   1 <1>   1.1640 
  3 F       -0.0940     1.8800     1.5020 F     1 <1>  -0.3400 
  4 F        0.0560     1.9060    -0.6180 F     1 <1>  -0.3400 
  5 C       -2.1220     1.5730     0.2980 C.ar  1 <1>  -0.1440 
  6 C       -2.6240     2.8410     0.0210 C.ar  1 <1>  -0.1500 
  7 C       -3.0250     0.5310     0.4860 C.ar  1 <1>  -0.1500 
  8 C       -3.9890     3.0740    -0.0710 C.ar  1 <1>   0.1170 
  9 C       -4.3880     0.7540     0.3960 C.ar  1 <1>  -0.1500 
 10 N       -4.5510     4.3270    -0.3500 N.am  1 <1>  -0.5470 
 11 C       -4.8890     2.0180     0.1170 C.ar  1 <1>   0.1000 
 12 C       -4.0530     5.5850    -0.4900 C.2   1 <1>   0.6300 
 13 N       -6.2760     2.2490     0.0270 N.pl3 1 <1>  -0.8380 
 14 O       -2.8810     5.8620    -0.4140 O.2   1 <1>  -0.5700 
 15 C       -5.0520     6.6990    -0.7640 C.3   1 <1>  -0.1000 
 16 C       -6.9980     1.5040    -1.0390 C.3   1 <1>   0.2090 
 17 C       -7.0330     2.1400     1.3030 C.3   1 <1>   0.2090 
 18 C       -5.3750     7.7070     0.3010 C.3   1 <1>  -0.2000 
 19 C       -6.4180     6.7260    -0.1350 C.3   1 <1>  -0.2000 
 20 C       -8.0760     0.7040    -0.3220 C.3   1 <1>  -0.1600 
 21 C       -8.3700     1.5110     0.9350 C.3   1 <1>  -0.1600 
 22 H       -1.9400     3.6580    -0.1260 H     1 <1>   0.1500 
 23 H       -2.6780    -0.4650     0.7060 H     1 <1>   0.1500 
 24 H       -5.0730    -0.0600     0.5440 H     1 <1>   0.1500 
 25 H       -5.5690     4.2350    -0.4090 H     1 <1>   0.3700 
 26 H       -4.9530     7.0700    -1.7680 H     1 <1>   0.1000 
 27 H       -6.3340     0.8640    -1.5970 H     1 <1>   0.0800 
 28 H       -7.4480     2.2140    -1.7110 H     1 <1>   0.0800 
 29 H       -7.1680     3.1130     1.7440 H     1 <1>   0.0800 
 30 H       -6.5000     1.5090     1.9950 H     1 <1>   0.0800 
 31 H       -5.4710     8.7400     0.0140 H     1 <1>   0.1000 
 32 H       -4.9140     7.5890     1.2670 H     1 <1>   0.1000 
 33 H       -6.7050     5.9570     0.5610 H     1 <1>   0.1000 
 34 H       -7.2490     7.0830    -0.7200 H     1 <1>   0.1000 
 35 H       -7.6780    -0.2600    -0.0560 H     1 <1>   0.0800 
 36 H       -8.9480     0.5670    -0.9370 H     1 <1>   0.0800 
 37 H       -9.0740     2.2930     0.7130 H     1 <1>   0.0800 
 38 H       -8.7580     0.9040     1.7340 H     1 <1>   0.0800 
@<TRIPOS>BOND
  1   1   2  1   
  2   2   3  1   
  3   2   4  1   
  4   2   5  1   
  5   5   6  ar  
  6   5   7  ar  
  7   6   8  ar  
  8   6  22  1   
  9   7   9  ar  
 10   7  23  1   
 11   8  10  1   
 12   8  11  ar  
 13   9  11  ar  
 14   9  24  1   
 15  10  12  am  
 16  10  25  1   
 17  11  13  1   
 18  12  14  2   
 19  12  15  1   
 20  13  16  1   
 21  13  17  1   
 22  15  18  1   
 23  15  19  1   
 24  15  26  1   
 25  16  20  1   
 26  16  27  1   
 27  16  28  1   
 28  17  21  1   
 29  17  29  1   
 30  17  30  1   
 31  18  19  1   
 32  18  31  1   
 33  18  32  1   
 34  19  33  1   
 35  19  34  1   
 36  20  21  1   
 37  20  35  1   
 38  20  36  1   
 39  21  37  1   
 40  21  38  1   
@<TRIPOS>SUBSTRUCTURE
  1 ****   8 GROUP 4 **** **** 0

# MOE 2024.06 (io_trps.svl 2023.06)
