@<TRIPOS>MOLECULE
NONAME
41 41 1 0 0 
SMALL
USER_CHARGES


@<TRIPOS>ATOM
  1 O       -1.8920    -0.6210     1.2830 O.3   1 <1>  -0.3630 
  2 C       -2.2890     0.4160     0.4900 C.ar  1 <1>   0.0830 
  3 C       -0.5490    -0.8320     1.6580 C.3   1 <1>   0.0400 
  4 C       -1.5610     1.5830     0.1980 C.ar  1 <1>   0.0830 
  5 C       -3.5510     0.2480    -0.0530 C.ar  1 <1>  -0.1500 
  6 O       -0.3260     1.7790     0.7440 O.3   1 <1>  -0.3630 
  7 C       -2.1320     2.5340    -0.6460 C.ar  1 <1>  -0.1500 
  8 C       -4.1180     1.2060    -0.8770 C.ar  1 <1>  -0.1430 
  9 C        0.4670     2.9100     0.4530 C.3   1 <1>   0.0400 
 10 C       -3.3960     2.3490    -1.1780 C.ar  1 <1>  -0.1500 
 11 C       -5.5150     1.0000    -1.4290 C.3   1 <1>   0.4860 
 12 N       -6.4850     1.1090    -0.3030 N.4   1 <1>  -0.9590 
 13 C       -7.8360     0.6400    -0.7150 C.3   1 <1>   0.3430 
 14 C       -6.4970     2.4940     0.2710 C.3   1 <1>   0.2630 
 15 C       -8.7070     0.3750     0.5140 C.3   1 <1>  -0.1600 
 16 C      -10.0600    -0.2200     0.1020 C.3   1 <1>  -0.1600 
 17 C      -10.9350    -0.4900     1.3290 C.3   1 <1>  -0.2400 
 18 H       -0.4730    -1.8070     2.1030 H     1 <1>   0.0800 
 19 H       -0.2660    -0.0830     2.3750 H     1 <1>   0.0800 
 20 H        0.0730    -0.7790     0.7810 H     1 <1>   0.0800 
 21 H       -4.0760    -0.6600     0.1860 H     1 <1>   0.1500 
 22 H       -1.6070     3.4350    -0.9030 H     1 <1>   0.1500 
 23 H        1.3940     2.8140     0.9900 H     1 <1>   0.0800 
 24 H       -0.0500     3.7950     0.7790 H     1 <1>   0.0800 
 25 H        0.6610     2.9410    -0.6040 H     1 <1>   0.0800 
 26 H       -3.8020     3.1070    -1.8270 H     1 <1>   0.1500 
 27 H       -5.5740     0.0220    -1.8780 H     1 <1>   0.0800 
 28 H       -5.7300     1.7390    -2.1830 H     1 <1>   0.0800 
 29 H       -6.1310     0.4760     0.4290 H     1 <1>   0.4500 
 30 H       -7.7450    -0.2780    -1.2730 H     1 <1>   0.0800 
 31 H       -8.3080     1.3740    -1.3480 H     1 <1>   0.0800 
 32 H       -6.8470     3.2020    -0.4620 H     1 <1>   0.0800 
 33 H       -5.5030     2.7790     0.5790 H     1 <1>   0.0800 
 34 H       -7.1420     2.5400     1.1330 H     1 <1>   0.0800 
 35 H       -8.8860     1.2910     1.0490 H     1 <1>   0.0800 
 36 H       -8.2090    -0.3190     1.1690 H     1 <1>   0.0800 
 37 H       -9.9110    -1.1460    -0.4290 H     1 <1>   0.0800 
 38 H      -10.5800     0.4610    -0.5520 H     1 <1>   0.0800 
 39 H      -10.4560    -1.1890     1.9930 H     1 <1>   0.0800 
 40 H      -11.8780    -0.9090     1.0230 H     1 <1>   0.0800 
 41 H      -11.1300     0.4210     1.8680 H     1 <1>   0.0800 
@<TRIPOS>BOND
  1   1   2  1   
  2   1   3  1   
  3   2   4  ar  
  4   2   5  ar  
  5   3  18  1   
  6   3  19  1   
  7   3  20  1   
  8   4   6  1   
  9   4   7  ar  
 10   5   8  ar  
 11   5  21  1   
 12   6   9  1   
 13   7  10  ar  
 14   7  22  1   
 15   8  10  ar  
 16   8  11  1   
 17   9  23  1   
 18   9  24  1   
 19   9  25  1   
 20  10  26  1   
 21  11  12  1   
 22  11  27  1   
 23  11  28  1   
 24  12  13  1   
 25  12  14  1   
 26  12  29  1   
 27  13  15  1   
 28  13  30  1   
 29  13  31  1   
 30  14  32  1   
 31  14  33  1   
 32  14  34  1   
 33  15  16  1   
 34  15  35  1   
 35  15  36  1   
 36  16  17  1   
 37  16  37  1   
 38  16  38  1   
 39  17  39  1   
 40  17  40  1   
 41  17  41  1   
@<TRIPOS>SUBSTRUCTURE
  1 ****   8 GROUP 4 **** **** 0

# MOE 2024.06 (io_trps.svl 2023.06)
