@<TRIPOS>MOLECULE
NONAME
40 40 1 0 0 
SMALL
USER_CHARGES


@<TRIPOS>ATOM
  1 O       -0.0340    -3.2410     0.9310 O.2   1 <1>  -0.5700 
  2 C       -0.0990    -3.6620    -0.2020 C.2   1 <1>   0.5690 
  3 N        0.9850    -3.7750    -1.0230 N.am  1 <1>  -0.7300 
  4 C       -1.5000    -4.0600    -0.6980 C.3   1 <1>   0.4040 
  5 C        2.3890    -3.4080    -0.7130 C.3   1 <1>   0.2200 
  6 N       -2.5870    -3.4640     0.1710 N.4   1 <1>  -0.9590 
  7 C        2.9410    -4.2560     0.4400 C.3   1 <1>  -0.1600 
  8 C        2.5170    -1.9060    -0.4270 C.3   1 <1>  -0.1600 
  9 C       -3.5470    -4.4980     0.6320 C.3   1 <1>   0.3430 
 10 C       -3.2430    -2.2700    -0.4320 C.3   1 <1>   0.3430 
 11 C        4.3980    -3.8790     0.7460 C.3   1 <1>  -0.1600 
 12 C        3.9740    -1.5310    -0.1210 C.3   1 <1>  -0.1600 
 13 C       -4.2690    -4.0070     1.8810 C.3   1 <1>  -0.2400 
 14 C       -2.2430    -1.1260    -0.5610 C.3   1 <1>  -0.2400 
 15 C        4.5330    -2.3770     1.0320 C.3   1 <1>  -0.1600 
 16 H        0.8870    -4.1520    -1.9680 H     1 <1>   0.3700 
 17 H       -1.5610    -5.1330    -0.6750 H     1 <1>   0.0800 
 18 H       -1.6200    -3.7350    -1.7160 H     1 <1>   0.0800 
 19 H        2.9830    -3.6230    -1.5860 H     1 <1>   0.0800 
 20 H       -2.0580    -3.1360     1.0050 H     1 <1>   0.4500 
 21 H        2.8910    -5.2990     0.1820 H     1 <1>   0.0800 
 22 H        2.3560    -4.0950     1.3280 H     1 <1>   0.0800 
 23 H        1.9130    -1.6410     0.4230 H     1 <1>   0.0800 
 24 H        2.1770    -1.3430    -1.2780 H     1 <1>   0.0800 
 25 H       -3.0140    -5.4030     0.8790 H     1 <1>   0.0800 
 26 H       -4.2580    -4.7240    -0.1470 H     1 <1>   0.0800 
 27 H       -4.0520    -1.9440     0.2010 H     1 <1>   0.0800 
 28 H       -3.6530    -2.5170    -1.3980 H     1 <1>   0.0800 
 29 H        5.0220    -4.1400    -0.0920 H     1 <1>   0.0800 
 30 H        4.7430    -4.4390     1.5990 H     1 <1>   0.0800 
 31 H        4.0310    -0.4880     0.1390 H     1 <1>   0.0800 
 32 H        4.5780    -1.6830    -1.0000 H     1 <1>   0.0800 
 33 H       -3.5650    -3.7540     2.6540 H     1 <1>   0.0800 
 34 H       -4.9000    -4.7950     2.2550 H     1 <1>   0.0800 
 35 H       -4.8970    -3.1610     1.6700 H     1 <1>   0.0800 
 36 H       -1.7890    -0.9070     0.3890 H     1 <1>   0.0800 
 37 H       -2.7610    -0.2430    -0.8920 H     1 <1>   0.0800 
 38 H       -1.4790    -1.3450    -1.2850 H     1 <1>   0.0800 
 39 H        5.5690    -2.1320     1.1890 H     1 <1>   0.0800 
 40 H        4.0000    -2.1390     1.9370 H     1 <1>   0.0800 
@<TRIPOS>BOND
  1   1   2  2   
  2   2   3  am  
  3   2   4  1   
  4   3   5  1   
  5   3  16  1   
  6   4   6  1   
  7   4  17  1   
  8   4  18  1   
  9   5   7  1   
 10   5   8  1   
 11   5  19  1   
 12   6   9  1   
 13   6  10  1   
 14   6  20  1   
 15   7  11  1   
 16   7  21  1   
 17   7  22  1   
 18   8  12  1   
 19   8  23  1   
 20   8  24  1   
 21   9  13  1   
 22   9  25  1   
 23   9  26  1   
 24  10  14  1   
 25  10  27  1   
 26  10  28  1   
 27  11  15  1   
 28  11  29  1   
 29  11  30  1   
 30  12  15  1   
 31  12  31  1   
 32  12  32  1   
 33  13  33  1   
 34  13  34  1   
 35  13  35  1   
 36  14  36  1   
 37  14  37  1   
 38  14  38  1   
 39  15  39  1   
 40  15  40  1   
@<TRIPOS>SUBSTRUCTURE
  1 ****   2 GROUP 4 **** **** 0

# MOE 2024.06 (io_trps.svl 2023.06)
