@<TRIPOS>MOLECULE
NONAME
47 51 1 0 0 
SMALL
USER_CHARGES


@<TRIPOS>ATOM
  1 S       -0.0370    -1.0510    -2.0190 S.3   1 <1>  -0.0800 
  2 C       -0.4920     0.3720    -1.0830 C.2   1 <1>   0.3250 
  3 C        1.2980    -0.1870    -2.7110 C.2   1 <1>  -0.1100 
  4 N        0.3050     1.3650    -1.2970 N.2   1 <1>  -0.5650 
  5 C       -1.6430     0.3200    -0.2080 C.ar  1 <1>   0.0530 
  6 C        1.3030     1.0560    -2.2090 C.2   1 <1>   0.0460 
  7 C       -2.1120     1.5020     0.3800 C.ar  1 <1>  -0.1500 
  8 C       -2.3260    -0.8730     0.0930 C.ar  1 <1>  -0.1500 
  9 C        2.3040     2.1570    -2.5300 C.3   1 <1>   0.5240 
 10 C       -3.2040     1.4580     1.2180 C.ar  1 <1>   0.0830 
 11 C       -3.4260    -0.9010     0.9380 C.ar  1 <1>  -0.1500 
 12 N        2.6710     2.8200    -1.2510 N.4   1 <1>  -0.9590 
 13 O       -3.7910     2.4690     1.8670 O.3   1 <1>  -0.3630 
 14 C       -3.8490     0.2890     1.4930 C.ar  1 <1>   0.0830 
 15 C        3.2480     4.2020    -1.4460 C.3   1 <1>   0.3430 
 16 C        3.5430     1.9300    -0.3920 C.3   1 <1>   0.3430 
 17 C       -4.8820     1.9080     2.5960 C.3   1 <1>   0.4000 
 18 O       -4.8680     0.5080     2.3240 O.3   1 <1>  -0.3630 
 19 C        3.6910     4.8580    -0.1200 C.3   1 <1>   0.2090 
 20 C        3.9610     2.6160     0.9240 C.3   1 <1>   0.2090 
 21 N        4.5960     3.9310     0.6170 N.pl3 1 <1>  -0.8380 
 22 C        5.9540     4.0180     0.4040 C.ar  1 <1>   0.7200 
 23 N        6.4760     5.2380     0.4040 N.ar  1 <1>  -0.6200 
 24 N        6.6020     2.8770     0.1750 N.ar  1 <1>  -0.6200 
 25 C        7.7720     5.3120     0.2150 C.ar  1 <1>   0.1600 
 26 C        7.8970     2.9820    -0.0110 C.ar  1 <1>   0.1600 
 27 C        8.5410     4.1940     0.0030 C.ar  1 <1>  -0.1500 
 28 H        1.9220    -0.7130    -3.4130 H     1 <1>   0.1500 
 29 H       -1.6370     2.4450     0.1870 H     1 <1>   0.1500 
 30 H       -2.0020    -1.8050    -0.3330 H     1 <1>   0.1500 
 31 H        1.8290     2.8690    -3.1840 H     1 <1>   0.0800 
 32 H        3.1740     1.7550    -3.0210 H     1 <1>   0.0800 
 33 H       -3.9450    -1.8160     1.1650 H     1 <1>   0.1500 
 34 H        1.7640     2.8940    -0.7580 H     1 <1>   0.4500 
 35 H        2.5250     4.8380    -1.9280 H     1 <1>   0.0800 
 36 H        4.1150     4.1410    -2.0840 H     1 <1>   0.0800 
 37 H        4.4420     1.6750    -0.9290 H     1 <1>   0.0800 
 38 H        3.0200     1.0160    -0.1620 H     1 <1>   0.0800 
 39 H       -5.8060     2.3350     2.2500 H     1 <1>   0.0800 
 40 H       -4.7350     2.0730     3.6490 H     1 <1>   0.0800 
 41 H        2.8310     5.0780     0.4890 H     1 <1>   0.0800 
 42 H        4.1830     5.7920    -0.3300 H     1 <1>   0.0800 
 43 H        4.6450     1.9840     1.4660 H     1 <1>   0.0800 
 44 H        3.1000     2.7690     1.5500 H     1 <1>   0.0800 
 45 H        8.2310     6.2860     0.2310 H     1 <1>   0.1500 
 46 H        8.4610     2.0790    -0.1790 H     1 <1>   0.1500 
 47 H        9.6020     4.2670    -0.1470 H     1 <1>   0.1500 
@<TRIPOS>BOND
  1   1   2  1   
  2   1   3  1   
  3   2   4  2   
  4   2   5  1   
  5   3   6  2   
  6   3  28  1   
  7   4   6  1   
  8   5   7  ar  
  9   5   8  ar  
 10   6   9  1   
 11   7  10  ar  
 12   7  29  1   
 13   8  11  ar  
 14   8  30  1   
 15   9  12  1   
 16   9  31  1   
 17   9  32  1   
 18  10  13  1   
 19  10  14  ar  
 20  11  14  ar  
 21  11  33  1   
 22  12  15  1   
 23  12  16  1   
 24  12  34  1   
 25  13  17  1   
 26  14  18  1   
 27  15  19  1   
 28  15  35  1   
 29  15  36  1   
 30  16  20  1   
 31  16  37  1   
 32  16  38  1   
 33  17  18  1   
 34  17  39  1   
 35  17  40  1   
 36  19  21  1   
 37  19  41  1   
 38  19  42  1   
 39  20  21  1   
 40  20  43  1   
 41  20  44  1   
 42  21  22  1   
 43  22  23  ar  
 44  22  24  ar  
 45  23  25  ar  
 46  24  26  ar  
 47  25  27  ar  
 48  25  45  1   
 49  26  27  ar  
 50  26  46  1   
 51  27  47  1   
@<TRIPOS>SUBSTRUCTURE
  1 ****   4 GROUP 4 **** **** 0

# MOE 2024.06 (io_trps.svl 2023.06)
