@<TRIPOS>MOLECULE
NONAME
48 50 1 0 0 
SMALL
USER_CHARGES


@<TRIPOS>ATOM
  1 O       -6.5080     2.4300     0.9750 O.2   1 <1>  -0.5700 
  2 C       -5.6000     3.2250     0.8570 C.2   1 <1>   0.5950 
  3 C       -5.7950     4.5110     0.2770 C.2   1 <1>  -0.0860 
  4 C       -4.2450     2.7840     1.3640 C.3   1 <1>  -0.1790 
  5 C       -6.9410     5.2720     0.2940 C.2   1 <1>  -0.0680 
  6 C       -4.9080     5.3090    -0.4810 C.2   1 <1>   0.1080 
  7 N       -6.6890     6.3970    -0.3930 N.pl3 1 <1>   0.5930 
  8 N       -8.2480     5.2920     0.7640 N.pl3 1 <1>  -0.5530 
  9 N       -5.4280     6.4220    -0.8840 N.2   1 <1>  -0.7070 
 10 C       -3.4820     4.9650    -0.8640 C.3   1 <1>  -0.0590 
 11 C       -7.8370     7.1830    -0.4050 C.ar  1 <1>  -0.0230 
 12 C       -8.7980     6.4960     0.3240 C.ar  1 <1>   0.1000 
 13 C       -8.8750     4.3600     1.7370 C.3   1 <1>   0.2090 
 14 C       -8.1120     8.4170    -0.9810 C.ar  1 <1>  -0.1500 
 15 C      -10.0630     7.0470     0.4980 C.ar  1 <1>  -0.1500 
 16 C       -9.8100     3.3360     1.0550 C.3   1 <1>   0.3430 
 17 C       -9.3730     8.9560    -0.8100 C.ar  1 <1>  -0.1500 
 18 C      -10.3420     8.2750    -0.0740 C.ar  1 <1>  -0.1500 
 19 N       -9.1460     2.5230    -0.0220 N.4   1 <1>  -0.9590 
 20 C       -9.1890     3.2290    -1.3320 C.3   1 <1>   0.3430 
 21 C       -9.6890     1.1430    -0.1170 C.3   1 <1>   0.3430 
 22 C       -8.0960     2.6910    -2.2470 C.3   1 <1>  -0.2400 
 23 C       -9.2230     0.3160     1.0750 C.3   1 <1>  -0.2400 
 24 H       -3.6770     3.6290     1.7030 H     1 <1>   0.0800 
 25 H       -3.7100     2.2750     0.5830 H     1 <1>   0.0800 
 26 H       -4.3710     2.1080     2.1900 H     1 <1>   0.0800 
 27 H       -2.8290     5.0980    -0.0220 H     1 <1>   0.0800 
 28 H       -3.1510     5.6190    -1.6520 H     1 <1>   0.0800 
 29 H       -3.4180     3.9540    -1.2200 H     1 <1>   0.0800 
 30 H       -9.4410     4.9340     2.4480 H     1 <1>   0.0800 
 31 H       -8.1080     3.8430     2.2850 H     1 <1>   0.0800 
 32 H       -7.3500     8.9310    -1.5430 H     1 <1>   0.1500 
 33 H      -10.8120     6.5310     1.0690 H     1 <1>   0.1500 
 34 H      -10.6580     3.8580     0.6440 H     1 <1>   0.0800 
 35 H      -10.1800     2.6790     1.8230 H     1 <1>   0.0800 
 36 H       -9.6120     9.9120    -1.2460 H     1 <1>   0.1500 
 37 H      -11.3150     8.7190     0.0500 H     1 <1>   0.1500 
 38 H       -8.1410     2.4460     0.2460 H     1 <1>   0.4500 
 39 H       -9.0240     4.2840    -1.1890 H     1 <1>   0.0800 
 40 H      -10.1560     3.1040    -1.7910 H     1 <1>   0.0800 
 41 H       -9.3320     0.6720    -1.0190 H     1 <1>   0.0800 
 42 H      -10.7670     1.1690    -0.1570 H     1 <1>   0.0800 
 43 H       -7.1300     2.8040    -1.7900 H     1 <1>   0.0800 
 44 H       -8.0960     3.2570    -3.1610 H     1 <1>   0.0800 
 45 H       -8.2600     1.6600    -2.4990 H     1 <1>   0.0800 
 46 H       -8.1480     0.2860     1.1170 H     1 <1>   0.0800 
 47 H       -9.5760    -0.6940     0.9610 H     1 <1>   0.0800 
 48 H       -9.6090     0.6950     2.0020 H     1 <1>   0.0800 
@<TRIPOS>BOND
  1   1   2  2   
  2   2   3  1   
  3   2   4  1   
  4   3   5  2   
  5   3   6  1   
  6   4  24  1   
  7   4  25  1   
  8   4  26  1   
  9   5   7  1   
 10   5   8  1   
 11   6   9  2   
 12   6  10  1   
 13   7   9  1   
 14   7  11  1   
 15   8  12  1   
 16   8  13  1   
 17  10  27  1   
 18  10  28  1   
 19  10  29  1   
 20  11  12  ar  
 21  11  14  ar  
 22  12  15  ar  
 23  13  16  1   
 24  13  30  1   
 25  13  31  1   
 26  14  17  ar  
 27  14  32  1   
 28  15  18  ar  
 29  15  33  1   
 30  16  19  1   
 31  16  34  1   
 32  16  35  1   
 33  17  18  ar  
 34  17  36  1   
 35  18  37  1   
 36  19  20  1   
 37  19  21  1   
 38  19  38  1   
 39  20  22  1   
 40  20  39  1   
 41  20  40  1   
 42  21  23  1   
 43  21  41  1   
 44  21  42  1   
 45  22  43  1   
 46  22  44  1   
 47  22  45  1   
 48  23  46  1   
 49  23  47  1   
 50  23  48  1   
@<TRIPOS>SUBSTRUCTURE
  1 ****   5 GROUP 4 **** **** 0

# MOE 2024.06 (io_trps.svl 2023.06)
