@<TRIPOS>MOLECULE
NONAME
36 37 1 0 0 
SMALL
USER_CHARGES


@<TRIPOS>ATOM
  1 O       -0.7690    -0.0060    -1.1110 O.2   1 <1>  -0.5700 
  2 C       -1.6670     0.7360    -0.7600 C.2   1 <1>   0.7060 
  3 O       -2.8870     0.2100    -0.6830 O.3   1 <1>  -0.2330 
  4 C       -1.4900     2.1250    -0.4260 C.2   1 <1>  -0.1240 
  5 C       -3.9850     0.9070    -0.3200 C.ar  1 <1>   0.0820 
  6 C       -2.5540     2.8750    -0.0280 C.2   1 <1>  -0.1670 
  7 C       -0.0600     2.6650    -0.5470 C.3   1 <1>  -0.0220 
  8 C       -3.8620     2.2670     0.0090 C.ar  1 <1>   0.0280 
  9 C       -5.2130     0.2480    -0.2940 C.ar  1 <1>  -0.1440 
 10 C       -2.4500     4.3420     0.3990 C.3   1 <1>  -0.1020 
 11 C        0.7030     2.4890     0.7690 C.3   1 <1>  -0.2400 
 12 C       -5.0360     2.9450     0.3490 C.ar  1 <1>  -0.1500 
 13 C       -6.3590     0.9560     0.0460 C.ar  1 <1>   0.0830 
 14 C       -5.3020    -1.2370    -0.6490 C.3   1 <1>  -0.0970 
 15 C       -6.2580     2.3090     0.3680 C.ar  1 <1>  -0.1500 
 16 O       -7.5450     0.2980     0.0440 O.3   1 <1>  -0.3630 
 17 C       -8.7630     0.9280     0.3630 C.3   1 <1>   0.1200 
 18 C       -9.8740    -0.1130     0.2540 C.3   1 <1>  -0.2400 
 19 H       -0.0620     3.7000    -0.8330 H     1 <1>   0.0800 
 20 H        0.4660     2.1470    -1.3310 H     1 <1>   0.0800 
 21 H       -2.9660     4.9670    -0.3080 H     1 <1>   0.0800 
 22 H       -1.4400     4.6890     0.4780 H     1 <1>   0.0800 
 23 H       -2.8960     4.4710     1.3690 H     1 <1>   0.0800 
 24 H        0.2030     3.0090     1.5670 H     1 <1>   0.0800 
 25 H        1.7010     2.8780     0.6730 H     1 <1>   0.0800 
 26 H        0.7650     1.4450     1.0230 H     1 <1>   0.0800 
 27 H       -5.0080     3.9880     0.6010 H     1 <1>   0.1500 
 28 H       -4.3900    -1.7530    -0.4110 H     1 <1>   0.0800 
 29 H       -5.4960    -1.3440    -1.7010 H     1 <1>   0.0800 
 30 H       -6.0930    -1.7170    -0.1030 H     1 <1>   0.0800 
 31 H       -7.1270     2.8790     0.6350 H     1 <1>   0.1500 
 32 H       -8.9240     1.7310    -0.3350 H     1 <1>   0.0800 
 33 H       -8.6970     1.3090     1.3670 H     1 <1>   0.0800 
 34 H       -9.9190    -0.5000    -0.7480 H     1 <1>   0.0800 
 35 H      -10.8200     0.3380     0.4910 H     1 <1>   0.0800 
 36 H       -9.6940    -0.9180     0.9430 H     1 <1>   0.0800 
@<TRIPOS>BOND
  1   1   2  2   
  2   2   3  1   
  3   2   4  1   
  4   3   5  1   
  5   4   6  2   
  6   4   7  1   
  7   5   8  ar  
  8   5   9  ar  
  9   6   8  1   
 10   6  10  1   
 11   7  11  1   
 12   7  19  1   
 13   7  20  1   
 14   8  12  ar  
 15   9  13  ar  
 16   9  14  1   
 17  10  21  1   
 18  10  22  1   
 19  10  23  1   
 20  11  24  1   
 21  11  25  1   
 22  11  26  1   
 23  12  15  ar  
 24  12  27  1   
 25  13  15  ar  
 26  13  16  1   
 27  14  28  1   
 28  14  29  1   
 29  14  30  1   
 30  15  31  1   
 31  16  17  1   
 32  17  18  1   
 33  17  32  1   
 34  17  33  1   
 35  18  34  1   
 36  18  35  1   
 37  18  36  1   
@<TRIPOS>SUBSTRUCTURE
  1 ****   5 GROUP 4 **** **** 0

# MOE 2024.06 (io_trps.svl 2023.06)
