@<TRIPOS>MOLECULE
NONAME
38 39 1 0 0 
SMALL
USER_CHARGES


@<TRIPOS>ATOM
  1 O       -0.7850    -0.1040     0.9810 O.2   1 <1>  -0.5700 
  2 C       -1.6740     0.6780     0.7020 C.2   1 <1>   0.7060 
  3 O       -2.8900     0.1670     0.5250 O.3   1 <1>  -0.2330 
  4 C       -1.4910     2.0980     0.5510 C.2   1 <1>  -0.1240 
  5 C       -3.9780     0.9070     0.2210 C.ar  1 <1>   0.0820 
  6 C       -2.5450     2.8930     0.2190 C.2   1 <1>  -0.1670 
  7 C       -0.0670     2.6170     0.7830 C.3   1 <1>  -0.0220 
  8 C       -3.8490     2.2960     0.0640 C.ar  1 <1>   0.0280 
  9 C       -5.2020     0.2550     0.0800 C.ar  1 <1>  -0.1440 
 10 C       -2.4340     4.4020    -0.0150 C.3   1 <1>  -0.1020 
 11 C        0.7350     2.6100    -0.5220 C.3   1 <1>  -0.2400 
 12 C       -5.0140     3.0120    -0.2310 C.ar  1 <1>  -0.1500 
 13 C       -6.3380     1.0030    -0.2040 C.ar  1 <1>   0.0830 
 14 C       -5.2730    -1.2630     0.2530 C.3   1 <1>  -0.0970 
 15 C       -6.2310     2.3810    -0.3650 C.ar  1 <1>  -0.1500 
 16 O       -7.5300     0.3650    -0.3340 O.3   1 <1>  -0.2320 
 17 C       -8.7420     0.8000     0.0110 C.2   1 <1>   0.6590 
 18 O       -8.9510     1.8540     0.5530 O.2   1 <1>  -0.5700 
 19 C       -9.8840    -0.1430    -0.3240 C.3   1 <1>  -0.0990 
 20 C       -9.8550    -1.4370     0.5070 C.3   1 <1>  -0.2400 
 21 H        0.4380     2.0030     1.5090 H     1 <1>   0.0800 
 22 H       -0.0810     3.6070     1.1980 H     1 <1>   0.0800 
 23 H       -2.9790     4.9320     0.7460 H     1 <1>   0.0800 
 24 H       -2.8450     4.6530    -0.9770 H     1 <1>   0.0800 
 25 H       -1.4230     4.7590    -0.0120 H     1 <1>   0.0800 
 26 H        0.8080     1.6070    -0.9050 H     1 <1>   0.0800 
 27 H        1.7280     2.9830    -0.3470 H     1 <1>   0.0800 
 28 H        0.2570     3.2280    -1.2610 H     1 <1>   0.0800 
 29 H       -4.9840     4.0770    -0.3560 H     1 <1>   0.1500 
 30 H       -4.4280    -1.7350    -0.2150 H     1 <1>   0.0800 
 31 H       -6.1590    -1.6780    -0.1900 H     1 <1>   0.0800 
 32 H       -5.2650    -1.5070     1.3000 H     1 <1>   0.0800 
 33 H       -7.1010     2.9680    -0.5990 H     1 <1>   0.1500 
 34 H       -9.8330    -0.3830    -1.3700 H     1 <1>   0.0800 
 35 H      -10.8120     0.3710    -0.1480 H     1 <1>   0.0800 
 36 H       -8.9450    -1.9820     0.3250 H     1 <1>   0.0800 
 37 H      -10.6890    -2.0640     0.2450 H     1 <1>   0.0800 
 38 H       -9.9160    -1.2050     1.5560 H     1 <1>   0.0800 
@<TRIPOS>BOND
  1   1   2  2   
  2   2   3  1   
  3   2   4  1   
  4   3   5  1   
  5   4   6  2   
  6   4   7  1   
  7   5   8  ar  
  8   5   9  ar  
  9   6   8  1   
 10   6  10  1   
 11   7  11  1   
 12   7  21  1   
 13   7  22  1   
 14   8  12  ar  
 15   9  13  ar  
 16   9  14  1   
 17  10  23  1   
 18  10  24  1   
 19  10  25  1   
 20  11  26  1   
 21  11  27  1   
 22  11  28  1   
 23  12  15  ar  
 24  12  29  1   
 25  13  15  ar  
 26  13  16  1   
 27  14  30  1   
 28  14  31  1   
 29  14  32  1   
 30  15  33  1   
 31  16  17  1   
 32  17  18  2   
 33  17  19  1   
 34  19  20  1   
 35  19  34  1   
 36  19  35  1   
 37  20  36  1   
 38  20  37  1   
 39  20  38  1   
@<TRIPOS>SUBSTRUCTURE
  1 ****   5 GROUP 4 **** **** 0

# MOE 2024.06 (io_trps.svl 2023.06)
