@<TRIPOS>MOLECULE
NONAME
47 48 1 0 0 
SMALL
USER_CHARGES


@<TRIPOS>ATOM
  1 BR      -0.8320     0.0050     1.0610 Br    1 <1>  -0.1110 
  2 C       -0.5000     1.8270     0.5160 C.ar  1 <1>   0.1110 
  3 C       -1.5680     2.6370     0.1550 C.ar  1 <1>   0.0830 
  4 C        0.8080     2.2710     0.5050 C.ar  1 <1>  -0.1500 
  5 O       -2.8210     2.1090     0.2000 O.3   1 <1>  -0.3630 
  6 C       -1.2920     3.9460    -0.2310 C.ar  1 <1>  -0.1500 
  7 C        1.0700     3.5760     0.1180 C.ar  1 <1>  -0.1430 
  8 C       -3.9590     2.8770    -0.0950 C.3   1 <1>   0.1200 
  9 C        0.0170     4.4040    -0.2460 C.ar  1 <1>  -0.1500 
 10 C        2.4960     4.0990     0.0950 C.3   1 <1>  -0.0960 
 11 C       -5.1700     1.9530     0.0780 C.3   1 <1>   0.3430 
 12 N       -6.4760     2.6330    -0.2180 N.4   1 <1>  -0.9590 
 13 C       -6.8120     3.6790     0.7950 C.3   1 <1>   0.3430 
 14 C       -7.5630     1.6170    -0.3260 C.3   1 <1>   0.3430 
 15 C       -8.0820     4.4110     0.3690 C.3   1 <1>  -0.1600 
 16 C       -8.8530     2.2950    -0.7810 C.3   1 <1>  -0.1600 
 17 C       -9.2650     3.4460     0.1560 C.3   1 <1>  -0.0190 
 18 C      -10.4830     4.1830    -0.3930 C.2   1 <1>   0.6590 
 19 O      -10.4210     4.8070    -1.4190 O.2   1 <1>  -0.5700 
 20 O      -11.5920     4.0850     0.3220 O.3   1 <1>  -0.4300 
 21 C      -12.7850     4.7180    -0.0820 C.3   1 <1>   0.1200 
 22 C      -13.8610     4.4070     0.9530 C.3   1 <1>  -0.2400 
 23 H        1.6010     1.6050     0.7950 H     1 <1>   0.1500 
 24 H       -2.0680     4.6260    -0.5240 H     1 <1>   0.1500 
 25 H       -3.8770     3.2200    -1.1110 H     1 <1>   0.0800 
 26 H       -3.9880     3.7010     0.5950 H     1 <1>   0.0800 
 27 H        0.2200     5.4180    -0.5450 H     1 <1>   0.1500 
 28 H        3.1970     3.2870     0.0160 H     1 <1>   0.0800 
 29 H        2.6980     4.6440     0.9990 H     1 <1>   0.0800 
 30 H        2.6400     4.7540    -0.7460 H     1 <1>   0.0800 
 31 H       -5.1790     1.5770     1.0880 H     1 <1>   0.0800 
 32 H       -5.0440     1.1170    -0.5910 H     1 <1>   0.0800 
 33 H       -6.4070     3.0930    -1.1370 H     1 <1>   0.4500 
 34 H       -6.0060     4.3900     0.8810 H     1 <1>   0.0800 
 35 H       -6.9630     3.2200     1.7590 H     1 <1>   0.0800 
 36 H       -7.7190     1.1440     0.6310 H     1 <1>   0.0800 
 37 H       -7.2890     0.8550    -1.0390 H     1 <1>   0.0800 
 38 H       -7.8860     4.9600    -0.5360 H     1 <1>   0.0800 
 39 H       -8.3440     5.1300     1.1260 H     1 <1>   0.0800 
 40 H       -9.6420     1.5630    -0.8120 H     1 <1>   0.0800 
 41 H       -8.7240     2.6650    -1.7840 H     1 <1>   0.0800 
 42 H       -9.5380     3.0280     1.1100 H     1 <1>   0.0800 
 43 H      -13.0620     4.3410    -1.0530 H     1 <1>   0.0800 
 44 H      -12.6050     5.7790    -0.1460 H     1 <1>   0.0800 
 45 H      -14.0250     3.3460     1.0120 H     1 <1>   0.0800 
 46 H      -14.7840     4.8800     0.6680 H     1 <1>   0.0800 
 47 H      -13.5690     4.7820     1.9170 H     1 <1>   0.0800 
@<TRIPOS>BOND
  1   1   2  1   
  2   2   3  ar  
  3   2   4  ar  
  4   3   5  1   
  5   3   6  ar  
  6   4   7  ar  
  7   4  23  1   
  8   5   8  1   
  9   6   9  ar  
 10   6  24  1   
 11   7   9  ar  
 12   7  10  1   
 13   8  11  1   
 14   8  25  1   
 15   8  26  1   
 16   9  27  1   
 17  10  28  1   
 18  10  29  1   
 19  10  30  1   
 20  11  12  1   
 21  11  31  1   
 22  11  32  1   
 23  12  13  1   
 24  12  14  1   
 25  12  33  1   
 26  13  15  1   
 27  13  34  1   
 28  13  35  1   
 29  14  16  1   
 30  14  36  1   
 31  14  37  1   
 32  15  17  1   
 33  15  38  1   
 34  15  39  1   
 35  16  17  1   
 36  16  40  1   
 37  16  41  1   
 38  17  18  1   
 39  17  42  1   
 40  18  19  2   
 41  18  20  1   
 42  20  21  1   
 43  21  22  1   
 44  21  43  1   
 45  21  44  1   
 46  22  45  1   
 47  22  46  1   
 48  22  47  1   
@<TRIPOS>SUBSTRUCTURE
  1 ****  11 GROUP 4 **** **** 0

# MOE 2024.06 (io_trps.svl 2023.06)
