@<TRIPOS>MOLECULE
NONAME
37 37 1 0 0 
SMALL
USER_CHARGES


@<TRIPOS>ATOM
  1 S       -0.2830     0.3730     0.6130 S.o2  1 <1>   1.4470 
  2 O       -0.5690     1.3360     1.6520 O.2   1 <1>  -0.6500 
  3 O       -0.9240    -0.9220     0.6560 O.2   1 <1>  -0.6500 
  4 N       -0.8470     1.0160    -0.8320 N.am  1 <1>  -0.9140 
  5 C        1.5090     0.1880     0.3500 C.ar  1 <1>  -0.0090 
  6 C       -2.1030     1.7660    -0.7280 C.3   1 <1>   0.1960 
  7 C        2.3780     1.2710     0.1930 C.ar  1 <1>  -0.1430 
  8 C        2.0490    -1.0920     0.2900 C.ar  1 <1>  -0.1500 
  9 C       -3.2740     0.9060    -0.2310 C.3   1 <1>   0.1200 
 10 C        3.7320     1.0560    -0.0180 C.ar  1 <1>  -0.1500 
 11 C        1.8810     2.7110     0.2490 C.3   1 <1>  -0.0970 
 12 C        3.4060    -1.3110     0.0790 C.ar  1 <1>   0.0830 
 13 O       -4.4570     1.6020    -0.4610 O.3   1 <1>  -0.5600 
 14 C        4.2540    -0.2230    -0.0770 C.ar  1 <1>  -0.1430 
 15 O        3.9530    -2.5540     0.0180 O.3   1 <1>  -0.3630 
 16 C       -5.5910     0.9540     0.0190 C.3   1 <1>   0.0400 
 17 C        5.7440    -0.4270    -0.3090 C.3   1 <1>  -0.0960 
 18 C        3.1850    -3.7200     0.2200 C.3   1 <1>   0.0400 
 19 H       -1.0190     0.1980    -1.4130 H     1 <1>   0.4200 
 20 H       -2.3500     2.1460    -1.7050 H     1 <1>   0.0800 
 21 H       -1.9710     2.6060    -0.0660 H     1 <1>   0.0800 
 22 H        1.3840    -1.9260     0.4110 H     1 <1>   0.1500 
 23 H       -3.1830     0.7220     0.8270 H     1 <1>   0.0800 
 24 H       -3.3200    -0.0240    -0.7710 H     1 <1>   0.0800 
 25 H        4.3920     1.8970    -0.1370 H     1 <1>   0.1500 
 26 H        1.1200     2.8780    -0.4920 H     1 <1>   0.0800 
 27 H        2.6800     3.4050     0.0620 H     1 <1>   0.0800 
 28 H        1.4770     2.9280     1.2220 H     1 <1>   0.0800 
 29 H       -6.4480     1.5630    -0.2110 H     1 <1>   0.0800 
 30 H       -5.5080     0.8350     1.0860 H     1 <1>   0.0800 
 31 H       -5.6870    -0.0030    -0.4630 H     1 <1>   0.0800 
 32 H        6.2560     0.5120    -0.4120 H     1 <1>   0.0800 
 33 H        5.8970    -1.0020    -1.2050 H     1 <1>   0.0800 
 34 H        6.1710    -0.9620     0.5200 H     1 <1>   0.0800 
 35 H        3.8420    -4.5680     0.1460 H     1 <1>   0.0800 
 36 H        2.4280    -3.7760    -0.5410 H     1 <1>   0.0800 
 37 H        2.7460    -3.6830     1.2010 H     1 <1>   0.0800 
@<TRIPOS>BOND
  1   1   2  2   
  2   1   3  2   
  3   1   4  am  
  4   1   5  1   
  5   4   6  1   
  6   4  19  1   
  7   5   7  ar  
  8   5   8  ar  
  9   6   9  1   
 10   6  20  1   
 11   6  21  1   
 12   7  10  ar  
 13   7  11  1   
 14   8  12  ar  
 15   8  22  1   
 16   9  13  1   
 17   9  23  1   
 18   9  24  1   
 19  10  14  ar  
 20  10  25  1   
 21  11  26  1   
 22  11  27  1   
 23  11  28  1   
 24  12  14  ar  
 25  12  15  1   
 26  13  16  1   
 27  14  17  1   
 28  15  18  1   
 29  16  29  1   
 30  16  30  1   
 31  16  31  1   
 32  17  32  1   
 33  17  33  1   
 34  17  34  1   
 35  18  35  1   
 36  18  36  1   
 37  18  37  1   
@<TRIPOS>SUBSTRUCTURE
  1 ****   5 GROUP 4 **** **** 0

# MOE 2024.06 (io_trps.svl 2023.06)
