@<TRIPOS>MOLECULE
NONAME
25 26 1 0 0 
SMALL
USER_CHARGES


@<TRIPOS>ATOM
  1 S        0.1050     0.0630     0.8170 S.3   1 <1>  -0.4600 
  2 C        1.6160    -0.8730     0.5860 C.3   1 <1>   0.7960 
  3 C        0.7090     1.5970     0.0810 C.3   1 <1>   0.0700 
  4 N        2.1040    -0.3080    -0.6600 N.4   1 <1>  -0.9060 
  5 C        1.3620    -2.3630     0.4090 C.ar  1 <1>  -0.1430 
  6 C        2.0440     1.2050    -0.5650 C.3   1 <1>   0.3170 
  7 C        2.2980    -3.2580     0.9110 C.ar  1 <1>  -0.1500 
  8 C        0.2430    -2.8590    -0.2530 C.ar  1 <1>  -0.1500 
  9 C        3.2230     1.7200     0.2750 C.2   1 <1>   0.9060 
 10 C        2.1220    -4.6210     0.7540 C.ar  1 <1>  -0.1500 
 11 C        0.0690    -4.2230    -0.4090 C.ar  1 <1>  -0.1500 
 12 O        3.3340     2.9200     0.5140 O.co2 1 <1>  -0.9000 
 13 O        4.0080     0.8490     0.6810 O.co2 1 <1>  -0.9000 
 14 C        1.0080    -5.1050     0.0930 C.ar  1 <1>  -0.1500 
 15 H        2.2730    -0.6540     1.4150 H     1 <1>   0.0800 
 16 H        0.8240     2.3360     0.8580 H     1 <1>   0.0800 
 17 H       -0.0120     1.9260    -0.6450 H     1 <1>   0.0800 
 18 H        1.5990    -0.7250    -1.4370 H     1 <1>   0.4500 
 19 H        3.1110    -0.5350    -0.6630 H     1 <1>   0.4500 
 20 H        2.1330     1.6550    -1.5370 H     1 <1>   0.0800 
 21 H        3.1750    -2.9040     1.4290 H     1 <1>   0.1500 
 22 H       -0.5090    -2.1990    -0.6510 H     1 <1>   0.1500 
 23 H        2.8520    -5.3090     1.1470 H     1 <1>   0.1500 
 24 H       -0.8010    -4.6020    -0.9190 H     1 <1>   0.1500 
 25 H        0.8700    -6.1660    -0.0270 H     1 <1>   0.1500 
@<TRIPOS>BOND
  1   1   2  1   
  2   1   3  1   
  3   2   4  1   
  4   2   5  1   
  5   2  15  1   
  6   3   6  1   
  7   3  16  1   
  8   3  17  1   
  9   4   6  1   
 10   4  18  1   
 11   4  19  1   
 12   5   7  ar  
 13   5   8  ar  
 14   6   9  1   
 15   6  20  1   
 16   7  10  ar  
 17   7  21  1   
 18   8  11  ar  
 19   8  22  1   
 20   9  12  ar  
 21   9  13  ar  
 22  10  14  ar  
 23  10  23  1   
 24  11  14  ar  
 25  11  24  1   
 26  14  25  1   
@<TRIPOS>SUBSTRUCTURE
  1 ****   2 GROUP 4 **** **** 0

# MOE 2024.06 (io_trps.svl 2023.06)
