@<TRIPOS>MOLECULE
NONAME
47 48 1 0 0 
SMALL
USER_CHARGES


@<TRIPOS>ATOM
  1 O        0.2800     1.7840    -1.8210 O.2   1 <1>  -0.5700 
  2 C        0.0940     2.0060    -0.6550 C.2   1 <1>   0.6590 
  3 O        0.5220     1.1310     0.2520 O.3   1 <1>  -0.4300 
  4 C       -0.5940     3.3000    -0.2120 C.3   1 <1>  -0.0190 
  5 C        0.3090     1.1950     1.6430 C.3   1 <1>   0.1200 
  6 C       -1.6490     3.7200    -1.2450 C.3   1 <1>   0.1400 
  7 C        0.4330     4.4340    -0.0030 C.3   1 <1>  -0.1600 
  8 C        1.0290     0.0110     2.2790 C.3   1 <1>  -0.2400 
  9 N       -2.2970     4.9900    -0.8010 N.am  1 <1>  -0.6600 
 10 C       -0.2610     5.7640     0.3400 C.3   1 <1>  -0.1600 
 11 C       -3.6230     5.0220    -0.4440 C.2   1 <1>   0.5690 
 12 C       -1.3410     6.1250    -0.6860 C.3   1 <1>   0.1400 
 13 O       -4.2880     4.0130    -0.4100 O.2   1 <1>  -0.5700 
 14 C       -4.2840     6.3450    -0.0650 C.3   1 <1>  -0.0990 
 15 C       -5.8080     6.2640     0.1540 C.3   1 <1>  -0.1600 
 16 C       -6.4040     7.6310     0.5130 C.3   1 <1>  -0.0170 
 17 C       -7.9060     7.5260     0.7200 C.ar  1 <1>  -0.1440 
 18 C       -8.4210     7.2370     1.9750 C.ar  1 <1>  -0.1500 
 19 C       -8.7750     7.7180    -0.3430 C.ar  1 <1>  -0.1500 
 20 C       -9.7900     7.1460     2.1650 C.ar  1 <1>  -0.1500 
 21 C      -10.1440     7.6260    -0.1540 C.ar  1 <1>  -0.1500 
 22 C      -10.6520     7.3410     1.1010 C.ar  1 <1>  -0.1500 
 23 H       -1.1260     3.1260     0.7030 H     1 <1>   0.0800 
 24 H       -0.7500     1.1380     1.8310 H     1 <1>   0.0800 
 25 H        0.7060     2.1230     2.0150 H     1 <1>   0.0800 
 26 H       -2.3790     2.9360    -1.3590 H     1 <1>   0.0800 
 27 H       -1.1880     3.8780    -2.2050 H     1 <1>   0.0800 
 28 H        1.0050     4.5590    -0.9070 H     1 <1>   0.0800 
 29 H        1.1190     4.1710     0.7840 H     1 <1>   0.0800 
 30 H        0.6350    -0.9130     1.8930 H     1 <1>   0.0800 
 31 H        0.8850     0.0260     3.3450 H     1 <1>   0.0800 
 32 H        2.0830     0.0640     2.0740 H     1 <1>   0.0800 
 33 H        0.4710     6.5510     0.3770 H     1 <1>   0.0800 
 34 H       -0.7160     5.6950     1.3130 H     1 <1>   0.0800 
 35 H       -1.8340     7.0310    -0.3850 H     1 <1>   0.0800 
 36 H       -0.8870     6.2980    -1.6480 H     1 <1>   0.0800 
 37 H       -4.0890     7.0510    -0.8510 H     1 <1>   0.0800 
 38 H       -3.8210     6.7000     0.8370 H     1 <1>   0.0800 
 39 H       -6.0200     5.5650     0.9450 H     1 <1>   0.0800 
 40 H       -6.2780     5.8950    -0.7420 H     1 <1>   0.0800 
 41 H       -6.2010     8.3360    -0.2740 H     1 <1>   0.0800 
 42 H       -5.9460     8.0040     1.4120 H     1 <1>   0.0800 
 43 H       -7.7590     7.0810     2.8070 H     1 <1>   0.1500 
 44 H       -8.3890     7.9370    -1.3230 H     1 <1>   0.1500 
 45 H      -10.1820     6.9210     3.1420 H     1 <1>   0.1500 
 46 H      -10.8110     7.7760    -0.9840 H     1 <1>   0.1500 
 47 H      -11.7150     7.2700     1.2490 H     1 <1>   0.1500 
@<TRIPOS>BOND
  1   1   2  2   
  2   2   3  1   
  3   2   4  1   
  4   3   5  1   
  5   4   6  1   
  6   4   7  1   
  7   4  23  1   
  8   5   8  1   
  9   5  24  1   
 10   5  25  1   
 11   6   9  1   
 12   6  26  1   
 13   6  27  1   
 14   7  10  1   
 15   7  28  1   
 16   7  29  1   
 17   8  30  1   
 18   8  31  1   
 19   8  32  1   
 20   9  11  am  
 21   9  12  1   
 22  10  12  1   
 23  10  33  1   
 24  10  34  1   
 25  11  13  2   
 26  11  14  1   
 27  12  35  1   
 28  12  36  1   
 29  14  15  1   
 30  14  37  1   
 31  14  38  1   
 32  15  16  1   
 33  15  39  1   
 34  15  40  1   
 35  16  17  1   
 36  16  41  1   
 37  16  42  1   
 38  17  18  ar  
 39  17  19  ar  
 40  18  20  ar  
 41  18  43  1   
 42  19  21  ar  
 43  19  44  1   
 44  20  22  ar  
 45  20  45  1   
 46  21  22  ar  
 47  21  46  1   
 48  22  47  1   
@<TRIPOS>SUBSTRUCTURE
  1 ****  11 GROUP 4 **** **** 0

# MOE 2024.06 (io_trps.svl 2023.06)
