@<TRIPOS>MOLECULE
NONAME
49 51 1 0 0 
SMALL
USER_CHARGES


@<TRIPOS>ATOM
  1 CL      -0.9630    -1.4340     0.1700 Cl    1 <1>  -0.1770 
  2 C       -2.6460    -0.9610     0.1930 C.ar  1 <1>   0.1770 
  3 C       -3.5880    -1.7790    -0.4040 C.ar  1 <1>  -0.1500 
  4 C       -3.0090     0.2230     0.8070 C.ar  1 <1>  -0.1500 
  5 C       -4.9190    -1.4010    -0.3840 C.ar  1 <1>  -0.1500 
  6 C       -4.3430     0.5920     0.8210 C.ar  1 <1>  -0.1500 
  7 C       -5.3090    -0.2120     0.2280 C.ar  1 <1>   0.1000 
  8 N       -6.6380     0.1870     0.2610 N.pl3 1 <1>  -0.8380 
  9 C       -7.5480    -0.6260     1.1190 C.3   1 <1>   0.2090 
 10 C       -7.2610     0.5260    -1.0530 C.3   1 <1>   0.2090 
 11 C       -8.9260     0.0500     1.2590 C.3   1 <1>   0.1100 
 12 C       -8.6470     1.1730    -0.8600 C.3   1 <1>   0.1100 
 13 N       -9.5540     0.3190    -0.0600 N.3   1 <1>  -0.8100 
 14 C      -10.8820     0.9770     0.1210 C.3   1 <1>   0.1710 
 15 C      -11.9730     0.0190     0.5990 C.2   1 <1>   0.5690 
 16 O      -12.8400     0.4280     1.3330 O.2   1 <1>  -0.5700 
 17 N      -11.8760    -1.2690     0.1610 N.am  1 <1>  -0.5470 
 18 C      -12.6490    -2.4060     0.4480 C.ar  1 <1>   0.1170 
 19 C      -14.0250    -2.4530     0.1960 C.ar  1 <1>  -0.1430 
 20 C      -12.0130    -3.5350     0.9720 C.ar  1 <1>  -0.1430 
 21 C      -14.7400    -3.6020     0.4900 C.ar  1 <1>  -0.1500 
 22 C      -14.7860    -1.2790    -0.4090 C.3   1 <1>  -0.0970 
 23 C      -12.7460    -4.6760     1.2540 C.ar  1 <1>  -0.1500 
 24 C      -10.5160    -3.5410     1.2570 C.3   1 <1>  -0.0970 
 25 C      -14.1060    -4.7110     1.0170 C.ar  1 <1>  -0.1500 
 26 H       -3.2790    -2.6940    -0.8750 H     1 <1>   0.1500 
 27 H       -2.2590     0.8420     1.2640 H     1 <1>   0.1500 
 28 H       -5.6630    -2.0240    -0.8430 H     1 <1>   0.1500 
 29 H       -4.6530     1.5070     1.2910 H     1 <1>   0.1500 
 30 H       -7.1050    -0.7410     2.0930 H     1 <1>   0.0800 
 31 H       -7.6740    -1.6040     0.6890 H     1 <1>   0.0800 
 32 H       -7.3680    -0.3670    -1.6440 H     1 <1>   0.0800 
 33 H       -6.6180     1.2060    -1.5830 H     1 <1>   0.0800 
 34 H       -8.7960     0.9730     1.7980 H     1 <1>   0.0800 
 35 H       -9.5660    -0.5850     1.8450 H     1 <1>   0.0800 
 36 H       -9.0820     1.3470    -1.8290 H     1 <1>   0.0800 
 37 H       -8.5150     2.1260    -0.3750 H     1 <1>   0.0800 
 38 H      -11.2100     1.3810    -0.8190 H     1 <1>   0.0800 
 39 H      -10.8000     1.7920     0.8200 H     1 <1>   0.0800 
 40 H      -10.9790    -1.4440    -0.2970 H     1 <1>   0.3700 
 41 H      -15.7990    -3.6420     0.3080 H     1 <1>   0.1500 
 42 H      -15.0380    -0.5750     0.3630 H     1 <1>   0.0800 
 43 H      -15.6940    -1.6120    -0.8770 H     1 <1>   0.0800 
 44 H      -14.1900    -0.7830    -1.1530 H     1 <1>   0.0800 
 45 H      -12.2650    -5.5470     1.6630 H     1 <1>   0.1500 
 46 H       -9.9660    -3.2810     0.3710 H     1 <1>   0.0800 
 47 H      -10.1890    -4.5110     1.5840 H     1 <1>   0.0800 
 48 H      -10.2950    -2.8310     2.0320 H     1 <1>   0.0800 
 49 H      -14.6710    -5.5980     1.2420 H     1 <1>   0.1500 
@<TRIPOS>BOND
  1   1   2  1   
  2   2   3  ar  
  3   2   4  ar  
  4   3   5  ar  
  5   3  26  1   
  6   4   6  ar  
  7   4  27  1   
  8   5   7  ar  
  9   5  28  1   
 10   6   7  ar  
 11   6  29  1   
 12   7   8  1   
 13   8   9  1   
 14   8  10  1   
 15   9  11  1   
 16   9  30  1   
 17   9  31  1   
 18  10  12  1   
 19  10  32  1   
 20  10  33  1   
 21  11  13  1   
 22  11  34  1   
 23  11  35  1   
 24  12  13  1   
 25  12  36  1   
 26  12  37  1   
 27  13  14  1   
 28  14  15  1   
 29  14  38  1   
 30  14  39  1   
 31  15  16  2   
 32  15  17  am  
 33  17  18  1   
 34  17  40  1   
 35  18  19  ar  
 36  18  20  ar  
 37  19  21  ar  
 38  19  22  1   
 39  20  23  ar  
 40  20  24  1   
 41  21  25  ar  
 42  21  41  1   
 43  22  42  1   
 44  22  43  1   
 45  22  44  1   
 46  23  25  ar  
 47  23  45  1   
 48  24  46  1   
 49  24  47  1   
 50  24  48  1   
 51  25  49  1   
@<TRIPOS>SUBSTRUCTURE
  1 ****  11 GROUP 4 **** **** 0

# MOE 2024.06 (io_trps.svl 2023.06)
