@<TRIPOS>MOLECULE
NONAME
21 22 1 0 0 
SMALL
USER_CHARGES


@<TRIPOS>ATOM
  1 S       -0.1850    -0.0690    -0.8640 S.3   1 <1>  -0.4600 
  2 C       -0.1410     1.6100    -0.1440 C.3   1 <1>   0.1310 
  3 C       -1.6700    -0.8180    -0.1200 C.3   1 <1>   0.2500 
  4 C       -1.4680     2.3370    -0.3040 C.2   1 <1>   0.5950 
  5 C       -2.7670     0.2210    -0.0090 C.2   1 <1>  -0.0400 
  6 O       -1.4290     3.5200    -0.5420 O.2   1 <1>  -0.5700 
  7 C       -2.6720     1.5720    -0.1090 C.2   1 <1>  -0.0860 
  8 O       -3.9820    -0.2210     0.2120 O.3   1 <1>  -0.2800 
  9 C       -3.9940     1.9980     0.0500 C.2   1 <1>  -0.1810 
 10 C       -4.7530     0.8790     0.2440 C.2   1 <1>  -0.0920 
 11 C       -4.4210     3.4580     0.0050 C.3   1 <1>  -0.0590 
 12 C       -6.1920     0.7230     0.4680 C.2   1 <1>   1.0320 
 13 O       -6.6860    -0.3790     0.7790 O.co2 1 <1>  -0.9000 
 14 O       -6.9720     1.6900     0.3610 O.co2 1 <1>  -0.9000 
 15 H        0.6410     2.1470    -0.6480 H     1 <1>   0.0800 
 16 H        0.0990     1.5060     0.8970 H     1 <1>   0.0800 
 17 H       -1.4030    -1.1990     0.8490 H     1 <1>   0.0800 
 18 H       -1.9740    -1.6250    -0.7620 H     1 <1>   0.0800 
 19 H       -3.8630     4.0240     0.7280 H     1 <1>   0.0800 
 20 H       -5.4650     3.5720     0.2240 H     1 <1>   0.0800 
 21 H       -4.2330     3.8600    -0.9730 H     1 <1>   0.0800 
@<TRIPOS>BOND
  1   1   2  1   
  2   1   3  1   
  3   2   4  1   
  4   2  15  1   
  5   2  16  1   
  6   3   5  1   
  7   3  17  1   
  8   3  18  1   
  9   4   6  2   
 10   4   7  1   
 11   5   7  2   
 12   5   8  1   
 13   7   9  1   
 14   8  10  1   
 15   9  10  2   
 16   9  11  1   
 17  10  12  1   
 18  11  19  1   
 19  11  20  1   
 20  11  21  1   
 21  12  13  ar  
 22  12  14  ar  
@<TRIPOS>SUBSTRUCTURE
  1 ****   7 GROUP 4 **** **** 0

# MOE 2024.06 (io_trps.svl 2023.06)
