@<TRIPOS>MOLECULE
NONAME
45 46 1 0 0 
SMALL
USER_CHARGES


@<TRIPOS>ATOM
  1 O       -0.0470    -1.0620    -1.4460 O.2   1 <1>  -0.5700 
  2 C        0.0370    -0.5540    -0.3450 C.2   1 <1>   0.6900 
  3 N       -1.0570    -0.1990     0.3820 N.am  1 <1>  -0.5470 
  4 N        1.2500    -0.3120     0.2080 N.am  1 <1>  -0.7300 
  5 C       -2.4440    -0.3150     0.1680 C.ar  1 <1>   0.1170 
  6 C        2.5450    -0.6140    -0.4220 C.3   1 <1>   0.2200 
  7 C       -3.3020     0.3760     1.0320 C.ar  1 <1>   0.0830 
  8 C       -2.9980    -1.0870    -0.8470 C.ar  1 <1>  -0.1500 
  9 C        3.2410    -1.7180     0.3800 C.3   1 <1>  -0.1600 
 10 C        3.3890     0.6640    -0.4560 C.3   1 <1>  -0.1600 
 11 O       -2.7240     1.1180     2.0270 O.3   1 <1>  -0.3630 
 12 C       -4.6790     0.2920     0.8610 C.ar  1 <1>  -0.1500 
 13 C       -4.3690    -1.1690    -1.0150 C.ar  1 <1>  -0.1500 
 14 C        4.6480    -1.9990    -0.1680 C.3   1 <1>  -0.1600 
 15 C        4.7960     0.3840    -1.0050 C.3   1 <1>  -0.1600 
 16 C       -3.5120     1.8810     2.9160 C.3   1 <1>   0.0400 
 17 C       -5.2170    -0.4760    -0.1580 C.ar  1 <1>   0.0830 
 18 C        5.5020    -0.7210    -0.2030 C.3   1 <1>  -0.0800 
 19 O       -6.5740    -0.5000    -0.2520 O.3   1 <1>  -0.3620 
 20 C        6.8820    -1.0160    -0.7990 C.3   1 <1>  -0.2400 
 21 C       -7.2140    -1.2400    -1.2670 C.3   1 <1>   0.0400 
 22 H       -0.8530     0.3500     1.2120 H     1 <1>   0.3700 
 23 H        1.3030     0.0340     1.1600 H     1 <1>   0.3700 
 24 H        2.3900    -0.9580    -1.4320 H     1 <1>   0.0800 
 25 H       -2.3620    -1.6340    -1.5170 H     1 <1>   0.1500 
 26 H        2.6530    -2.6170     0.3260 H     1 <1>   0.0800 
 27 H        3.3200    -1.4220     1.4110 H     1 <1>   0.0800 
 28 H        3.4750     1.0670     0.5380 H     1 <1>   0.0800 
 29 H        2.9020     1.3920    -1.0810 H     1 <1>   0.0800 
 30 H       -5.3650     0.8090     1.5020 H     1 <1>   0.1500 
 31 H       -4.7500    -1.7750    -1.8140 H     1 <1>   0.1500 
 32 H        4.5630    -2.4020    -1.1630 H     1 <1>   0.0800 
 33 H        5.1270    -2.7400     0.4470 H     1 <1>   0.0800 
 34 H        5.3780     1.2890    -0.9670 H     1 <1>   0.0800 
 35 H        4.7170     0.0860    -2.0370 H     1 <1>   0.0800 
 36 H       -2.8530     2.3910     3.5950 H     1 <1>   0.0800 
 37 H       -4.1600     1.2190     3.4630 H     1 <1>   0.0800 
 38 H       -4.0810     2.5980     2.3510 H     1 <1>   0.0800 
 39 H        5.6390    -0.3740     0.8090 H     1 <1>   0.0800 
 40 H        6.7910    -1.3660    -1.8120 H     1 <1>   0.0800 
 41 H        7.3850    -1.7700    -0.2190 H     1 <1>   0.0800 
 42 H        7.4870    -0.1270    -0.7960 H     1 <1>   0.0800 
 43 H       -8.2760    -1.1100    -1.1560 H     1 <1>   0.0800 
 44 H       -6.9590    -2.2790    -1.1560 H     1 <1>   0.0800 
 45 H       -6.8990    -0.8640    -2.2240 H     1 <1>   0.0800 
@<TRIPOS>BOND
  1   1   2  2   
  2   2   3  am  
  3   2   4  am  
  4   3   5  1   
  5   3  22  1   
  6   4   6  1   
  7   4  23  1   
  8   5   7  ar  
  9   5   8  ar  
 10   6   9  1   
 11   6  10  1   
 12   6  24  1   
 13   7  11  1   
 14   7  12  ar  
 15   8  13  ar  
 16   8  25  1   
 17   9  14  1   
 18   9  26  1   
 19   9  27  1   
 20  10  15  1   
 21  10  28  1   
 22  10  29  1   
 23  11  16  1   
 24  12  17  ar  
 25  12  30  1   
 26  13  17  ar  
 27  13  31  1   
 28  14  18  1   
 29  14  32  1   
 30  14  33  1   
 31  15  18  1   
 32  15  34  1   
 33  15  35  1   
 34  16  36  1   
 35  16  37  1   
 36  16  38  1   
 37  17  19  1   
 38  18  20  1   
 39  18  39  1   
 40  19  21  1   
 41  20  40  1   
 42  20  41  1   
 43  20  42  1   
 44  21  43  1   
 45  21  44  1   
 46  21  45  1   
@<TRIPOS>SUBSTRUCTURE
  1 ****   3 GROUP 4 **** **** 0

# MOE 2024.06 (io_trps.svl 2023.06)
