@<TRIPOS>MOLECULE
NONAME
38 40 1 0 0 
SMALL
USER_CHARGES


@<TRIPOS>ATOM
  1 O      -11.2550     3.0700     0.2050 O.3   1 <1>  -0.5600 
  2 C      -10.0050     2.6850    -0.2420 C.3   1 <1>   0.2000 
  3 C      -12.2570     2.4100    -0.5060 C.3   1 <1>   0.1200 
  4 C      -10.1750     1.2100    -0.5920 C.3   1 <1>  -0.1600 
  5 C       -8.9930     2.9850     0.8760 C.3   1 <1>   0.3430 
  6 C      -11.6140     1.1490    -1.0790 C.3   1 <1>  -0.1600 
  7 N       -7.6230     2.4780     0.5600 N.4   1 <1>  -0.9060 
  8 C       -6.6430     2.7260     1.6370 C.3   1 <1>   0.4860 
  9 C       -5.3220     2.2030     1.1280 C.ar  1 <1>  -0.1440 
 10 C       -4.5630     2.9690     0.2060 C.ar  1 <1>   0.0000 
 11 C       -4.8860     0.9740     1.5520 C.ar  1 <1>  -0.1500 
 12 C       -3.3670     2.4090    -0.3000 C.ar  1 <1>   0.0000 
 13 C       -4.9240     4.2630    -0.2430 C.ar  1 <1>  -0.1500 
 14 C       -3.6910     0.4400     1.0650 C.ar  1 <1>  -0.1500 
 15 C       -2.9540     1.1420     0.1560 C.ar  1 <1>  -0.1500 
 16 C       -2.6130     3.1310    -1.2460 C.ar  1 <1>  -0.1500 
 17 C       -4.1690     4.9420    -1.1600 C.ar  1 <1>  -0.1500 
 18 C       -3.0030     4.3680    -1.6720 C.ar  1 <1>  -0.1500 
 19 H       -9.7910     3.2660    -1.1230 H     1 <1>   0.0800 
 20 H      -12.6100     3.0630    -1.2870 H     1 <1>   0.0800 
 21 H      -13.0620     2.1810     0.1720 H     1 <1>   0.0800 
 22 H      -10.0680     0.6020     0.2890 H     1 <1>   0.0800 
 23 H       -9.4800     0.8830    -1.3450 H     1 <1>   0.0800 
 24 H       -9.3490     2.5200     1.7810 H     1 <1>   0.0800 
 25 H       -8.9630     4.0510     1.0300 H     1 <1>   0.0800 
 26 H      -11.6620     1.1800    -2.1540 H     1 <1>   0.0800 
 27 H      -12.1190     0.2620    -0.7360 H     1 <1>   0.0800 
 28 H       -7.2530     2.9040    -0.2990 H     1 <1>   0.4500 
 29 H       -7.6420     1.4660     0.3830 H     1 <1>   0.4500 
 30 H       -6.9280     2.2000     2.5350 H     1 <1>   0.0800 
 31 H       -6.5670     3.7780     1.8600 H     1 <1>   0.0800 
 32 H       -5.4410     0.3820     2.2630 H     1 <1>   0.1500 
 33 H       -5.7990     4.7490     0.1400 H     1 <1>   0.1500 
 34 H       -3.3620    -0.5260     1.4110 H     1 <1>   0.1500 
 35 H       -2.0340     0.7340    -0.2270 H     1 <1>   0.1500 
 36 H       -1.7110     2.6870    -1.6320 H     1 <1>   0.1500 
 37 H       -4.4500     5.9260    -1.4970 H     1 <1>   0.1500 
 38 H       -2.4200     4.9140    -2.3950 H     1 <1>   0.1500 
@<TRIPOS>BOND
  1   1   2  1   
  2   1   3  1   
  3   2   4  1   
  4   2   5  1   
  5   2  19  1   
  6   3   6  1   
  7   3  20  1   
  8   3  21  1   
  9   4   6  1   
 10   4  22  1   
 11   4  23  1   
 12   5   7  1   
 13   5  24  1   
 14   5  25  1   
 15   6  26  1   
 16   6  27  1   
 17   7   8  1   
 18   7  28  1   
 19   7  29  1   
 20   8   9  1   
 21   8  30  1   
 22   8  31  1   
 23   9  10  ar  
 24   9  11  ar  
 25  10  12  ar  
 26  10  13  ar  
 27  11  14  ar  
 28  11  32  1   
 29  12  15  ar  
 30  12  16  ar  
 31  13  17  ar  
 32  13  33  1   
 33  14  15  ar  
 34  14  34  1   
 35  15  35  1   
 36  16  18  ar  
 37  16  36  1   
 38  17  18  ar  
 39  17  37  1   
 40  18  38  1   
@<TRIPOS>SUBSTRUCTURE
  1 ****   7 GROUP 4 **** **** 0

# MOE 2024.06 (io_trps.svl 2023.06)
