@<TRIPOS>MOLECULE
NONAME
37 38 1 0 0 
SMALL
USER_CHARGES


@<TRIPOS>ATOM
  1 O       -0.4860    -0.6970    -0.5290 O.3   1 <1>  -0.3630 
  2 C       -1.7100    -1.0800    -0.0880 C.ar  1 <1>   0.0830 
  3 C        0.6360    -1.5520    -0.5010 C.3   1 <1>   0.0400 
  4 C       -2.7380    -0.1030    -0.1100 C.ar  1 <1>   0.0000 
  5 C       -1.9690    -2.3510     0.3660 C.ar  1 <1>  -0.1500 
  6 C       -4.0300    -0.4470     0.3570 C.ar  1 <1>   0.0000 
  7 C       -2.5210     1.2110    -0.5820 C.ar  1 <1>  -0.1500 
  8 C       -3.2480    -2.7010     0.7970 C.ar  1 <1>  -0.1500 
  9 C       -4.2620    -1.7790     0.7830 C.ar  1 <1>  -0.1440 
 10 C       -5.0240     0.5650     0.3730 C.ar  1 <1>  -0.1500 
 11 C       -3.5090     2.1530    -0.5760 C.ar  1 <1>  -0.1500 
 12 C       -5.6480    -2.2090     1.2030 C.3   1 <1>   0.4860 
 13 C       -4.7740     1.8270    -0.0860 C.ar  1 <1>  -0.1500 
 14 N       -6.4160    -2.3910    -0.0470 N.4   1 <1>  -0.9060 
 15 C       -7.8320    -2.7260     0.1270 C.3   1 <1>   0.4230 
 16 C       -8.3660    -3.1600    -1.2310 C.3   1 <1>  -0.2400 
 17 C       -8.5840    -1.4990     0.6350 C.3   1 <1>  -0.2400 
 18 H        1.4810    -1.0060    -0.8790 H     1 <1>   0.0800 
 19 H        0.4430    -2.4040    -1.1280 H     1 <1>   0.0800 
 20 H        0.8220    -1.8530     0.5150 H     1 <1>   0.0800 
 21 H       -1.2050    -3.1070     0.3990 H     1 <1>   0.1500 
 22 H       -1.5450     1.4700    -0.9540 H     1 <1>   0.1500 
 23 H       -3.4030    -3.7130     1.1320 H     1 <1>   0.1500 
 24 H       -6.0020     0.3630     0.7620 H     1 <1>   0.1500 
 25 H       -3.3230     3.1500    -0.9390 H     1 <1>   0.1500 
 26 H       -6.0940    -1.4540     1.8290 H     1 <1>   0.0800 
 27 H       -5.6000    -3.1340     1.7530 H     1 <1>   0.0800 
 28 H       -5.5340     2.5900    -0.0720 H     1 <1>   0.1500 
 29 H       -5.9510    -3.1190    -0.5980 H     1 <1>   0.4500 
 30 H       -6.3240    -1.5320    -0.6020 H     1 <1>   0.4500 
 31 H       -7.9400    -3.5400     0.8280 H     1 <1>   0.0800 
 32 H       -8.2760    -2.3720    -1.9590 H     1 <1>   0.0800 
 33 H       -9.4080    -3.4140    -1.1450 H     1 <1>   0.0800 
 34 H       -7.8480    -4.0350    -1.5840 H     1 <1>   0.0800 
 35 H       -8.4730    -0.6660    -0.0370 H     1 <1>   0.0800 
 36 H       -8.2540    -1.2160     1.6180 H     1 <1>   0.0800 
 37 H       -9.6340    -1.7270     0.7060 H     1 <1>   0.0800 
@<TRIPOS>BOND
  1   1   2  1   
  2   1   3  1   
  3   2   4  ar  
  4   2   5  ar  
  5   3  18  1   
  6   3  19  1   
  7   3  20  1   
  8   4   6  ar  
  9   4   7  ar  
 10   5   8  ar  
 11   5  21  1   
 12   6   9  ar  
 13   6  10  ar  
 14   7  11  ar  
 15   7  22  1   
 16   8   9  ar  
 17   8  23  1   
 18   9  12  1   
 19  10  13  ar  
 20  10  24  1   
 21  11  13  ar  
 22  11  25  1   
 23  12  14  1   
 24  12  26  1   
 25  12  27  1   
 26  13  28  1   
 27  14  15  1   
 28  14  29  1   
 29  14  30  1   
 30  15  16  1   
 31  15  17  1   
 32  15  31  1   
 33  16  32  1   
 34  16  33  1   
 35  16  34  1   
 36  17  35  1   
 37  17  36  1   
 38  17  37  1   
@<TRIPOS>SUBSTRUCTURE
  1 ****   6 GROUP 4 **** **** 0

# MOE 2024.06 (io_trps.svl 2023.06)
