@<TRIPOS>MOLECULE
NONAME
41 41 1 0 0 
SMALL
USER_CHARGES


@<TRIPOS>ATOM
  1 O        0.9810     1.0890     1.7370 O.2   1 <1>  -0.5700 
  2 C        1.1050     1.6200     0.6630 C.2   1 <1>   0.6590 
  3 O        0.1980     2.4650     0.1900 O.3   1 <1>  -0.4300 
  4 C        2.3050     1.3740    -0.2510 C.3   1 <1>  -0.0190 
  5 C       -0.9580     2.7890     0.9280 C.3   1 <1>   0.1200 
  6 C        3.1770     0.1860     0.2070 C.3   1 <1>  -0.1600 
  7 C        3.1700     2.6430    -0.3850 C.3   1 <1>  -0.1600 
  8 C       -1.7730     3.7900     0.1150 C.3   1 <1>  -0.2400 
  9 C        4.3910    -0.0150    -0.7040 C.3   1 <1>   0.1400 
 10 C        4.3780     2.4090    -1.2950 C.3   1 <1>   0.1400 
 11 N        5.1650     1.2550    -0.7800 N.am  1 <1>  -0.6600 
 12 C        6.4750     1.3110    -0.3700 C.2   1 <1>   0.5690 
 13 O        7.0670     0.3220    -0.0020 O.2   1 <1>  -0.5700 
 14 C        7.2200     2.6360    -0.3690 C.3   1 <1>  -0.0990 
 15 C        8.6270     2.5250     0.2120 C.3   1 <1>   0.1200 
 16 O        9.2030     3.7910     0.1760 O.3   1 <1>  -0.5600 
 17 C       10.4960     3.8300     0.6770 C.3   1 <1>   0.1200 
 18 C       10.9850     5.2680     0.5720 C.3   1 <1>  -0.2400 
 19 H        1.9080     1.1350    -1.2220 H     1 <1>   0.0800 
 20 H       -0.6530     3.2120     1.8710 H     1 <1>   0.0800 
 21 H       -1.5160     1.8840     1.1020 H     1 <1>   0.0800 
 22 H        2.5890    -0.7140     0.2170 H     1 <1>   0.0800 
 23 H        3.5270     0.3540     1.2120 H     1 <1>   0.0800 
 24 H        3.5180     2.9500     0.5870 H     1 <1>   0.0800 
 25 H        2.5770     3.4450    -0.7890 H     1 <1>   0.0800 
 26 H       -1.1990     4.6820    -0.0590 H     1 <1>   0.0800 
 27 H       -2.6620     4.0550     0.6560 H     1 <1>   0.0800 
 28 H       -2.0610     3.3560    -0.8260 H     1 <1>   0.0800 
 29 H        4.0710    -0.2920    -1.6930 H     1 <1>   0.0800 
 30 H        5.0000    -0.8140    -0.3170 H     1 <1>   0.0800 
 31 H        4.9700     3.3050    -1.3430 H     1 <1>   0.0800 
 32 H        4.0440     2.1830    -2.2940 H     1 <1>   0.0800 
 33 H        6.6640     3.3410     0.2200 H     1 <1>   0.0800 
 34 H        7.2920     2.9890    -1.3800 H     1 <1>   0.0800 
 35 H        9.2260     1.8500    -0.3760 H     1 <1>   0.0800 
 36 H        8.5880     2.1860     1.2330 H     1 <1>   0.0800 
 37 H       11.1160     3.1730     0.0910 H     1 <1>   0.0800 
 38 H       10.4810     3.5060     1.7050 H     1 <1>   0.0800 
 39 H       10.9810     5.5840    -0.4560 H     1 <1>   0.0800 
 40 H       11.9880     5.3410     0.9510 H     1 <1>   0.0800 
 41 H       10.3500     5.9160     1.1490 H     1 <1>   0.0800 
@<TRIPOS>BOND
  1   1   2  2   
  2   2   3  1   
  3   2   4  1   
  4   3   5  1   
  5   4   6  1   
  6   4   7  1   
  7   4  19  1   
  8   5   8  1   
  9   5  20  1   
 10   5  21  1   
 11   6   9  1   
 12   6  22  1   
 13   6  23  1   
 14   7  10  1   
 15   7  24  1   
 16   7  25  1   
 17   8  26  1   
 18   8  27  1   
 19   8  28  1   
 20   9  11  1   
 21   9  29  1   
 22   9  30  1   
 23  10  11  1   
 24  10  31  1   
 25  10  32  1   
 26  11  12  am  
 27  12  13  2   
 28  12  14  1   
 29  14  15  1   
 30  14  33  1   
 31  14  34  1   
 32  15  16  1   
 33  15  35  1   
 34  15  36  1   
 35  16  17  1   
 36  17  18  1   
 37  17  37  1   
 38  17  38  1   
 39  18  39  1   
 40  18  40  1   
 41  18  41  1   
@<TRIPOS>SUBSTRUCTURE
  1 ****  11 GROUP 4 **** **** 0

# MOE 2024.06 (io_trps.svl 2023.06)
