@<TRIPOS>MOLECULE
NONAME
39 41 1 0 0 
SMALL
USER_CHARGES


@<TRIPOS>ATOM
  1 F       -1.6230     1.3430    -1.3690 F     1 <1>  -0.1900 
  2 C       -1.1000     2.0690    -0.4160 C.ar  1 <1>   0.1900 
  3 C       -1.8720     2.3720     0.6950 C.ar  1 <1>  -0.1440 
  4 C        0.1980     2.5150    -0.5650 C.ar  1 <1>  -0.1500 
  5 C       -1.3060     3.1550     1.6910 C.ar  1 <1>  -0.1500 
  6 C       -3.2940     1.8580     0.8070 C.3   1 <1>   0.4870 
  7 C        0.7480     3.2960     0.4360 C.ar  1 <1>  -0.1500 
  8 C       -0.0030     3.6130     1.5580 C.ar  1 <1>  -0.1500 
  9 N       -4.1220     2.4820    -0.2560 N.4   1 <1>  -0.9590 
 10 C       -4.2000     3.9810    -0.0870 C.3   1 <1>   0.3430 
 11 C       -5.5010     1.8760    -0.3010 C.3   1 <1>   0.3430 
 12 C       -5.0990     4.6560    -1.1470 C.3   1 <1>   0.2090 
 13 C       -6.4100     2.5360    -1.3620 C.3   1 <1>   0.2090 
 14 N       -6.4490     4.0200    -1.2020 N.pl3 1 <1>  -0.8380 
 15 C       -7.3600     4.4920    -0.2810 C.ar  1 <1>   0.4100 
 16 N       -7.1160     4.1970     0.9920 N.ar  1 <1>  -0.6200 
 17 C       -8.4570     5.2300    -0.7110 C.ar  1 <1>  -0.1500 
 18 C       -8.0050     4.6610     1.8600 C.ar  1 <1>   0.1600 
 19 C       -9.3680     5.7030     0.2030 C.ar  1 <1>  -0.1500 
 20 C       -9.1240     5.4030     1.5280 C.ar  1 <1>  -0.1500 
 21 H        0.7670     2.2570    -1.4410 H     1 <1>   0.1500 
 22 H       -1.8600     3.4140     2.5780 H     1 <1>   0.1500 
 23 H       -3.6970     2.0970     1.7780 H     1 <1>   0.0800 
 24 H       -3.2900     0.7870     0.6920 H     1 <1>   0.0800 
 25 H        1.7590     3.6570     0.3460 H     1 <1>   0.1500 
 26 H        0.4350     4.2190     2.3350 H     1 <1>   0.1500 
 27 H       -3.6490     2.2900    -1.1500 H     1 <1>   0.4500 
 28 H       -3.2130     4.4100    -0.1400 H     1 <1>   0.0800 
 29 H       -4.6080     4.2110     0.8830 H     1 <1>   0.0800 
 30 H       -5.9770     1.9990     0.6590 H     1 <1>   0.0800 
 31 H       -5.4350     0.8200    -0.5040 H     1 <1>   0.0800 
 32 H       -4.6350     4.5940    -2.1160 H     1 <1>   0.0800 
 33 H       -5.2070     5.6990    -0.9030 H     1 <1>   0.0800 
 34 H       -7.4080     2.1430    -1.2650 H     1 <1>   0.0800 
 35 H       -6.0590     2.2930    -2.3500 H     1 <1>   0.0800 
 36 H       -8.5750     5.4200    -1.7610 H     1 <1>   0.1500 
 37 H       -7.8340     4.4390     2.9000 H     1 <1>   0.1500 
 38 H      -10.2270     6.2770    -0.0980 H     1 <1>   0.1500 
 39 H       -9.7980     5.7430     2.2940 H     1 <1>   0.1500 
@<TRIPOS>BOND
  1   1   2  1   
  2   2   3  ar  
  3   2   4  ar  
  4   3   5  ar  
  5   3   6  1   
  6   4   7  ar  
  7   4  21  1   
  8   5   8  ar  
  9   5  22  1   
 10   6   9  1   
 11   6  23  1   
 12   6  24  1   
 13   7   8  ar  
 14   7  25  1   
 15   8  26  1   
 16   9  10  1   
 17   9  11  1   
 18   9  27  1   
 19  10  12  1   
 20  10  28  1   
 21  10  29  1   
 22  11  13  1   
 23  11  30  1   
 24  11  31  1   
 25  12  14  1   
 26  12  32  1   
 27  12  33  1   
 28  13  14  1   
 29  13  34  1   
 30  13  35  1   
 31  14  15  1   
 32  15  16  ar  
 33  15  17  ar  
 34  16  18  ar  
 35  17  19  ar  
 36  17  36  1   
 37  18  20  ar  
 38  18  37  1   
 39  19  20  ar  
 40  19  38  1   
 41  20  39  1   
@<TRIPOS>SUBSTRUCTURE
  1 ****  10 GROUP 4 **** **** 0

# MOE 2024.06 (io_trps.svl 2023.06)
