@<TRIPOS>MOLECULE
NONAME
51 53 1 0 0 
SMALL
USER_CHARGES


@<TRIPOS>ATOM
  1 F        0.6000     1.7560    -0.1960 F     1 <1>  -0.3400 
  2 C        1.6250     1.2260    -0.8540 C.3   1 <1>   1.1640 
  3 F        1.5110    -0.0910    -0.7150 F     1 <1>  -0.3400 
  4 F        1.4180     1.4840    -2.1380 F     1 <1>  -0.3400 
  5 C        2.9860     1.7530    -0.3720 C.ar  1 <1>  -0.1440 
  6 C        4.1350     0.9870    -0.5290 C.ar  1 <1>  -0.1500 
  7 C        3.1020     3.0080     0.2200 C.ar  1 <1>  -0.1500 
  8 C        5.3790     1.4390    -0.1070 C.ar  1 <1>   0.1000 
  9 C        4.3340     3.4740     0.6440 C.ar  1 <1>  -0.1500 
 10 N        6.4970     0.6270    -0.2780 N.pl3 1 <1>  -0.8380 
 11 C        5.4630     2.6950     0.4820 C.ar  1 <1>  -0.1500 
 12 C        7.7820     1.1910    -0.7970 C.3   1 <1>   0.2090 
 13 C        6.5980    -0.6350     0.5150 C.3   1 <1>   0.2090 
 14 C        8.8670     1.2450     0.3000 C.3   1 <1>   0.3430 
 15 C        7.6960    -0.5350     1.5960 C.3   1 <1>   0.3430 
 16 N        9.0100    -0.0610     1.0400 N.4   1 <1>  -0.9590 
 17 C       10.0820    -0.0150     2.0650 C.3   1 <1>   0.4860 
 18 C       11.4040     0.2250     1.3640 C.ar  1 <1>  -0.1430 
 19 C       11.8810    -0.6940     0.4310 C.ar  1 <1>   0.0830 
 20 C       12.1420     1.3630     1.6510 C.ar  1 <1>  -0.1500 
 21 O       11.1110    -1.7890     0.1840 O.3   1 <1>  -0.3630 
 22 C       13.0950    -0.4630    -0.2090 C.ar  1 <1>  -0.1500 
 23 C       13.3450     1.5870     1.0100 C.ar  1 <1>  -0.1500 
 24 C       11.6210    -2.8920    -0.5410 C.3   1 <1>   0.0400 
 25 C       13.8280     0.6820     0.0810 C.ar  1 <1>   0.0830 
 26 O       15.0160     0.9880    -0.4960 O.3   1 <1>  -0.3620 
 27 C       15.6560     0.1090    -1.3950 C.3   1 <1>   0.0400 
 28 H        4.0810     0.0190    -0.9970 H     1 <1>   0.1500 
 29 H        2.2330     3.6330     0.3540 H     1 <1>   0.1500 
 30 H        4.4080     4.4470     1.1000 H     1 <1>   0.1500 
 31 H        6.4100     3.0690     0.8190 H     1 <1>   0.1500 
 32 H        7.6150     2.1800    -1.1890 H     1 <1>   0.0800 
 33 H        8.1270     0.5780    -1.6120 H     1 <1>   0.0800 
 34 H        6.8150    -1.4520    -0.1500 H     1 <1>   0.0800 
 35 H        5.6530    -0.8410     0.9890 H     1 <1>   0.0800 
 36 H        8.6020     2.0240     0.9950 H     1 <1>   0.0800 
 37 H        9.8070     1.5150    -0.1530 H     1 <1>   0.0800 
 38 H        7.8190    -1.5010     2.0580 H     1 <1>   0.0800 
 39 H        7.3560     0.1530     2.3520 H     1 <1>   0.0800 
 40 H        9.3540    -0.7590     0.3590 H     1 <1>   0.4500 
 41 H       10.1320    -0.9550     2.5890 H     1 <1>   0.0800 
 42 H        9.8880     0.7700     2.7780 H     1 <1>   0.0800 
 43 H       11.7980     2.0840     2.3740 H     1 <1>   0.1500 
 44 H       13.4690    -1.1600    -0.9310 H     1 <1>   0.1500 
 45 H       13.9260     2.4670     1.2270 H     1 <1>   0.1500 
 46 H       11.8010    -2.5930    -1.5590 H     1 <1>   0.0800 
 47 H       10.8910    -3.6810    -0.5190 H     1 <1>   0.0800 
 48 H       12.5310    -3.2290    -0.0750 H     1 <1>   0.0800 
 49 H       16.5900     0.5550    -1.6880 H     1 <1>   0.0800 
 50 H       15.0310    -0.0250    -2.2590 H     1 <1>   0.0800 
 51 H       15.8410    -0.8270    -0.8990 H     1 <1>   0.0800 
@<TRIPOS>BOND
  1   1   2  1   
  2   2   3  1   
  3   2   4  1   
  4   2   5  1   
  5   5   6  ar  
  6   5   7  ar  
  7   6   8  ar  
  8   6  28  1   
  9   7   9  ar  
 10   7  29  1   
 11   8  10  1   
 12   8  11  ar  
 13   9  11  ar  
 14   9  30  1   
 15  10  12  1   
 16  10  13  1   
 17  11  31  1   
 18  12  14  1   
 19  12  32  1   
 20  12  33  1   
 21  13  15  1   
 22  13  34  1   
 23  13  35  1   
 24  14  16  1   
 25  14  36  1   
 26  14  37  1   
 27  15  16  1   
 28  15  38  1   
 29  15  39  1   
 30  16  17  1   
 31  16  40  1   
 32  17  18  1   
 33  17  41  1   
 34  17  42  1   
 35  18  19  ar  
 36  18  20  ar  
 37  19  21  1   
 38  19  22  ar  
 39  20  23  ar  
 40  20  43  1   
 41  21  24  1   
 42  22  25  ar  
 43  22  44  1   
 44  23  25  ar  
 45  23  45  1   
 46  24  46  1   
 47  24  47  1   
 48  24  48  1   
 49  25  26  1   
 50  26  27  1   
 51  27  49  1   
 52  27  50  1   
 53  27  51  1   
@<TRIPOS>SUBSTRUCTURE
  1 ****  14 GROUP 4 **** **** 0

# MOE 2024.06 (io_trps.svl 2023.06)
