@<TRIPOS>MOLECULE
NONAME
54 56 1 0 0 
SMALL
USER_CHARGES


@<TRIPOS>ATOM
  1 O       -0.8310    -0.1610    -1.1090 O.3   1 <1>  -0.3630 
  2 C       -1.8330     0.6150    -0.6020 C.ar  1 <1>   0.0830 
  3 C        0.5060     0.2690    -1.2350 C.3   1 <1>   0.0400 
  4 C       -1.7500     1.9620    -0.2060 C.ar  1 <1>   0.0830 
  5 C       -3.0420    -0.0500    -0.4860 C.ar  1 <1>  -0.1500 
  6 O       -0.5720     2.6430    -0.3160 O.3   1 <1>  -0.3630 
  7 C       -2.8930     2.5840     0.2930 C.ar  1 <1>  -0.1500 
  8 C       -4.1730     0.5740     0.0120 C.ar  1 <1>  -0.1430 
  9 C       -0.4320     4.0000     0.0480 C.3   1 <1>   0.0400 
 10 C       -4.0960     1.9040     0.4050 C.ar  1 <1>  -0.1430 
 11 C       -5.4590    -0.2290     0.1220 C.3   1 <1>   0.4860 
 12 C       -5.3180     2.6350     0.9430 C.3   1 <1>  -0.0160 
 13 N       -6.6320     0.6830     0.1730 N.4   1 <1>  -0.9590 
 14 C       -6.4740     1.6850     1.2670 C.3   1 <1>   0.3430 
 15 C       -7.9080    -0.0540     0.2760 C.3   1 <1>   0.4810 
 16 C       -9.0710     0.8640    -0.0790 C.2   1 <1>  -0.2760 
 17 C       -9.0000     2.0610    -0.6850 C.2   1 <1>  -0.2880 
 18 C      -10.4110     0.2530     0.3300 C.3   1 <1>  -0.0220 
 19 C      -10.2050     2.9430    -0.9930 C.3   1 <1>  -0.0220 
 20 C      -11.5970     0.9540    -0.3460 C.3   1 <1>  -0.1600 
 21 C      -11.4730     2.4830    -0.2550 C.3   1 <1>   0.0580 
 22 C      -12.7070     3.2170    -0.7920 C.2   1 <1>  -0.2760 
 23 C      -13.6430     2.6850    -1.5850 C.2   1 <1>  -0.3000 
 24 C      -12.8070     4.6670    -0.3350 C.3   1 <1>  -0.1020 
 25 H        1.0880    -0.5530    -1.6100 H     1 <1>   0.0800 
 26 H        0.8700     0.5650    -0.2680 H     1 <1>   0.0800 
 27 H        0.5440     1.0900    -1.9290 H     1 <1>   0.0800 
 28 H       -3.0720    -1.0800    -0.7960 H     1 <1>   0.1500 
 29 H       -2.8630     3.6110     0.6020 H     1 <1>   0.1500 
 30 H        0.5850     4.2920    -0.1420 H     1 <1>   0.0800 
 31 H       -0.6510     4.1070     1.0950 H     1 <1>   0.0800 
 32 H       -1.0980     4.5940    -0.5530 H     1 <1>   0.0800 
 33 H       -5.4200    -0.8300     1.0150 H     1 <1>   0.0800 
 34 H       -5.5410    -0.8860    -0.7290 H     1 <1>   0.0800 
 35 H       -5.6470     3.3540     0.2130 H     1 <1>   0.0800 
 36 H       -5.0550     3.1770     1.8350 H     1 <1>   0.0800 
 37 H       -6.6580     1.1910    -0.7180 H     1 <1>   0.4500 
 38 H       -7.3810     2.2550     1.3880 H     1 <1>   0.0800 
 39 H       -6.2670     1.1760     2.1950 H     1 <1>   0.0800 
 40 H       -8.0310    -0.4250     1.2810 H     1 <1>   0.0800 
 41 H       -7.9100    -0.8940    -0.3990 H     1 <1>   0.0800 
 42 H       -8.0930     2.5270    -1.0280 H     1 <1>   0.1500 
 43 H      -10.5220     0.3230     1.3990 H     1 <1>   0.0800 
 44 H      -10.4470    -0.7890     0.0610 H     1 <1>   0.0800 
 45 H      -10.3870     2.9280    -2.0540 H     1 <1>   0.0800 
 46 H       -9.9850     3.9560    -0.7100 H     1 <1>   0.0800 
 47 H      -12.5140     0.6360     0.1190 H     1 <1>   0.0800 
 48 H      -11.6290     0.6640    -1.3820 H     1 <1>   0.0800 
 49 H      -11.3690     2.7280     0.7880 H     1 <1>   0.0800 
 50 H      -14.5020     3.2250    -1.9440 H     1 <1>   0.1500 
 51 H      -13.6480     1.6740    -1.9520 H     1 <1>   0.1500 
 52 H      -11.9780     5.2420    -0.7030 H     1 <1>   0.0800 
 53 H      -12.8210     4.7200     0.7390 H     1 <1>   0.0800 
 54 H      -13.7120     5.1180    -0.7020 H     1 <1>   0.0800 
@<TRIPOS>BOND
  1   1   2  1   
  2   1   3  1   
  3   2   4  ar  
  4   2   5  ar  
  5   3  25  1   
  6   3  26  1   
  7   3  27  1   
  8   4   6  1   
  9   4   7  ar  
 10   5   8  ar  
 11   5  28  1   
 12   6   9  1   
 13   7  10  ar  
 14   7  29  1   
 15   8  10  ar  
 16   8  11  1   
 17   9  30  1   
 18   9  31  1   
 19   9  32  1   
 20  10  12  1   
 21  11  13  1   
 22  11  33  1   
 23  11  34  1   
 24  12  14  1   
 25  12  35  1   
 26  12  36  1   
 27  13  14  1   
 28  13  15  1   
 29  13  37  1   
 30  14  38  1   
 31  14  39  1   
 32  15  16  1   
 33  15  40  1   
 34  15  41  1   
 35  16  17  2   
 36  16  18  1   
 37  17  19  1   
 38  17  42  1   
 39  18  20  1   
 40  18  43  1   
 41  18  44  1   
 42  19  21  1   
 43  19  45  1   
 44  19  46  1   
 45  20  21  1   
 46  20  47  1   
 47  20  48  1   
 48  21  22  1   
 49  21  49  1   
 50  22  23  2   
 51  22  24  1   
 52  23  50  1   
 53  23  51  1   
 54  24  52  1   
 55  24  53  1   
 56  24  54  1   
@<TRIPOS>SUBSTRUCTURE
  1 ****  13 GROUP 4 **** **** 0

# MOE 2024.06 (io_trps.svl 2023.06)
