@<TRIPOS>MOLECULE
NONAME
45 48 1 0 0 
SMALL
USER_CHARGES


@<TRIPOS>ATOM
  1 O        0.2000     2.4280    -0.6570 O.2   1 <1>  -0.5700 
  2 C       -0.6700     2.9290     0.0320 C.2   1 <1>   0.7150 
  3 N       -0.2660     3.8040     1.0060 N.am  1 <1>  -0.7300 
  4 C       -2.0740     2.6330    -0.1580 C.2   1 <1>   0.0550 
  5 C        1.1450     4.0950     1.3930 C.3   1 <1>   0.1400 
  6 O       -2.4550     1.7640    -1.0980 O.3   1 <1>  -0.2800 
  7 C       -3.1820     3.1000     0.4810 C.2   1 <1>  -0.1500 
  8 C        1.9810     4.6250     0.2040 C.3   1 <1>   0.3430 
  9 C       -3.7750     1.6680    -1.0720 C.ar  1 <1>   0.1400 
 10 C       -4.2970     2.4820    -0.1010 C.ar  1 <1>   0.0000 
 11 N        3.2590     3.8690    -0.0110 N.4   1 <1>  -0.9590 
 12 C       -4.5790     0.8680    -1.8910 C.ar  1 <1>  -0.1500 
 13 C       -5.7020     2.5400     0.1080 C.ar  1 <1>   0.0000 
 14 C        4.1690     4.5550    -0.9890 C.3   1 <1>   0.3430 
 15 C        3.0400     2.4470    -0.4590 C.3   1 <1>   0.3430 
 16 C       -5.9320     0.9090    -1.7060 C.ar  1 <1>  -0.1500 
 17 C       -6.5250     1.7360    -0.7130 C.ar  1 <1>   0.0000 
 18 C       -6.3020     3.3530     1.0850 C.ar  1 <1>  -0.1500 
 19 C        5.4460     3.7250    -1.2600 C.3   1 <1>   0.1200 
 20 C        4.3810     1.7090    -0.6730 C.3   1 <1>   0.1200 
 21 C       -7.9170     1.7820    -0.5190 C.ar  1 <1>  -0.1500 
 22 C       -7.6620     3.3760     1.2500 C.ar  1 <1>  -0.1500 
 23 O        5.4740     2.5670    -0.4690 O.3   1 <1>  -0.5600 
 24 C       -8.4770     2.5830     0.4400 C.ar  1 <1>  -0.1500 
 25 H       -0.9850     4.1510     1.6460 H     1 <1>   0.3700 
 26 H        1.5820     3.1970     1.7940 H     1 <1>   0.0800 
 27 H        1.1410     4.8390     2.1710 H     1 <1>   0.0800 
 28 H       -3.2460     3.8090     1.2840 H     1 <1>   0.1500 
 29 H        2.2090     5.6620     0.3870 H     1 <1>   0.0800 
 30 H        1.3840     4.5700    -0.6910 H     1 <1>   0.0800 
 31 H        3.8030     3.7970     0.8620 H     1 <1>   0.4500 
 32 H       -4.1110     0.2500    -2.6350 H     1 <1>   0.1500 
 33 H        4.4550     5.5220    -0.6100 H     1 <1>   0.0800 
 34 H        3.6540     4.7120    -1.9230 H     1 <1>   0.0800 
 35 H        2.4830     2.4360    -1.3830 H     1 <1>   0.0800 
 36 H        2.4510     1.9090     0.2660 H     1 <1>   0.0800 
 37 H       -6.5810     0.3080    -2.3170 H     1 <1>   0.1500 
 38 H       -5.6760     3.9640     1.7080 H     1 <1>   0.1500 
 39 H        6.3230     4.3040    -1.0260 H     1 <1>   0.0800 
 40 H        5.5010     3.4360    -2.2960 H     1 <1>   0.0800 
 41 H        4.4370     1.3050    -1.6690 H     1 <1>   0.0800 
 42 H        4.4700     0.8940     0.0250 H     1 <1>   0.0800 
 43 H       -8.5440     1.1710    -1.1430 H     1 <1>   0.1500 
 44 H       -8.1160     4.0010     2.0000 H     1 <1>   0.1500 
 45 H       -9.5440     2.6100     0.5810 H     1 <1>   0.1500 
@<TRIPOS>BOND
  1   1   2  2   
  2   2   3  am  
  3   2   4  1   
  4   3   5  1   
  5   3  25  1   
  6   4   6  1   
  7   4   7  2   
  8   5   8  1   
  9   5  26  1   
 10   5  27  1   
 11   6   9  1   
 12   7  10  1   
 13   7  28  1   
 14   8  11  1   
 15   8  29  1   
 16   8  30  1   
 17   9  10  ar  
 18   9  12  ar  
 19  10  13  ar  
 20  11  14  1   
 21  11  15  1   
 22  11  31  1   
 23  12  16  ar  
 24  12  32  1   
 25  13  17  ar  
 26  13  18  ar  
 27  14  19  1   
 28  14  33  1   
 29  14  34  1   
 30  15  20  1   
 31  15  35  1   
 32  15  36  1   
 33  16  17  ar  
 34  16  37  1   
 35  17  21  ar  
 36  18  22  ar  
 37  18  38  1   
 38  19  23  1   
 39  19  39  1   
 40  19  40  1   
 41  20  23  1   
 42  20  41  1   
 43  20  42  1   
 44  21  24  ar  
 45  21  43  1   
 46  22  24  ar  
 47  22  44  1   
 48  24  45  1   
@<TRIPOS>SUBSTRUCTURE
  1 ****   4 GROUP 4 **** **** 0

# MOE 2024.06 (io_trps.svl 2023.06)
