@<TRIPOS>MOLECULE
NONAME
49 53 1 0 0 
SMALL
USER_CHARGES


@<TRIPOS>ATOM
  1 O        0.6200     0.7570     0.9070 O.2   1 <1>  -0.5700 
  2 C        0.9960     1.8430     0.5540 C.2   1 <1>   0.6590 
  3 O        2.2710     2.0920     0.3170 O.3   1 <1>  -0.4300 
  4 C        0.1150     3.0660     0.3230 C.3   1 <1>   0.0610 
  5 C        2.5290     3.4160    -0.0920 C.3   1 <1>   0.2800 
  6 C        1.2150     4.1580     0.3060 C.3   1 <1>   0.4240 
  7 C       -0.7410     2.8800    -0.9460 C.3   1 <1>  -0.1600 
  8 C       -0.9660     3.2400     1.4110 C.3   1 <1>  -0.1600 
  9 C        3.6140     4.0350     0.8320 C.3   1 <1>   0.0610 
 10 C        2.9080     3.2860    -1.5810 C.3   1 <1>  -0.2400 
 11 O        1.4630     4.4910     1.6600 O.3   1 <1>  -0.4300 
 12 C        0.8880     5.4820    -0.4440 C.ar  1 <1>  -0.1440 
 13 C       -1.9400     2.0440    -0.5020 C.3   1 <1>  -0.1600 
 14 C       -2.1650     2.3900     0.9730 C.3   1 <1>  -0.1600 
 15 C        2.7350     4.4520     1.9940 C.2   1 <1>   0.6590 
 16 C        4.7920     3.1110     1.2120 C.3   1 <1>  -0.1600 
 17 C        4.3330     5.2670     0.2420 C.3   1 <1>  -0.1600 
 18 C        0.7280     6.6800     0.2530 C.ar  1 <1>  -0.1500 
 19 C        0.7420     5.5320    -1.8300 C.ar  1 <1>  -0.1500 
 20 O        3.1160     4.7380     3.0970 O.2   1 <1>  -0.5700 
 21 C        5.8950     3.3710     0.1830 C.3   1 <1>  -0.1600 
 22 C        5.6210     4.7560    -0.4120 C.3   1 <1>  -0.1600 
 23 C        0.4560     7.8680    -0.4010 C.ar  1 <1>  -0.1500 
 24 C        0.4700     6.7180    -2.4890 C.ar  1 <1>  -0.1500 
 25 C        0.3290     7.8910    -1.7760 C.ar  1 <1>  -0.1500 
 26 H       -0.2080     2.4070    -1.7520 H     1 <1>   0.0800 
 27 H       -1.1270     3.8280    -1.2760 H     1 <1>   0.0800 
 28 H       -1.2680     4.2730     1.4510 H     1 <1>   0.0800 
 29 H       -0.6120     2.9460     2.3850 H     1 <1>   0.0800 
 30 H        2.1210     2.8110    -2.1360 H     1 <1>   0.0800 
 31 H        3.7910     2.6810    -1.6810 H     1 <1>   0.0800 
 32 H        3.1120     4.2420    -2.0230 H     1 <1>   0.0800 
 33 H       -1.7050     0.9960    -0.5890 H     1 <1>   0.0800 
 34 H       -2.8130     2.2530    -1.0970 H     1 <1>   0.0800 
 35 H       -3.0820     2.9360     1.1090 H     1 <1>   0.0800 
 36 H       -2.2110     1.4840     1.5550 H     1 <1>   0.0800 
 37 H        4.5320     2.0690     1.2650 H     1 <1>   0.0800 
 38 H        5.1650     3.4040     2.1790 H     1 <1>   0.0800 
 39 H        4.6140     5.9220     1.0510 H     1 <1>   0.0800 
 40 H        3.7250     5.8350    -0.4400 H     1 <1>   0.0800 
 41 H        0.8090     6.7240     1.3260 H     1 <1>   0.1500 
 42 H        0.8260     4.6490    -2.4340 H     1 <1>   0.1500 
 43 H        5.8610     2.6240    -0.5920 H     1 <1>   0.0800 
 44 H        6.8650     3.3310     0.6490 H     1 <1>   0.0800 
 45 H        6.4380     5.4290    -0.2110 H     1 <1>   0.0800 
 46 H        5.5000     4.6780    -1.4780 H     1 <1>   0.0800 
 47 H        0.3410     8.7780     0.1630 H     1 <1>   0.1500 
 48 H        0.3650     6.7290    -3.5600 H     1 <1>   0.1500 
 49 H        0.1180     8.8150    -2.2850 H     1 <1>   0.1500 
@<TRIPOS>BOND
  1   1   2  2   
  2   2   3  1   
  3   2   4  1   
  4   3   5  1   
  5   4   6  1   
  6   4   7  1   
  7   4   8  1   
  8   5   6  1   
  9   5   9  1   
 10   5  10  1   
 11   6  11  1   
 12   6  12  1   
 13   7  13  1   
 14   7  26  1   
 15   7  27  1   
 16   8  14  1   
 17   8  28  1   
 18   8  29  1   
 19   9  15  1   
 20   9  16  1   
 21   9  17  1   
 22  10  30  1   
 23  10  31  1   
 24  10  32  1   
 25  11  15  1   
 26  12  18  ar  
 27  12  19  ar  
 28  13  14  1   
 29  13  33  1   
 30  13  34  1   
 31  14  35  1   
 32  14  36  1   
 33  15  20  2   
 34  16  21  1   
 35  16  37  1   
 36  16  38  1   
 37  17  22  1   
 38  17  39  1   
 39  17  40  1   
 40  18  23  ar  
 41  18  41  1   
 42  19  24  ar  
 43  19  42  1   
 44  21  22  1   
 45  21  43  1   
 46  21  44  1   
 47  22  45  1   
 48  22  46  1   
 49  23  25  ar  
 50  23  47  1   
 51  24  25  ar  
 52  24  48  1   
 53  25  49  1   
@<TRIPOS>SUBSTRUCTURE
  1 ****   6 GROUP 4 **** **** 0

# MOE 2024.06 (io_trps.svl 2023.06)
