@<TRIPOS>MOLECULE
NONAME
63 67 1 0 0 
SMALL
USER_CHARGES


@<TRIPOS>ATOM
  1 O       -1.9400    -1.2420    -1.3100 O.2   1 <1>  -0.5700 
  2 C       -1.8940    -1.4270    -0.1160 C.2   1 <1>   0.5690 
  3 N       -0.8780    -2.1240     0.4900 N.am  1 <1>  -0.5470 
  4 C       -3.0350    -0.8450     0.7630 C.3   1 <1>   0.4840 
  5 C        0.2270    -2.7550    -0.1070 C.ar  1 <1>   0.1170 
  6 N       -4.4610    -1.1030     0.3250 N.4   1 <1>  -0.9590 
  7 C       -2.9840     0.6840     0.7440 C.3   1 <1>  -0.1600 
  8 C        1.1490    -2.0600    -0.8980 C.ar  1 <1>  -0.1430 
  9 C        0.4270    -4.1180     0.1310 C.ar  1 <1>  -0.1430 
 10 C       -4.9370    -2.5060     0.1070 C.3   1 <1>   0.5030 
 11 C       -4.6810    -0.1530    -0.7990 C.3   1 <1>   0.3430 
 12 C       -3.9560     1.1150    -0.3620 C.3   1 <1>  -0.1600 
 13 C        2.2140    -2.7370    -1.4660 C.ar  1 <1>  -0.1500 
 14 C        1.0540    -0.5610    -1.1620 C.3   1 <1>  -0.0970 
 15 C        1.5040    -4.7710    -0.4450 C.ar  1 <1>  -0.1500 
 16 C       -0.5150    -4.9270     1.0150 C.3   1 <1>  -0.0970 
 17 C       -4.4080    -3.4160     1.2300 C.3   1 <1>  -0.1600 
 18 C       -6.4790    -2.4700     0.1980 C.3   1 <1>  -0.1600 
 19 C       -4.5430    -3.1110    -1.2630 C.3   1 <1>  -0.1600 
 20 C        2.3970    -4.0900    -1.2500 C.ar  1 <1>  -0.1430 
 21 C       -4.9900    -4.8230     1.0660 C.3   1 <1>   0.2800 
 22 C       -7.0760    -3.8830     0.0600 C.3   1 <1>  -0.0800 
 23 C       -5.1300    -4.5290    -1.4160 C.3   1 <1>  -0.0800 
 24 C        3.5710    -4.8150    -1.8830 C.3   1 <1>  -0.0970 
 25 O       -4.4780    -5.5970     2.0730 O.3   1 <1>  -0.6800 
 26 C       -6.5180    -4.7790     1.1830 C.3   1 <1>  -0.1600 
 27 C       -4.5850    -5.4230    -0.2870 C.3   1 <1>  -0.1600 
 28 C       -6.6650    -4.4630    -1.3070 C.3   1 <1>  -0.1600 
 29 H       -0.9420    -2.3190     1.4880 H     1 <1>   0.3700 
 30 H       -2.8910    -1.1990     1.7690 H     1 <1>   0.0800 
 31 H       -5.0390    -0.7510     1.0920 H     1 <1>   0.4500 
 32 H       -1.9860     1.0480     0.5620 H     1 <1>   0.0800 
 33 H       -3.3120     1.0640     1.6960 H     1 <1>   0.0800 
 34 H       -5.7290     0.0260    -0.9780 H     1 <1>   0.0800 
 35 H       -4.2210    -0.5340    -1.6980 H     1 <1>   0.0800 
 36 H       -3.4290     1.5330    -1.2040 H     1 <1>   0.0800 
 37 H       -4.6560     1.8470     0.0020 H     1 <1>   0.0800 
 38 H        2.9160    -2.2070    -2.0850 H     1 <1>   0.1500 
 39 H        0.4150    -0.3810    -2.0080 H     1 <1>   0.0800 
 40 H        2.0240    -0.1530    -1.3790 H     1 <1>   0.0800 
 41 H        0.6640    -0.0430    -0.3060 H     1 <1>   0.0800 
 42 H        1.6550    -5.8210    -0.2690 H     1 <1>   0.1500 
 43 H       -0.5300    -4.5270     2.0120 H     1 <1>   0.0800 
 44 H       -0.2020    -5.9540     1.0750 H     1 <1>   0.0800 
 45 H       -1.5070    -4.9080     0.6080 H     1 <1>   0.0800 
 46 H       -4.6950    -3.0300     2.1910 H     1 <1>   0.0800 
 47 H       -3.3400    -3.4970     1.1800 H     1 <1>   0.0800 
 48 H       -6.8870    -1.8550    -0.5840 H     1 <1>   0.0800 
 49 H       -6.7880    -2.0590     1.1440 H     1 <1>   0.0800 
 50 H       -4.9080    -2.5080    -2.0740 H     1 <1>   0.0800 
 51 H       -3.4770    -3.1920    -1.3580 H     1 <1>   0.0800 
 52 H       -8.1510    -3.8400     0.1280 H     1 <1>   0.0800 
 53 H       -4.8500    -4.9410    -2.3730 H     1 <1>   0.0800 
 54 H        3.8120    -4.3790    -2.8350 H     1 <1>   0.0800 
 55 H        3.3360    -5.8530    -2.0360 H     1 <1>   0.0800 
 56 H        4.4310    -4.7450    -1.2410 H     1 <1>   0.0800 
 57 H       -4.8400    -6.5020     2.0120 H     1 <1>   0.4000 
 58 H       -6.9270    -5.7700     1.0870 H     1 <1>   0.0800 
 59 H       -6.8070    -4.3870     2.1430 H     1 <1>   0.0800 
 60 H       -4.9910    -6.4140    -0.3900 H     1 <1>   0.0800 
 61 H       -3.5150    -5.4910    -0.3650 H     1 <1>   0.0800 
 62 H       -7.0640    -3.8550    -2.1010 H     1 <1>   0.0800 
 63 H       -7.0810    -5.4500    -1.4230 H     1 <1>   0.0800 
@<TRIPOS>BOND
  1   1   2  2   
  2   2   3  am  
  3   2   4  1   
  4   3   5  1   
  5   3  29  1   
  6   4   6  1   
  7   4   7  1   
  8   4  30  1   
  9   5   8  ar  
 10   5   9  ar  
 11   6  10  1   
 12   6  11  1   
 13   6  31  1   
 14   7  12  1   
 15   7  32  1   
 16   7  33  1   
 17   8  13  ar  
 18   8  14  1   
 19   9  15  ar  
 20   9  16  1   
 21  10  17  1   
 22  10  18  1   
 23  10  19  1   
 24  11  12  1   
 25  11  34  1   
 26  11  35  1   
 27  12  36  1   
 28  12  37  1   
 29  13  20  ar  
 30  13  38  1   
 31  14  39  1   
 32  14  40  1   
 33  14  41  1   
 34  15  20  ar  
 35  15  42  1   
 36  16  43  1   
 37  16  44  1   
 38  16  45  1   
 39  17  21  1   
 40  17  46  1   
 41  17  47  1   
 42  18  22  1   
 43  18  48  1   
 44  18  49  1   
 45  19  23  1   
 46  19  50  1   
 47  19  51  1   
 48  20  24  1   
 49  21  25  1   
 50  21  26  1   
 51  21  27  1   
 52  22  26  1   
 53  22  28  1   
 54  22  52  1   
 55  23  27  1   
 56  23  28  1   
 57  23  53  1   
 58  24  54  1   
 59  24  55  1   
 60  24  56  1   
 61  25  57  1   
 62  26  58  1   
 63  26  59  1   
 64  27  60  1   
 65  27  61  1   
 66  28  62  1   
 67  28  63  1   
@<TRIPOS>SUBSTRUCTURE
  1 ****   2 GROUP 4 **** **** 0

# MOE 2024.06 (io_trps.svl 2023.06)
