@<TRIPOS>MOLECULE
NONAME
37 38 1 0 0 
SMALL
USER_CHARGES


@<TRIPOS>ATOM
  1 F       -1.8980    -0.5070    -1.5660 F     1 <1>  -0.3400 
  2 C       -1.8470     0.5860    -0.8140 C.3   1 <1>   1.3000 
  3 F       -0.8350     1.3260    -1.2460 F     1 <1>  -0.3400 
  4 F       -1.5760     0.2230     0.4350 F     1 <1>  -0.3400 
  5 O       -3.0500     1.3230    -0.8890 O.3   1 <1>  -0.3630 
  6 C       -4.1810     0.7090    -0.4810 C.ar  1 <1>   0.0830 
  7 C       -4.9470    -0.0040    -1.3890 C.ar  1 <1>  -0.1500 
  8 C       -4.5810     0.8070     0.8420 C.ar  1 <1>  -0.1500 
  9 C       -6.1050    -0.6320    -0.9670 C.ar  1 <1>  -0.1500 
 10 C       -5.7400     0.1760     1.2590 C.ar  1 <1>  -0.1500 
 11 C       -6.5080    -0.5490     0.3580 C.ar  1 <1>  -0.1430 
 12 C       -7.7790    -1.2510     0.8170 C.3   1 <1>   0.2540 
 13 N       -8.9710    -0.6900     0.1470 N.3   1 <1>  -0.8100 
 14 C      -10.1970    -1.4360     0.5160 C.3   1 <1>   0.1100 
 15 C       -9.1370     0.7610     0.4240 C.3   1 <1>   0.1100 
 16 C      -11.4580    -0.8940    -0.2040 C.3   1 <1>   0.3430 
 17 C      -10.4280     1.3470    -0.1980 C.3   1 <1>   0.3430 
 18 N      -11.1420     0.3210    -1.0270 N.4   1 <1>  -0.9590 
 19 C      -12.3180     0.8640    -1.7650 C.3   1 <1>   0.2630 
 20 H       -4.6390    -0.0690    -2.4180 H     1 <1>   0.1500 
 21 H       -3.9890     1.3710     1.5410 H     1 <1>   0.1500 
 22 H       -6.6980    -1.1890    -1.6720 H     1 <1>   0.1500 
 23 H       -6.0360     0.2530     2.2910 H     1 <1>   0.1500 
 24 H       -7.8820    -1.1650     1.8860 H     1 <1>   0.0800 
 25 H       -7.6940    -2.2980     0.5760 H     1 <1>   0.0800 
 26 H      -10.3510    -1.3810     1.5810 H     1 <1>   0.0800 
 27 H      -10.0740    -2.4750     0.2610 H     1 <1>   0.0800 
 28 H       -8.2950     1.3000     0.0220 H     1 <1>   0.0800 
 29 H       -9.1480     0.9350     1.4870 H     1 <1>   0.0800 
 30 H      -12.2090    -0.6570     0.5310 H     1 <1>   0.0800 
 31 H      -11.8540    -1.6690    -0.8390 H     1 <1>   0.0800 
 32 H      -10.1660     2.1970    -0.8070 H     1 <1>   0.0800 
 33 H      -11.0730     1.6960     0.5900 H     1 <1>   0.0800 
 34 H      -10.4150    -0.0080    -1.6850 H     1 <1>   0.4500 
 35 H      -13.0690     1.2080    -1.0720 H     1 <1>   0.0800 
 36 H      -12.7490     0.1020    -2.3930 H     1 <1>   0.0800 
 37 H      -12.0180     1.6910    -2.3880 H     1 <1>   0.0800 
@<TRIPOS>BOND
  1   1   2  1   
  2   2   3  1   
  3   2   4  1   
  4   2   5  1   
  5   5   6  1   
  6   6   7  ar  
  7   6   8  ar  
  8   7   9  ar  
  9   7  20  1   
 10   8  10  ar  
 11   8  21  1   
 12   9  11  ar  
 13   9  22  1   
 14  10  11  ar  
 15  10  23  1   
 16  11  12  1   
 17  12  13  1   
 18  12  24  1   
 19  12  25  1   
 20  13  14  1   
 21  13  15  1   
 22  14  16  1   
 23  14  26  1   
 24  14  27  1   
 25  15  17  1   
 26  15  28  1   
 27  15  29  1   
 28  16  18  1   
 29  16  30  1   
 30  16  31  1   
 31  17  18  1   
 32  17  32  1   
 33  17  33  1   
 34  18  19  1   
 35  18  34  1   
 36  19  35  1   
 37  19  36  1   
 38  19  37  1   
@<TRIPOS>SUBSTRUCTURE
  1 ****  11 GROUP 4 **** **** 0

# MOE 2024.06 (io_trps.svl 2023.06)
