@<TRIPOS>MOLECULE
NONAME
35 35 1 0 0 
SMALL
USER_CHARGES


@<TRIPOS>ATOM
  1 BR      -0.4610     0.6500     0.9290 Br    1 <1>  -0.1110 
  2 C        1.2350     1.4520     0.4990 C.ar  1 <1>   0.1110 
  3 C        1.3460     2.4310    -0.4790 C.ar  1 <1>  -0.0090 
  4 C        2.3220     0.9920     1.2160 C.ar  1 <1>  -0.1500 
  5 S       -0.0850     3.0370    -1.4130 S.o2  1 <1>   1.4470 
  6 C        2.6220     2.9280    -0.7190 C.ar  1 <1>  -0.1500 
  7 C        3.5730     1.5160     0.9550 C.ar  1 <1>  -0.1500 
  8 O       -0.6990     1.9040    -2.0700 O.2   1 <1>  -0.6500 
  9 O        0.3210     4.1530    -2.2410 O.2   1 <1>  -0.6500 
 10 N       -1.1490     3.6470    -0.2270 N.am  1 <1>  -0.8490 
 11 C        3.7560     2.5000    -0.0210 C.ar  1 <1>   0.0860 
 12 C       -0.9210     5.0600     0.1140 C.3   1 <1>   0.1960 
 13 C       -2.5590     3.3870    -0.5510 C.3   1 <1>   0.1960 
 14 C        5.0640     3.0640    -0.3050 C.2   1 <1>   0.6340 
 15 C        0.3740     5.2350     0.9030 C.3   1 <1>  -0.2400 
 16 C       -3.4290     3.4300     0.7060 C.3   1 <1>  -0.2400 
 17 O        5.2410     3.9510    -1.1130 O.2   1 <1>  -0.5700 
 18 O        6.1170     2.5810     0.3620 O.3   1 <1>  -0.4300 
 19 C        7.4250     3.0740     0.1460 C.3   1 <1>   0.0400 
 20 H        2.1880     0.2320     1.9670 H     1 <1>   0.1500 
 21 H        2.7470     3.6830    -1.4790 H     1 <1>   0.1500 
 22 H        4.4190     1.1570     1.5160 H     1 <1>   0.1500 
 23 H       -1.7160     5.4210     0.7400 H     1 <1>   0.0800 
 24 H       -0.9110     5.6720    -0.7740 H     1 <1>   0.0800 
 25 H       -2.6690     2.3960    -0.9570 H     1 <1>   0.0800 
 26 H       -2.9100     4.0870    -1.2920 H     1 <1>   0.0800 
 27 H        0.4240     4.5230     1.7070 H     1 <1>   0.0800 
 28 H        0.4000     6.2240     1.3230 H     1 <1>   0.0800 
 29 H        1.2310     5.1360     0.2640 H     1 <1>   0.0800 
 30 H       -2.9970     2.8110     1.4730 H     1 <1>   0.0800 
 31 H       -4.4040     3.0450     0.4720 H     1 <1>   0.0800 
 32 H       -3.5540     4.4300     1.0740 H     1 <1>   0.0800 
 33 H        8.1030     2.5400     0.7880 H     1 <1>   0.0800 
 34 H        7.4430     4.1250     0.3790 H     1 <1>   0.0800 
 35 H        7.6900     2.9190    -0.8850 H     1 <1>   0.0800 
@<TRIPOS>BOND
  1   1   2  1   
  2   2   3  ar  
  3   2   4  ar  
  4   3   5  1   
  5   3   6  ar  
  6   4   7  ar  
  7   4  20  1   
  8   5   8  2   
  9   5   9  2   
 10   5  10  am  
 11   6  11  ar  
 12   6  21  1   
 13   7  11  ar  
 14   7  22  1   
 15  10  12  1   
 16  10  13  1   
 17  11  14  1   
 18  12  15  1   
 19  12  23  1   
 20  12  24  1   
 21  13  16  1   
 22  13  25  1   
 23  13  26  1   
 24  14  17  2   
 25  14  18  1   
 26  15  27  1   
 27  15  28  1   
 28  15  29  1   
 29  16  30  1   
 30  16  31  1   
 31  16  32  1   
 32  18  19  1   
 33  19  33  1   
 34  19  34  1   
 35  19  35  1   
@<TRIPOS>SUBSTRUCTURE
  1 ****   3 GROUP 4 **** **** 0

# MOE 2024.06 (io_trps.svl 2023.06)
