@<TRIPOS>MOLECULE
NONAME
53 55 1 0 0 
SMALL
USER_CHARGES


@<TRIPOS>ATOM
  1 O       -0.5150    -0.5460     1.8030 O.2   1 <1>  -0.5700 
  2 C        0.1770    -1.3100     1.1550 C.2   1 <1>   0.5440 
  3 N        1.4720    -0.9570     0.8720 N.am  1 <1>  -0.5470 
  4 C       -0.3640    -2.5960     0.7360 C.ar  1 <1>   0.0860 
  5 C        2.3470     0.0430     1.3320 C.ar  1 <1>   0.1170 
  6 C        0.1600    -3.3830    -0.3090 C.ar  1 <1>   0.0830 
  7 C       -1.4790    -3.1060     1.4110 C.ar  1 <1>  -0.1500 
  8 C        3.7230    -0.1660     1.1320 C.ar  1 <1>   0.1000 
  9 C        1.9190     1.2080     1.9540 C.ar  1 <1>  -0.1500 
 10 O        1.2220    -2.9200    -1.0160 O.3   1 <1>  -0.3630 
 11 C       -0.4110    -4.6150    -0.6180 C.ar  1 <1>  -0.1500 
 12 C       -2.0480    -4.3220     1.0950 C.ar  1 <1>  -0.1500 
 13 N        4.1740    -1.3410     0.4990 N.pl3 1 <1>  -0.8380 
 14 C        4.6220     0.7940     1.5810 C.ar  1 <1>  -0.1500 
 15 C        2.8280     2.1570     2.3880 C.ar  1 <1>  -0.1500 
 16 C        1.6060    -3.4730    -2.2570 C.3   1 <1>   0.0400 
 17 C       -1.5100    -5.0910     0.0710 C.ar  1 <1>   0.0830 
 18 C        5.2670    -1.2340    -0.5110 C.3   1 <1>   0.2090 
 19 C        4.3370    -2.5340     1.3840 C.3   1 <1>   0.2090 
 20 C        4.1820     1.9490     2.2030 C.ar  1 <1>  -0.1500 
 21 O       -1.9980    -6.2940    -0.3040 O.3   1 <1>  -0.3630 
 22 C        5.3500    -2.5110    -1.3660 C.3   1 <1>   0.1400 
 23 C        4.4080    -3.8260     0.5520 C.3   1 <1>   0.1400 
 24 C       -3.1340    -6.8610     0.3120 C.3   1 <1>   0.0400 
 25 N        5.4620    -3.7400    -0.5140 N.am  1 <1>  -0.6600 
 26 C        6.4340    -4.6990    -0.6230 C.2   1 <1>   0.5690 
 27 O        6.4940    -5.6420     0.1280 O.2   1 <1>  -0.5700 
 28 C        7.4850    -4.6100    -1.7050 C.3   1 <1>  -0.1790 
 29 H        1.9720    -1.6200     0.2680 H     1 <1>   0.3700 
 30 H       -1.9110    -2.5270     2.2110 H     1 <1>   0.1500 
 31 H        0.8700     1.3860     2.1010 H     1 <1>   0.1500 
 32 H       -0.0210    -5.2390    -1.3980 H     1 <1>   0.1500 
 33 H       -2.9030    -4.6550     1.6530 H     1 <1>   0.1500 
 34 H        5.6760     0.6390     1.4520 H     1 <1>   0.1500 
 35 H        2.4780     3.0540     2.8690 H     1 <1>   0.1500 
 36 H        2.3360    -2.8220    -2.7020 H     1 <1>   0.0800 
 37 H        0.7420    -3.5360    -2.8960 H     1 <1>   0.0800 
 38 H        2.0340    -4.4460    -2.0910 H     1 <1>   0.0800 
 39 H        6.2090    -1.0840    -0.0110 H     1 <1>   0.0800 
 40 H        5.0810    -0.3850    -1.1460 H     1 <1>   0.0800 
 41 H        3.5080    -2.5930     2.0680 H     1 <1>   0.0800 
 42 H        5.2390    -2.4340     1.9620 H     1 <1>   0.0800 
 43 H        4.8910     2.6830     2.5430 H     1 <1>   0.1500 
 44 H        6.1870    -2.4240    -2.0330 H     1 <1>   0.0800 
 45 H        4.4600    -2.5810    -1.9620 H     1 <1>   0.0800 
 46 H        3.4520    -3.9950     0.0890 H     1 <1>   0.0800 
 47 H        4.6010    -4.6540     1.2110 H     1 <1>   0.0800 
 48 H       -3.3340    -7.8060    -0.1600 H     1 <1>   0.0800 
 49 H       -3.9720    -6.2000     0.1750 H     1 <1>   0.0800 
 50 H       -2.9270    -7.0110     1.3560 H     1 <1>   0.0800 
 51 H        8.0940    -3.7400    -1.5510 H     1 <1>   0.0800 
 52 H        7.0160    -4.5680    -2.6690 H     1 <1>   0.0800 
 53 H        8.1140    -5.4800    -1.6680 H     1 <1>   0.0800 
@<TRIPOS>BOND
  1   1   2  2   
  2   2   3  am  
  3   2   4  1   
  4   3   5  1   
  5   3  29  1   
  6   4   6  ar  
  7   4   7  ar  
  8   5   8  ar  
  9   5   9  ar  
 10   6  10  1   
 11   6  11  ar  
 12   7  12  ar  
 13   7  30  1   
 14   8  13  1   
 15   8  14  ar  
 16   9  15  ar  
 17   9  31  1   
 18  10  16  1   
 19  11  17  ar  
 20  11  32  1   
 21  12  17  ar  
 22  12  33  1   
 23  13  18  1   
 24  13  19  1   
 25  14  20  ar  
 26  14  34  1   
 27  15  20  ar  
 28  15  35  1   
 29  16  36  1   
 30  16  37  1   
 31  16  38  1   
 32  17  21  1   
 33  18  22  1   
 34  18  39  1   
 35  18  40  1   
 36  19  23  1   
 37  19  41  1   
 38  19  42  1   
 39  20  43  1   
 40  21  24  1   
 41  22  25  1   
 42  22  44  1   
 43  22  45  1   
 44  23  25  1   
 45  23  46  1   
 46  23  47  1   
 47  24  48  1   
 48  24  49  1   
 49  24  50  1   
 50  25  26  am  
 51  26  27  2   
 52  26  28  1   
 53  28  51  1   
 54  28  52  1   
 55  28  53  1   
@<TRIPOS>SUBSTRUCTURE
  1 ****   3 GROUP 4 **** **** 0

# MOE 2024.06 (io_trps.svl 2023.06)
