@<TRIPOS>MOLECULE
NONAME
38 38 1 0 0 
SMALL
USER_CHARGES


@<TRIPOS>ATOM
  1 CL       1.2240     0.4930    -1.1790 Cl    1 <1>  -0.1770 
  2 C        1.0310    -1.1360    -0.5550 C.ar  1 <1>   0.1770 
  3 C       -0.2350    -1.6830    -0.4350 C.ar  1 <1>   0.1770 
  4 C        2.1520    -1.8720    -0.1820 C.ar  1 <1>   0.0820 
  5 CL      -1.6530    -0.7700    -0.8990 Cl    1 <1>  -0.1770 
  6 C       -0.4070    -2.9650     0.0550 C.ar  1 <1>  -0.1500 
  7 O        3.3740    -1.2900    -0.3190 O.3   1 <1>  -0.3630 
  8 C        1.9750    -3.1650     0.3120 C.ar  1 <1>  -0.1500 
  9 C        0.7030    -3.7050     0.4280 C.ar  1 <1>  -0.1500 
 10 C        4.5650    -1.9590     0.0310 C.3   1 <1>   0.1200 
 11 C        5.7310    -1.0170    -0.2510 C.3   1 <1>   0.1200 
 12 O        6.9230    -1.6610     0.0910 O.3   1 <1>  -0.5600 
 13 C        8.0630    -0.8990    -0.1210 C.3   1 <1>   0.1200 
 14 C        9.2640    -1.7510     0.3010 C.3   1 <1>   0.3430 
 15 N       10.5560    -1.0180     0.1240 N.4   1 <1>  -0.9060 
 16 C       11.7280    -1.7970     0.5470 C.3   1 <1>   0.4230 
 17 C       12.9020    -0.8320     0.6490 C.3   1 <1>  -0.2400 
 18 C       12.0110    -2.8860    -0.4830 C.3   1 <1>  -0.2400 
 19 H       -1.3980    -3.3750     0.1420 H     1 <1>   0.1500 
 20 H        2.8130    -3.7680     0.6110 H     1 <1>   0.1500 
 21 H        0.5770    -4.7040     0.8110 H     1 <1>   0.1500 
 22 H        4.6440    -2.8480    -0.5700 H     1 <1>   0.0800 
 23 H        4.5220    -2.2020     1.0780 H     1 <1>   0.0800 
 24 H        5.6330    -0.1250     0.3440 H     1 <1>   0.0800 
 25 H        5.7560    -0.7700    -1.2990 H     1 <1>   0.0800 
 26 H        7.9910    -0.0080     0.4800 H     1 <1>   0.0800 
 27 H        8.1160    -0.6510    -1.1680 H     1 <1>   0.0800 
 28 H        9.2700    -2.6500    -0.2930 H     1 <1>   0.0800 
 29 H        9.1430    -2.0260     1.3360 H     1 <1>   0.0800 
 30 H       10.5380    -0.1500     0.6710 H     1 <1>   0.4500 
 31 H       10.6860    -0.7560    -0.8590 H     1 <1>   0.4500 
 32 H       11.5500    -2.2430     1.5140 H     1 <1>   0.0800 
 33 H       13.1130    -0.3680    -0.2990 H     1 <1>   0.0800 
 34 H       13.7820    -1.3690     0.9570 H     1 <1>   0.0800 
 35 H       12.7120    -0.0740     1.3880 H     1 <1>   0.0800 
 36 H       12.1730    -2.4690    -1.4610 H     1 <1>   0.0800 
 37 H       11.2100    -3.6020    -0.5260 H     1 <1>   0.0800 
 38 H       12.9010    -3.4220    -0.2020 H     1 <1>   0.0800 
@<TRIPOS>BOND
  1   1   2  1   
  2   2   3  ar  
  3   2   4  ar  
  4   3   5  1   
  5   3   6  ar  
  6   4   7  1   
  7   4   8  ar  
  8   6   9  ar  
  9   6  19  1   
 10   7  10  1   
 11   8   9  ar  
 12   8  20  1   
 13   9  21  1   
 14  10  11  1   
 15  10  22  1   
 16  10  23  1   
 17  11  12  1   
 18  11  24  1   
 19  11  25  1   
 20  12  13  1   
 21  13  14  1   
 22  13  26  1   
 23  13  27  1   
 24  14  15  1   
 25  14  28  1   
 26  14  29  1   
 27  15  16  1   
 28  15  30  1   
 29  15  31  1   
 30  16  17  1   
 31  16  18  1   
 32  16  32  1   
 33  17  33  1   
 34  17  34  1   
 35  17  35  1   
 36  18  36  1   
 37  18  37  1   
 38  18  38  1   
@<TRIPOS>SUBSTRUCTURE
  1 ****  10 GROUP 4 **** **** 0

# MOE 2024.06 (io_trps.svl 2023.06)
