@<TRIPOS>MOLECULE
NONAME
41 42 1 0 0 
SMALL
USER_CHARGES


@<TRIPOS>ATOM
  1 CL      -2.3420    -1.1380     2.0830 Cl    1 <1>  -0.1770 
  2 C       -2.5930     0.0640     0.8390 C.ar  1 <1>   0.1770 
  3 C       -2.5110    -0.2510    -0.5150 C.ar  1 <1>  -0.1440 
  4 C       -2.8740     1.3490     1.2660 C.ar  1 <1>  -0.1500 
  5 C       -2.7140     0.7730    -1.4340 C.ar  1 <1>  -0.1500 
  6 C       -2.2070    -1.6550    -1.0380 C.3   1 <1>   0.5020 
  7 C       -3.0770     2.3530     0.3370 C.ar  1 <1>  -0.1500 
  8 C       -2.9950     2.0620    -1.0130 C.ar  1 <1>  -0.1500 
  9 N       -3.3450    -2.5210    -0.7340 N.am  1 <1>  -0.7300 
 10 C       -0.8860    -2.2240    -0.5360 C.2   1 <1>  -0.1240 
 11 C       -3.2730    -3.6490    -0.0090 C.2   1 <1>   0.6900 
 12 C       -0.8580    -3.4140     0.1310 C.2   1 <1>  -0.0290 
 13 C        0.1970    -1.3570    -0.8750 C.2   1 <1>   0.7060 
 14 O       -4.3170    -4.2150     0.2490 O.2   1 <1>  -0.5700 
 15 N       -2.0390    -4.1170     0.4170 N.am  1 <1>  -0.4690 
 16 C        0.4580    -4.0490     0.5880 C.3   1 <1>  -0.1020 
 17 O        0.2430    -0.7510    -1.9300 O.2   1 <1>  -0.5700 
 18 O        1.1810    -1.1800     0.0140 O.3   1 <1>  -0.4300 
 19 C       -2.0580    -5.3450     1.2710 C.3   1 <1>   0.1400 
 20 C        2.2830    -0.3270    -0.2160 C.3   1 <1>   0.1200 
 21 C       -2.0510    -6.5990     0.3930 C.3   1 <1>  -0.2400 
 22 C        3.3550    -1.1010    -0.9830 C.3   1 <1>  -0.2400 
 23 H       -2.9320     1.5570     2.3190 H     1 <1>   0.1500 
 24 H       -2.6490     0.5760    -2.4910 H     1 <1>   0.1500 
 25 H       -2.1390    -1.6080    -2.1120 H     1 <1>   0.0800 
 26 H       -3.2950     3.3560     0.6620 H     1 <1>   0.1500 
 27 H       -3.1480     2.8420    -1.7400 H     1 <1>   0.1500 
 28 H       -4.2740    -2.1420    -0.8920 H     1 <1>   0.3700 
 29 H        0.5710    -3.9330     1.6500 H     1 <1>   0.0800 
 30 H        1.3110    -3.6100     0.1080 H     1 <1>   0.0800 
 31 H        0.4820    -5.0940     0.3410 H     1 <1>   0.0800 
 32 H       -2.9440    -5.3440     1.8840 H     1 <1>   0.0800 
 33 H       -1.2220    -5.3550     1.9450 H     1 <1>   0.0800 
 34 H        2.6590    -0.0190     0.7430 H     1 <1>   0.0800 
 35 H        1.9560     0.5440    -0.7590 H     1 <1>   0.0800 
 36 H       -2.9370    -6.6240    -0.2160 H     1 <1>   0.0800 
 37 H       -2.0440    -7.4750     1.0150 H     1 <1>   0.0800 
 38 H       -1.1850    -6.6180    -0.2410 H     1 <1>   0.0800 
 39 H        3.6560    -1.9700    -0.4270 H     1 <1>   0.0800 
 40 H        4.2150    -0.4730    -1.1310 H     1 <1>   0.0800 
 41 H        2.9840    -1.3970    -1.9480 H     1 <1>   0.0800 
@<TRIPOS>BOND
  1   1   2  1   
  2   2   3  ar  
  3   2   4  ar  
  4   3   5  ar  
  5   3   6  1   
  6   4   7  ar  
  7   4  23  1   
  8   5   8  ar  
  9   5  24  1   
 10   6   9  1   
 11   6  10  1   
 12   6  25  1   
 13   7   8  ar  
 14   7  26  1   
 15   8  27  1   
 16   9  11  am  
 17   9  28  1   
 18  10  12  2   
 19  10  13  1   
 20  11  14  2   
 21  11  15  am  
 22  12  15  1   
 23  12  16  1   
 24  13  17  2   
 25  13  18  1   
 26  15  19  1   
 27  16  29  1   
 28  16  30  1   
 29  16  31  1   
 30  18  20  1   
 31  19  21  1   
 32  19  32  1   
 33  19  33  1   
 34  20  22  1   
 35  20  34  1   
 36  20  35  1   
 37  21  36  1   
 38  21  37  1   
 39  21  38  1   
 40  22  39  1   
 41  22  40  1   
 42  22  41  1   
@<TRIPOS>SUBSTRUCTURE
  1 ****  10 GROUP 4 **** **** 0

# MOE 2024.06 (io_trps.svl 2023.06)
