@<TRIPOS>MOLECULE
NONAME
53 55 1 0 0 
SMALL
USER_CHARGES


@<TRIPOS>ATOM
  1 S        0.2160     0.3010     0.8900 S.o2  1 <1>   1.4470 
  2 O        0.6020     0.5340     2.2660 O.2   1 <1>  -0.6500 
  3 O       -0.5450     1.3110     0.1880 O.2   1 <1>  -0.6500 
  4 N        1.6530     0.0760     0.0170 N.am  1 <1>  -0.8490 
  5 C       -0.6220    -1.3010     0.7260 C.ar  1 <1>  -0.0090 
  6 C        2.5480    -0.8900     0.6730 C.3   1 <1>   0.1960 
  7 C        2.3400     1.3540    -0.1940 C.3   1 <1>   0.1960 
  8 C       -1.1580    -1.7010    -0.4930 C.ar  1 <1>  -0.1500 
  9 C       -0.7280    -2.1760     1.8020 C.ar  1 <1>  -0.1500 
 10 C        3.7530    -1.1960    -0.2290 C.3   1 <1>  -0.0190 
 11 C        3.5570     1.1580    -1.1050 C.3   1 <1>  -0.1600 
 12 C       -1.7790    -2.9300    -0.6370 C.ar  1 <1>  -0.1500 
 13 C       -1.3460    -3.4080     1.6670 C.ar  1 <1>  -0.1500 
 14 C        4.6640    -2.2320     0.4120 C.2   1 <1>   0.5690 
 15 C        4.5200     0.1000    -0.5490 C.3   1 <1>  -0.1600 
 16 C       -1.8720    -3.7860     0.4450 C.ar  1 <1>  -0.1500 
 17 O        4.6750    -2.3560     1.6120 O.2   1 <1>  -0.5700 
 18 N        5.4510    -2.9770    -0.4170 N.am  1 <1>  -0.5470 
 19 C        6.3910    -3.9550    -0.0640 C.ar  1 <1>   0.1170 
 20 C        7.6460    -3.6010     0.4430 C.ar  1 <1>  -0.1430 
 21 C        6.0810    -5.3040    -0.2550 C.ar  1 <1>  -0.1430 
 22 C        8.5680    -4.5910     0.7370 C.ar  1 <1>  -0.1500 
 23 C        8.0490    -2.1480     0.6860 C.3   1 <1>  -0.0170 
 24 C        7.0180    -6.2770     0.0470 C.ar  1 <1>  -0.1500 
 25 C        4.7180    -5.7320    -0.7850 C.3   1 <1>  -0.0970 
 26 C        8.2600    -5.9240     0.5410 C.ar  1 <1>  -0.1500 
 27 C        8.5100    -1.4770    -0.6110 C.3   1 <1>  -0.2400 
 28 H        2.0210    -1.8100     0.8650 H     1 <1>   0.0800 
 29 H        2.8870    -0.4970     1.6190 H     1 <1>   0.0800 
 30 H        2.6470     1.7650     0.7550 H     1 <1>   0.0800 
 31 H        1.6690     2.0560    -0.6610 H     1 <1>   0.0800 
 32 H       -1.0870    -1.0370    -1.3390 H     1 <1>   0.1500 
 33 H       -0.3210    -1.8920     2.7580 H     1 <1>   0.1500 
 34 H        3.3700    -1.6140    -1.1420 H     1 <1>   0.0800 
 35 H        4.0730     2.0960    -1.2120 H     1 <1>   0.0800 
 36 H        3.2110     0.8620    -2.0800 H     1 <1>   0.0800 
 37 H       -2.1890    -3.2190    -1.5890 H     1 <1>   0.1500 
 38 H       -1.4180    -4.0700     2.5130 H     1 <1>   0.1500 
 39 H        5.3020    -0.0940    -1.2620 H     1 <1>   0.0800 
 40 H        4.9770     0.4730     0.3530 H     1 <1>   0.0800 
 41 H       -2.3550    -4.7420     0.3380 H     1 <1>   0.1500 
 42 H        5.3370    -2.8370    -1.4180 H     1 <1>   0.3700 
 43 H        9.5380    -4.3310     1.1240 H     1 <1>   0.1500 
 44 H        8.8500    -2.1110     1.4030 H     1 <1>   0.0800 
 45 H        7.2290    -1.6000     1.1130 H     1 <1>   0.0800 
 46 H        6.7890    -7.3180    -0.0960 H     1 <1>   0.1500 
 47 H        4.5690    -5.3470    -1.7770 H     1 <1>   0.0800 
 48 H        3.9440    -5.3550    -0.1410 H     1 <1>   0.0800 
 49 H        4.6360    -6.8030    -0.8190 H     1 <1>   0.0800 
 50 H        8.9840    -6.6850     0.7740 H     1 <1>   0.1500 
 51 H        9.3440    -2.0150    -1.0260 H     1 <1>   0.0800 
 52 H        8.8130    -0.4640    -0.4160 H     1 <1>   0.0800 
 53 H        7.7130    -1.4680    -1.3320 H     1 <1>   0.0800 
@<TRIPOS>BOND
  1   1   2  2   
  2   1   3  2   
  3   1   4  am  
  4   1   5  1   
  5   4   6  1   
  6   4   7  1   
  7   5   8  ar  
  8   5   9  ar  
  9   6  10  1   
 10   6  28  1   
 11   6  29  1   
 12   7  11  1   
 13   7  30  1   
 14   7  31  1   
 15   8  12  ar  
 16   8  32  1   
 17   9  13  ar  
 18   9  33  1   
 19  10  14  1   
 20  10  15  1   
 21  10  34  1   
 22  11  15  1   
 23  11  35  1   
 24  11  36  1   
 25  12  16  ar  
 26  12  37  1   
 27  13  16  ar  
 28  13  38  1   
 29  14  17  2   
 30  14  18  am  
 31  15  39  1   
 32  15  40  1   
 33  16  41  1   
 34  18  19  1   
 35  18  42  1   
 36  19  20  ar  
 37  19  21  ar  
 38  20  22  ar  
 39  20  23  1   
 40  21  24  ar  
 41  21  25  1   
 42  22  26  ar  
 43  22  43  1   
 44  23  27  1   
 45  23  44  1   
 46  23  45  1   
 47  24  26  ar  
 48  24  46  1   
 49  25  47  1   
 50  25  48  1   
 51  25  49  1   
 52  26  50  1   
 53  27  51  1   
 54  27  52  1   
 55  27  53  1   
@<TRIPOS>SUBSTRUCTURE
  1 ****  10 GROUP 4 **** **** 0

# MOE 2024.06 (io_trps.svl 2023.06)
