@<TRIPOS>MOLECULE
NONAME
48 49 1 0 0 
SMALL
USER_CHARGES


@<TRIPOS>ATOM
  1 BR      -2.9560    -1.0230     2.3320 Br    1 <1>  -0.1110 
  2 C       -1.8570    -2.1020     1.1680 C.ar  1 <1>   0.1110 
  3 C       -2.3680    -2.5180    -0.0580 C.ar  1 <1>   0.0830 
  4 C       -0.5850    -2.4300     1.5940 C.ar  1 <1>  -0.1500 
  5 O       -3.6310    -2.1390    -0.3780 O.3   1 <1>  -0.3630 
  6 C       -1.5600    -3.2960    -0.8850 C.ar  1 <1>  -0.1500 
  7 C        0.1940    -3.2020     0.7530 C.ar  1 <1>   0.1770 
  8 C       -4.2380    -2.5000    -1.6130 C.3   1 <1>   0.1810 
  9 C       -0.2780    -3.6360    -0.4750 C.ar  1 <1>  -0.1500 
 10 CL       1.8080    -3.6410     1.2500 Cl    1 <1>  -0.1770 
 11 C       -5.6490    -1.9270    -1.6940 C.2   1 <1>   0.5690 
 12 O       -6.3350    -2.1760    -2.6550 O.2   1 <1>  -0.5700 
 13 N       -6.1100    -1.1510    -0.6770 N.am  1 <1>  -0.7300 
 14 C       -7.4370    -0.5300    -0.6270 C.3   1 <1>   0.2200 
 15 C       -7.3080     0.8800    -0.0640 C.3   1 <1>  -0.1600 
 16 C       -8.3360    -1.3670     0.2750 C.3   1 <1>  -0.1600 
 17 C       -8.6720     1.5660     0.0790 C.3   1 <1>   0.5030 
 18 C       -9.7320    -0.7510     0.4240 C.3   1 <1>   0.5030 
 19 N       -9.6500     0.6860     0.7420 N.4   1 <1>  -0.9060 
 20 C       -8.5360     2.7850     0.9890 C.3   1 <1>  -0.2400 
 21 C       -9.2230     2.0400    -1.2690 C.3   1 <1>  -0.2400 
 22 C      -10.4480    -1.3930     1.6110 C.3   1 <1>  -0.2400 
 23 C      -10.5940    -0.9660    -0.8230 C.3   1 <1>  -0.2400 
 24 H       -0.2110    -2.0980     2.5450 H     1 <1>   0.1500 
 25 H       -1.9030    -3.6450    -1.8420 H     1 <1>   0.1500 
 26 H       -4.2830    -3.5720    -1.6740 H     1 <1>   0.0800 
 27 H       -3.6450    -2.1050    -2.4170 H     1 <1>   0.0800 
 28 H        0.3580    -4.2360    -1.1020 H     1 <1>   0.1500 
 29 H       -5.4780    -1.0090     0.1190 H     1 <1>   0.3700 
 30 H       -7.8400    -0.4970    -1.6260 H     1 <1>   0.0800 
 31 H       -6.6800     1.4650    -0.7140 H     1 <1>   0.0800 
 32 H       -6.8260     0.8320     0.8970 H     1 <1>   0.0800 
 33 H       -7.8750    -1.4620     1.2420 H     1 <1>   0.0800 
 34 H       -8.4270    -2.3570    -0.1390 H     1 <1>   0.0800 
 35 H      -10.5780     1.0900     0.6120 H     1 <1>   0.4500 
 36 H       -9.4520     0.7430     1.7430 H     1 <1>   0.4500 
 37 H       -8.1760     2.5100     1.9650 H     1 <1>   0.0800 
 38 H       -9.4740     3.3020     1.0930 H     1 <1>   0.0800 
 39 H       -7.8280     3.4790     0.5690 H     1 <1>   0.0800 
 40 H       -9.2160     1.2670    -2.0110 H     1 <1>   0.0800 
 41 H       -8.6030     2.8320    -1.6530 H     1 <1>   0.0800 
 42 H      -10.2210     2.4290    -1.1700 H     1 <1>   0.0800 
 43 H       -9.8980    -1.2510     2.5250 H     1 <1>   0.0800 
 44 H      -10.5400    -2.4540     1.4520 H     1 <1>   0.0800 
 45 H      -11.4400    -0.9950     1.7300 H     1 <1>   0.0800 
 46 H      -10.0940    -0.6720    -1.7240 H     1 <1>   0.0800 
 47 H      -11.5300    -0.4430    -0.7480 H     1 <1>   0.0800 
 48 H      -10.8150    -2.0140    -0.9310 H     1 <1>   0.0800 
@<TRIPOS>BOND
  1   1   2  1   
  2   2   3  ar  
  3   2   4  ar  
  4   3   5  1   
  5   3   6  ar  
  6   4   7  ar  
  7   4  24  1   
  8   5   8  1   
  9   6   9  ar  
 10   6  25  1   
 11   7   9  ar  
 12   7  10  1   
 13   8  11  1   
 14   8  26  1   
 15   8  27  1   
 16   9  28  1   
 17  11  12  2   
 18  11  13  am  
 19  13  14  1   
 20  13  29  1   
 21  14  15  1   
 22  14  16  1   
 23  14  30  1   
 24  15  17  1   
 25  15  31  1   
 26  15  32  1   
 27  16  18  1   
 28  16  33  1   
 29  16  34  1   
 30  17  19  1   
 31  17  20  1   
 32  17  21  1   
 33  18  19  1   
 34  18  22  1   
 35  18  23  1   
 36  19  35  1   
 37  19  36  1   
 38  20  37  1   
 39  20  38  1   
 40  20  39  1   
 41  21  40  1   
 42  21  41  1   
 43  21  42  1   
 44  22  43  1   
 45  22  44  1   
 46  22  45  1   
 47  23  46  1   
 48  23  47  1   
 49  23  48  1   
@<TRIPOS>SUBSTRUCTURE
  1 ****  13 GROUP 4 **** **** 0

# MOE 2024.06 (io_trps.svl 2023.06)
