@<TRIPOS>MOLECULE
NONAME
50 53 1 0 0 
SMALL
USER_CHARGES


@<TRIPOS>ATOM
  1 O        0.4740    -1.7490    -2.1710 O.2   1 <1>  -0.5700 
  2 C        0.6910    -2.0590    -1.0160 C.2   1 <1>   0.5440 
  3 N       -0.3020    -2.6650    -0.2980 N.am  1 <1>  -0.7300 
  4 C        1.9720    -1.7700    -0.3970 C.ar  1 <1>   0.0860 
  5 C       -1.6650    -2.9640    -0.7880 C.3   1 <1>   0.2200 
  6 C        2.4930    -2.5590     0.6320 C.ar  1 <1>  -0.1500 
  7 C        2.7370    -0.6780    -0.8120 C.ar  1 <1>  -0.1500 
  8 C       -2.7260    -2.0640    -0.0780 C.3   1 <1>   0.0000 
  9 C       -1.8590    -4.4740    -0.6200 C.3   1 <1>  -0.2400 
 10 C        3.7070    -2.2680     1.2280 C.ar  1 <1>  -0.1500 
 11 C        3.9510    -0.3800    -0.2220 C.ar  1 <1>  -0.1500 
 12 C       -2.4270    -0.5720    -0.3860 C.3   1 <1>  -0.1600 
 13 C       -4.1500    -2.3740    -0.6100 C.3   1 <1>  -0.1600 
 14 C       -2.7400    -2.2430     1.4640 C.3   1 <1>  -0.1600 
 15 C        4.4470    -1.1680     0.8030 C.ar  1 <1>   0.0830 
 16 C       -3.4690     0.3570     0.2620 C.3   1 <1>  -0.0800 
 17 C       -5.2030    -1.4540     0.0360 C.3   1 <1>  -0.0800 
 18 C       -3.7870    -1.3200     2.1180 C.3   1 <1>  -0.0800 
 19 O        5.6390    -0.8110     1.3310 O.3   1 <1>  -0.3630 
 20 C       -4.8640     0.0110    -0.2870 C.3   1 <1>  -0.1600 
 21 C       -3.4520     0.1460     1.7860 C.3   1 <1>  -0.1600 
 22 C       -5.1820    -1.6580     1.5620 C.3   1 <1>  -0.1600 
 23 C        6.2490    -1.5540     2.3620 C.3   1 <1>   0.0400 
 24 H       -0.1820    -2.7890     0.7050 H     1 <1>   0.3700 
 25 H       -1.7070    -2.7490    -1.8430 H     1 <1>   0.0800 
 26 H        1.9430    -3.4210     0.9650 H     1 <1>   0.1500 
 27 H        2.3660    -0.0590    -1.6110 H     1 <1>   0.1500 
 28 H       -1.8390    -4.7610     0.4150 H     1 <1>   0.0800 
 29 H       -1.0740    -4.9950    -1.1400 H     1 <1>   0.0800 
 30 H       -2.7910    -4.7870    -1.0500 H     1 <1>   0.0800 
 31 H        4.0650    -2.9040     2.0150 H     1 <1>   0.1500 
 32 H        4.5250     0.4660    -0.5540 H     1 <1>   0.1500 
 33 H       -2.4190    -0.4150    -1.4510 H     1 <1>   0.0800 
 34 H       -1.4530    -0.3020    -0.0190 H     1 <1>   0.0800 
 35 H       -4.4180    -3.3920    -0.3930 H     1 <1>   0.0800 
 36 H       -4.1750    -2.2490    -1.6780 H     1 <1>   0.0800 
 37 H       -2.9730    -3.2610     1.7180 H     1 <1>   0.0800 
 38 H       -1.7730    -2.0140     1.8740 H     1 <1>   0.0800 
 39 H       -3.2330     1.3830     0.0330 H     1 <1>   0.0800 
 40 H       -6.1800    -1.6930    -0.3490 H     1 <1>   0.0800 
 41 H       -3.7790    -1.4600     3.1850 H     1 <1>   0.0800 
 42 H       -5.6000     0.6620     0.1530 H     1 <1>   0.0800 
 43 H       -4.8850     0.1650    -1.3510 H     1 <1>   0.0800 
 44 H       -4.1700     0.7980     2.2520 H     1 <1>   0.0800 
 45 H       -2.4810     0.3960     2.1770 H     1 <1>   0.0800 
 46 H       -5.4320    -2.6770     1.7980 H     1 <1>   0.0800 
 47 H       -5.9210    -1.0260     2.0230 H     1 <1>   0.0800 
 48 H        7.1840    -1.0810     2.6060 H     1 <1>   0.0800 
 49 H        6.4270    -2.5560     2.0120 H     1 <1>   0.0800 
 50 H        5.6040    -1.5540     3.2220 H     1 <1>   0.0800 
@<TRIPOS>BOND
  1   1   2  2   
  2   2   3  am  
  3   2   4  1   
  4   3   5  1   
  5   3  24  1   
  6   4   6  ar  
  7   4   7  ar  
  8   5   8  1   
  9   5   9  1   
 10   5  25  1   
 11   6  10  ar  
 12   6  26  1   
 13   7  11  ar  
 14   7  27  1   
 15   8  12  1   
 16   8  13  1   
 17   8  14  1   
 18   9  28  1   
 19   9  29  1   
 20   9  30  1   
 21  10  15  ar  
 22  10  31  1   
 23  11  15  ar  
 24  11  32  1   
 25  12  16  1   
 26  12  33  1   
 27  12  34  1   
 28  13  17  1   
 29  13  35  1   
 30  13  36  1   
 31  14  18  1   
 32  14  37  1   
 33  14  38  1   
 34  15  19  1   
 35  16  20  1   
 36  16  21  1   
 37  16  39  1   
 38  17  20  1   
 39  17  22  1   
 40  17  40  1   
 41  18  21  1   
 42  18  22  1   
 43  18  41  1   
 44  19  23  1   
 45  20  42  1   
 46  20  43  1   
 47  21  44  1   
 48  21  45  1   
 49  22  46  1   
 50  22  47  1   
 51  23  48  1   
 52  23  49  1   
 53  23  50  1   
@<TRIPOS>SUBSTRUCTURE
  1 ****   3 GROUP 4 **** **** 0

# MOE 2024.06 (io_trps.svl 2023.06)
