@<TRIPOS>MOLECULE
NONAME
44 47 1 0 0 
SMALL
USER_CHARGES


@<TRIPOS>ATOM
  1 O        0.0310    -0.9560    -0.1830 O.2   1 <1>  -0.5750 
  2 C        0.7190    -1.8890     0.1780 C.2   1 <1>   0.6850 
  3 N        0.1520    -2.9140     0.9240 N.am  1 <1>  -0.4270 
  4 N        2.0660    -1.9300    -0.1610 N.am  1 <1>  -0.4430 
  5 C        0.9040    -3.9960     1.3500 C.2   1 <1>   0.6990 
  6 C       -1.3410    -3.0730     0.8930 C.3   1 <1>   0.1930 
  7 C        2.7930    -3.0460     0.2080 C.2   1 <1>   0.4190 
  8 C        2.6800    -0.8390    -0.9730 C.3   1 <1>   0.0510 
  9 O        0.4080    -4.8610     2.0520 O.2   1 <1>  -0.5750 
 10 C        2.2710    -4.0590     0.9400 C.2   1 <1>   0.2690 
 11 C       -1.7860    -3.9060    -0.3060 C.2   1 <1>   0.6540 
 12 N        4.1000    -3.3360    -0.0850 N.pl3 1 <1>  -0.7040 
 13 N        3.3100    -4.9810     1.0950 N.pl3 1 <1>  -0.7680 
 14 O       -0.9870    -4.4350    -1.0430 O.2   1 <1>  -0.5750 
 15 O       -3.0960    -4.0160    -0.4810 O.3   1 <1>  -0.4370 
 16 C        4.3580    -4.5170     0.4640 C.cat 1 <1>   1.0680 
 17 C        3.5530    -6.3180     1.6650 C.3   1 <1>   0.3470 
 18 C       -3.6460    -4.7570    -1.5510 C.3   1 <1>   0.0310 
 19 N        5.4120    -5.3320     0.4980 N.pl3 1 <1>  -0.5810 
 20 C        5.0230    -6.5700     1.2450 C.3   1 <1>   0.1590 
 21 C        6.6830    -5.1160    -0.0370 C.ar  1 <1>   0.3040 
 22 C        7.4340    -4.0130     0.3560 C.ar  1 <1>  -0.1590 
 23 C        7.2090    -5.9890    -0.9810 C.ar  1 <1>  -0.1590 
 24 C        8.6820    -3.7820    -0.1940 C.ar  1 <1>  -0.1590 
 25 C        8.4570    -5.7600    -1.5310 C.ar  1 <1>  -0.1590 
 26 C        9.1920    -4.6550    -1.1390 C.ar  1 <1>  -0.1590 
 27 H       -1.8200    -2.1110     0.8440 H     1 <1>   0.0710 
 28 H       -1.6780    -3.5550     1.7930 H     1 <1>   0.0710 
 29 H        2.1510     0.0860    -0.8200 H     1 <1>   0.0710 
 30 H        2.6310    -1.0940    -2.0170 H     1 <1>   0.0710 
 31 H        3.7050    -0.6880    -0.6860 H     1 <1>   0.0710 
 32 H        4.7510    -2.8030    -0.6560 H     1 <1>   0.4440 
 33 H        2.8870    -7.0470     1.2340 H     1 <1>   0.0710 
 34 H        3.4420    -6.3050     2.7370 H     1 <1>   0.0710 
 35 H       -4.7180    -4.7070    -1.4840 H     1 <1>   0.0710 
 36 H       -3.3170    -5.7790    -1.4720 H     1 <1>   0.0710 
 37 H       -3.3120    -4.3280    -2.4800 H     1 <1>   0.0710 
 38 H        5.0960    -7.4370     0.6110 H     1 <1>   0.0710 
 39 H        5.6520    -6.7020     2.1100 H     1 <1>   0.0710 
 40 H        7.0550    -3.3360     1.0990 H     1 <1>   0.1410 
 41 H        6.6450    -6.8480    -1.2950 H     1 <1>   0.1410 
 42 H        9.2660    -2.9290     0.1130 H     1 <1>   0.1410 
 43 H        8.8610    -6.4370    -2.2650 H     1 <1>   0.1410 
 44 H       10.1650    -4.4770    -1.5670 H     1 <1>   0.1410 
@<TRIPOS>BOND
  1   1   2  2   
  2   2   3  am  
  3   2   4  am  
  4   3   5  am  
  5   3   6  1   
  6   4   7  1   
  7   4   8  1   
  8   5   9  2   
  9   5  10  1   
 10   6  11  1   
 11   6  27  1   
 12   6  28  1   
 13   7  10  2   
 14   7  12  1   
 15   8  29  1   
 16   8  30  1   
 17   8  31  1   
 18  10  13  1   
 19  11  14  2   
 20  11  15  1   
 21  12  16  ar  
 22  12  32  1   
 23  13  16  ar  
 24  13  17  1   
 25  15  18  1   
 26  16  19  ar  
 27  17  20  1   
 28  17  33  1   
 29  17  34  1   
 30  18  35  1   
 31  18  36  1   
 32  18  37  1   
 33  19  20  1   
 34  19  21  1   
 35  20  38  1   
 36  20  39  1   
 37  21  22  ar  
 38  21  23  ar  
 39  22  24  ar  
 40  22  40  1   
 41  23  25  ar  
 42  23  41  1   
 43  24  26  ar  
 44  24  42  1   
 45  25  26  ar  
 46  25  43  1   
 47  26  44  1   
@<TRIPOS>SUBSTRUCTURE
  1 ****   7 GROUP 4 **** **** 0

# MOE 2024.06 (io_trps.svl 2023.06)
