@<TRIPOS>MOLECULE
Structure2274
32 33 1 0 0 
SMALL
USER_CHARGES


@<TRIPOS>ATOM
  1 O        0.1000     0.3810    -0.4010 O.3   1 <1>  -0.3630 
  2 C        1.4330     0.2560    -0.1860 C.ar  1 <1>   0.0830 
  3 C       -0.6230     1.4840     0.0900 C.3   1 <1>   0.1200 
  4 C        2.1970     1.1840     0.5170 C.ar  1 <1>  -0.1500 
  5 C        2.0440    -0.8730    -0.7100 C.ar  1 <1>  -0.1500 
  6 C       -2.0990     1.3130    -0.3080 C.3   1 <1>   0.4230 
  7 C        3.5550     0.9740     0.6880 C.ar  1 <1>  -0.1500 
  8 C        3.4010    -1.0800    -0.5380 C.ar  1 <1>  -0.1500 
  9 N       -2.8990     2.5140     0.0730 N.4   1 <1>  -0.9060 
 10 C       -2.7290     0.0720     0.3440 C.3   1 <1>  -0.1600 
 11 C        4.1570    -0.1560     0.1620 C.ar  1 <1>  -0.1500 
 12 C       -4.3150     2.4260    -0.3760 C.3   1 <1>   0.3430 
 13 C       -4.2130    -0.0810    -0.0210 C.3   1 <1>  -0.1600 
 14 C       -4.9810     1.2130     0.2750 C.3   1 <1>  -0.1600 
 15 H       -0.2070     2.3700    -0.3570 H     1 <1>   0.0800 
 16 H       -0.5110     1.5050     1.1600 H     1 <1>   0.0800 
 17 H        1.7660     2.0710     0.9390 H     1 <1>   0.1500 
 18 H        1.4550    -1.5900    -1.2530 H     1 <1>   0.1500 
 19 H       -2.1390     1.1990    -1.3800 H     1 <1>   0.0800 
 20 H        4.1490     1.6900     1.2320 H     1 <1>   0.1500 
 21 H        3.8690    -1.9590    -0.9470 H     1 <1>   0.1500 
 22 H       -2.4680     3.3590    -0.3210 H     1 <1>   0.4500 
 23 H       -2.8890     2.6040     1.0950 H     1 <1>   0.4500 
 24 H       -2.6210     0.1260     1.4140 H     1 <1>   0.0800 
 25 H       -2.2020    -0.8080     0.0170 H     1 <1>   0.0800 
 26 H        5.2130    -0.3160     0.2960 H     1 <1>   0.1500 
 27 H       -4.3540     2.3240    -1.4490 H     1 <1>   0.0800 
 28 H       -4.8500     3.3230    -0.1010 H     1 <1>   0.0800 
 29 H       -4.6430    -0.8990     0.5340 H     1 <1>   0.0800 
 30 H       -4.3000    -0.3200    -1.0690 H     1 <1>   0.0800 
 31 H       -5.9870     1.1210    -0.0980 H     1 <1>   0.0800 
 32 H       -5.0490     1.3650     1.3390 H     1 <1>   0.0800 
@<TRIPOS>BOND
  1   1   2  1   
  2   1   3  1   
  3   2   4  ar  
  4   2   5  ar  
  5   3   6  1   
  6   3  15  1   
  7   3  16  1   
  8   4   7  ar  
  9   4  17  1   
 10   5   8  ar  
 11   5  18  1   
 12   6   9  1   
 13   6  10  1   
 14   6  19  1   
 15   7  11  ar  
 16   7  20  1   
 17   8  11  ar  
 18   8  21  1   
 19   9  12  1   
 20   9  22  1   
 21   9  23  1   
 22  10  13  1   
 23  10  24  1   
 24  10  25  1   
 25  11  26  1   
 26  12  14  1   
 27  12  27  1   
 28  12  28  1   
 29  13  14  1   
 30  13  29  1   
 31  13  30  1   
 32  14  31  1   
 33  14  32  1   
@<TRIPOS>SUBSTRUCTURE
  1 ****   1 GROUP 4 **** **** 0

# MOE 2024.06 (io_trps.svl 2023.06)
