@<TRIPOS>MOLECULE
NONAME
39 40 1 0 0 
SMALL
USER_CHARGES


@<TRIPOS>ATOM
  1 O      -14.5610     5.1470    -0.1870 O.3   1 <1>  -0.2800 
  2 C      -13.3230     4.7070    -0.2910 C.2   1 <1>  -0.0400 
  3 C      -15.3090     4.4510    -1.0200 C.2   1 <1>  -0.0100 
  4 C      -13.2560     3.7080    -1.2040 C.2   1 <1>  -0.1500 
  5 C      -12.2850     5.3760     0.5870 C.3   1 <1>   0.5230 
  6 C      -14.5620     3.5430    -1.6810 C.2   1 <1>  -0.1500 
  7 N      -10.9510     4.7990     0.3140 N.4   1 <1>  -0.9060 
  8 C       -9.8600     5.3910     1.1100 C.3   1 <1>   0.4860 
  9 C       -8.6020     4.6590     0.7070 C.ar  1 <1>  -0.1430 
 10 C       -8.3120     3.4260     1.2660 C.ar  1 <1>  -0.1500 
 11 C       -7.7340     5.1970    -0.2290 C.ar  1 <1>  -0.1500 
 12 C       -7.1820     2.7140     0.9020 C.ar  1 <1>   0.0830 
 13 C       -6.5980     4.5010    -0.6050 C.ar  1 <1>  -0.1500 
 14 O       -7.0590     1.5190     1.5480 O.3   1 <1>  -0.3620 
 15 C       -6.3040     3.2550    -0.0550 C.ar  1 <1>   0.0830 
 16 C       -5.8720     0.7540     1.5440 C.3   1 <1>   0.0400 
 17 O       -5.1960     2.5610    -0.4410 O.3   1 <1>  -0.3630 
 18 C       -4.2100     3.1020    -1.2910 C.3   1 <1>   0.1200 
 19 C       -3.0870     2.0770    -1.4180 C.3   1 <1>  -0.2400 
 20 H      -16.3630     4.6660    -1.0800 H     1 <1>   0.1500 
 21 H      -12.4210     3.1200    -1.5440 H     1 <1>   0.1500 
 22 H      -12.5540     5.2300     1.6200 H     1 <1>   0.0800 
 23 H      -12.2840     6.4340     0.3800 H     1 <1>   0.0800 
 24 H      -14.8770     2.8290    -2.4230 H     1 <1>   0.1500 
 25 H      -10.7300     4.9050    -0.6820 H     1 <1>   0.4500 
 26 H      -10.9740     3.7880     0.4910 H     1 <1>   0.4500 
 27 H      -10.0400     5.2560     2.1650 H     1 <1>   0.0800 
 28 H       -9.7600     6.4440     0.9000 H     1 <1>   0.0800 
 29 H       -8.9560     2.9840     2.0070 H     1 <1>   0.1500 
 30 H       -7.9230     6.1590    -0.6770 H     1 <1>   0.1500 
 31 H       -5.9530     4.9510    -1.3360 H     1 <1>   0.1500 
 32 H       -5.9870    -0.0490     2.2480 H     1 <1>   0.0800 
 33 H       -5.0490     1.3820     1.8340 H     1 <1>   0.0800 
 34 H       -5.7200     0.3530     0.5580 H     1 <1>   0.0800 
 35 H       -3.8420     4.0140    -0.8520 H     1 <1>   0.0800 
 36 H       -4.6540     3.2970    -2.2510 H     1 <1>   0.0800 
 37 H       -2.6580     1.8760    -0.4530 H     1 <1>   0.0800 
 38 H       -2.3170     2.4580    -2.0630 H     1 <1>   0.0800 
 39 H       -3.4670     1.1630    -1.8400 H     1 <1>   0.0800 
@<TRIPOS>BOND
  1   1   2  1   
  2   1   3  1   
  3   2   4  2   
  4   2   5  1   
  5   3   6  2   
  6   3  20  1   
  7   4   6  1   
  8   4  21  1   
  9   5   7  1   
 10   5  22  1   
 11   5  23  1   
 12   6  24  1   
 13   7   8  1   
 14   7  25  1   
 15   7  26  1   
 16   8   9  1   
 17   8  27  1   
 18   8  28  1   
 19   9  10  ar  
 20   9  11  ar  
 21  10  12  ar  
 22  10  29  1   
 23  11  13  ar  
 24  11  30  1   
 25  12  14  1   
 26  12  15  ar  
 27  13  15  ar  
 28  13  31  1   
 29  14  16  1   
 30  15  17  1   
 31  16  32  1   
 32  16  33  1   
 33  16  34  1   
 34  17  18  1   
 35  18  19  1   
 36  18  35  1   
 37  18  36  1   
 38  19  37  1   
 39  19  38  1   
 40  19  39  1   
@<TRIPOS>SUBSTRUCTURE
  1 ****   9 GROUP 4 **** **** 0

# MOE 2024.06 (io_trps.svl 2023.06)
