@<TRIPOS>MOLECULE
NONAME
46 48 1 0 0 
SMALL
USER_CHARGES


@<TRIPOS>ATOM
  1 CL      -0.5710     0.9760    -0.4560 Cl    1 <1>  -0.1770 
  2 C       -2.0810     1.2420     0.3860 C.ar  1 <1>   0.1770 
  3 C       -2.1060     1.8450     1.6310 C.ar  1 <1>   0.1900 
  4 C       -3.2620     0.8410    -0.2100 C.ar  1 <1>  -0.1500 
  5 F       -0.9890     2.2270     2.1990 F     1 <1>  -0.1900 
  6 C       -3.2970     2.0600     2.2980 C.ar  1 <1>  -0.1500 
  7 C       -4.4770     1.0410     0.4400 C.ar  1 <1>   0.1170 
  8 C       -4.4770     1.6560     1.6940 C.ar  1 <1>  -0.1500 
  9 N       -5.6560     0.6290    -0.2020 N.am  1 <1>  -0.5470 
 10 C       -6.8710     0.2730     0.3190 C.2   1 <1>   0.5690 
 11 O       -7.0950     0.2320     1.5040 O.2   1 <1>  -0.5700 
 12 C       -7.9820    -0.1080    -0.6600 C.3   1 <1>  -0.0190 
 13 C       -9.2920     0.6460    -0.3580 C.3   1 <1>  -0.1600 
 14 C       -8.2300    -1.6280    -0.6480 C.3   1 <1>  -0.1600 
 15 C      -10.4250     0.2250    -1.2980 C.3   1 <1>   0.1400 
 16 C       -9.3620    -2.0270    -1.5980 C.3   1 <1>   0.1400 
 17 N      -10.5880    -1.2540    -1.2580 N.am  1 <1>  -0.6600 
 18 C      -11.7670    -1.8820    -0.9030 C.2   1 <1>   0.5440 
 19 O      -11.8380    -3.0950    -0.9630 O.2   1 <1>  -0.5700 
 20 C      -12.9220    -1.1250    -0.4620 C.ar  1 <1>   0.0860 
 21 C      -13.1470    -0.8270     0.8870 C.ar  1 <1>  -0.1430 
 22 C      -13.8400    -0.6570    -1.4010 C.ar  1 <1>  -0.1500 
 23 C      -14.2470    -0.0720     1.2610 C.ar  1 <1>  -0.1500 
 24 C      -12.1900    -1.3390     1.9560 C.3   1 <1>  -0.0970 
 25 C      -14.9370     0.0950    -1.0240 C.ar  1 <1>  -0.1500 
 26 C      -15.1390     0.3910     0.3110 C.ar  1 <1>  -0.1500 
 27 H       -3.2260     0.3720    -1.1750 H     1 <1>   0.1500 
 28 H       -3.2990     2.5300     3.2650 H     1 <1>   0.1500 
 29 H       -5.4070     1.8270     2.2080 H     1 <1>   0.1500 
 30 H       -5.5770     0.5330    -1.2120 H     1 <1>   0.3700 
 31 H       -7.6700     0.1680    -1.6510 H     1 <1>   0.0800 
 32 H       -9.1300     1.7050    -0.4480 H     1 <1>   0.0800 
 33 H       -9.5980     0.4530     0.6560 H     1 <1>   0.0800 
 34 H       -8.4900    -1.9460     0.3480 H     1 <1>   0.0800 
 35 H       -7.3320    -2.1490    -0.9300 H     1 <1>   0.0800 
 36 H      -10.1920     0.5210    -2.3070 H     1 <1>   0.0800 
 37 H      -11.3320     0.7260    -1.0090 H     1 <1>   0.0800 
 38 H       -9.5400    -3.0860    -1.5160 H     1 <1>   0.0800 
 39 H       -9.0870    -1.8160    -2.6170 H     1 <1>   0.0800 
 40 H      -13.6830    -0.8920    -2.4390 H     1 <1>   0.1500 
 41 H      -14.4190     0.1590     2.2980 H     1 <1>   0.1500 
 42 H      -11.2020    -0.9500     1.7890 H     1 <1>   0.0800 
 43 H      -12.1450    -2.4130     1.9210 H     1 <1>   0.0800 
 44 H      -12.5090    -1.0450     2.9390 H     1 <1>   0.0800 
 45 H      -15.6330     0.4470    -1.7660 H     1 <1>   0.1500 
 46 H      -15.9910     0.9760     0.6110 H     1 <1>   0.1500 
@<TRIPOS>BOND
  1   1   2  1   
  2   2   3  ar  
  3   2   4  ar  
  4   3   5  1   
  5   3   6  ar  
  6   4   7  ar  
  7   4  27  1   
  8   6   8  ar  
  9   6  28  1   
 10   7   8  ar  
 11   7   9  1   
 12   8  29  1   
 13   9  10  am  
 14   9  30  1   
 15  10  11  2   
 16  10  12  1   
 17  12  13  1   
 18  12  14  1   
 19  12  31  1   
 20  13  15  1   
 21  13  32  1   
 22  13  33  1   
 23  14  16  1   
 24  14  34  1   
 25  14  35  1   
 26  15  17  1   
 27  15  36  1   
 28  15  37  1   
 29  16  17  1   
 30  16  38  1   
 31  16  39  1   
 32  17  18  am  
 33  18  19  2   
 34  18  20  1   
 35  20  21  ar  
 36  20  22  ar  
 37  21  23  ar  
 38  21  24  1   
 39  22  25  ar  
 40  22  40  1   
 41  23  26  ar  
 42  23  41  1   
 43  24  42  1   
 44  24  43  1   
 45  24  44  1   
 46  25  26  ar  
 47  25  45  1   
 48  26  46  1   
@<TRIPOS>SUBSTRUCTURE
  1 ****  12 GROUP 4 **** **** 0

# MOE 2024.06 (io_trps.svl 2023.06)
