@<TRIPOS>MOLECULE
NONAME
48 50 1 0 0 
SMALL
USER_CHARGES


@<TRIPOS>ATOM
  1 S       -0.4670     0.5380     1.3320 S.o2  1 <1>   1.3330 
  2 O       -1.5870     0.0210     0.5810 O.2   1 <1>  -0.6500 
  3 O        0.3550    -0.3420     2.1280 O.2   1 <1>  -0.6500 
  4 N        0.5500     1.3600     0.2530 N.am  1 <1>  -0.8490 
  5 C       -1.0900     1.8150     2.4100 C.3   1 <1>  -0.1350 
  6 C        1.7330     1.9650     0.8770 C.3   1 <1>   0.1960 
  7 C       -0.1430     2.2530    -0.6790 C.3   1 <1>   0.1960 
  8 C        2.7450     2.3950    -0.1930 C.3   1 <1>  -0.0190 
  9 C        0.8160     2.6990    -1.7880 C.3   1 <1>  -0.1600 
 10 C        3.9520     3.0480     0.4630 C.2   1 <1>   0.5690 
 11 C        2.0890     3.3390    -1.2180 C.3   1 <1>  -0.1600 
 12 O        3.7670     3.8370     1.3580 O.2   1 <1>  -0.5700 
 13 N        5.1890     2.7060    -0.0070 N.am  1 <1>  -0.5470 
 14 C        6.4940     3.1070     0.3430 C.ar  1 <1>   0.1170 
 15 C        7.5820     2.4430    -0.2250 C.ar  1 <1>   0.1010 
 16 C        6.7690     4.1410     1.2340 C.ar  1 <1>  -0.1500 
 17 S        7.2730     1.1000    -1.3970 S.3   1 <1>  -0.2030 
 18 C        8.8900     2.7920     0.0670 C.ar  1 <1>  -0.1500 
 19 C        8.0740     4.4920     1.5400 C.ar  1 <1>  -0.1500 
 20 C        8.4720    -0.1920    -1.0340 C.ar  1 <1>   0.1010 
 21 C        9.1360     3.8210     0.9580 C.ar  1 <1>  -0.1500 
 22 C        8.9420    -0.3840     0.2560 C.ar  1 <1>  -0.1500 
 23 C        8.8950    -0.9990    -2.0750 C.ar  1 <1>  -0.1500 
 24 C        9.8630    -1.3890     0.4990 C.ar  1 <1>  -0.1500 
 25 C        9.8160    -2.0030    -1.8260 C.ar  1 <1>  -0.1500 
 26 C       10.2990    -2.1950    -0.5410 C.ar  1 <1>  -0.1500 
 27 H       -1.7560     1.3830     3.1300 H     1 <1>   0.0800 
 28 H       -1.6280     2.5520     1.8490 H     1 <1>   0.0800 
 29 H       -0.2860     2.2890     2.9360 H     1 <1>   0.0800 
 30 H        2.2060     1.2490     1.5310 H     1 <1>   0.0800 
 31 H        1.4390     2.8170     1.4670 H     1 <1>   0.0800 
 32 H       -0.5190     3.1140    -0.1530 H     1 <1>   0.0800 
 33 H       -0.9750     1.7360    -1.1290 H     1 <1>   0.0800 
 34 H        3.0710     1.5040    -0.6980 H     1 <1>   0.0800 
 35 H        0.3140     3.3990    -2.4310 H     1 <1>   0.0800 
 36 H        1.0750     1.8390    -2.3820 H     1 <1>   0.0800 
 37 H        2.7800     3.5540    -2.0150 H     1 <1>   0.0800 
 38 H        1.8370     4.2690    -0.7370 H     1 <1>   0.0800 
 39 H        5.1870     1.9970    -0.7420 H     1 <1>   0.3700 
 40 H        5.9690     4.6860     1.6980 H     1 <1>   0.1500 
 41 H        9.7080     2.2720    -0.3990 H     1 <1>   0.1500 
 42 H        8.2610     5.2940     2.2330 H     1 <1>   0.1500 
 43 H       10.1480     4.1010     1.1960 H     1 <1>   0.1500 
 44 H        8.5910     0.2330     1.0640 H     1 <1>   0.1500 
 45 H        8.5120    -0.8410    -3.0670 H     1 <1>   0.1500 
 46 H       10.2370    -1.5460     1.4950 H     1 <1>   0.1500 
 47 H       10.1550    -2.6340    -2.6290 H     1 <1>   0.1500 
 48 H       11.0150    -2.9750    -0.3490 H     1 <1>   0.1500 
@<TRIPOS>BOND
  1   1   2  2   
  2   1   3  2   
  3   1   4  am  
  4   1   5  1   
  5   4   6  1   
  6   4   7  1   
  7   5  27  1   
  8   5  28  1   
  9   5  29  1   
 10   6   8  1   
 11   6  30  1   
 12   6  31  1   
 13   7   9  1   
 14   7  32  1   
 15   7  33  1   
 16   8  10  1   
 17   8  11  1   
 18   8  34  1   
 19   9  11  1   
 20   9  35  1   
 21   9  36  1   
 22  10  12  2   
 23  10  13  am  
 24  11  37  1   
 25  11  38  1   
 26  13  14  1   
 27  13  39  1   
 28  14  15  ar  
 29  14  16  ar  
 30  15  17  1   
 31  15  18  ar  
 32  16  19  ar  
 33  16  40  1   
 34  17  20  1   
 35  18  21  ar  
 36  18  41  1   
 37  19  21  ar  
 38  19  42  1   
 39  20  22  ar  
 40  20  23  ar  
 41  21  43  1   
 42  22  24  ar  
 43  22  44  1   
 44  23  25  ar  
 45  23  45  1   
 46  24  26  ar  
 47  24  46  1   
 48  25  26  ar  
 49  25  47  1   
 50  26  48  1   
@<TRIPOS>SUBSTRUCTURE
  1 ****  13 GROUP 4 **** **** 0

# MOE 2024.06 (io_trps.svl 2023.06)
