@<TRIPOS>MOLECULE
NONAME
39 40 1 0 0 
SMALL
USER_CHARGES


@<TRIPOS>ATOM
  1 O       -1.1020    -4.6770    -3.1580 O.2   1 <1>  -0.5700 
  2 C       -0.7940    -4.2200    -2.0830 C.2   1 <1>   0.5690 
  3 N       -1.7130    -4.1740    -1.0550 N.am  1 <1>  -0.6600 
  4 C        0.6290    -3.6770    -1.9420 C.3   1 <1>   0.1810 
  5 C       -1.4830    -3.4980     0.2620 C.3   1 <1>   0.1400 
  6 C       -3.0120    -4.9110    -1.1680 C.3   1 <1>   0.1400 
  7 O        1.2440    -4.1390    -0.7480 O.3   1 <1>  -0.3620 
  8 C       -2.7050    -2.6600     0.6920 C.3   1 <1>   0.3430 
  9 C       -4.1980    -4.0290    -0.7390 C.3   1 <1>   0.3430 
 10 C        2.4720    -3.7020    -0.3650 C.ar  1 <1>   0.0820 
 11 N       -3.9920    -3.4410     0.6320 N.4   1 <1>  -0.9590 
 12 C        2.9830    -4.1910     0.8350 C.ar  1 <1>  -0.1440 
 13 C        3.2220    -2.7980    -1.1160 C.ar  1 <1>  -0.1500 
 14 C       -5.1570    -2.5940     1.0320 C.3   1 <1>   0.2630 
 15 C        4.2240    -3.7600     1.2770 C.ar  1 <1>  -0.1500 
 16 C        2.1990    -5.1970     1.6660 C.3   1 <1>  -0.0970 
 17 C        4.4600    -2.3770    -0.6650 C.ar  1 <1>  -0.1500 
 18 C        4.9600    -2.8560     0.5320 C.ar  1 <1>  -0.1500 
 19 H        0.5990    -2.6050    -1.9220 H     1 <1>   0.0800 
 20 H        1.2240    -4.0110    -2.7730 H     1 <1>   0.0800 
 21 H       -0.6320    -2.8430     0.2090 H     1 <1>   0.0800 
 22 H       -1.2710    -4.2450     1.0080 H     1 <1>   0.0800 
 23 H       -2.9720    -5.7920    -0.5510 H     1 <1>   0.0800 
 24 H       -3.1770    -5.2380    -2.1800 H     1 <1>   0.0800 
 25 H       -2.7740    -1.8060     0.0390 H     1 <1>   0.0800 
 26 H       -2.5440    -2.2950     1.6930 H     1 <1>   0.0800 
 27 H       -5.0980    -4.6210    -0.7550 H     1 <1>   0.0800 
 28 H       -4.3100    -3.2380    -1.4620 H     1 <1>   0.0800 
 29 H       -3.9100    -4.2270     1.2950 H     1 <1>   0.4500 
 30 H        2.8690    -2.4100    -2.0520 H     1 <1>   0.1500 
 31 H       -5.2690    -1.7640     0.3530 H     1 <1>   0.0800 
 32 H       -5.0150    -2.2070     2.0290 H     1 <1>   0.0800 
 33 H       -6.0660    -3.1750     1.0180 H     1 <1>   0.0800 
 34 H        4.6280    -4.1280     2.2030 H     1 <1>   0.1500 
 35 H        1.9420    -6.0470     1.0590 H     1 <1>   0.0800 
 36 H        1.2970    -4.7440     2.0320 H     1 <1>   0.0800 
 37 H        2.7780    -5.5410     2.5040 H     1 <1>   0.0800 
 38 H        5.0370    -1.6780    -1.2450 H     1 <1>   0.1500 
 39 H        5.9230    -2.5280     0.8830 H     1 <1>   0.1500 
@<TRIPOS>BOND
  1   1   2  2   
  2   2   3  am  
  3   2   4  1   
  4   3   5  1   
  5   3   6  1   
  6   4   7  1   
  7   4  19  1   
  8   4  20  1   
  9   5   8  1   
 10   5  21  1   
 11   5  22  1   
 12   6   9  1   
 13   6  23  1   
 14   6  24  1   
 15   7  10  1   
 16   8  11  1   
 17   8  25  1   
 18   8  26  1   
 19   9  11  1   
 20   9  27  1   
 21   9  28  1   
 22  10  12  ar  
 23  10  13  ar  
 24  11  14  1   
 25  11  29  1   
 26  12  15  ar  
 27  12  16  1   
 28  13  17  ar  
 29  13  30  1   
 30  14  31  1   
 31  14  32  1   
 32  14  33  1   
 33  15  18  ar  
 34  15  34  1   
 35  16  35  1   
 36  16  36  1   
 37  16  37  1   
 38  17  18  ar  
 39  17  38  1   
 40  18  39  1   
@<TRIPOS>SUBSTRUCTURE
  1 ****   7 GROUP 4 **** **** 0

# MOE 2024.06 (io_trps.svl 2023.06)
