@<TRIPOS>MOLECULE
NONAME
50 52 1 0 0 
SMALL
USER_CHARGES


@<TRIPOS>ATOM
  1 S        0.1240     0.5360    -2.3400 S.o2  1 <1>   1.4470 
  2 O       -0.6870     1.6900    -2.6690 O.2   1 <1>  -0.6500 
  3 O        0.5870    -0.3320    -3.4000 O.2   1 <1>  -0.6500 
  4 N        1.4990     1.1260    -1.5410 N.am  1 <1>  -0.8490 
  5 C       -0.6870    -0.4650    -1.0620 C.ar  1 <1>  -0.0090 
  6 C        1.1550     2.1250    -0.5250 C.3   1 <1>   0.1960 
  7 C        2.4810     1.6550    -2.4920 C.3   1 <1>   0.1960 
  8 C       -1.9890    -0.2020    -0.6530 C.ar  1 <1>  -0.1500 
  9 C       -0.0140    -1.5180    -0.4520 C.ar  1 <1>  -0.1500 
 10 C        2.3970     2.4900     0.2890 C.3   1 <1>  -0.1600 
 11 C        3.7770     2.0150    -1.7620 C.3   1 <1>  -0.1600 
 12 C       -2.5950    -0.9600     0.3340 C.ar  1 <1>  -0.1500 
 13 C       -0.6110    -2.2830     0.5350 C.ar  1 <1>  -0.1500 
 14 C        3.5180     3.0180    -0.6240 C.3   1 <1>  -0.0190 
 15 C       -1.9130    -2.0030     0.9360 C.ar  1 <1>   0.0830 
 16 C        4.7870     3.3400     0.1580 C.2   1 <1>   0.5690 
 17 O       -2.5730    -2.6950     1.8950 O.3   1 <1>  -0.3630 
 18 O        5.1940     4.4760     0.1710 O.2   1 <1>  -0.5700 
 19 N        5.4300     2.3500     0.8190 N.am  1 <1>  -0.7300 
 20 C       -1.9800    -3.7940     2.5510 C.3   1 <1>   0.0400 
 21 C        6.7040     2.4950     1.5550 C.3   1 <1>   0.2840 
 22 C        7.6160     1.3140     1.2420 C.ar  1 <1>   0.1670 
 23 N        7.1560     0.1050     1.5470 N.ar  1 <1>  -0.6200 
 24 C        8.8550     1.5460     0.6620 C.ar  1 <1>  -0.1500 
 25 C        7.9680    -0.9040     1.2700 C.ar  1 <1>   0.1600 
 26 C        9.6880     0.4850     0.3780 C.ar  1 <1>  -0.1500 
 27 C        9.2210    -0.7720     0.6960 C.ar  1 <1>  -0.1500 
 28 H        0.4080     1.7270     0.1420 H     1 <1>   0.0800 
 29 H        0.7500     3.0070    -0.9950 H     1 <1>   0.0800 
 30 H        2.0780     2.5210    -2.9920 H     1 <1>   0.0800 
 31 H        2.7050     0.9110    -3.2390 H     1 <1>   0.0800 
 32 H       -2.5370     0.6050    -1.1100 H     1 <1>   0.1500 
 33 H        0.9960    -1.7370    -0.7590 H     1 <1>   0.1500 
 34 H        2.7280     1.6170     0.8230 H     1 <1>   0.0800 
 35 H        2.1410     3.2430     1.0130 H     1 <1>   0.0800 
 36 H        4.4740     2.4390    -2.4630 H     1 <1>   0.0800 
 37 H        4.2120     1.1110    -1.3730 H     1 <1>   0.0800 
 38 H       -3.6030    -0.7480     0.6440 H     1 <1>   0.1500 
 39 H       -0.0510    -3.0850     0.9760 H     1 <1>   0.1500 
 40 H        3.1770     3.9370    -1.0670 H     1 <1>   0.0800 
 41 H        5.1190     1.3770     0.7570 H     1 <1>   0.3700 
 42 H       -2.6910    -4.1840     3.2570 H     1 <1>   0.0800 
 43 H       -1.0980    -3.4580     3.0670 H     1 <1>   0.0800 
 44 H       -1.7390    -4.5470     1.8220 H     1 <1>   0.0800 
 45 H        6.4990     2.5090     2.6110 H     1 <1>   0.0800 
 46 H        7.1800     3.4230     1.2880 H     1 <1>   0.0800 
 47 H        9.1680     2.5480     0.4300 H     1 <1>   0.1500 
 48 H        7.6160    -1.8920     1.5140 H     1 <1>   0.1500 
 49 H       10.6550     0.6310    -0.0710 H     1 <1>   0.1500 
 50 H        9.8200    -1.6430     0.5030 H     1 <1>   0.1500 
@<TRIPOS>BOND
  1   1   2  2   
  2   1   3  2   
  3   1   4  am  
  4   1   5  1   
  5   4   6  1   
  6   4   7  1   
  7   5   8  ar  
  8   5   9  ar  
  9   6  10  1   
 10   6  28  1   
 11   6  29  1   
 12   7  11  1   
 13   7  30  1   
 14   7  31  1   
 15   8  12  ar  
 16   8  32  1   
 17   9  13  ar  
 18   9  33  1   
 19  10  14  1   
 20  10  34  1   
 21  10  35  1   
 22  11  14  1   
 23  11  36  1   
 24  11  37  1   
 25  12  15  ar  
 26  12  38  1   
 27  13  15  ar  
 28  13  39  1   
 29  14  16  1   
 30  14  40  1   
 31  15  17  1   
 32  16  18  2   
 33  16  19  am  
 34  17  20  1   
 35  19  21  1   
 36  19  41  1   
 37  20  42  1   
 38  20  43  1   
 39  20  44  1   
 40  21  22  1   
 41  21  45  1   
 42  21  46  1   
 43  22  23  ar  
 44  22  24  ar  
 45  23  25  ar  
 46  24  26  ar  
 47  24  47  1   
 48  25  27  ar  
 49  25  48  1   
 50  26  27  ar  
 51  26  49  1   
 52  27  50  1   
@<TRIPOS>SUBSTRUCTURE
  1 ****  10 GROUP 4 **** **** 0

# MOE 2024.06 (io_trps.svl 2023.06)
