@<TRIPOS>MOLECULE
NONAME
34 37 1 0 0 
SMALL
USER_CHARGES


@<TRIPOS>ATOM
  1 F       -1.0010    -1.5840     1.8990 F     1 <1>  -0.1900 
  2 C       -0.4370    -2.0300     0.8030 C.ar  1 <1>   0.1900 
  3 C       -1.0830    -1.8500    -0.4180 C.ar  1 <1>   0.1170 
  4 C        0.7800    -2.6730     0.9170 C.ar  1 <1>  -0.1500 
  5 N       -2.3200    -1.1850    -0.5160 N.am  1 <1>  -0.2370 
  6 C       -0.4600    -2.3590    -1.5520 C.ar  1 <1>  -0.1500 
  7 C        1.3830    -3.1660    -0.2280 C.ar  1 <1>  -0.1500 
  8 C       -3.5330    -1.7890    -0.7850 C.2   1 <1>   0.5690 
  9 C       -2.5330     0.1450    -0.2050 C.2   1 <1>   0.5690 
 10 C        0.7610    -3.0090    -1.4580 C.ar  1 <1>  -0.1500 
 11 O       -3.7630    -2.9650    -0.9010 O.2   1 <1>  -0.5700 
 12 C       -4.5510    -0.6950    -0.9560 C.3   1 <1>  -0.0190 
 13 O       -1.7150     1.0240    -0.1250 O.2   1 <1>  -0.5700 
 14 C       -4.0050     0.3110     0.0600 C.3   1 <1>  -0.0190 
 15 C       -6.1000    -0.6350    -0.9320 C.3   1 <1>   0.0580 
 16 C       -4.9620     1.5330     0.1310 C.3   1 <1>   0.0580 
 17 C       -6.3310     0.6730    -1.6950 C.2   1 <1>  -0.2880 
 18 C       -6.6430    -0.3570     0.5000 C.3   1 <1>  -0.1600 
 19 C       -5.7050     1.7480    -1.1930 C.2   1 <1>  -0.2880 
 20 C       -6.1150     1.0200     1.0410 C.3   1 <1>  -0.1600 
 21 H        1.2430    -2.7860     1.8810 H     1 <1>   0.1500 
 22 H       -0.9320    -2.2470    -2.5130 H     1 <1>   0.1500 
 23 H        2.3330    -3.6710    -0.1640 H     1 <1>   0.1500 
 24 H        1.2310    -3.3960    -2.3460 H     1 <1>   0.1500 
 25 H       -4.2870    -0.3500    -1.9450 H     1 <1>   0.0800 
 26 H       -4.0600    -0.1350     1.0410 H     1 <1>   0.0800 
 27 H       -6.5530    -1.4850    -1.4140 H     1 <1>   0.0800 
 28 H       -4.4950     2.4220     0.5190 H     1 <1>   0.0800 
 29 H       -6.9440     0.6280    -2.5800 H     1 <1>   0.1500 
 30 H       -6.3430    -1.1560     1.1560 H     1 <1>   0.0800 
 31 H       -7.7190    -0.3390     0.4770 H     1 <1>   0.0800 
 32 H       -5.7050     2.7470    -1.5960 H     1 <1>   0.1500 
 33 H       -6.9160     1.7400     1.0340 H     1 <1>   0.0800 
 34 H       -5.7870     0.9190     2.0610 H     1 <1>   0.0800 
@<TRIPOS>BOND
  1   1   2  1   
  2   2   3  ar  
  3   2   4  ar  
  4   3   5  1   
  5   3   6  ar  
  6   4   7  ar  
  7   4  21  1   
  8   5   8  am  
  9   5   9  am  
 10   6  10  ar  
 11   6  22  1   
 12   7  10  ar  
 13   7  23  1   
 14   8  11  2   
 15   8  12  1   
 16   9  13  2   
 17   9  14  1   
 18  10  24  1   
 19  12  14  1   
 20  12  15  1   
 21  12  25  1   
 22  14  16  1   
 23  14  26  1   
 24  15  17  1   
 25  15  18  1   
 26  15  27  1   
 27  16  19  1   
 28  16  20  1   
 29  16  28  1   
 30  17  19  2   
 31  17  29  1   
 32  18  20  1   
 33  18  30  1   
 34  18  31  1   
 35  19  32  1   
 36  20  33  1   
 37  20  34  1   
@<TRIPOS>SUBSTRUCTURE
  1 ****   5 GROUP 4 **** **** 0

# MOE 2024.06 (io_trps.svl 2023.06)
