@<TRIPOS>MOLECULE
NONAME
41 44 1 0 0 
SMALL
USER_CHARGES


@<TRIPOS>ATOM
  1 S       -6.3120     1.8210    -1.9790 S.3   1 <1>  -0.0800 
  2 C       -6.0840     0.3300    -1.0960 C.2   1 <1>   0.1980 
  3 C       -4.9020     2.4650    -1.1980 C.2   1 <1>  -0.1100 
  4 N       -5.0720     0.3370    -0.3270 N.2   1 <1>  -0.5650 
  5 C       -7.0950    -0.7840    -1.3400 C.3   1 <1>   0.1000 
  6 C       -4.3730     1.5460    -0.3610 C.2   1 <1>   0.1730 
  7 C       -8.2280    -0.8320    -0.2790 C.3   1 <1>   0.2800 
  8 C       -6.4330    -2.1590    -1.2190 C.3   1 <1>  -0.0990 
  9 C       -3.1910     1.7100     0.4700 C.ar  1 <1>   0.0540 
 10 O       -7.8070    -1.8180     0.6330 O.3   1 <1>  -0.4300 
 11 C       -9.5490    -1.3300    -0.9080 C.3   1 <1>  -0.1600 
 12 C       -8.4740     0.4720     0.5110 C.3   1 <1>  -0.1600 
 13 C       -6.8430    -2.5790     0.1610 C.2   1 <1>   0.6590 
 14 C       -2.9510     0.8840     1.5690 C.ar  1 <1>  -0.1500 
 15 C       -2.2490     2.7040     0.2020 C.ar  1 <1>  -0.1500 
 16 C      -10.6910    -1.4540     0.1140 C.3   1 <1>  -0.1600 
 17 C       -9.6220     0.3480     1.5260 C.3   1 <1>  -0.1600 
 18 O       -6.3830    -3.5160     0.7520 O.2   1 <1>  -0.5700 
 19 C       -1.8310     1.0430     2.3640 C.ar  1 <1>  -0.1500 
 20 C       -1.1260     2.8690     0.9940 C.ar  1 <1>  -0.1500 
 21 C      -10.9140    -0.1300     0.8540 C.3   1 <1>  -0.1600 
 22 C       -0.9150     2.0380     2.0780 C.ar  1 <1>  -0.1500 
 23 H       -4.6110     3.4690    -1.4400 H     1 <1>   0.1500 
 24 H       -7.4970    -0.6520    -2.3280 H     1 <1>   0.0800 
 25 H       -5.3620    -2.1290    -1.3110 H     1 <1>   0.0800 
 26 H       -6.8430    -2.8520    -1.9280 H     1 <1>   0.0800 
 27 H       -9.3980    -2.2810    -1.3870 H     1 <1>   0.0800 
 28 H       -9.8540    -0.6320    -1.6680 H     1 <1>   0.0800 
 29 H       -8.7140     1.2610    -0.1790 H     1 <1>   0.0800 
 30 H       -7.5800     0.7570     1.0380 H     1 <1>   0.0800 
 31 H       -3.6540     0.1040     1.8050 H     1 <1>   0.1500 
 32 H       -2.3880     3.3570    -0.6390 H     1 <1>   0.1500 
 33 H      -10.4500    -2.2240     0.8280 H     1 <1>   0.0800 
 34 H      -11.5980    -1.7440    -0.3880 H     1 <1>   0.0800 
 35 H       -9.7910     1.3000     1.9980 H     1 <1>   0.0800 
 36 H       -9.3420    -0.3530     2.2960 H     1 <1>   0.0800 
 37 H       -1.6730     0.3900     3.2050 H     1 <1>   0.1500 
 38 H       -0.4150     3.6440     0.7660 H     1 <1>   0.1500 
 39 H      -11.6790    -0.2620     1.6000 H     1 <1>   0.0800 
 40 H      -11.2560     0.6180     0.1600 H     1 <1>   0.0800 
 41 H       -0.0430     2.1640     2.6960 H     1 <1>   0.1500 
@<TRIPOS>BOND
  1   1   2  1   
  2   1   3  1   
  3   2   4  2   
  4   2   5  1   
  5   3   6  2   
  6   3  23  1   
  7   4   6  1   
  8   5   7  1   
  9   5   8  1   
 10   5  24  1   
 11   6   9  1   
 12   7  10  1   
 13   7  11  1   
 14   7  12  1   
 15   8  13  1   
 16   8  25  1   
 17   8  26  1   
 18   9  14  ar  
 19   9  15  ar  
 20  10  13  1   
 21  11  16  1   
 22  11  27  1   
 23  11  28  1   
 24  12  17  1   
 25  12  29  1   
 26  12  30  1   
 27  13  18  2   
 28  14  19  ar  
 29  14  31  1   
 30  15  20  ar  
 31  15  32  1   
 32  16  21  1   
 33  16  33  1   
 34  16  34  1   
 35  17  21  1   
 36  17  35  1   
 37  17  36  1   
 38  19  22  ar  
 39  19  37  1   
 40  20  22  ar  
 41  20  38  1   
 42  21  39  1   
 43  21  40  1   
 44  22  41  1   
@<TRIPOS>SUBSTRUCTURE
  1 ****   4 GROUP 4 **** **** 0

# MOE 2024.06 (io_trps.svl 2023.06)
