@<TRIPOS>MOLECULE
NONAME
44 46 1 0 0 
SMALL
USER_CHARGES


@<TRIPOS>ATOM
  1 S        0.0900     0.4470     0.3430 S.o2  1 <1>   1.3330 
  2 O       -0.6480     1.6380     0.6810 O.2   1 <1>  -0.6500 
  3 O       -0.1810    -0.8130     0.9900 O.2   1 <1>  -0.6500 
  4 N        1.7240     0.8680     0.6570 N.am  1 <1>  -0.7570 
  5 C        0.0880     0.2450    -1.4440 C.3   1 <1>  -0.0550 
  6 C        2.8840     0.1030     0.6060 C.ar  1 <1>   0.1990 
  7 C       -1.2860    -0.1050    -2.0420 C.3   1 <1>  -0.2400 
  8 C        4.1070     0.7410     0.7500 C.ar  1 <1>  -0.1500 
  9 C        2.8780    -1.2740     0.4130 C.ar  1 <1>  -0.1500 
 10 C        5.3250     0.0620     0.7040 C.ar  1 <1>   0.0860 
 11 C        4.0640    -1.9790     0.3610 C.ar  1 <1>  -0.1500 
 12 C        6.5690     0.7850     0.8600 C.2   1 <1>   0.3030 
 13 C        5.2710    -1.3210     0.5040 C.ar  1 <1>  -0.1500 
 14 N        6.6870     2.0420     1.0090 N.2   1 <1>  -0.5120 
 15 C        7.9050     0.0770     0.8720 C.3   1 <1>  -0.0990 
 16 N        8.0070     2.4100     1.1270 N.am  1 <1>  -0.2980 
 17 C        8.8920     1.2350     0.9820 C.3   1 <1>   0.4000 
 18 C        8.4650     3.6940     1.3930 C.2   1 <1>   0.5690 
 19 C        9.7530     1.3300    -0.2700 C.2   1 <1>  -0.1400 
 20 O        7.7380     4.6560     1.4400 O.2   1 <1>  -0.5700 
 21 C        9.9370     3.9440     1.6590 C.3   1 <1>  -0.1790 
 22 S       11.1450     0.2610    -0.3560 S.3   1 <1>  -0.0800 
 23 C        9.6750     2.0890    -1.3810 C.2   1 <1>  -0.1500 
 24 C       11.5910     0.8930    -1.9310 C.2   1 <1>  -0.1100 
 25 C       10.7210     1.8410    -2.3260 C.2   1 <1>  -0.1500 
 26 H        1.7840     1.8350     0.9670 H     1 <1>   0.4200 
 27 H        0.7810    -0.5310    -1.7060 H     1 <1>   0.0800 
 28 H        0.4350     1.1540    -1.8950 H     1 <1>   0.0800 
 29 H       -1.6470    -1.0290    -1.6260 H     1 <1>   0.0800 
 30 H       -1.2120    -0.2100    -3.1100 H     1 <1>   0.0800 
 31 H       -1.9960     0.6730    -1.8190 H     1 <1>   0.0800 
 32 H        4.1170     1.8050     0.9030 H     1 <1>   0.1500 
 33 H        1.9520    -1.8100     0.3110 H     1 <1>   0.1500 
 34 H        4.0450    -3.0460     0.2120 H     1 <1>   0.1500 
 35 H        6.1750    -1.9010     0.4590 H     1 <1>   0.1500 
 36 H        8.0570    -0.4820    -0.0330 H     1 <1>   0.0800 
 37 H        7.9880    -0.5700     1.7250 H     1 <1>   0.0800 
 38 H        9.5030     1.1330     1.8610 H     1 <1>   0.0800 
 39 H       10.2980     3.2850     2.4250 H     1 <1>   0.0800 
 40 H       10.0730     4.9560     1.9930 H     1 <1>   0.0800 
 41 H       10.5050     3.8070     0.7590 H     1 <1>   0.0800 
 42 H        8.9120     2.8240    -1.5830 H     1 <1>   0.1500 
 43 H       12.4670     0.4830    -2.4010 H     1 <1>   0.1500 
 44 H       10.7670     2.3870    -3.2530 H     1 <1>   0.1500 
@<TRIPOS>BOND
  1   1   2  2   
  2   1   3  2   
  3   1   4  am  
  4   1   5  1   
  5   4   6  1   
  6   4  26  1   
  7   5   7  1   
  8   5  27  1   
  9   5  28  1   
 10   6   8  ar  
 11   6   9  ar  
 12   7  29  1   
 13   7  30  1   
 14   7  31  1   
 15   8  10  ar  
 16   8  32  1   
 17   9  11  ar  
 18   9  33  1   
 19  10  12  1   
 20  10  13  ar  
 21  11  13  ar  
 22  11  34  1   
 23  12  14  2   
 24  12  15  1   
 25  13  35  1   
 26  14  16  1   
 27  15  17  1   
 28  15  36  1   
 29  15  37  1   
 30  16  17  1   
 31  16  18  am  
 32  17  19  1   
 33  17  38  1   
 34  18  20  2   
 35  18  21  1   
 36  19  22  1   
 37  19  23  2   
 38  21  39  1   
 39  21  40  1   
 40  21  41  1   
 41  22  24  1   
 42  23  25  1   
 43  23  42  1   
 44  24  25  2   
 45  24  43  1   
 46  25  44  1   
@<TRIPOS>SUBSTRUCTURE
  1 ****  10 GROUP 4 **** **** 0

# MOE 2024.06 (io_trps.svl 2023.06)
