@<TRIPOS>MOLECULE
NONAME
48 49 1 0 0 
SMALL
USER_CHARGES


@<TRIPOS>ATOM
  1 S       -0.0110     0.4060    -0.8750 S.o2  1 <1>   1.4470 
  2 O       -0.4210     0.7800    -2.2090 O.2   1 <1>  -0.6500 
  3 O       -0.5240    -0.8010    -0.2660 O.2   1 <1>  -0.6500 
  4 N       -0.5280     1.6880     0.0710 N.am  1 <1>  -0.9140 
  5 C        1.7930     0.4700    -0.7110 C.ar  1 <1>  -0.0090 
  6 C       -1.9350     1.5880     0.4240 C.3   1 <1>   0.1960 
  7 C        2.4040     0.2760     0.5220 C.ar  1 <1>  -0.1500 
  8 C        2.6150     0.7190    -1.8040 C.ar  1 <1>  -0.1500 
  9 C       -2.4060     2.8860     1.0990 C.3   1 <1>  -0.0800 
 10 C        3.7800     0.3300     0.6600 C.ar  1 <1>  -0.1500 
 11 C        3.9900     0.7730    -1.6710 C.ar  1 <1>  -0.1500 
 12 C       -3.8650     2.7400     1.5530 C.3   1 <1>  -0.2400 
 13 C       -2.2790     4.1070     0.1730 C.3   1 <1>  -0.2400 
 14 C        4.5960     0.5830    -0.4340 C.ar  1 <1>   0.1170 
 15 N        5.9840     0.6170    -0.2570 N.am  1 <1>  -0.5470 
 16 C        6.9640     1.2560    -0.9620 C.2   1 <1>   0.6900 
 17 O        6.6860     2.0580    -1.8330 O.2   1 <1>  -0.5700 
 18 N        8.2740     1.0010    -0.6430 N.am  1 <1>  -0.6600 
 19 C        8.7590    -0.2600    -0.0180 C.3   1 <1>   0.1400 
 20 C        9.3610     1.9160    -1.0860 C.3   1 <1>   0.1400 
 21 C        9.6300     0.0740     1.1980 C.3   1 <1>  -0.1600 
 22 C       10.2550     2.2660     0.1090 C.3   1 <1>  -0.1600 
 23 C       10.7860     1.0090     0.8150 C.3   1 <1>  -0.1600 
 24 H       -0.4490     2.4890    -0.5520 H     1 <1>   0.4200 
 25 H       -2.0730     0.7590     1.0990 H     1 <1>   0.0800 
 26 H       -2.5240     1.4050    -0.4610 H     1 <1>   0.0800 
 27 H        1.7880     0.0820     1.3850 H     1 <1>   0.1500 
 28 H        2.1750     0.8730    -2.7760 H     1 <1>   0.1500 
 29 H       -1.8010     3.0470     1.9760 H     1 <1>   0.0800 
 30 H        4.2200     0.1780     1.6290 H     1 <1>   0.1500 
 31 H        4.5980     0.9640    -2.5380 H     1 <1>   0.1500 
 32 H       -4.5120     2.5790     0.7090 H     1 <1>   0.0800 
 33 H       -4.1870     3.6280     2.0670 H     1 <1>   0.0800 
 34 H       -3.9650     1.9080     2.2280 H     1 <1>   0.0800 
 35 H       -2.8290     3.9520    -0.7390 H     1 <1>   0.0800 
 36 H       -1.2490     4.2990    -0.0700 H     1 <1>   0.0800 
 37 H       -2.6680     4.9840     0.6600 H     1 <1>   0.0800 
 38 H        6.3350     0.2190     0.6060 H     1 <1>   0.3700 
 39 H        9.3450    -0.8000    -0.7420 H     1 <1>   0.0800 
 40 H        7.9400    -0.8920     0.2770 H     1 <1>   0.0800 
 41 H        8.9500     2.8210    -1.5020 H     1 <1>   0.0800 
 42 H        9.9400     1.4290    -1.8520 H     1 <1>   0.0800 
 43 H       10.0250    -0.8350     1.6140 H     1 <1>   0.0800 
 44 H        9.0180     0.5420     1.9500 H     1 <1>   0.0800 
 45 H        9.6840     2.8580     0.8030 H     1 <1>   0.0800 
 46 H       11.0800     2.8670    -0.2300 H     1 <1>   0.0800 
 47 H       11.4620     0.4910     0.1560 H     1 <1>   0.0800 
 48 H       11.3350     1.2920     1.6980 H     1 <1>   0.0800 
@<TRIPOS>BOND
  1   1   2  2   
  2   1   3  2   
  3   1   4  am  
  4   1   5  1   
  5   4   6  1   
  6   4  24  1   
  7   5   7  ar  
  8   5   8  ar  
  9   6   9  1   
 10   6  25  1   
 11   6  26  1   
 12   7  10  ar  
 13   7  27  1   
 14   8  11  ar  
 15   8  28  1   
 16   9  12  1   
 17   9  13  1   
 18   9  29  1   
 19  10  14  ar  
 20  10  30  1   
 21  11  14  ar  
 22  11  31  1   
 23  12  32  1   
 24  12  33  1   
 25  12  34  1   
 26  13  35  1   
 27  13  36  1   
 28  13  37  1   
 29  14  15  1   
 30  15  16  am  
 31  15  38  1   
 32  16  17  2   
 33  16  18  am  
 34  18  19  1   
 35  18  20  1   
 36  19  21  1   
 37  19  39  1   
 38  19  40  1   
 39  20  22  1   
 40  20  41  1   
 41  20  42  1   
 42  21  23  1   
 43  21  43  1   
 44  21  44  1   
 45  22  23  1   
 46  22  45  1   
 47  22  46  1   
 48  23  47  1   
 49  23  48  1   
@<TRIPOS>SUBSTRUCTURE
  1 ****  14 GROUP 4 **** **** 0

# MOE 2024.06 (io_trps.svl 2023.06)
