@<TRIPOS>MOLECULE
NONAME
32 34 1 0 0 
SMALL
USER_CHARGES


@<TRIPOS>ATOM
  1 S        0.2220     0.1400     0.0870 S.3   1 <1>  -0.3320 
  2 C        1.7660    -0.7560    -0.0540 C.ar  1 <1>   0.7220 
  3 C       -1.1150    -1.0790    -0.2860 C.3   1 <1>   0.1500 
  4 N        1.6780    -2.0570    -0.4250 N.ar  1 <1>  -0.3100 
  5 N        2.8430    -0.0630     0.2160 N.ar  1 <1>  -0.5670 
  6 C       -2.3310    -0.2800    -0.7510 C.3   1 <1>  -0.2400 
  7 C       -1.4030    -1.8680     0.9920 C.3   1 <1>  -0.2400 
  8 N        2.7600    -2.7720    -0.5480 N.ar  1 <1>  -0.2560 
  9 C        3.9430    -0.8080     0.0860 C.ar  1 <1>   0.1050 
 10 C        3.9100    -2.1390    -0.2890 C.ar  1 <1>   0.2560 
 11 N        5.2450    -0.4260     0.2850 N.pl3 1 <1>   0.0480 
 12 C        5.2530    -2.5990    -0.3220 C.ar  1 <1>   0.0000 
 13 C        6.0570    -1.5190     0.0370 C.ar  1 <1>  -0.1520 
 14 C        5.7040     0.9150     0.6920 C.3   1 <1>   0.0160 
 15 C        5.8370    -3.8300    -0.6250 C.ar  1 <1>  -0.1500 
 16 C        7.4440    -1.6560     0.0970 C.ar  1 <1>  -0.1500 
 17 C        7.2070    -3.9620    -0.5650 C.ar  1 <1>  -0.1500 
 18 C        8.0090    -2.8760    -0.2050 C.ar  1 <1>  -0.1500 
 19 H       -0.7670    -1.7230    -1.0770 H     1 <1>   0.0800 
 20 H       -2.6500     0.4000     0.0190 H     1 <1>   0.0800 
 21 H       -3.1420    -0.9450    -0.9860 H     1 <1>   0.0800 
 22 H       -2.0840     0.2830    -1.6330 H     1 <1>   0.0800 
 23 H       -1.7010    -1.2040     1.7830 H     1 <1>   0.0800 
 24 H       -0.5270    -2.4080     1.3020 H     1 <1>   0.0800 
 25 H       -2.1920    -2.5760     0.8170 H     1 <1>   0.0800 
 26 H        4.8580     1.5660     0.8220 H     1 <1>   0.0800 
 27 H        6.3490     1.3150    -0.0690 H     1 <1>   0.0800 
 28 H        6.2410     0.8390     1.6200 H     1 <1>   0.0800 
 29 H        5.2060    -4.6560    -0.9010 H     1 <1>   0.1500 
 30 H        8.0620    -0.8200     0.3740 H     1 <1>   0.1500 
 31 H        7.6710    -4.9050    -0.7960 H     1 <1>   0.1500 
 32 H        9.0770    -3.0030    -0.1640 H     1 <1>   0.1500 
@<TRIPOS>BOND
  1   1   2  1   
  2   1   3  1   
  3   2   4  ar  
  4   2   5  ar  
  5   3   6  1   
  6   3   7  1   
  7   3  19  1   
  8   4   8  ar  
  9   5   9  ar  
 10   6  20  1   
 11   6  21  1   
 12   6  22  1   
 13   7  23  1   
 14   7  24  1   
 15   7  25  1   
 16   8  10  ar  
 17   9  10  ar  
 18   9  11  1   
 19  10  12  1   
 20  11  13  1   
 21  11  14  1   
 22  12  13  ar  
 23  12  15  ar  
 24  13  16  ar  
 25  14  26  1   
 26  14  27  1   
 27  14  28  1   
 28  15  17  ar  
 29  15  29  1   
 30  16  18  ar  
 31  16  30  1   
 32  17  18  ar  
 33  17  31  1   
 34  18  32  1   
@<TRIPOS>SUBSTRUCTURE
  1 ****  10 GROUP 4 **** **** 0

# MOE 2024.06 (io_trps.svl 2023.06)
