@<TRIPOS>MOLECULE
NONAME
48 50 1 0 0 
SMALL
USER_CHARGES


@<TRIPOS>ATOM
  1 S       -0.4800    -0.1940     1.9940 S.o2  1 <1>   1.4470 
  2 O       -1.1730     0.4340     3.0980 O.2   1 <1>  -0.6500 
  3 O        0.6840    -1.0120     2.2630 O.2   1 <1>  -0.6500 
  4 N        0.0110     1.0330     0.9330 N.am  1 <1>  -0.8490 
  5 C       -1.6860    -1.1370     1.0150 C.ar  1 <1>  -0.0090 
  6 C        0.8550     0.5200    -0.1510 C.3   1 <1>   0.1960 
  7 C        0.6800     2.1230     1.6490 C.3   1 <1>   0.1960 
  8 C       -2.5930    -0.4920     0.1830 C.ar  1 <1>  -0.1500 
  9 C       -1.7440    -2.5220     1.0850 C.ar  1 <1>  -0.1500 
 10 C        1.1280     1.6260    -1.1750 C.3   1 <1>  -0.1600 
 11 C        0.9650     3.2880     0.6950 C.3   1 <1>  -0.1600 
 12 C       -3.5370    -1.1780    -0.5700 C.ar  1 <1>  -0.0090 
 13 C       -2.6700    -3.2340     0.3450 C.ar  1 <1>  -0.1500 
 14 C        1.7930     2.8400    -0.5150 C.3   1 <1>  -0.1600 
 15 S       -4.6920    -0.2920    -1.6580 S.o2  1 <1>   1.4470 
 16 C       -3.5570    -2.5640    -0.4770 C.ar  1 <1>  -0.1500 
 17 O       -3.9680     0.1630    -2.8250 O.2   1 <1>  -0.6500 
 18 O       -5.9010    -1.0680    -1.8320 O.2   1 <1>  -0.6500 
 19 N       -5.1090     1.0780    -0.7500 N.am  1 <1>  -0.8490 
 20 C       -5.7200     2.1110    -1.5910 C.3   1 <1>   0.1960 
 21 C       -5.9780     0.7440     0.3850 C.3   1 <1>   0.1960 
 22 C       -5.9360     3.3950    -0.7810 C.3   1 <1>  -0.1600 
 23 C       -6.1850     1.9760     1.2700 C.3   1 <1>  -0.1600 
 24 C       -6.7840     3.1380     0.4700 C.3   1 <1>  -0.1600 
 25 H        0.3580    -0.2970    -0.6470 H     1 <1>   0.0800 
 26 H        1.7880     0.1540     0.2480 H     1 <1>   0.0800 
 27 H        1.5990     1.7640     2.0840 H     1 <1>   0.0800 
 28 H        0.0490     2.4800     2.4460 H     1 <1>   0.0800 
 29 H       -2.5630     0.5850     0.1190 H     1 <1>   0.1500 
 30 H       -1.0560    -3.0490     1.7260 H     1 <1>   0.1500 
 31 H        0.1950     1.9200    -1.6250 H     1 <1>   0.0800 
 32 H        1.7630     1.2440    -1.9540 H     1 <1>   0.0800 
 33 H        1.4890     4.0630     1.2250 H     1 <1>   0.0800 
 34 H        0.0260     3.6960     0.3610 H     1 <1>   0.0800 
 35 H       -2.7000    -4.3090     0.4080 H     1 <1>   0.1500 
 36 H        1.8780     3.6450    -1.2240 H     1 <1>   0.0800 
 37 H        2.7850     2.5720    -0.1900 H     1 <1>   0.0800 
 38 H       -4.2760    -3.1230    -1.0540 H     1 <1>   0.1500 
 39 H       -6.6590     1.7560    -1.9840 H     1 <1>   0.0800 
 40 H       -5.0720     2.3360    -2.4220 H     1 <1>   0.0800 
 41 H       -5.5260    -0.0360     0.9750 H     1 <1>   0.0800 
 42 H       -6.9300     0.3860     0.0280 H     1 <1>   0.0800 
 43 H       -6.4180     4.1300    -1.4010 H     1 <1>   0.0800 
 44 H       -4.9750     3.7860    -0.4950 H     1 <1>   0.0800 
 45 H       -5.2360     2.2680     1.6860 H     1 <1>   0.0800 
 46 H       -6.8380     1.7240     2.0870 H     1 <1>   0.0800 
 47 H       -7.7900     2.8900     0.1760 H     1 <1>   0.0800 
 48 H       -6.8200     4.0250     1.0790 H     1 <1>   0.0800 
@<TRIPOS>BOND
  1   1   2  2   
  2   1   3  2   
  3   1   4  am  
  4   1   5  1   
  5   4   6  1   
  6   4   7  1   
  7   5   8  ar  
  8   5   9  ar  
  9   6  10  1   
 10   6  25  1   
 11   6  26  1   
 12   7  11  1   
 13   7  27  1   
 14   7  28  1   
 15   8  12  ar  
 16   8  29  1   
 17   9  13  ar  
 18   9  30  1   
 19  10  14  1   
 20  10  31  1   
 21  10  32  1   
 22  11  14  1   
 23  11  33  1   
 24  11  34  1   
 25  12  15  1   
 26  12  16  ar  
 27  13  16  ar  
 28  13  35  1   
 29  14  36  1   
 30  14  37  1   
 31  15  17  2   
 32  15  18  2   
 33  15  19  am  
 34  16  38  1   
 35  19  20  1   
 36  19  21  1   
 37  20  22  1   
 38  20  39  1   
 39  20  40  1   
 40  21  23  1   
 41  21  41  1   
 42  21  42  1   
 43  22  24  1   
 44  22  43  1   
 45  22  44  1   
 46  23  24  1   
 47  23  45  1   
 48  23  46  1   
 49  24  47  1   
 50  24  48  1   
@<TRIPOS>SUBSTRUCTURE
  1 ****   8 GROUP 4 **** **** 0

# MOE 2024.06 (io_trps.svl 2023.06)
