@<TRIPOS>MOLECULE
NONAME
34 35 1 0 0 
SMALL
USER_CHARGES


@<TRIPOS>ATOM
  1 S       -0.0880    -0.6250     0.5950 S.o2  1 <1>   0.9740 
  2 O       -0.3970    -1.3950     1.7840 O.co2 1 <1>  -0.6500 
  3 O        0.1270    -1.3210    -0.6630 O.co2 1 <1>  -0.6500 
  4 N        1.2410     0.2370     0.9160 N.2   1 <1>  -0.7400 
  5 C       -1.3870     0.6290     0.3960 C.ar  1 <1>  -0.0090 
  6 C        2.0710     0.8850    -0.0890 C.3   1 <1>   0.4360 
  7 C       -1.5870     1.6060     1.3610 C.ar  1 <1>  -0.1500 
  8 C       -2.2210     0.6400    -0.7130 C.ar  1 <1>  -0.1500 
  9 N        2.7130    -0.2460    -0.8100 N.am  1 <1>  -0.7300 
 10 C        3.3120     1.5250     0.5500 C.2   1 <1>   0.5690 
 11 C        1.4320     1.9960    -1.0090 C.3   1 <1>   1.0200 
 12 C       -2.5750     2.5660     1.2230 C.ar  1 <1>  -0.1500 
 13 C       -3.2140     1.5950    -0.8610 C.ar  1 <1>  -0.1500 
 14 C        4.0170    -0.3120    -0.4960 C.2   1 <1>   0.6900 
 15 O        3.3520     2.5510     1.1960 O.2   1 <1>  -0.5700 
 16 N        4.4030     0.7570     0.2590 N.am  1 <1>  -0.4200 
 17 F        2.3380     2.6150    -1.7690 F     1 <1>  -0.3400 
 18 F        0.5340     1.5280    -1.8740 F     1 <1>  -0.3400 
 19 F        0.8120     2.9670    -0.3400 F     1 <1>  -0.3400 
 20 C       -3.3950     2.5670     0.1080 C.ar  1 <1>  -0.1430 
 21 O        4.7570    -1.2130    -0.8320 O.2   1 <1>  -0.5700 
 22 C        5.7710     0.9630     0.7780 C.3   1 <1>   0.0600 
 23 C       -4.4770     3.6190    -0.0490 C.3   1 <1>  -0.0970 
 24 H       -0.9500     1.6050     2.2290 H     1 <1>   0.1500 
 25 H       -2.0800    -0.1130    -1.4690 H     1 <1>   0.1500 
 26 H        2.1250    -1.0870    -0.8770 H     1 <1>   0.3700 
 27 H       -2.6980     3.3100     1.9900 H     1 <1>   0.1500 
 28 H       -3.8390     1.5740    -1.7350 H     1 <1>   0.1500 
 29 H        5.8730     1.9630     1.1620 H     1 <1>   0.0800 
 30 H        6.4820     0.8100    -0.0140 H     1 <1>   0.0800 
 31 H        5.9620     0.2560     1.5670 H     1 <1>   0.0800 
 32 H       -4.1640     4.5450     0.3990 H     1 <1>   0.0800 
 33 H       -5.3790     3.2850     0.4320 H     1 <1>   0.0800 
 34 H       -4.6800     3.7970    -1.0890 H     1 <1>   0.0800 
@<TRIPOS>BOND
  1   1   2  ar  
  2   1   3  ar  
  3   1   4  2   
  4   1   5  1   
  5   4   6  1   
  6   5   7  ar  
  7   5   8  ar  
  8   6   9  1   
  9   6  10  1   
 10   6  11  1   
 11   7  12  ar  
 12   7  24  1   
 13   8  13  ar  
 14   8  25  1   
 15   9  14  am  
 16   9  26  1   
 17  10  15  2   
 18  10  16  am  
 19  11  17  1   
 20  11  18  1   
 21  11  19  1   
 22  12  20  ar  
 23  12  27  1   
 24  13  20  ar  
 25  13  28  1   
 26  14  16  am  
 27  14  21  2   
 28  16  22  1   
 29  20  23  1   
 30  22  29  1   
 31  22  30  1   
 32  22  31  1   
 33  23  32  1   
 34  23  33  1   
 35  23  34  1   
@<TRIPOS>SUBSTRUCTURE
  1 ****   6 GROUP 4 **** **** 0

# MOE 2024.06 (io_trps.svl 2023.06)
