@<TRIPOS>MOLECULE
NONAME
35 36 1 0 0 
SMALL
USER_CHARGES


@<TRIPOS>ATOM
  1 CL       0.5060     0.6530     0.4700 Cl    1 <1>  -0.1770 
  2 C        1.8750    -0.4240     0.3030 C.ar  1 <1>   0.1770 
  3 C        1.7230    -1.6510    -0.3250 C.ar  1 <1>  -0.1440 
  4 C        3.0910    -0.0130     0.8120 C.ar  1 <1>  -0.1500 
  5 C        2.8350    -2.4720    -0.4330 C.ar  1 <1>  -0.1500 
  6 C        0.3800    -2.0950    -0.8850 C.3   1 <1>  -0.0960 
  7 C        4.2070    -0.8330     0.7020 C.ar  1 <1>   0.1170 
  8 C        4.0570    -2.0670     0.0760 C.ar  1 <1>  -0.1500 
  9 N        5.4240    -0.3930     1.2410 N.am  1 <1>  -0.5470 
 10 C        6.7080    -0.7230     0.9230 C.2   1 <1>   0.6900 
 11 O        6.9800    -1.4370    -0.0200 O.2   1 <1>  -0.5700 
 12 N        7.6950    -0.2040     1.6950 N.am  1 <1>  -0.7300 
 13 C        9.1470    -0.4780     1.4980 C.3   1 <1>   0.1400 
 14 C        9.6840     0.1160     0.1860 C.3   1 <1>   0.2000 
 15 O       11.0720     0.0570     0.1920 O.3   1 <1>  -0.5600 
 16 C        9.3840     1.5950    -0.0290 C.3   1 <1>  -0.1600 
 17 C       11.5830     0.9420    -0.7500 C.3   1 <1>   0.1200 
 18 C       10.5590     2.0700    -0.8700 C.3   1 <1>  -0.1600 
 19 H        3.1610     0.9460     1.2870 H     1 <1>   0.1500 
 20 H        2.7580    -3.4320    -0.9140 H     1 <1>   0.1500 
 21 H       -0.3510    -2.1360    -0.0970 H     1 <1>   0.0800 
 22 H        0.4520    -3.0680    -1.3350 H     1 <1>   0.0800 
 23 H        0.0460    -1.3970    -1.6320 H     1 <1>   0.0800 
 24 H        4.9030    -2.7250    -0.0160 H     1 <1>   0.1500 
 25 H        5.3530     0.3710     1.9030 H     1 <1>   0.3700 
 26 H        7.4530     0.2470     2.5740 H     1 <1>   0.3700 
 27 H        9.3060    -1.5430     1.4860 H     1 <1>   0.0800 
 28 H        9.6960    -0.0560     2.3220 H     1 <1>   0.0800 
 29 H        9.3390    -0.4650    -0.6530 H     1 <1>   0.0800 
 30 H        9.3730     2.1070     0.9170 H     1 <1>   0.0800 
 31 H        8.4380     1.7340    -0.5210 H     1 <1>   0.0800 
 32 H       11.6910     0.4130    -1.6820 H     1 <1>   0.0800 
 33 H       12.5420     1.2930    -0.4100 H     1 <1>   0.0800 
 34 H       10.9610     2.9960    -0.4980 H     1 <1>   0.0800 
 35 H       10.2770     2.1970    -1.9000 H     1 <1>   0.0800 
@<TRIPOS>BOND
  1   1   2  1   
  2   2   3  ar  
  3   2   4  ar  
  4   3   5  ar  
  5   3   6  1   
  6   4   7  ar  
  7   4  19  1   
  8   5   8  ar  
  9   5  20  1   
 10   6  21  1   
 11   6  22  1   
 12   6  23  1   
 13   7   8  ar  
 14   7   9  1   
 15   8  24  1   
 16   9  10  am  
 17   9  25  1   
 18  10  11  2   
 19  10  12  am  
 20  12  13  1   
 21  12  26  1   
 22  13  14  1   
 23  13  27  1   
 24  13  28  1   
 25  14  15  1   
 26  14  16  1   
 27  14  29  1   
 28  15  17  1   
 29  16  18  1   
 30  16  30  1   
 31  16  31  1   
 32  17  18  1   
 33  17  32  1   
 34  17  33  1   
 35  18  34  1   
 36  18  35  1   
@<TRIPOS>SUBSTRUCTURE
  1 ****  10 GROUP 4 **** **** 0

# MOE 2024.06 (io_trps.svl 2023.06)
