@<TRIPOS>MOLECULE
NONAME
43 46 1 0 0 
SMALL
USER_CHARGES


@<TRIPOS>ATOM
  1 CL       0.9790    -0.5660     0.2110 Cl    1 <1>  -0.1770 
  2 C        0.4000    -2.2070     0.0800 C.ar  1 <1>   0.1770 
  3 C       -0.9570    -2.4460     0.0210 C.ar  1 <1>  -0.1500 
  4 C        1.3140    -3.2400     0.0340 C.ar  1 <1>  -0.1500 
  5 C       -1.4320    -3.7500    -0.0850 C.ar  1 <1>   0.1170 
  6 C        0.8530    -4.5400    -0.0740 C.ar  1 <1>  -0.1500 
  7 N       -2.8050    -4.0330    -0.1640 N.am  1 <1>  -0.5470 
  8 C       -0.5090    -4.8010    -0.1340 C.ar  1 <1>  -0.1430 
  9 C       -3.9090    -3.3410     0.2610 C.2   1 <1>   0.5690 
 10 C       -0.9690    -6.2500    -0.2470 C.3   1 <1>  -0.0960 
 11 O       -3.8240    -2.2830     0.8380 O.2   1 <1>  -0.5700 
 12 C       -5.3120    -3.9370     0.0070 C.3   1 <1>   0.0610 
 13 C       -6.0530    -4.1290     1.3550 C.3   1 <1>  -0.1600 
 14 C       -5.2700    -5.3150    -0.7140 C.3   1 <1>  -0.1600 
 15 C       -6.1410    -2.9660    -0.8700 C.3   1 <1>  -0.1600 
 16 C       -7.4770    -4.6740     1.1340 C.3   1 <1>  -0.0800 
 17 C       -6.6910    -5.8640    -0.9450 C.3   1 <1>  -0.0800 
 18 C       -7.5660    -3.5050    -1.1010 C.3   1 <1>  -0.0800 
 19 C       -7.3950    -6.0310     0.4140 C.3   1 <1>  -0.1600 
 20 C       -8.2650    -3.6820     0.2590 C.3   1 <1>  -0.1600 
 21 C       -7.4830    -4.8680    -1.8100 C.3   1 <1>  -0.1600 
 22 H       -1.6320    -1.6130     0.0530 H     1 <1>   0.1500 
 23 H        2.3670    -3.0260     0.0830 H     1 <1>   0.1500 
 24 H        1.5670    -5.3450    -0.1100 H     1 <1>   0.1500 
 25 H       -3.0150    -4.9420    -0.5670 H     1 <1>   0.3700 
 26 H       -1.6430    -6.4880     0.5570 H     1 <1>   0.0800 
 27 H       -0.1340    -6.9260    -0.1920 H     1 <1>   0.0800 
 28 H       -1.4670    -6.4080    -1.1870 H     1 <1>   0.0800 
 29 H       -6.1110    -3.1870     1.8730 H     1 <1>   0.0800 
 30 H       -5.4980    -4.8050     1.9820 H     1 <1>   0.0800 
 31 H       -4.7190    -6.0240    -0.1220 H     1 <1>   0.0800 
 32 H       -4.7800    -5.2170    -1.6670 H     1 <1>   0.0800 
 33 H       -5.6500    -2.8200    -1.8150 H     1 <1>   0.0800 
 34 H       -6.2000    -2.0050    -0.3870 H     1 <1>   0.0800 
 35 H       -7.9710    -4.7940     2.0830 H     1 <1>   0.0800 
 36 H       -6.6380    -6.8170    -1.4450 H     1 <1>   0.0800 
 37 H       -8.1230    -2.8110    -1.7080 H     1 <1>   0.0800 
 38 H       -8.3860    -6.4220     0.2640 H     1 <1>   0.0800 
 39 H       -6.8560    -6.7360     1.0230 H     1 <1>   0.0800 
 40 H       -8.3350    -2.7310     0.7590 H     1 <1>   0.0800 
 41 H       -9.2670    -4.0450     0.1090 H     1 <1>   0.0800 
 42 H       -8.4750    -5.2470    -1.9850 H     1 <1>   0.0800 
 43 H       -7.0060    -4.7530    -2.7680 H     1 <1>   0.0800 
@<TRIPOS>BOND
  1   1   2  1   
  2   2   3  ar  
  3   2   4  ar  
  4   3   5  ar  
  5   3  22  1   
  6   4   6  ar  
  7   4  23  1   
  8   5   7  1   
  9   5   8  ar  
 10   6   8  ar  
 11   6  24  1   
 12   7   9  am  
 13   7  25  1   
 14   8  10  1   
 15   9  11  2   
 16   9  12  1   
 17  10  26  1   
 18  10  27  1   
 19  10  28  1   
 20  12  13  1   
 21  12  14  1   
 22  12  15  1   
 23  13  16  1   
 24  13  29  1   
 25  13  30  1   
 26  14  17  1   
 27  14  31  1   
 28  14  32  1   
 29  15  18  1   
 30  15  33  1   
 31  15  34  1   
 32  16  19  1   
 33  16  20  1   
 34  16  35  1   
 35  17  19  1   
 36  17  21  1   
 37  17  36  1   
 38  18  20  1   
 39  18  21  1   
 40  18  37  1   
 41  19  38  1   
 42  19  39  1   
 43  20  40  1   
 44  20  41  1   
 45  21  42  1   
 46  21  43  1   
@<TRIPOS>SUBSTRUCTURE
  1 ****   9 GROUP 4 **** **** 0

# MOE 2024.06 (io_trps.svl 2023.06)
