@<TRIPOS>MOLECULE
NONAME
36 36 1 0 0 
SMALL
USER_CHARGES


@<TRIPOS>ATOM
  1 BR       3.0020     1.8980     2.4760 Br    1 <1>  -0.1110 
  2 C        1.7500     2.6610     1.2190 C.ar  1 <1>   0.1110 
  3 C        2.1290     2.8280    -0.1060 C.ar  1 <1>   0.0820 
  4 C        0.5000     3.0200     1.6860 C.ar  1 <1>  -0.1500 
  5 O        3.3810     2.4460    -0.4710 O.3   1 <1>  -0.3630 
  6 C        1.2010     3.3800    -0.9850 C.ar  1 <1>  -0.1500 
  7 C       -0.4150     3.5700     0.8020 C.ar  1 <1>  -0.1430 
  8 C        3.8530     2.6100    -1.8020 C.3   1 <1>   0.1810 
  9 C       -0.0570     3.7450    -0.5280 C.ar  1 <1>  -0.1500 
 10 C       -1.7980     3.9750     1.2810 C.3   1 <1>  -0.0960 
 11 C        5.2910     2.1260    -1.9410 C.2   1 <1>   0.5690 
 12 O        5.8170     2.1820    -3.0270 O.2   1 <1>  -0.5700 
 13 N        5.9430     1.6460    -0.8480 N.am  1 <1>  -0.7300 
 14 C        7.3390     1.1720    -0.8090 C.3   1 <1>   0.1400 
 15 C        8.0540     1.8250     0.3710 C.3   1 <1>  -0.1600 
 16 C        9.5160     1.3890     0.4270 C.3   1 <1>   0.1200 
 17 O       10.0920     1.9840     1.5400 O.3   1 <1>  -0.5600 
 18 C       11.4400     1.6870     1.7070 C.3   1 <1>   0.0400 
 19 H        0.2540     2.8690     2.7220 H     1 <1>   0.1500 
 20 H        1.4310     3.5340    -2.0220 H     1 <1>   0.1500 
 21 H        3.8060     3.6530    -2.0540 H     1 <1>   0.0800 
 22 H        3.2230     2.0410    -2.4600 H     1 <1>   0.0800 
 23 H       -0.7660     4.1690    -1.2180 H     1 <1>   0.1500 
 24 H       -2.5000     3.1880     1.0730 H     1 <1>   0.0800 
 25 H       -2.1200     4.8710     0.7800 H     1 <1>   0.0800 
 26 H       -1.7930     4.1630     2.3400 H     1 <1>   0.0800 
 27 H        5.4270     1.6260     0.0380 H     1 <1>   0.3700 
 28 H        7.8360     1.4280    -1.7300 H     1 <1>   0.0800 
 29 H        7.3450     0.1010    -0.7020 H     1 <1>   0.0800 
 30 H        7.5690     1.5400     1.2880 H     1 <1>   0.0800 
 31 H        8.0150     2.8950     0.2630 H     1 <1>   0.0800 
 32 H       10.0440     1.7150    -0.4540 H     1 <1>   0.0800 
 33 H        9.5920     0.3200     0.5300 H     1 <1>   0.0800 
 34 H       11.7860     2.1920     2.5910 H     1 <1>   0.0800 
 35 H       11.9900     2.0370     0.8500 H     1 <1>   0.0800 
 36 H       11.5580     0.6240     1.8270 H     1 <1>   0.0800 
@<TRIPOS>BOND
  1   1   2  1   
  2   2   3  ar  
  3   2   4  ar  
  4   3   5  1   
  5   3   6  ar  
  6   4   7  ar  
  7   4  19  1   
  8   5   8  1   
  9   6   9  ar  
 10   6  20  1   
 11   7   9  ar  
 12   7  10  1   
 13   8  11  1   
 14   8  21  1   
 15   8  22  1   
 16   9  23  1   
 17  10  24  1   
 18  10  25  1   
 19  10  26  1   
 20  11  12  2   
 21  11  13  am  
 22  13  14  1   
 23  13  27  1   
 24  14  15  1   
 25  14  28  1   
 26  14  29  1   
 27  15  16  1   
 28  15  30  1   
 29  15  31  1   
 30  16  17  1   
 31  16  32  1   
 32  16  33  1   
 33  17  18  1   
 34  18  34  1   
 35  18  35  1   
 36  18  36  1   
@<TRIPOS>SUBSTRUCTURE
  1 ****   5 GROUP 4 **** **** 0

# MOE 2024.06 (io_trps.svl 2023.06)
