@<TRIPOS>MOLECULE
NONAME
38 40 1 0 0 
SMALL
USER_CHARGES


@<TRIPOS>ATOM
  1 S       -0.0720     0.1850    -0.3710 S.3   1 <1>  -0.2860 
  2 C       -1.8530     0.2330    -0.1570 C.2   1 <1>   0.2420 
  3 C        0.4910    -1.5030     0.1010 C.3   1 <1>   0.0700 
  4 N       -2.5440     1.2450    -0.5450 N.2   1 <1>  -0.5650 
  5 N       -2.5590    -0.7760     0.4130 N.pl3 1 <1>   0.0330 
  6 C        1.9990    -1.5340    -0.1720 C.3   1 <1>   0.3430 
  7 C       -3.8250     0.8850    -0.2060 C.ar  1 <1>   0.2270 
  8 C       -3.8360    -0.3560     0.3780 C.ar  1 <1>   0.1050 
  9 N        2.6300    -2.8510     0.1630 N.4   1 <1>  -0.9590 
 10 C       -5.0760     1.5110    -0.3410 C.ar  1 <1>   0.4100 
 11 N       -4.9360    -0.9790     0.8060 N.ar  1 <1>  -0.5670 
 12 C        4.1190    -2.7150     0.1500 C.3   1 <1>   0.3430 
 13 C        2.1900    -3.9480    -0.7550 C.3   1 <1>   0.3430 
 14 N       -6.1800     0.9270     0.0590 N.ar  1 <1>  -0.6200 
 15 N       -5.2210     2.7440    -0.8980 N.pl3 1 <1>  -0.9000 
 16 C       -6.0380    -0.2860     0.6140 C.ar  1 <1>   0.4700 
 17 C        4.7600    -4.0160     0.6360 C.3   1 <1>  -0.1600 
 18 C        2.7850    -5.2790    -0.2910 C.3   1 <1>  -0.1600 
 19 C        4.3150    -5.2180    -0.2060 C.3   1 <1>  -0.1600 
 20 H       -0.0510    -2.1980    -0.5160 H     1 <1>   0.0800 
 21 H        0.2670    -1.6350     1.1440 H     1 <1>   0.0800 
 22 H       -2.2430    -1.6550     0.8150 H     1 <1>   0.2700 
 23 H        2.4600    -0.7570     0.4180 H     1 <1>   0.0800 
 24 H        2.1720    -1.3030    -1.2110 H     1 <1>   0.0800 
 25 H        2.3750    -3.1230     1.1220 H     1 <1>   0.4500 
 26 H        4.4250    -1.9050     0.7940 H     1 <1>   0.0800 
 27 H        4.4590    -2.5000    -0.8500 H     1 <1>   0.0800 
 28 H        2.5210    -3.7380    -1.7600 H     1 <1>   0.0800 
 29 H        1.1150    -4.0240    -0.7620 H     1 <1>   0.0800 
 30 H       -6.1580     3.0640    -1.1390 H     1 <1>   0.4000 
 31 H       -4.4310     3.1750    -1.3850 H     1 <1>   0.4000 
 32 H       -6.9560    -0.7460     0.9420 H     1 <1>   0.1500 
 33 H        4.5080    -4.1770     1.6700 H     1 <1>   0.0800 
 34 H        5.8310    -3.9220     0.5800 H     1 <1>   0.0800 
 35 H        2.4990    -6.0520    -0.9830 H     1 <1>   0.0800 
 36 H        2.3730    -5.5410     0.6690 H     1 <1>   0.0800 
 37 H        4.6950    -6.1300     0.2260 H     1 <1>   0.0800 
 38 H        4.7270    -5.1330    -1.1980 H     1 <1>   0.0800 
@<TRIPOS>BOND
  1   1   2  1   
  2   1   3  1   
  3   2   4  2   
  4   2   5  1   
  5   3   6  1   
  6   3  20  1   
  7   3  21  1   
  8   4   7  1   
  9   5   8  1   
 10   5  22  1   
 11   6   9  1   
 12   6  23  1   
 13   6  24  1   
 14   7   8  ar  
 15   7  10  ar  
 16   8  11  ar  
 17   9  12  1   
 18   9  13  1   
 19   9  25  1   
 20  10  14  ar  
 21  10  15  1   
 22  11  16  ar  
 23  12  17  1   
 24  12  26  1   
 25  12  27  1   
 26  13  18  1   
 27  13  28  1   
 28  13  29  1   
 29  14  16  ar  
 30  15  30  1   
 31  15  31  1   
 32  16  32  1   
 33  17  19  1   
 34  17  33  1   
 35  17  34  1   
 36  18  19  1   
 37  18  35  1   
 38  18  36  1   
 39  19  37  1   
 40  19  38  1   
@<TRIPOS>SUBSTRUCTURE
  1 ****   3 GROUP 4 **** **** 0

# MOE 2024.06 (io_trps.svl 2023.06)
