@<TRIPOS>MOLECULE
NONAME
35 35 1 0 0 
SMALL
USER_CHARGES


@<TRIPOS>ATOM
  1 O        0.3800    -0.7150    -0.9130 O.2   1 <1>  -0.5700 
  2 C        0.2860    -1.6850    -0.2010 C.2   1 <1>   0.5690 
  3 N        1.3930    -2.1860     0.4380 N.am  1 <1>  -0.6600 
  4 C       -1.0720    -2.3640    -0.0500 C.3   1 <1>  -0.0990 
  5 C        1.5320    -3.5830     0.9450 C.3   1 <1>   0.1400 
  6 C        2.6690    -1.4060     0.4610 C.3   1 <1>   0.1400 
  7 C       -2.2680    -1.4610    -0.4000 C.3   1 <1>  -0.1600 
  8 C        2.6480    -4.3230     0.1730 C.3   1 <1>   0.3430 
  9 C        3.7560    -2.1430    -0.3380 C.3   1 <1>   0.3430 
 10 C       -3.6000    -2.1880    -0.1890 C.3   1 <1>  -0.2400 
 11 N        3.9460    -3.5580     0.1520 N.4   1 <1>  -0.9590 
 12 C        4.9790    -4.2760    -0.6260 C.3   1 <1>   0.4810 
 13 C        6.3170    -3.7170    -0.2020 C.2   1 <1>  -0.2880 
 14 C        7.1850    -4.3290     0.6110 C.2   1 <1>  -0.3000 
 15 H       -1.1820    -2.6850     0.9700 H     1 <1>   0.0800 
 16 H       -1.0900    -3.2290    -0.6860 H     1 <1>   0.0800 
 17 H        0.6120    -4.1280     0.8290 H     1 <1>   0.0800 
 18 H        1.7670    -3.5590     1.9950 H     1 <1>   0.0800 
 19 H        2.9880    -1.2730     1.4800 H     1 <1>   0.0800 
 20 H        2.5270    -0.4250     0.0410 H     1 <1>   0.0800 
 21 H       -2.1940    -1.1470    -1.4280 H     1 <1>   0.0800 
 22 H       -2.2420    -0.5770     0.2150 H     1 <1>   0.0800 
 23 H        2.3080    -4.4780    -0.8380 H     1 <1>   0.0800 
 24 H        2.8000    -5.2920     0.6200 H     1 <1>   0.0800 
 25 H        4.6800    -1.5960    -0.2560 H     1 <1>   0.0800 
 26 H        3.4650    -2.1500    -1.3760 H     1 <1>   0.0800 
 27 H       -3.6590    -3.0610    -0.8150 H     1 <1>   0.0800 
 28 H       -4.4160    -1.5340    -0.4430 H     1 <1>   0.0800 
 29 H       -3.7120    -2.4860     0.8390 H     1 <1>   0.0800 
 30 H        4.3110    -3.5050     1.1120 H     1 <1>   0.4500 
 31 H        4.8270    -4.1550    -1.6870 H     1 <1>   0.0800 
 32 H        4.9500    -5.3270    -0.3890 H     1 <1>   0.0800 
 33 H        6.5290    -2.7520    -0.6320 H     1 <1>   0.1500 
 34 H        8.1390    -3.9110     0.8930 H     1 <1>   0.1500 
 35 H        7.0370    -5.2960     1.0650 H     1 <1>   0.1500 
@<TRIPOS>BOND
  1   1   2  2   
  2   2   3  am  
  3   2   4  1   
  4   3   5  1   
  5   3   6  1   
  6   4   7  1   
  7   4  15  1   
  8   4  16  1   
  9   5   8  1   
 10   5  17  1   
 11   5  18  1   
 12   6   9  1   
 13   6  19  1   
 14   6  20  1   
 15   7  10  1   
 16   7  21  1   
 17   7  22  1   
 18   8  11  1   
 19   8  23  1   
 20   8  24  1   
 21   9  11  1   
 22   9  25  1   
 23   9  26  1   
 24  10  27  1   
 25  10  28  1   
 26  10  29  1   
 27  11  12  1   
 28  11  30  1   
 29  12  13  1   
 30  12  31  1   
 31  12  32  1   
 32  13  14  2   
 33  13  33  1   
 34  14  34  1   
 35  14  35  1   
@<TRIPOS>SUBSTRUCTURE
  1 ****   3 GROUP 4 **** **** 0

# MOE 2024.06 (io_trps.svl 2023.06)
