@<TRIPOS>MOLECULE
NONAME
40 42 1 0 0 
SMALL
USER_CHARGES


@<TRIPOS>ATOM
  1 S       -2.3540    -1.0010    -0.2380 S.3   1 <1>  -0.4470 
  2 C       -1.4340    -2.5150    -0.6240 C.3   1 <1>   0.2300 
  3 C       -2.1620    -1.0280     1.5640 C.3   1 <1>   0.4420 
  4 C       -0.8030    -2.9790     0.7180 C.3   1 <1>   0.1140 
  5 C       -2.4850    -3.5120    -1.1320 C.3   1 <1>  -0.2400 
  6 C       -0.4650    -2.1530    -1.7590 C.3   1 <1>  -0.2400 
  7 N       -1.6300    -2.3980     1.8330 N.am  1 <1>  -0.5850 
  8 C       -3.4440    -1.4150     2.3460 C.3   1 <1>   0.2780 
  9 C        0.6890    -2.6250     0.8120 C.2   1 <1>   0.9060 
 10 C       -2.8530    -2.8290     2.2500 C.2   1 <1>   0.5770 
 11 N       -4.7220    -1.2170     1.5900 N.am  1 <1>  -0.6550 
 12 O        1.0420    -1.4900     1.1690 O.co2 1 <1>  -0.9000 
 13 O        1.5150    -3.4900     0.4920 O.co2 1 <1>  -0.9000 
 14 O       -3.3240    -3.9340     2.3970 O.2   1 <1>  -0.5700 
 15 C       -5.6960    -0.3270     1.8860 C.2   1 <1>   0.5690 
 16 O       -5.6690     0.3410     2.8910 O.2   1 <1>  -0.5700 
 17 C       -6.8520    -0.1440     0.9150 C.3   1 <1>   0.0440 
 18 C       -6.7280    -1.0140    -0.3360 C.ar  1 <1>  -0.1440 
 19 C       -7.4890    -2.1660    -0.4720 C.ar  1 <1>  -0.1500 
 20 C       -5.8330    -0.6690    -1.3370 C.ar  1 <1>  -0.1500 
 21 C       -7.3530    -2.9640    -1.5950 C.ar  1 <1>  -0.1500 
 22 C       -5.6950    -1.4680    -2.4590 C.ar  1 <1>  -0.1500 
 23 C       -6.4560    -2.6160    -2.5890 C.ar  1 <1>  -0.1500 
 24 H       -1.5440    -0.2360     1.9460 H     1 <1>   0.0000 
 25 H       -0.8530    -4.0500     0.7790 H     1 <1>   0.0800 
 26 H       -3.2160    -3.7200    -0.3730 H     1 <1>   0.0800 
 27 H       -2.0070    -4.4360    -1.4030 H     1 <1>   0.0800 
 28 H       -2.9900    -3.1200    -1.9950 H     1 <1>   0.0800 
 29 H        0.1750    -1.3400    -1.4630 H     1 <1>   0.0800 
 30 H       -1.0050    -1.8540    -2.6380 H     1 <1>   0.0800 
 31 H        0.1530    -3.0000    -2.0010 H     1 <1>   0.0800 
 32 H       -3.4700    -1.0280     3.3490 H     1 <1>   0.0000 
 33 H       -4.7520    -1.6930     0.6810 H     1 <1>   0.3700 
 34 H       -6.8900     0.8900     0.6270 H     1 <1>   0.0800 
 35 H       -7.7650    -0.3700     1.4330 H     1 <1>   0.0800 
 36 H       -8.1880    -2.4520     0.2950 H     1 <1>   0.1500 
 37 H       -5.2290     0.2190    -1.2470 H     1 <1>   0.1500 
 38 H       -7.9460    -3.8560    -1.6950 H     1 <1>   0.1500 
 39 H       -4.9920    -1.1950    -3.2270 H     1 <1>   0.1500 
 40 H       -6.3490    -3.2370    -3.4610 H     1 <1>   0.1500 
@<TRIPOS>BOND
  1   1   2  1   
  2   1   3  1   
  3   2   4  1   
  4   2   5  1   
  5   2   6  1   
  6   3   7  1   
  7   3   8  1   
  8   3  24  1   
  9   4   7  1   
 10   4   9  1   
 11   4  25  1   
 12   5  26  1   
 13   5  27  1   
 14   5  28  1   
 15   6  29  1   
 16   6  30  1   
 17   6  31  1   
 18   7  10  am  
 19   8  10  1   
 20   8  11  1   
 21   8  32  1   
 22   9  12  ar  
 23   9  13  ar  
 24  10  14  2   
 25  11  15  am  
 26  11  33  1   
 27  15  16  2   
 28  15  17  1   
 29  17  18  1   
 30  17  34  1   
 31  17  35  1   
 32  18  19  ar  
 33  18  20  ar  
 34  19  21  ar  
 35  19  36  1   
 36  20  22  ar  
 37  20  37  1   
 38  21  23  ar  
 39  21  38  1   
 40  22  23  ar  
 41  22  39  1   
 42  23  40  1   
@<TRIPOS>SUBSTRUCTURE
  1 ****   1 GROUP 4 **** **** 0

# MOE 2024.06 (io_trps.svl 2023.06)
