@<TRIPOS>MOLECULE
NONAME
48 50 1 0 0 
SMALL
USER_CHARGES


@<TRIPOS>ATOM
  1 O      -16.1890     3.2470    -0.0260 O.3   1 <1>  -0.3630 
  2 C      -17.3300     2.5110    -0.0220 C.ar  1 <1>   0.0830 
  3 C      -14.9790     2.5650     0.2490 C.3   1 <1>   0.2000 
  4 C      -17.2830     1.1170    -0.0830 C.ar  1 <1>   0.0820 
  5 C      -18.5500     3.1610     0.0470 C.ar  1 <1>  -0.1500 
  6 C      -13.8080     3.5150    -0.1040 C.3   1 <1>   0.4230 
  7 C      -14.9700     1.2340    -0.5260 C.3   1 <1>   0.1200 
  8 O      -16.0980     0.4630    -0.1760 O.3   1 <1>  -0.3630 
  9 C      -18.4560     0.3840    -0.0540 C.ar  1 <1>  -0.1500 
 10 C      -19.7220     2.4230     0.0690 C.ar  1 <1>  -0.1500 
 11 N      -12.4710     2.9080     0.1030 N.4   1 <1>  -0.9060 
 12 C      -13.8290     4.7810     0.7510 C.3   1 <1>  -0.2400 
 13 C      -19.6750     1.0380     0.0220 C.ar  1 <1>  -0.1500 
 14 C      -11.8560     2.2810    -1.0840 C.3   1 <1>   0.4860 
 15 C      -10.4650     1.8630    -0.6740 C.ar  1 <1>  -0.1430 
 16 C       -9.5340     2.8250    -0.2890 C.ar  1 <1>   0.0830 
 17 C      -10.1130     0.5220    -0.6790 C.ar  1 <1>  -0.1500 
 18 O       -9.9450     4.1240    -0.2940 O.3   1 <1>  -0.3620 
 19 C       -8.2530     2.4360     0.0900 C.ar  1 <1>  -0.1500 
 20 C       -8.8400     0.1420    -0.3000 C.ar  1 <1>  -0.1500 
 21 C       -9.0130     5.1820    -0.1690 C.3   1 <1>   0.0400 
 22 C       -7.9060     1.0890     0.0850 C.ar  1 <1>   0.0830 
 23 O       -6.6860     0.6200     0.4410 O.3   1 <1>  -0.3620 
 24 C       -5.6330     1.4830     0.8100 C.3   1 <1>   0.0400 
 25 H      -14.9700     2.3600     1.3060 H     1 <1>   0.0800 
 26 H      -18.5820     4.2350     0.0860 H     1 <1>   0.1500 
 27 H      -13.9080     3.8030    -1.1390 H     1 <1>   0.0800 
 28 H      -14.1040     0.6450    -0.2870 H     1 <1>   0.0800 
 29 H      -15.0080     1.4070    -1.5870 H     1 <1>   0.0800 
 30 H      -18.4140    -0.6900    -0.0930 H     1 <1>   0.1500 
 31 H      -20.6730     2.9260     0.1250 H     1 <1>   0.1500 
 32 H      -12.4400     2.2630     0.8990 H     1 <1>   0.4500 
 33 H      -11.8020     3.6570     0.3450 H     1 <1>   0.4500 
 34 H      -13.7530     4.5450     1.7980 H     1 <1>   0.0800 
 35 H      -14.7540     5.3100     0.5990 H     1 <1>   0.0800 
 36 H      -13.0310     5.4460     0.4720 H     1 <1>   0.0800 
 37 H      -20.5890     0.4690     0.0430 H     1 <1>   0.1500 
 38 H      -11.7920     2.9920    -1.8930 H     1 <1>   0.0800 
 39 H      -12.4220     1.4250    -1.4100 H     1 <1>   0.0800 
 40 H      -10.8120    -0.2420    -0.9770 H     1 <1>   0.1500 
 41 H       -7.5300     3.1650     0.3920 H     1 <1>   0.1500 
 42 H       -8.5540    -0.8960    -0.3010 H     1 <1>   0.1500 
 43 H       -8.2540     5.0740    -0.9250 H     1 <1>   0.0800 
 44 H       -8.5770     5.1570     0.8140 H     1 <1>   0.0800 
 45 H       -9.5330     6.1130    -0.3110 H     1 <1>   0.0800 
 46 H       -4.7700     0.8800     1.0280 H     1 <1>   0.0800 
 47 H       -5.9220     2.0350     1.6860 H     1 <1>   0.0800 
 48 H       -5.4170     2.1430    -0.0110 H     1 <1>   0.0800 
@<TRIPOS>BOND
  1   1   2  1   
  2   1   3  1   
  3   2   4  ar  
  4   2   5  ar  
  5   3   6  1   
  6   3   7  1   
  7   3  25  1   
  8   4   8  1   
  9   4   9  ar  
 10   5  10  ar  
 11   5  26  1   
 12   6  11  1   
 13   6  12  1   
 14   6  27  1   
 15   7   8  1   
 16   7  28  1   
 17   7  29  1   
 18   9  13  ar  
 19   9  30  1   
 20  10  13  ar  
 21  10  31  1   
 22  11  14  1   
 23  11  32  1   
 24  11  33  1   
 25  12  34  1   
 26  12  35  1   
 27  12  36  1   
 28  13  37  1   
 29  14  15  1   
 30  14  38  1   
 31  14  39  1   
 32  15  16  ar  
 33  15  17  ar  
 34  16  18  1   
 35  16  19  ar  
 36  17  20  ar  
 37  17  40  1   
 38  18  21  1   
 39  19  22  ar  
 40  19  41  1   
 41  20  22  ar  
 42  20  42  1   
 43  21  43  1   
 44  21  44  1   
 45  21  45  1   
 46  22  23  1   
 47  23  24  1   
 48  24  46  1   
 49  24  47  1   
 50  24  48  1   
@<TRIPOS>SUBSTRUCTURE
  1 ****  11 GROUP 4 **** **** 0

# MOE 2024.06 (io_trps.svl 2023.06)
