@<TRIPOS>MOLECULE
NONAME
35 36 1 0 0 
SMALL
USER_CHARGES


@<TRIPOS>ATOM
  1 BR      -0.4600     0.4610    -1.4450 Br    1 <1>  -0.1110 
  2 C       -1.7640    -0.6960    -0.6310 C.ar  1 <1>   0.1110 
  3 C       -1.4630    -2.0370    -0.4950 C.ar  1 <1>  -0.1500 
  4 C       -2.9610    -0.1520    -0.2070 C.ar  1 <1>  -0.1500 
  5 C       -2.4090    -2.8710     0.0950 C.ar  1 <1>   0.0830 
  6 C       -3.8970    -0.9880     0.3780 C.ar  1 <1>  -0.1500 
  7 O       -2.2270    -4.2020     0.2840 O.3   1 <1>  -0.3630 
  8 C       -3.6180    -2.3380     0.5260 C.ar  1 <1>  -0.1500 
  9 C       -1.0310    -4.8370    -0.0960 C.3   1 <1>   0.1200 
 10 C       -1.1730    -6.3200     0.2650 C.3   1 <1>   0.3430 
 11 N        0.0250    -7.1360    -0.1240 N.4   1 <1>  -0.9590 
 12 C       -0.2910    -8.5910    -0.0040 C.3   1 <1>   0.3430 
 13 C        1.2400    -6.7810     0.6740 C.3   1 <1>   0.3430 
 14 C        0.8800    -9.4190    -0.5380 C.3   1 <1>  -0.1600 
 15 C        2.4450    -7.5680     0.1560 C.3   1 <1>  -0.1600 
 16 C        2.1900    -9.0810     0.1840 C.3   1 <1>  -0.1600 
 17 H       -0.5140    -2.3870    -0.8480 H     1 <1>   0.1500 
 18 H       -3.1560     0.8990    -0.3320 H     1 <1>   0.1500 
 19 H       -4.8380    -0.5910     0.7170 H     1 <1>   0.1500 
 20 H       -4.3450    -2.9870     0.9810 H     1 <1>   0.1500 
 21 H       -0.2260    -4.3760     0.4470 H     1 <1>   0.0800 
 22 H       -0.9080    -4.7100    -1.1570 H     1 <1>   0.0800 
 23 H       -2.0430    -6.7020    -0.2430 H     1 <1>   0.0800 
 24 H       -1.3380    -6.4050     1.3270 H     1 <1>   0.0800 
 25 H        0.2410    -6.9630    -1.1150 H     1 <1>   0.4500 
 26 H       -1.1800    -8.8250    -0.5670 H     1 <1>   0.0800 
 27 H       -0.4670    -8.8430     1.0300 H     1 <1>   0.0800 
 28 H        1.0760    -7.0180     1.7130 H     1 <1>   0.0800 
 29 H        1.4460    -5.7260     0.5950 H     1 <1>   0.0800 
 30 H        0.9870    -9.2490    -1.5950 H     1 <1>   0.0800 
 31 H        0.6600   -10.4640    -0.4030 H     1 <1>   0.0800 
 32 H        3.3020    -7.3420     0.7670 H     1 <1>   0.0800 
 33 H        2.6760    -7.2530    -0.8470 H     1 <1>   0.0800 
 34 H        3.0110    -9.6000    -0.2840 H     1 <1>   0.0800 
 35 H        2.1340    -9.4170     1.2060 H     1 <1>   0.0800 
@<TRIPOS>BOND
  1   1   2  1   
  2   2   3  ar  
  3   2   4  ar  
  4   3   5  ar  
  5   3  17  1   
  6   4   6  ar  
  7   4  18  1   
  8   5   7  1   
  9   5   8  ar  
 10   6   8  ar  
 11   6  19  1   
 12   7   9  1   
 13   8  20  1   
 14   9  10  1   
 15   9  21  1   
 16   9  22  1   
 17  10  11  1   
 18  10  23  1   
 19  10  24  1   
 20  11  12  1   
 21  11  13  1   
 22  11  25  1   
 23  12  14  1   
 24  12  26  1   
 25  12  27  1   
 26  13  15  1   
 27  13  28  1   
 28  13  29  1   
 29  14  16  1   
 30  14  30  1   
 31  14  31  1   
 32  15  16  1   
 33  15  32  1   
 34  15  33  1   
 35  16  34  1   
 36  16  35  1   
@<TRIPOS>SUBSTRUCTURE
  1 ****   9 GROUP 4 **** **** 0

# MOE 2024.06 (io_trps.svl 2023.06)
