@<TRIPOS>MOLECULE
NONAME
56 59 1 0 0 
SMALL
USER_CHARGES


@<TRIPOS>ATOM
  1 S       -0.0670    -0.3470    -1.0080 S.3   1 <1>  -0.2860 
  2 C        0.4560     1.0110     0.0310 C.2   1 <1>   0.2420 
  3 C       -1.2300     0.4230    -2.2400 C.3   1 <1>   0.1310 
  4 N       -0.0210     2.2030    -0.0430 N.2   1 <1>  -0.5650 
  5 N        1.4020     0.8100     0.9740 N.pl3 1 <1>   0.0330 
  6 C       -2.5750    -0.2950    -2.2330 C.2   1 <1>   0.5690 
  7 C        0.6660     2.8660     0.9320 C.ar  1 <1>   0.2270 
  8 C        1.5510     2.0160     1.5780 C.ar  1 <1>  -0.1520 
  9 O       -2.8660    -0.9130    -3.2290 O.2   1 <1>  -0.5700 
 10 N       -3.4460    -0.2300    -1.1630 N.am  1 <1>  -0.6600 
 11 C        0.5800     4.2010     1.3210 C.ar  1 <1>  -0.1500 
 12 C        2.3620     2.4680     2.6210 C.ar  1 <1>  -0.1500 
 13 C       -4.6810    -1.0510    -1.1440 C.3   1 <1>   0.1400 
 14 C       -3.2250     0.5910     0.0550 C.3   1 <1>   0.1400 
 15 C        1.3770     4.6560     2.3500 C.ar  1 <1>  -0.1500 
 16 C        2.2660     3.7900     2.9980 C.ar  1 <1>  -0.1500 
 17 C       -5.9000    -0.1490    -0.9230 C.3   1 <1>  -0.1600 
 18 C       -4.3870     1.5730     0.1680 C.3   1 <1>  -0.1600 
 19 C       -5.7450     0.8440     0.2580 C.3   1 <1>   0.5640 
 20 N       -6.8590     1.8840     0.1850 N.4   1 <1>  -0.9590 
 21 C       -5.8080     0.1420     1.6650 C.2   1 <1>   0.5690 
 22 C       -8.2140     1.2850     0.4120 C.3   1 <1>   0.3430 
 23 C       -6.8620     2.8020    -0.9990 C.3   1 <1>   0.3430 
 24 O       -6.0570     0.8460     2.6130 O.2   1 <1>  -0.5700 
 25 N       -5.6530    -1.1850     1.8920 N.am  1 <1>  -0.8000 
 26 C       -9.2400     2.3920     0.6570 C.3   1 <1>  -0.1600 
 27 C       -7.8700     3.9320    -0.7820 C.3   1 <1>  -0.1600 
 28 C       -9.2780     3.3970    -0.4990 C.3   1 <1>  -0.1600 
 29 H       -0.7640     0.3230    -3.2020 H     1 <1>   0.0800 
 30 H       -1.3500     1.4630    -2.0120 H     1 <1>   0.0800 
 31 H        1.8960    -0.0630     1.1670 H     1 <1>   0.2700 
 32 H       -0.1060     4.8490     0.8080 H     1 <1>   0.1500 
 33 H        3.0430     1.7970     3.1140 H     1 <1>   0.1500 
 34 H       -4.5860    -1.7950    -0.3750 H     1 <1>   0.0800 
 35 H       -4.8020    -1.5810    -2.0760 H     1 <1>   0.0800 
 36 H       -2.3110     1.1460    -0.0100 H     1 <1>   0.0800 
 37 H       -3.1580    -0.0490     0.9190 H     1 <1>   0.0800 
 38 H        1.3250     5.6850     2.6630 H     1 <1>   0.1500 
 39 H        2.8770     4.1700     3.7990 H     1 <1>   0.1500 
 40 H       -6.7600    -0.7760    -0.7750 H     1 <1>   0.0800 
 41 H       -6.0420     0.3910    -1.8410 H     1 <1>   0.0800 
 42 H       -4.3250     2.2050    -0.6960 H     1 <1>   0.0800 
 43 H       -4.2360     2.1820     1.0420 H     1 <1>   0.0800 
 44 H       -6.6950     2.4600     1.0250 H     1 <1>   0.4500 
 45 H       -8.1990     0.6330     1.2710 H     1 <1>   0.0800 
 46 H       -8.5090     0.7080    -0.4500 H     1 <1>   0.0800 
 47 H       -7.1270     2.2540    -1.8890 H     1 <1>   0.0800 
 48 H       -5.8910     3.2410    -1.1480 H     1 <1>   0.0800 
 49 H       -5.7090    -1.5250     2.8580 H     1 <1>   0.3700 
 50 H       -5.4230    -1.9030     1.2040 H     1 <1>   0.3700 
 51 H       -9.0060     2.8960     1.5790 H     1 <1>   0.0800 
 52 H      -10.2140     1.9480     0.7740 H     1 <1>   0.0800 
 53 H       -7.8970     4.5520    -1.6620 H     1 <1>   0.0800 
 54 H       -7.5420     4.5510     0.0350 H     1 <1>   0.0800 
 55 H       -9.9380     4.2130    -0.2530 H     1 <1>   0.0800 
 56 H       -9.6670     2.9170    -1.3830 H     1 <1>   0.0800 
@<TRIPOS>BOND
  1   1   2  1   
  2   1   3  1   
  3   2   4  2   
  4   2   5  1   
  5   3   6  1   
  6   3  29  1   
  7   3  30  1   
  8   4   7  1   
  9   5   8  1   
 10   5  31  1   
 11   6   9  2   
 12   6  10  am  
 13   7   8  ar  
 14   7  11  ar  
 15   8  12  ar  
 16  10  13  1   
 17  10  14  1   
 18  11  15  ar  
 19  11  32  1   
 20  12  16  ar  
 21  12  33  1   
 22  13  17  1   
 23  13  34  1   
 24  13  35  1   
 25  14  18  1   
 26  14  36  1   
 27  14  37  1   
 28  15  16  ar  
 29  15  38  1   
 30  16  39  1   
 31  17  19  1   
 32  17  40  1   
 33  17  41  1   
 34  18  19  1   
 35  18  42  1   
 36  18  43  1   
 37  19  20  1   
 38  19  21  1   
 39  20  22  1   
 40  20  23  1   
 41  20  44  1   
 42  21  24  2   
 43  21  25  am  
 44  22  26  1   
 45  22  45  1   
 46  22  46  1   
 47  23  27  1   
 48  23  47  1   
 49  23  48  1   
 50  25  49  1   
 51  25  50  1   
 52  26  28  1   
 53  26  51  1   
 54  26  52  1   
 55  27  28  1   
 56  27  53  1   
 57  27  54  1   
 58  28  55  1   
 59  28  56  1   
@<TRIPOS>SUBSTRUCTURE
  1 ****  14 GROUP 4 **** **** 0

# MOE 2024.06 (io_trps.svl 2023.06)
