@<TRIPOS>MOLECULE
NONAME
43 46 1 0 0 
SMALL
USER_CHARGES


@<TRIPOS>ATOM
  1 S       -0.0320     0.4760     0.2150 S.3   1 <1>  -0.2860 
  2 C        1.7200     0.1090     0.2080 C.2   1 <1>   0.2420 
  3 C       -0.1390     1.9170     1.3910 C.3   1 <1>   0.1310 
  4 N        2.6060     0.7710     0.8610 N.2   1 <1>  -0.3380 
  5 N        2.2230    -0.8910    -0.4900 N.pl3 1 <1>   0.0330 
  6 C       -1.5640     2.4330     1.5230 C.2   1 <1>   0.5690 
  7 N        3.7700     0.1810     0.5820 N.2   1 <1>  -0.3380 
  8 C        3.5370    -0.8190    -0.2280 C.2   1 <1>   0.1330 
  9 O       -1.8470     3.0900     2.4940 O.2   1 <1>  -0.5700 
 10 N       -2.4740     2.1570     0.5530 N.am  1 <1>  -0.7300 
 11 C        4.5230    -1.7190    -0.7820 C.ar  1 <1>   0.0530 
 12 C       -3.8920     2.5850     0.5520 C.3   1 <1>   0.2200 
 13 C        5.8590    -1.3300    -0.8850 C.ar  1 <1>  -0.1500 
 14 C        4.1910    -2.9970    -1.2370 C.ar  1 <1>  -0.1500 
 15 C       -4.9070     1.2990     0.5920 C.3   1 <1>  -0.0800 
 16 C       -4.2170     3.4400    -0.8430 C.3   1 <1>  -0.1600 
 17 C        6.8170    -2.1680    -1.4240 C.ar  1 <1>  -0.1500 
 18 C        5.1460    -3.8400    -1.7780 C.ar  1 <1>  -0.1500 
 19 C       -5.2390     2.0390    -0.4740 C.3   1 <1>  -0.1600 
 20 C       -6.2380     0.6430    -0.0960 C.3   1 <1>  -0.1600 
 21 C       -5.5400     2.7790    -1.5450 C.3   1 <1>  -0.0800 
 22 C        6.4620    -3.4260    -1.8740 C.ar  1 <1>  -0.1500 
 23 C       -6.5660     1.5060    -1.4930 C.3   1 <1>  -0.1600 
 24 H        0.5030     2.6890     1.0120 H     1 <1>   0.0800 
 25 H        0.2250     1.5770     2.3430 H     1 <1>   0.0800 
 26 H        1.7270    -1.5440    -1.0930 H     1 <1>   0.2700 
 27 H       -2.1940     1.5670    -0.2320 H     1 <1>   0.3700 
 28 H       -4.0770     3.2130     1.4120 H     1 <1>   0.0800 
 29 H        6.1480    -0.3530    -0.5350 H     1 <1>   0.1500 
 30 H        3.1800    -3.3510    -1.1630 H     1 <1>   0.1500 
 31 H       -4.2180     0.4690     0.5210 H     1 <1>   0.0800 
 32 H       -3.3780     3.4000    -1.5200 H     1 <1>   0.0800 
 33 H       -4.3940     4.4750    -0.6000 H     1 <1>   0.0800 
 34 H        7.8410    -1.8410    -1.4920 H     1 <1>   0.1500 
 35 H        4.8690    -4.8210    -2.1230 H     1 <1>   0.1500 
 36 H       -4.5100     1.3880    -1.1340 H     1 <1>   0.0800 
 37 H       -5.9550     2.7000     0.1870 H     1 <1>   0.0800 
 38 H       -7.0750     0.7050     0.5840 H     1 <1>   0.0800 
 39 H       -6.0830    -0.4000    -0.3240 H     1 <1>   0.0800 
 40 H       -6.2380     3.6040    -1.4850 H     1 <1>   0.0800 
 41 H        7.2060    -4.0800    -2.2940 H     1 <1>   0.1500 
 42 H       -7.5940     1.8350    -1.5000 H     1 <1>   0.0800 
 43 H       -6.4230     0.8780    -2.3610 H     1 <1>   0.0800 
@<TRIPOS>BOND
  1   1   2  1   
  2   1   3  1   
  3   2   4  2   
  4   2   5  1   
  5   3   6  1   
  6   3  24  1   
  7   3  25  1   
  8   4   7  1   
  9   5   8  1   
 10   5  26  1   
 11   6   9  2   
 12   6  10  am  
 13   7   8  2   
 14   8  11  1   
 15  10  12  1   
 16  10  27  1   
 17  11  13  ar  
 18  11  14  ar  
 19  12  15  1   
 20  12  16  1   
 21  12  28  1   
 22  13  17  ar  
 23  13  29  1   
 24  14  18  ar  
 25  14  30  1   
 26  15  19  1   
 27  15  20  1   
 28  15  31  1   
 29  16  21  1   
 30  16  32  1   
 31  16  33  1   
 32  17  22  ar  
 33  17  34  1   
 34  18  22  ar  
 35  18  35  1   
 36  19  21  1   
 37  19  36  1   
 38  19  37  1   
 39  20  23  1   
 40  20  38  1   
 41  20  39  1   
 42  21  23  1   
 43  21  40  1   
 44  22  41  1   
 45  23  42  1   
 46  23  43  1   
@<TRIPOS>SUBSTRUCTURE
  1 ****   1 GROUP 4 **** **** 0

# MOE 2024.06 (io_trps.svl 2023.06)
