@<TRIPOS>MOLECULE
NONAME
34 36 1 0 0 
SMALL
USER_CHARGES


@<TRIPOS>ATOM
  1 O       -0.8140    -0.0820     0.3020 O.2   1 <1>  -0.5700 
  2 C       -1.7190     0.7230     0.2110 C.2   1 <1>   0.7060 
  3 O       -2.9820     0.2800     0.2820 O.3   1 <1>  -0.2330 
  4 C       -1.5270     2.1290     0.0310 C.2   1 <1>  -0.1240 
  5 C       -4.0600     1.1020     0.1880 C.ar  1 <1>   0.0820 
  6 C       -2.5570     2.9770    -0.0640 C.2   1 <1>  -0.1670 
  7 C       -0.1950     2.8280    -0.0800 C.3   1 <1>  -0.0220 
  8 C       -3.8960     2.4860     0.0120 C.ar  1 <1>   0.0280 
  9 C       -5.3260     0.5470     0.2700 C.ar  1 <1>  -0.1500 
 10 C       -2.1100     4.4050    -0.2550 C.3   1 <1>  -0.0220 
 11 C       -0.5750     4.3220    -0.1400 C.3   1 <1>  -0.1600 
 12 C       -5.0370     3.2830    -0.0740 C.ar  1 <1>  -0.1500 
 13 C       -6.4490     1.3490     0.1750 C.ar  1 <1>   0.0830 
 14 C       -6.2980     2.7250     0.0090 C.ar  1 <1>  -0.1500 
 15 O       -7.6580     0.7430     0.2710 O.3   1 <1>  -0.2330 
 16 C       -8.7890     1.0920    -0.3480 C.2   1 <1>   0.8700 
 17 O       -8.8600     1.9870    -1.1630 O.2   1 <1>  -0.5700 
 18 O       -9.8510     0.3650    -0.0050 O.3   1 <1>  -0.4300 
 19 C      -11.1320     0.5950    -0.5490 C.3   1 <1>   0.1200 
 20 C      -11.8260     1.6880     0.2620 C.3   1 <1>  -0.2400 
 21 H        0.3090     2.5170    -0.9780 H     1 <1>   0.0800 
 22 H        0.4230     2.6130     0.7750 H     1 <1>   0.0800 
 23 H       -5.4320    -0.5140     0.4080 H     1 <1>   0.1500 
 24 H       -2.5220     5.0450     0.5060 H     1 <1>   0.0800 
 25 H       -2.4050     4.7580    -1.2290 H     1 <1>   0.0800 
 26 H       -0.0990     4.8050    -0.9750 H     1 <1>   0.0800 
 27 H       -0.2580     4.8070     0.7680 H     1 <1>   0.0800 
 28 H       -4.9340     4.3440    -0.2060 H     1 <1>   0.1500 
 29 H       -7.1600     3.3660    -0.0500 H     1 <1>   0.1500 
 30 H      -11.6830    -0.3280    -0.4820 H     1 <1>   0.0800 
 31 H      -11.0370     0.8710    -1.5860 H     1 <1>   0.0800 
 32 H      -11.8950     1.3980     1.2950 H     1 <1>   0.0800 
 33 H      -12.8210     1.8410    -0.1170 H     1 <1>   0.0800 
 34 H      -11.2880     2.6150     0.1800 H     1 <1>   0.0800 
@<TRIPOS>BOND
  1   1   2  2   
  2   2   3  1   
  3   2   4  1   
  4   3   5  1   
  5   4   6  2   
  6   4   7  1   
  7   5   8  ar  
  8   5   9  ar  
  9   6   8  1   
 10   6  10  1   
 11   7  11  1   
 12   7  21  1   
 13   7  22  1   
 14   8  12  ar  
 15   9  13  ar  
 16   9  23  1   
 17  10  11  1   
 18  10  24  1   
 19  10  25  1   
 20  11  26  1   
 21  11  27  1   
 22  12  14  ar  
 23  12  28  1   
 24  13  14  ar  
 25  13  15  1   
 26  14  29  1   
 27  15  16  1   
 28  16  17  2   
 29  16  18  1   
 30  18  19  1   
 31  19  20  1   
 32  19  30  1   
 33  19  31  1   
 34  20  32  1   
 35  20  33  1   
 36  20  34  1   
@<TRIPOS>SUBSTRUCTURE
  1 ****   5 GROUP 4 **** **** 0

# MOE 2024.06 (io_trps.svl 2023.06)
