@<TRIPOS>MOLECULE
NONAME
35 35 1 0 0 
SMALL
USER_CHARGES


@<TRIPOS>ATOM
  1 O        1.4660     3.1430    -1.3580 O.2   1 <1>  -0.5700 
  2 C        0.4790     2.4770    -1.1700 C.2   1 <1>   0.6590 
  3 O       -0.5700     2.9100    -0.4860 O.3   1 <1>  -0.4300 
  4 C        0.3640     1.0750    -1.7070 C.3   1 <1>  -0.1790 
  5 C       -0.6740     4.2040     0.0720 C.3   1 <1>   0.2000 
  6 C       -0.2650     4.1710     1.5560 C.3   1 <1>   0.0400 
  7 C       -2.1280     4.6420    -0.1040 C.3   1 <1>  -0.2400 
  8 C        1.1890     3.8810     1.7320 C.1   1 <1>  -0.2000 
  9 C        2.3520     3.6420     1.7830 C.1   1 <1>  -0.2000 
 10 C        3.8060     3.3450     1.7240 C.3   1 <1>   0.5430 
 11 N        4.4450     4.3840     0.8810 N.4   1 <1>  -0.9590 
 12 C        4.0120     4.3260    -0.5400 C.3   1 <1>   0.3430 
 13 C        5.9220     4.3370     0.8730 C.3   1 <1>   0.3430 
 14 C        5.1120     5.0450    -1.3110 C.3   1 <1>  -0.1600 
 15 C        6.3070     5.1460    -0.3570 C.3   1 <1>  -0.1600 
 16 H        1.2500     0.8170    -2.2560 H     1 <1>   0.0800 
 17 H        0.2360     0.3880    -0.8930 H     1 <1>   0.0800 
 18 H       -0.4860     1.0120    -2.3610 H     1 <1>   0.0800 
 19 H       -0.0340     4.8750    -0.4770 H     1 <1>   0.0800 
 20 H       -0.8510     3.4350     2.0760 H     1 <1>   0.0800 
 21 H       -0.4720     5.1290     1.9980 H     1 <1>   0.0800 
 22 H       -2.7900     3.9720     0.4170 H     1 <1>   0.0800 
 23 H       -2.3850     4.6520    -1.1480 H     1 <1>   0.0800 
 24 H       -2.2660     5.6340     0.2860 H     1 <1>   0.0800 
 25 H        3.9640     2.3670     1.3000 H     1 <1>   0.0800 
 26 H        4.2170     3.3660     2.7200 H     1 <1>   0.0800 
 27 H        4.1380     5.2930     1.2440 H     1 <1>   0.4500 
 28 H        3.0500     4.7960    -0.6800 H     1 <1>   0.0800 
 29 H        3.9480     3.3010    -0.8680 H     1 <1>   0.0800 
 30 H        6.2560     3.3190     0.7510 H     1 <1>   0.0800 
 31 H        6.3440     4.7530     1.7740 H     1 <1>   0.0800 
 32 H        4.7760     6.0230    -1.6090 H     1 <1>   0.0800 
 33 H        5.3580     4.4860    -2.1980 H     1 <1>   0.0800 
 34 H        7.2100     4.7640    -0.8000 H     1 <1>   0.0800 
 35 H        6.4710     6.1720    -0.0750 H     1 <1>   0.0800 
@<TRIPOS>BOND
  1   1   2  2   
  2   2   3  1   
  3   2   4  1   
  4   3   5  1   
  5   4  16  1   
  6   4  17  1   
  7   4  18  1   
  8   5   6  1   
  9   5   7  1   
 10   5  19  1   
 11   6   8  1   
 12   6  20  1   
 13   6  21  1   
 14   7  22  1   
 15   7  23  1   
 16   7  24  1   
 17   8   9  3   
 18   9  10  1   
 19  10  11  1   
 20  10  25  1   
 21  10  26  1   
 22  11  12  1   
 23  11  13  1   
 24  11  27  1   
 25  12  14  1   
 26  12  28  1   
 27  12  29  1   
 28  13  15  1   
 29  13  30  1   
 30  13  31  1   
 31  14  15  1   
 32  14  32  1   
 33  14  33  1   
 34  15  34  1   
 35  15  35  1   
@<TRIPOS>SUBSTRUCTURE
  1 ****   9 GROUP 4 **** **** 0

# MOE 2024.06 (io_trps.svl 2023.06)
