@<TRIPOS>MOLECULE
NONAME
56 59 1 0 0 
SMALL
USER_CHARGES


@<TRIPOS>ATOM
  1 S       -0.3110    -0.4000     0.6700 S.3   1 <1>  -0.0800 
  2 C        1.2810    -0.0620     0.0120 C.2   1 <1>   0.1040 
  3 C       -0.9160     1.1540     0.1410 C.2   1 <1>  -0.1400 
  4 N        2.2070    -1.0760     0.1840 N.am  1 <1>  -0.4940 
  5 C        1.3110     1.1760    -0.5750 C.2   1 <1>  -0.0860 
  6 C        0.0410     1.8550    -0.4820 C.2   1 <1>  -0.1810 
  7 C       -2.3550     1.5450     0.3930 C.3   1 <1>   0.0200 
  8 C        3.5800    -1.0800     0.1260 C.2   1 <1>   0.5440 
  9 C        2.4460     1.7660    -1.2250 C.2   1 <1>   0.7160 
 10 C       -0.2520     3.2340    -1.0580 C.3   1 <1>   0.0210 
 11 C       -2.7100     2.7610    -0.4880 C.3   1 <1>  -0.0800 
 12 O        4.1910    -0.0440     0.3280 O.2   1 <1>  -0.5700 
 13 C        4.2990    -2.3040    -0.1530 C.ar  1 <1>   0.0860 
 14 O        2.9000     1.2870    -2.2500 O.2   1 <1>  -0.5700 
 15 N        3.0720     2.8770    -0.6910 N.am  1 <1>  -0.6600 
 16 C       -1.5710     3.8040    -0.4960 C.3   1 <1>  -0.1600 
 17 C       -4.0270     3.3990    -0.0300 C.3   1 <1>  -0.2400 
 18 C        3.9310    -3.5450     0.3710 C.ar  1 <1>   0.1900 
 19 C        5.4240    -2.2970    -0.9800 C.ar  1 <1>  -0.1500 
 20 C        4.2190     3.5120    -1.4070 C.3   1 <1>   0.1400 
 21 C        3.0760     3.1150     0.7920 C.3   1 <1>   0.1400 
 22 F        2.8910    -3.6280     1.1560 F     1 <1>  -0.1900 
 23 C        4.6200    -4.7140     0.1090 C.ar  1 <1>  -0.1500 
 24 C        6.1300    -3.4560    -1.2560 C.ar  1 <1>  -0.1500 
 25 C        5.5610     2.9400    -0.9000 C.3   1 <1>   0.3430 
 26 C        4.5130     3.1900     1.3630 C.3   1 <1>   0.3430 
 27 C        5.7310    -4.6670    -0.7130 C.ar  1 <1>  -0.1500 
 28 N        5.4770     2.4160     0.5110 N.4   1 <1>  -0.9590 
 29 C        6.8090     2.2160     1.1450 C.3   1 <1>   0.2630 
 30 H        1.7960    -1.9900     0.3940 H     1 <1>   0.3700 
 31 H       -2.4690     1.7860     1.4350 H     1 <1>   0.0800 
 32 H       -3.0060     0.7220     0.1570 H     1 <1>   0.0800 
 33 H       -0.3240     3.1470    -2.1290 H     1 <1>   0.0800 
 34 H        0.5450     3.9170    -0.8310 H     1 <1>   0.0800 
 35 H       -2.8400     2.4090    -1.4980 H     1 <1>   0.0800 
 36 H       -1.8590     4.6580    -1.0830 H     1 <1>   0.0800 
 37 H       -1.4010     4.1400     0.5130 H     1 <1>   0.0800 
 38 H       -3.9380     3.7800     0.9720 H     1 <1>   0.0800 
 39 H       -4.8210     2.6720    -0.0520 H     1 <1>   0.0800 
 40 H       -4.2960     4.2100    -0.6830 H     1 <1>   0.0800 
 41 H        5.7450    -1.3670    -1.4170 H     1 <1>   0.1500 
 42 H        4.1930     4.5740    -1.2360 H     1 <1>   0.0800 
 43 H        4.1380     3.3610    -2.4710 H     1 <1>   0.0800 
 44 H        2.5600     2.3160     1.2960 H     1 <1>   0.0800 
 45 H        2.5490     4.0260     1.0140 H     1 <1>   0.0800 
 46 H        4.2920    -5.6430     0.5410 H     1 <1>   0.1500 
 47 H        6.9940    -3.4210    -1.9000 H     1 <1>   0.1500 
 48 H        6.3130     3.7080    -0.9690 H     1 <1>   0.0800 
 49 H        5.8550     2.1350    -1.5540 H     1 <1>   0.0800 
 50 H        4.5100     2.8020     2.3690 H     1 <1>   0.0800 
 51 H        4.8220     4.2210     1.4070 H     1 <1>   0.0800 
 52 H        6.2830    -5.5660    -0.9310 H     1 <1>   0.1500 
 53 H        5.0240     1.4770     0.4100 H     1 <1>   0.4500 
 54 H        7.3090     3.1620     1.2750 H     1 <1>   0.0800 
 55 H        7.4210     1.5800     0.5270 H     1 <1>   0.0800 
 56 H        6.6940     1.7470     2.1080 H     1 <1>   0.0800 
@<TRIPOS>BOND
  1   1   2  1   
  2   1   3  1   
  3   2   4  1   
  4   2   5  2   
  5   3   6  2   
  6   3   7  1   
  7   4   8  am  
  8   4  30  1   
  9   5   6  1   
 10   5   9  1   
 11   6  10  1   
 12   7  11  1   
 13   7  31  1   
 14   7  32  1   
 15   8  12  2   
 16   8  13  1   
 17   9  14  2   
 18   9  15  am  
 19  10  16  1   
 20  10  33  1   
 21  10  34  1   
 22  11  16  1   
 23  11  17  1   
 24  11  35  1   
 25  13  18  ar  
 26  13  19  ar  
 27  15  20  1   
 28  15  21  1   
 29  16  36  1   
 30  16  37  1   
 31  17  38  1   
 32  17  39  1   
 33  17  40  1   
 34  18  22  1   
 35  18  23  ar  
 36  19  24  ar  
 37  19  41  1   
 38  20  25  1   
 39  20  42  1   
 40  20  43  1   
 41  21  26  1   
 42  21  44  1   
 43  21  45  1   
 44  23  27  ar  
 45  23  46  1   
 46  24  27  ar  
 47  24  47  1   
 48  25  28  1   
 49  25  48  1   
 50  25  49  1   
 51  26  28  1   
 52  26  50  1   
 53  26  51  1   
 54  27  52  1   
 55  28  29  1   
 56  28  53  1   
 57  29  54  1   
 58  29  55  1   
 59  29  56  1   
@<TRIPOS>SUBSTRUCTURE
  1 ****   2 GROUP 4 **** **** 0

# MOE 2024.06 (io_trps.svl 2023.06)
