@<TRIPOS>MOLECULE
NONAME
49 51 1 0 0 
SMALL
USER_CHARGES


@<TRIPOS>ATOM
  1 O        0.1380     0.5840    -0.3340 O.2   1 <1>  -0.5700 
  2 C        0.0370     1.7610    -0.0440 C.2   1 <1>   0.5440 
  3 N        1.0660     2.3780     0.6430 N.am  1 <1>  -0.6600 
  4 C       -1.1640     2.4760    -0.4320 C.ar  1 <1>   0.0860 
  5 C        2.2270     1.6050     1.1660 C.3   1 <1>   0.1400 
  6 C        1.1770     3.8560     0.8060 C.3   1 <1>   0.1400 
  7 C       -2.0070     3.0530     0.5170 C.ar  1 <1>  -0.1500 
  8 C       -1.5150     2.6070    -1.7750 C.ar  1 <1>  -0.1500 
  9 C        3.5190     2.0940     0.5050 C.3   1 <1>  -0.1600 
 10 C        2.4670     4.3550     0.1500 C.3   1 <1>  -0.1600 
 11 C       -3.1450     3.7450     0.1430 C.ar  1 <1>  -0.1500 
 12 C       -2.6510     3.2980    -2.1570 C.ar  1 <1>  -0.1500 
 13 C        3.7060     3.6110     0.6840 C.3   1 <1>  -0.0190 
 14 C       -3.4670     3.8700    -1.1970 C.ar  1 <1>  -0.1500 
 15 C        4.9970     4.0870     0.0200 C.2   1 <1>   0.5690 
 16 O        5.0300     4.2190    -1.1800 O.2   1 <1>  -0.5700 
 17 N        6.0690     4.3370     0.8200 N.am  1 <1>  -0.7300 
 18 C        7.4200     4.7900     0.4210 C.3   1 <1>   0.2200 
 19 C        7.3650     6.1710    -0.2450 C.3   1 <1>  -0.1600 
 20 C        8.1050     3.7530    -0.4780 C.3   1 <1>  -0.1600 
 21 C        8.7710     6.6410    -0.6500 C.3   1 <1>  -0.1600 
 22 C        9.5110     4.2230    -0.8830 C.3   1 <1>  -0.1600 
 23 C        9.4620     5.6050    -1.5490 C.3   1 <1>  -0.1600 
 24 H        2.1050     0.5520     0.9770 H     1 <1>   0.0800 
 25 H        2.2840     1.7410     2.2320 H     1 <1>   0.0800 
 26 H        1.1830     4.0920     1.8560 H     1 <1>   0.0800 
 27 H        0.3410     4.3600     0.3540 H     1 <1>   0.0800 
 28 H       -1.7620     2.9500     1.5600 H     1 <1>   0.1500 
 29 H       -0.8830     2.1550    -2.5200 H     1 <1>   0.1500 
 30 H        3.4830     1.8530    -0.5440 H     1 <1>   0.0800 
 31 H        4.3560     1.5700     0.9310 H     1 <1>   0.0800 
 32 H        2.5740     5.4100     0.3290 H     1 <1>   0.0800 
 33 H        2.3890     4.2130    -0.9150 H     1 <1>   0.0800 
 34 H       -3.7820     4.1840     0.8920 H     1 <1>   0.1500 
 35 H       -2.9020     3.3880    -3.2000 H     1 <1>   0.1500 
 36 H        3.7800     3.8160     1.7370 H     1 <1>   0.0800 
 37 H       -4.3520     4.4080    -1.4920 H     1 <1>   0.1500 
 38 H        5.9690     4.1870     1.8230 H     1 <1>   0.3700 
 39 H        8.0100     4.8840     1.3180 H     1 <1>   0.0800 
 40 H        6.9300     6.8830     0.4330 H     1 <1>   0.0800 
 41 H        6.7520     6.1230    -1.1280 H     1 <1>   0.0800 
 42 H        7.5220     3.6070    -1.3700 H     1 <1>   0.0800 
 43 H        8.1760     2.8140     0.0400 H     1 <1>   0.0800 
 44 H        9.3650     6.8000     0.2340 H     1 <1>   0.0800 
 45 H        8.6990     7.5790    -1.1720 H     1 <1>   0.0800 
 46 H        9.9440     3.5110    -1.5650 H     1 <1>   0.0800 
 47 H       10.1400     4.2690    -0.0110 H     1 <1>   0.0800 
 48 H       10.4620     5.9330    -1.7750 H     1 <1>   0.0800 
 49 H        8.9230     5.5300    -2.4790 H     1 <1>   0.0800 
@<TRIPOS>BOND
  1   1   2  2   
  2   2   3  am  
  3   2   4  1   
  4   3   5  1   
  5   3   6  1   
  6   4   7  ar  
  7   4   8  ar  
  8   5   9  1   
  9   5  24  1   
 10   5  25  1   
 11   6  10  1   
 12   6  26  1   
 13   6  27  1   
 14   7  11  ar  
 15   7  28  1   
 16   8  12  ar  
 17   8  29  1   
 18   9  13  1   
 19   9  30  1   
 20   9  31  1   
 21  10  13  1   
 22  10  32  1   
 23  10  33  1   
 24  11  14  ar  
 25  11  34  1   
 26  12  14  ar  
 27  12  35  1   
 28  13  15  1   
 29  13  36  1   
 30  14  37  1   
 31  15  16  2   
 32  15  17  am  
 33  17  18  1   
 34  17  38  1   
 35  18  19  1   
 36  18  20  1   
 37  18  39  1   
 38  19  21  1   
 39  19  40  1   
 40  19  41  1   
 41  20  22  1   
 42  20  42  1   
 43  20  43  1   
 44  21  23  1   
 45  21  44  1   
 46  21  45  1   
 47  22  23  1   
 48  22  46  1   
 49  22  47  1   
 50  23  48  1   
 51  23  49  1   
@<TRIPOS>SUBSTRUCTURE
  1 ****  10 GROUP 4 **** **** 0

# MOE 2024.06 (io_trps.svl 2023.06)
