@<TRIPOS>MOLECULE
NONAME
50 51 1 0 0 
SMALL
USER_CHARGES


@<TRIPOS>ATOM
  1 O        0.6030    -0.1030     0.4650 O.2   1 <1>  -0.5700 
  2 C        0.9640     0.7320    -0.3300 C.2   1 <1>   0.6340 
  3 O        2.0110     0.4220    -1.0990 O.3   1 <1>  -0.4300 
  4 C        0.3120     2.0190    -0.4480 C.ar  1 <1>   0.0860 
  5 C        2.7850     1.3760    -1.7990 C.3   1 <1>   0.2640 
  6 C        0.3290     2.9270     0.6090 C.ar  1 <1>  -0.1500 
  7 C       -0.3400     2.4090    -1.6190 C.ar  1 <1>  -0.1500 
  8 C        3.3240     2.4350    -0.8450 C.ar  1 <1>  -0.1440 
  9 C       -0.2550     4.1730     0.4940 C.ar  1 <1>  -0.1500 
 10 C       -0.9240     3.6560    -1.7310 C.ar  1 <1>  -0.1500 
 11 C        3.1220     3.7820    -1.1100 C.ar  1 <1>  -0.1500 
 12 C        4.0080     2.0640     0.3030 C.ar  1 <1>  -0.1500 
 13 C       -0.8990     4.5670    -0.6760 C.ar  1 <1>   0.0860 
 14 C        3.5950     4.7450    -0.2360 C.ar  1 <1>  -0.1500 
 15 C        4.4830     3.0270     1.1760 C.ar  1 <1>  -0.1500 
 16 C       -1.4900     5.8830    -0.8080 C.2   1 <1>   0.5440 
 17 C        4.2760     4.3680     0.9070 C.ar  1 <1>  -0.1500 
 18 O       -1.1220     6.5930    -1.7250 O.2   1 <1>  -0.5700 
 19 N       -2.4340     6.3670     0.0770 N.am  1 <1>  -0.6600 
 20 C       -2.4480     7.8330     0.3500 C.3   1 <1>   0.2200 
 21 C       -3.6320     5.5800     0.5080 C.3   1 <1>   0.2200 
 22 C       -2.5370     8.1050     1.8530 C.3   1 <1>  -0.2400 
 23 C       -3.5730     8.5230    -0.4250 C.3   1 <1>  -0.2400 
 24 C       -3.2940     4.6080     1.6360 C.3   1 <1>  -0.2400 
 25 C       -4.2760     4.8630    -0.6800 C.3   1 <1>  -0.2400 
 26 H        2.1770     1.8120    -2.5710 H     1 <1>   0.0800 
 27 H        3.6030     0.8510    -2.2600 H     1 <1>   0.0800 
 28 H        0.8240     2.6470     1.5240 H     1 <1>   0.1500 
 29 H       -0.3830     1.7240    -2.4480 H     1 <1>   0.1500 
 30 H       -0.2130     4.8630     1.3200 H     1 <1>   0.1500 
 31 H       -1.4100     3.9470    -2.6470 H     1 <1>   0.1500 
 32 H        2.5900     4.0940    -1.9930 H     1 <1>   0.1500 
 33 H        4.1680     1.0220     0.5220 H     1 <1>   0.1500 
 34 H        3.4320     5.7880    -0.4470 H     1 <1>   0.1500 
 35 H        5.0110     2.7310     2.0660 H     1 <1>   0.1500 
 36 H        4.6450     5.1170     1.5860 H     1 <1>   0.1500 
 37 H       -1.5150     8.2510     0.0070 H     1 <1>   0.0800 
 38 H       -4.3680     6.2630     0.8930 H     1 <1>   0.0800 
 39 H       -3.4840     7.8000     2.2550 H     1 <1>   0.0800 
 40 H       -2.4210     9.1590     2.0330 H     1 <1>   0.0800 
 41 H       -1.7450     7.5880     2.3640 H     1 <1>   0.0800 
 42 H       -4.5420     8.2260    -0.0730 H     1 <1>   0.0800 
 43 H       -3.4840     8.2910    -1.4710 H     1 <1>   0.0800 
 44 H       -3.4870     9.5880    -0.3110 H     1 <1>   0.0800 
 45 H       -2.7460     3.7610     1.2710 H     1 <1>   0.0800 
 46 H       -4.2040     4.2390     2.0730 H     1 <1>   0.0800 
 47 H       -2.7290     5.1050     2.4030 H     1 <1>   0.0800 
 48 H       -3.6510     4.0700    -1.0440 H     1 <1>   0.0800 
 49 H       -4.4640     5.5640    -1.4740 H     1 <1>   0.0800 
 50 H       -5.2140     4.4360    -0.3770 H     1 <1>   0.0800 
@<TRIPOS>BOND
  1   1   2  2   
  2   2   3  1   
  3   2   4  1   
  4   3   5  1   
  5   4   6  ar  
  6   4   7  ar  
  7   5   8  1   
  8   5  26  1   
  9   5  27  1   
 10   6   9  ar  
 11   6  28  1   
 12   7  10  ar  
 13   7  29  1   
 14   8  11  ar  
 15   8  12  ar  
 16   9  13  ar  
 17   9  30  1   
 18  10  13  ar  
 19  10  31  1   
 20  11  14  ar  
 21  11  32  1   
 22  12  15  ar  
 23  12  33  1   
 24  13  16  1   
 25  14  17  ar  
 26  14  34  1   
 27  15  17  ar  
 28  15  35  1   
 29  16  18  2   
 30  16  19  am  
 31  17  36  1   
 32  19  20  1   
 33  19  21  1   
 34  20  22  1   
 35  20  23  1   
 36  20  37  1   
 37  21  24  1   
 38  21  25  1   
 39  21  38  1   
 40  22  39  1   
 41  22  40  1   
 42  22  41  1   
 43  23  42  1   
 44  23  43  1   
 45  23  44  1   
 46  24  45  1   
 47  24  46  1   
 48  24  47  1   
 49  25  48  1   
 50  25  49  1   
 51  25  50  1   
@<TRIPOS>SUBSTRUCTURE
  1 ****   9 GROUP 4 **** **** 0

# MOE 2024.06 (io_trps.svl 2023.06)
