@<TRIPOS>MOLECULE
NONAME
47 48 1 0 0 
SMALL
USER_CHARGES


@<TRIPOS>ATOM
  1 S        0.4340    -0.7270    -1.2210 S.o2  1 <1>   1.4470 
  2 O        1.6410    -1.2650    -1.8040 O.2   1 <1>  -0.6500 
  3 O       -0.2090     0.4170    -1.8290 O.2   1 <1>  -0.6500 
  4 N        0.8370    -0.2810     0.3450 N.am  1 <1>  -0.9140 
  5 C       -0.7910    -2.0420    -0.9740 C.ar  1 <1>  -0.0090 
  6 C        1.5230     1.0050     0.4420 C.3   1 <1>   0.1960 
  7 C       -2.0500    -1.7510    -0.4720 C.ar  1 <1>  -0.1500 
  8 C       -0.5040    -3.3670    -1.2690 C.ar  1 <1>  -0.1500 
  9 C        3.0070     0.8590     0.0600 C.3   1 <1>   0.2000 
 10 C       -3.0290    -2.7230    -0.2690 C.ar  1 <1>   0.0860 
 11 C       -1.4480    -4.3580    -1.0750 C.ar  1 <1>  -0.1500 
 12 O        3.5450    -0.2540     0.7010 O.3   1 <1>  -0.5600 
 13 C        3.9010     2.0100     0.5020 C.3   1 <1>  -0.1600 
 14 C       -2.7040    -4.0490    -0.5820 C.ar  1 <1>  -0.1430 
 15 C       -4.3300    -2.3220     0.2370 C.2   1 <1>   0.5440 
 16 C        4.9310    -0.1590     0.7080 C.3   1 <1>   0.1200 
 17 C        5.2510     1.3350     0.7010 C.3   1 <1>  -0.1600 
 18 C       -3.7170    -5.1720    -0.3910 C.3   1 <1>  -0.0970 
 19 O       -4.8050    -2.8480     1.2240 O.2   1 <1>  -0.5700 
 20 N       -5.0190    -1.3330    -0.4150 N.am  1 <1>  -0.7300 
 21 C       -6.3430    -0.7620    -0.1040 C.3   1 <1>   0.2200 
 22 C       -6.3250    -0.0980     1.2710 C.3   1 <1>  -0.2400 
 23 C       -7.4210    -1.8380    -0.2120 C.3   1 <1>  -0.2400 
 24 H        1.5740    -0.9460     0.6090 H     1 <1>   0.4200 
 25 H        1.4670     1.3380     1.4640 H     1 <1>   0.0800 
 26 H        1.0430     1.7510    -0.1680 H     1 <1>   0.0800 
 27 H       -2.2790    -0.7280    -0.2230 H     1 <1>   0.1500 
 28 H        0.4680    -3.6280    -1.6560 H     1 <1>   0.1500 
 29 H        3.1090     0.7070    -1.0020 H     1 <1>   0.0800 
 30 H       -1.1940    -5.3780    -1.3120 H     1 <1>   0.1500 
 31 H        3.5510     2.4140     1.4360 H     1 <1>   0.0800 
 32 H        3.9340     2.7920    -0.2350 H     1 <1>   0.0800 
 33 H        5.3040    -0.6430    -0.1790 H     1 <1>   0.0800 
 34 H        5.3080    -0.6550     1.5860 H     1 <1>   0.0800 
 35 H        5.7070     1.6350     1.6280 H     1 <1>   0.0800 
 36 H        5.9240     1.5590    -0.1080 H     1 <1>   0.0800 
 37 H       -4.6540    -4.9120    -0.8510 H     1 <1>   0.0800 
 38 H       -3.8850    -5.3350     0.6590 H     1 <1>   0.0800 
 39 H       -3.3690    -6.0900    -0.8280 H     1 <1>   0.0800 
 40 H       -4.5960    -0.9530    -1.2620 H     1 <1>   0.3700 
 41 H       -6.5540    -0.0020    -0.8380 H     1 <1>   0.0800 
 42 H       -6.1690    -0.8280     2.0460 H     1 <1>   0.0800 
 43 H       -7.2650     0.3900     1.4540 H     1 <1>   0.0800 
 44 H       -5.5430     0.6380     1.3170 H     1 <1>   0.0800 
 45 H       -7.2820    -2.5930     0.5420 H     1 <1>   0.0800 
 46 H       -7.3900    -2.2970    -1.1830 H     1 <1>   0.0800 
 47 H       -8.3910    -1.3990    -0.0710 H     1 <1>   0.0800 
@<TRIPOS>BOND
  1   1   2  2   
  2   1   3  2   
  3   1   4  am  
  4   1   5  1   
  5   4   6  1   
  6   4  24  1   
  7   5   7  ar  
  8   5   8  ar  
  9   6   9  1   
 10   6  25  1   
 11   6  26  1   
 12   7  10  ar  
 13   7  27  1   
 14   8  11  ar  
 15   8  28  1   
 16   9  12  1   
 17   9  13  1   
 18   9  29  1   
 19  10  14  ar  
 20  10  15  1   
 21  11  14  ar  
 22  11  30  1   
 23  12  16  1   
 24  13  17  1   
 25  13  31  1   
 26  13  32  1   
 27  14  18  1   
 28  15  19  2   
 29  15  20  am  
 30  16  17  1   
 31  16  33  1   
 32  16  34  1   
 33  17  35  1   
 34  17  36  1   
 35  18  37  1   
 36  18  38  1   
 37  18  39  1   
 38  20  21  1   
 39  20  40  1   
 40  21  22  1   
 41  21  23  1   
 42  21  41  1   
 43  22  42  1   
 44  22  43  1   
 45  22  44  1   
 46  23  45  1   
 47  23  46  1   
 48  23  47  1   
@<TRIPOS>SUBSTRUCTURE
  1 ****   5 GROUP 4 **** **** 0

# MOE 2024.06 (io_trps.svl 2023.06)
