@<TRIPOS>MOLECULE
NONAME
42 44 1 0 0 
SMALL
USER_CHARGES


@<TRIPOS>ATOM
  1 O       -1.0960    -1.4680     2.6140 O.2   1 <1>  -0.5700 
  2 C       -0.2540    -1.5080     1.7490 C.2   1 <1>   0.5690 
  3 N       -0.4860    -1.2780     0.4230 N.am  1 <1>  -0.5470 
  4 C        1.1910    -1.8360     2.1290 C.3   1 <1>   0.1710 
  5 C       -1.6320    -0.9560    -0.3190 C.ar  1 <1>   0.1170 
  6 N        2.1960    -1.3330     1.1440 N.3   1 <1>  -0.8100 
  7 C       -1.4800    -0.6340    -1.6630 C.ar  1 <1>  -0.1500 
  8 C       -2.9150    -0.9470     0.2210 C.ar  1 <1>  -0.1500 
  9 C        3.5020    -2.0070     1.3290 C.3   1 <1>   0.1100 
 10 C        2.3790     0.1360     1.2740 C.3   1 <1>   0.1100 
 11 C       -2.5730    -0.3090    -2.4460 C.ar  1 <1>  -0.1500 
 12 C       -4.0110    -0.6230    -0.5590 C.ar  1 <1>  -0.1500 
 13 C        4.5640    -1.5000     0.3340 C.3   1 <1>   0.2090 
 14 C        3.4230     0.6860     0.2820 C.3   1 <1>   0.2090 
 15 C       -3.8420    -0.3030    -1.8950 C.ar  1 <1>  -0.1500 
 16 N        4.7260    -0.0190     0.4310 N.pl3 1 <1>  -0.8380 
 17 C        5.8000     0.5520    -0.2220 C.ar  1 <1>   0.4100 
 18 N        6.1800     0.0070    -1.3730 N.ar  1 <1>  -0.6200 
 19 C        6.4230     1.6650     0.3370 C.ar  1 <1>  -0.1500 
 20 C        7.2020     0.5890    -1.9770 C.ar  1 <1>   0.1600 
 21 C        7.4840     2.2610    -0.3020 C.ar  1 <1>  -0.1500 
 22 C        7.8780     1.6970    -1.4980 C.ar  1 <1>  -0.1500 
 23 H        0.3940    -1.3080    -0.1030 H     1 <1>   0.3700 
 24 H        1.2610    -2.9070     2.1930 H     1 <1>   0.0800 
 25 H        1.3970    -1.4340     3.1060 H     1 <1>   0.0800 
 26 H       -0.4990    -0.6360    -2.1010 H     1 <1>   0.1500 
 27 H       -3.0680    -1.1950     1.2550 H     1 <1>   0.1500 
 28 H        3.3810    -3.0670     1.1880 H     1 <1>   0.0800 
 29 H        3.8630    -1.8410     2.3300 H     1 <1>   0.0800 
 30 H        2.7010     0.3760     2.2730 H     1 <1>   0.0800 
 31 H        1.4430     0.6370     1.0990 H     1 <1>   0.0800 
 32 H       -2.4380    -0.0620    -3.4850 H     1 <1>   0.1500 
 33 H       -4.9950    -0.6200    -0.1250 H     1 <1>   0.1500 
 34 H        4.2690    -1.7650    -0.6670 H     1 <1>   0.0800 
 35 H        5.5080    -1.9740     0.5400 H     1 <1>   0.0800 
 36 H        3.5610     1.7390     0.4560 H     1 <1>   0.0800 
 37 H        3.0640     0.5570    -0.7240 H     1 <1>   0.0800 
 38 H       -4.6940    -0.0510    -2.5010 H     1 <1>   0.1500 
 39 H        6.0600     2.0400     1.2750 H     1 <1>   0.1500 
 40 H        7.5190     0.1570    -2.9100 H     1 <1>   0.1500 
 41 H        7.9830     3.1210     0.1080 H     1 <1>   0.1500 
 42 H        8.7010     2.1110    -2.0520 H     1 <1>   0.1500 
@<TRIPOS>BOND
  1   1   2  2   
  2   2   3  am  
  3   2   4  1   
  4   3   5  1   
  5   3  23  1   
  6   4   6  1   
  7   4  24  1   
  8   4  25  1   
  9   5   7  ar  
 10   5   8  ar  
 11   6   9  1   
 12   6  10  1   
 13   7  11  ar  
 14   7  26  1   
 15   8  12  ar  
 16   8  27  1   
 17   9  13  1   
 18   9  28  1   
 19   9  29  1   
 20  10  14  1   
 21  10  30  1   
 22  10  31  1   
 23  11  15  ar  
 24  11  32  1   
 25  12  15  ar  
 26  12  33  1   
 27  13  16  1   
 28  13  34  1   
 29  13  35  1   
 30  14  16  1   
 31  14  36  1   
 32  14  37  1   
 33  15  38  1   
 34  16  17  1   
 35  17  18  ar  
 36  17  19  ar  
 37  18  20  ar  
 38  19  21  ar  
 39  19  39  1   
 40  20  22  ar  
 41  20  40  1   
 42  21  22  ar  
 43  21  41  1   
 44  22  42  1   
@<TRIPOS>SUBSTRUCTURE
  1 ****  10 GROUP 4 **** **** 0

# MOE 2024.06 (io_trps.svl 2023.06)
