@<TRIPOS>MOLECULE
NONAME
55 56 1 0 0 
SMALL
USER_CHARGES


@<TRIPOS>ATOM
  1 O        4.6390    -6.0120     1.2780 O.3   1 <1>  -0.3630 
  2 C        5.3160    -5.3750     0.2960 C.ar  1 <1>   0.0830 
  3 C        3.6680    -6.9550     0.8810 C.3   1 <1>   0.1200 
  4 C        6.4030    -5.9660    -0.3520 C.ar  1 <1>  -0.1440 
  5 C        4.9020    -4.0960    -0.0430 C.ar  1 <1>  -0.1500 
  6 C        2.3340    -6.2450     0.6420 C.3   1 <1>  -0.1600 
  7 C        7.0270    -5.2550    -1.3690 C.ar  1 <1>  -0.1500 
  8 C        6.9290    -7.3530     0.0370 C.3   1 <1>   0.0640 
  9 C        5.5390    -3.4010    -1.0530 C.ar  1 <1>  -0.1500 
 10 C        1.2320    -7.2610     0.3320 C.3   1 <1>   0.1100 
 11 C        6.6000    -3.9850    -1.7210 C.ar  1 <1>  -0.1500 
 12 C        8.3860    -7.2550     0.5280 C.3   1 <1>  -0.1600 
 13 C        6.7700    -8.3280    -1.1400 C.3   1 <1>  -0.2400 
 14 N       -0.0040    -6.5790    -0.0850 N.3   1 <1>  -0.8100 
 15 C        8.9200    -8.5630     1.1300 C.3   1 <1>  -0.2400 
 16 C       -0.9270    -7.5180    -0.7660 C.3   1 <1>   0.1100 
 17 C       -0.6990    -5.9030     1.0420 C.3   1 <1>   0.1100 
 18 C       -2.2150    -6.8200    -1.2680 C.3   1 <1>   0.3430 
 19 C       -2.0320    -5.2430     0.6100 C.3   1 <1>   0.3430 
 20 N       -2.2430    -5.3740    -0.8710 N.4   1 <1>  -0.9590 
 21 C       -3.4210    -4.6490    -1.4050 C.3   1 <1>   0.3430 
 22 C       -3.1890    -3.1460    -1.3060 C.3   1 <1>  -0.2400 
 23 H        3.5790    -7.6720     1.6780 H     1 <1>   0.0800 
 24 H        4.0080    -7.4560    -0.0090 H     1 <1>   0.0800 
 25 H        4.0810    -3.6510     0.4870 H     1 <1>   0.1500 
 26 H        2.4370    -5.5780    -0.1950 H     1 <1>   0.0800 
 27 H        2.0860    -5.6850     1.5240 H     1 <1>   0.0800 
 28 H        7.8600    -5.6840    -1.8960 H     1 <1>   0.1500 
 29 H        6.3480    -7.7350     0.8570 H     1 <1>   0.0800 
 30 H        5.2130    -2.4100    -1.3180 H     1 <1>   0.1500 
 31 H        1.0460    -7.8880     1.1900 H     1 <1>   0.0800 
 32 H        1.5750    -7.8900    -0.4740 H     1 <1>   0.0800 
 33 H        7.0990    -3.4510    -2.5100 H     1 <1>   0.1500 
 34 H        8.4340    -6.4890     1.2820 H     1 <1>   0.0800 
 35 H        9.0280    -6.9530    -0.2810 H     1 <1>   0.0800 
 36 H        5.7610    -8.2930    -1.5090 H     1 <1>   0.0800 
 37 H        6.9800    -9.3340    -0.8290 H     1 <1>   0.0800 
 38 H        7.4360    -8.0670    -1.9420 H     1 <1>   0.0800 
 39 H        8.2800    -8.8990     1.9260 H     1 <1>   0.0800 
 40 H        9.9050    -8.4020     1.5310 H     1 <1>   0.0800 
 41 H        8.9840    -9.3330     0.3830 H     1 <1>   0.0800 
 42 H       -1.1960    -8.3170    -0.0940 H     1 <1>   0.0800 
 43 H       -0.4270    -7.9630    -1.6100 H     1 <1>   0.0800 
 44 H       -0.0630    -5.1350     1.4470 H     1 <1>   0.0800 
 45 H       -0.8940    -6.6080     1.8310 H     1 <1>   0.0800 
 46 H       -3.0740    -7.3310    -0.8660 H     1 <1>   0.0800 
 47 H       -2.2570    -6.9030    -2.3420 H     1 <1>   0.0800 
 48 H       -2.0080    -4.2030     0.8910 H     1 <1>   0.0800 
 49 H       -2.8460    -5.7070     1.1400 H     1 <1>   0.0800 
 50 H       -1.3750    -4.9920    -1.2780 H     1 <1>   0.4500 
 51 H       -4.3090    -4.9250    -0.8590 H     1 <1>   0.0800 
 52 H       -3.5660    -4.9110    -2.4410 H     1 <1>   0.0800 
 53 H       -3.1410    -2.8210    -0.2830 H     1 <1>   0.0800 
 54 H       -4.0120    -2.6330    -1.7730 H     1 <1>   0.0800 
 55 H       -2.2880    -2.8640    -1.8210 H     1 <1>   0.0800 
@<TRIPOS>BOND
  1   1   2  1   
  2   1   3  1   
  3   2   4  ar  
  4   2   5  ar  
  5   3   6  1   
  6   3  23  1   
  7   3  24  1   
  8   4   7  ar  
  9   4   8  1   
 10   5   9  ar  
 11   5  25  1   
 12   6  10  1   
 13   6  26  1   
 14   6  27  1   
 15   7  11  ar  
 16   7  28  1   
 17   8  12  1   
 18   8  13  1   
 19   8  29  1   
 20   9  11  ar  
 21   9  30  1   
 22  10  14  1   
 23  10  31  1   
 24  10  32  1   
 25  11  33  1   
 26  12  15  1   
 27  12  34  1   
 28  12  35  1   
 29  13  36  1   
 30  13  37  1   
 31  13  38  1   
 32  14  16  1   
 33  14  17  1   
 34  15  39  1   
 35  15  40  1   
 36  15  41  1   
 37  16  18  1   
 38  16  42  1   
 39  16  43  1   
 40  17  19  1   
 41  17  44  1   
 42  17  45  1   
 43  18  20  1   
 44  18  46  1   
 45  18  47  1   
 46  19  20  1   
 47  19  48  1   
 48  19  49  1   
 49  20  21  1   
 50  20  50  1   
 51  21  22  1   
 52  21  51  1   
 53  21  52  1   
 54  22  53  1   
 55  22  54  1   
 56  22  55  1   
@<TRIPOS>SUBSTRUCTURE
  1 ****   6 GROUP 4 **** **** 0

# MOE 2024.06 (io_trps.svl 2023.06)
