@<TRIPOS>MOLECULE
NONAME
43 46 1 0 0 
SMALL
USER_CHARGES


@<TRIPOS>ATOM
  1 O       -0.7300     0.9960    -1.1020 O.2   1 <1>  -0.5700 
  2 C       -0.5650     2.1450    -0.7260 C.2   1 <1>   0.7150 
  3 N       -1.4570     3.1160    -1.1510 N.am  1 <1>  -0.6600 
  4 C        0.5290     2.4730     0.1660 C.2   1 <1>   0.0550 
  5 C       -2.7800     2.7450    -1.7510 C.3   1 <1>   0.1400 
  6 C       -1.0530     4.5420    -1.3200 C.3   1 <1>   0.0600 
  7 O        1.6990     1.8420     0.0870 O.3   1 <1>  -0.2800 
  8 C        0.6090     3.3870     1.1750 C.2   1 <1>  -0.1500 
  9 C       -3.9370     2.6680    -0.7240 C.3   1 <1>   0.0000 
 10 C        2.5080     2.3230     1.0020 C.2   1 <1>  -0.0100 
 11 C        1.8920     3.2900     1.7140 C.2   1 <1>  -0.1500 
 12 C       -3.6840     1.5730     0.3400 C.3   1 <1>  -0.1600 
 13 C       -5.2360     2.3090    -1.4850 C.3   1 <1>  -0.1600 
 14 C       -4.1600     4.0150     0.0050 C.3   1 <1>  -0.1600 
 15 C       -4.8740     1.4680     1.3140 C.3   1 <1>  -0.0800 
 16 C       -6.4340     2.2080    -0.5230 C.3   1 <1>  -0.0800 
 17 C       -5.3540     3.9230     0.9750 C.3   1 <1>  -0.0800 
 18 C       -6.1470     1.1170     0.5240 C.3   1 <1>  -0.1600 
 19 C       -5.0720     2.8240     2.0170 C.3   1 <1>  -0.1600 
 20 C       -6.6250     3.5600     0.1870 C.3   1 <1>  -0.1600 
 21 H       -2.6920     1.7900    -2.2410 H     1 <1>   0.0800 
 22 H       -3.0340     3.4600    -2.5130 H     1 <1>   0.0800 
 23 H        0.0160     4.6450    -1.2460 H     1 <1>   0.0800 
 24 H       -1.5160     5.1490    -0.5640 H     1 <1>   0.0800 
 25 H       -1.3530     4.8980    -2.2900 H     1 <1>   0.0800 
 26 H       -0.1610     4.0570     1.5130 H     1 <1>   0.1500 
 27 H        3.5040     1.9220     1.0800 H     1 <1>   0.1500 
 28 H        2.2810     3.8740     2.5290 H     1 <1>   0.1500 
 29 H       -2.7960     1.8010     0.9020 H     1 <1>   0.0800 
 30 H       -3.5250     0.6240    -0.1420 H     1 <1>   0.0800 
 31 H       -5.1120     1.3680    -1.9940 H     1 <1>   0.0800 
 32 H       -5.4430     3.0570    -2.2310 H     1 <1>   0.0800 
 33 H       -4.3380     4.7970    -0.7130 H     1 <1>   0.0800 
 34 H       -3.2820     4.2750     0.5670 H     1 <1>   0.0800 
 35 H       -4.6770     0.7030     2.0450 H     1 <1>   0.0800 
 36 H       -7.3240     1.9570    -1.0740 H     1 <1>   0.0800 
 37 H       -5.4920     4.8680     1.4730 H     1 <1>   0.0800 
 38 H       -6.9820     1.0300     1.1980 H     1 <1>   0.0800 
 39 H       -6.0210     0.1660     0.0360 H     1 <1>   0.0800 
 40 H       -5.8940     2.7580     2.7080 H     1 <1>   0.0800 
 41 H       -4.1900     3.0730     2.5810 H     1 <1>   0.0800 
 42 H       -7.4650     3.5030     0.8570 H     1 <1>   0.0800 
 43 H       -6.8370     4.3270    -0.5380 H     1 <1>   0.0800 
@<TRIPOS>BOND
  1   1   2  2   
  2   2   3  am  
  3   2   4  1   
  4   3   5  1   
  5   3   6  1   
  6   4   7  1   
  7   4   8  2   
  8   5   9  1   
  9   5  21  1   
 10   5  22  1   
 11   6  23  1   
 12   6  24  1   
 13   6  25  1   
 14   7  10  1   
 15   8  11  1   
 16   8  26  1   
 17   9  12  1   
 18   9  13  1   
 19   9  14  1   
 20  10  11  2   
 21  10  27  1   
 22  11  28  1   
 23  12  15  1   
 24  12  29  1   
 25  12  30  1   
 26  13  16  1   
 27  13  31  1   
 28  13  32  1   
 29  14  17  1   
 30  14  33  1   
 31  14  34  1   
 32  15  18  1   
 33  15  19  1   
 34  15  35  1   
 35  16  18  1   
 36  16  20  1   
 37  16  36  1   
 38  17  19  1   
 39  17  20  1   
 40  17  37  1   
 41  18  38  1   
 42  18  39  1   
 43  19  40  1   
 44  19  41  1   
 45  20  42  1   
 46  20  43  1   
@<TRIPOS>SUBSTRUCTURE
  1 ****  12 GROUP 4 **** **** 0

# MOE 2024.06 (io_trps.svl 2023.06)
