@<TRIPOS>MOLECULE
NONAME
43 44 1 0 0 
SMALL
USER_CHARGES


@<TRIPOS>ATOM
  1 O       -1.1370    -0.1400    -1.0400 O.3   1 <1>  -0.5600 
  2 C       -0.9900    -1.4990    -0.7250 C.3   1 <1>   0.1200 
  3 C       -1.6190     0.6450     0.0160 C.3   1 <1>   0.1200 
  4 C       -2.3170    -2.1070    -0.2120 C.3   1 <1>   0.3430 
  5 C       -3.0080     0.1530     0.4870 C.3   1 <1>   0.3430 
  6 N       -3.4290    -1.0970    -0.2390 N.4   1 <1>  -0.9590 
  7 C       -4.7250    -1.6670     0.2200 C.3   1 <1>   0.3430 
  8 C       -5.8860    -0.7460    -0.1640 C.3   1 <1>  -0.1600 
  9 C       -7.2270    -1.3880     0.2200 C.3   1 <1>  -0.1600 
 10 C       -8.4160    -0.5030    -0.1600 C.3   1 <1>   0.1200 
 11 O       -9.5850    -1.1730     0.2420 O.3   1 <1>  -0.3630 
 12 C      -10.8130    -0.6290     0.0380 C.ar  1 <1>   0.0820 
 13 C      -11.0250     0.6030    -0.5770 C.ar  1 <1>  -0.1500 
 14 C      -11.9000    -1.3670     0.4790 C.ar  1 <1>  -0.1500 
 15 C      -12.3150     1.0770    -0.7410 C.ar  1 <1>  -0.1500 
 16 C      -13.1890    -0.8920     0.3140 C.ar  1 <1>  -0.1500 
 17 C      -13.4020     0.3390    -0.3000 C.ar  1 <1>   0.0820 
 18 O      -14.6310     0.8820    -0.5030 O.3   1 <1>  -0.3620 
 19 C      -15.8000     0.2080    -0.0910 C.3   1 <1>   0.0400 
 20 H       -0.2130    -1.6010     0.0130 H     1 <1>   0.0800 
 21 H       -0.6700    -2.0080    -1.6190 H     1 <1>   0.0800 
 22 H       -1.6830     1.6610    -0.3310 H     1 <1>   0.0800 
 23 H       -0.9080     0.6100     0.8240 H     1 <1>   0.0800 
 24 H       -2.1700    -2.4650     0.7930 H     1 <1>   0.0800 
 25 H       -2.5730    -2.9560    -0.8250 H     1 <1>   0.0800 
 26 H       -3.7280     0.9370     0.3170 H     1 <1>   0.0800 
 27 H       -2.9730    -0.0290     1.5480 H     1 <1>   0.0800 
 28 H       -3.5070    -0.8190    -1.2300 H     1 <1>   0.4500 
 29 H       -4.7090    -1.8130     1.2880 H     1 <1>   0.0800 
 30 H       -4.8800    -2.6270    -0.2470 H     1 <1>   0.0800 
 31 H       -5.8740    -0.5730    -1.2260 H     1 <1>   0.0800 
 32 H       -5.7980     0.1970     0.3470 H     1 <1>   0.0800 
 33 H       -7.2560    -1.5610     1.2830 H     1 <1>   0.0800 
 34 H       -7.3340    -2.3340    -0.2840 H     1 <1>   0.0800 
 35 H       -8.4620    -0.3510    -1.2250 H     1 <1>   0.0800 
 36 H       -8.3760     0.4430     0.3540 H     1 <1>   0.0800 
 37 H      -10.2110     1.2030    -0.9320 H     1 <1>   0.1500 
 38 H      -11.7270    -2.3160     0.9520 H     1 <1>   0.1500 
 39 H      -12.4910     2.0260    -1.2150 H     1 <1>   0.1500 
 40 H      -14.0060    -1.4910     0.6680 H     1 <1>   0.1500 
 41 H      -16.6460     0.8190    -0.3510 H     1 <1>   0.0800 
 42 H      -15.7640     0.0690     0.9750 H     1 <1>   0.0800 
 43 H      -15.8580    -0.7350    -0.6030 H     1 <1>   0.0800 
@<TRIPOS>BOND
  1   1   2  1   
  2   1   3  1   
  3   2   4  1   
  4   2  20  1   
  5   2  21  1   
  6   3   5  1   
  7   3  22  1   
  8   3  23  1   
  9   4   6  1   
 10   4  24  1   
 11   4  25  1   
 12   5   6  1   
 13   5  26  1   
 14   5  27  1   
 15   6   7  1   
 16   6  28  1   
 17   7   8  1   
 18   7  29  1   
 19   7  30  1   
 20   8   9  1   
 21   8  31  1   
 22   8  32  1   
 23   9  10  1   
 24   9  33  1   
 25   9  34  1   
 26  10  11  1   
 27  10  35  1   
 28  10  36  1   
 29  11  12  1   
 30  12  13  ar  
 31  12  14  ar  
 32  13  15  ar  
 33  13  37  1   
 34  14  16  ar  
 35  14  38  1   
 36  15  17  ar  
 37  15  39  1   
 38  16  17  ar  
 39  16  40  1   
 40  17  18  1   
 41  18  19  1   
 42  19  41  1   
 43  19  42  1   
 44  19  43  1   
@<TRIPOS>SUBSTRUCTURE
  1 ****  10 GROUP 4 **** **** 0

# MOE 2024.06 (io_trps.svl 2023.06)
