@<TRIPOS>MOLECULE
NONAME
39 39 1 0 0 
SMALL
USER_CHARGES


@<TRIPOS>ATOM
  1 CL      -2.2150     1.2870     3.5480 Cl    1 <1>  -0.1770 
  2 C       -2.5790     1.5130     1.8580 C.ar  1 <1>   0.1770 
  3 C       -3.6960     0.8960     1.3250 C.ar  1 <1>  -0.1500 
  4 C       -1.7530     2.3010     1.0820 C.ar  1 <1>  -0.1500 
  5 C       -4.0040     1.0780    -0.0170 C.ar  1 <1>  -0.1440 
  6 C       -2.0510     2.4730    -0.2580 C.ar  1 <1>  -0.1500 
  7 C       -3.1700     1.8630    -0.8040 C.ar  1 <1>  -0.1500 
  8 C       -5.2360     0.4260    -0.6170 C.3   1 <1>   0.4870 
  9 N       -6.4500     1.1320    -0.0920 N.4   1 <1>  -0.9590 
 10 C       -7.6940     0.3110    -0.3400 C.3   1 <1>   0.3430 
 11 C       -6.5030     2.5220    -0.6390 C.3   1 <1>   0.3430 
 12 C       -8.9880     0.8460     0.3450 C.3   1 <1>   0.3430 
 13 C       -6.8220     3.4850     0.4980 C.3   1 <1>  -0.2400 
 14 N      -10.2000    -0.0450     0.1930 N.4   1 <1>  -0.9590 
 15 C      -10.6850    -0.1760    -1.2240 C.3   1 <1>   0.2630 
 16 C      -11.3300     0.4700     1.0410 C.3   1 <1>   0.2630 
 17 H       -4.2930     0.2820     1.9760 H     1 <1>   0.1500 
 18 H       -0.8880     2.7680     1.5220 H     1 <1>   0.1500 
 19 H       -1.4080     3.0810    -0.8740 H     1 <1>   0.1500 
 20 H       -3.3700     2.0110    -1.8530 H     1 <1>   0.1500 
 21 H       -5.2520    -0.6130    -0.3290 H     1 <1>   0.0800 
 22 H       -5.1990     0.4820    -1.6930 H     1 <1>   0.0800 
 23 H       -6.2590     1.2290     0.9170 H     1 <1>   0.4500 
 24 H       -7.5180    -0.6900     0.0210 H     1 <1>   0.0800 
 25 H       -7.8650     0.2530    -1.4020 H     1 <1>   0.0800 
 26 H       -7.2400     2.6010    -1.4220 H     1 <1>   0.0800 
 27 H       -5.5470     2.7990    -1.0550 H     1 <1>   0.0800 
 28 H       -9.2190     1.8170    -0.0610 H     1 <1>   0.0800 
 29 H       -8.7840     0.9660     1.3960 H     1 <1>   0.0800 
 30 H       -7.7810     3.2950     0.9390 H     1 <1>   0.0800 
 31 H       -6.8340     4.4890     0.1100 H     1 <1>   0.0800 
 32 H       -6.0570     3.4430     1.2540 H     1 <1>   0.0800 
 33 H       -9.9910    -0.9960     0.5480 H     1 <1>   0.4500 
 34 H      -10.9500     0.7890    -1.6250 H     1 <1>   0.0800 
 35 H      -11.5590    -0.8080    -1.2620 H     1 <1>   0.0800 
 36 H       -9.9270    -0.6170    -1.8510 H     1 <1>   0.0800 
 37 H      -11.6280     1.4550     0.7180 H     1 <1>   0.0800 
 38 H      -11.0350     0.5210     2.0770 H     1 <1>   0.0800 
 39 H      -12.1850    -0.1840     0.9650 H     1 <1>   0.0800 
@<TRIPOS>BOND
  1   1   2  1   
  2   2   3  ar  
  3   2   4  ar  
  4   3   5  ar  
  5   3  17  1   
  6   4   6  ar  
  7   4  18  1   
  8   5   7  ar  
  9   5   8  1   
 10   6   7  ar  
 11   6  19  1   
 12   7  20  1   
 13   8   9  1   
 14   8  21  1   
 15   8  22  1   
 16   9  10  1   
 17   9  11  1   
 18   9  23  1   
 19  10  12  1   
 20  10  24  1   
 21  10  25  1   
 22  11  13  1   
 23  11  26  1   
 24  11  27  1   
 25  12  14  1   
 26  12  28  1   
 27  12  29  1   
 28  13  30  1   
 29  13  31  1   
 30  13  32  1   
 31  14  15  1   
 32  14  16  1   
 33  14  33  1   
 34  15  34  1   
 35  15  35  1   
 36  15  36  1   
 37  16  37  1   
 38  16  38  1   
 39  16  39  1   
@<TRIPOS>SUBSTRUCTURE
  1 ****   9 GROUP 4 **** **** 0

# MOE 2024.06 (io_trps.svl 2023.06)
