@<TRIPOS>MOLECULE
NONAME
40 41 1 0 0 
SMALL
USER_CHARGES


@<TRIPOS>ATOM
  1 S        0.0290    -0.4200    -0.0900 S.3   1 <1>  -0.3710 
  2 C       -1.4270     0.6230    -0.1970 C.2   1 <1>   0.6510 
  3 C        1.4210     0.7930    -0.1340 C.3   1 <1>   0.0700 
  4 N       -1.2220     1.8840    -0.2750 N.2   1 <1>  -0.6210 
  5 N       -2.6520    -0.0230    -0.1860 N.am  1 <1>  -0.2370 
  6 C        2.7340     0.0140    -0.0500 C.3   1 <1>  -0.1600 
  7 C       -2.3160     2.6970    -0.3570 C.2   1 <1>   0.0210 
  8 C       -3.7730     0.7980    -0.2700 C.2   1 <1>   0.6160 
  9 C       -2.7760    -1.4220    -0.0970 C.ar  1 <1>   0.1170 
 10 C        3.9390     0.9630    -0.0820 C.3   1 <1>  -0.1600 
 11 O       -2.1150     3.9080    -0.4320 O.3   1 <1>  -0.8500 
 12 C       -3.5890     2.1650    -0.3550 C.2   1 <1>  -0.1360 
 13 O       -4.9060     0.2810    -0.2650 O.2   1 <1>  -0.5700 
 14 C       -2.8060    -2.2030    -1.2470 C.ar  1 <1>  -0.1500 
 15 C       -2.8700    -2.0460     1.1410 C.ar  1 <1>  -0.1500 
 16 C        5.2580     0.1870     0.0030 C.3   1 <1>  -0.1600 
 17 C       -2.9220    -3.5790    -1.1610 C.ar  1 <1>  -0.1500 
 18 C       -2.9860    -3.4220     1.2300 C.ar  1 <1>  -0.1500 
 19 C        6.4610     1.1370    -0.0300 C.3   1 <1>  -0.1600 
 20 C       -3.0110    -4.1900     0.0790 C.ar  1 <1>  -0.1500 
 21 C        7.7780     0.3620     0.0550 C.3   1 <1>  -0.2400 
 22 H        1.2890     1.4590     0.7010 H     1 <1>   0.0800 
 23 H        1.3340     1.3440    -1.0550 H     1 <1>   0.0800 
 24 H        2.7890    -0.6700    -0.8780 H     1 <1>   0.0800 
 25 H        2.7450    -0.5550     0.8640 H     1 <1>   0.0800 
 26 H        3.8720     1.6500     0.7450 H     1 <1>   0.0800 
 27 H        3.9160     1.5360    -0.9940 H     1 <1>   0.0800 
 28 H       -4.4280     2.8230    -0.4200 H     1 <1>   0.1500 
 29 H       -2.7380    -1.7250    -2.2070 H     1 <1>   0.1500 
 30 H       -2.8530    -1.4450     2.0330 H     1 <1>   0.1500 
 31 H        5.3220    -0.5000    -0.8240 H     1 <1>   0.0800 
 32 H        5.2780    -0.3850     0.9150 H     1 <1>   0.0800 
 33 H       -2.9430    -4.1740    -2.0570 H     1 <1>   0.1500 
 34 H       -3.0570    -3.8930     2.1950 H     1 <1>   0.1500 
 35 H        6.4000     1.8240     0.7970 H     1 <1>   0.0800 
 36 H        6.4440     1.7090    -0.9410 H     1 <1>   0.0800 
 37 H       -3.1010    -5.2600     0.1470 H     1 <1>   0.1500 
 38 H        7.8250    -0.2020     0.9700 H     1 <1>   0.0800 
 39 H        8.6090     1.0440     0.0310 H     1 <1>   0.0800 
 40 H        7.8690    -0.3170    -0.7750 H     1 <1>   0.0800 
@<TRIPOS>BOND
  1   1   2  1   
  2   1   3  1   
  3   2   4  2   
  4   2   5  1   
  5   3   6  1   
  6   3  22  1   
  7   3  23  1   
  8   4   7  1   
  9   5   8  am  
 10   5   9  1   
 11   6  10  1   
 12   6  24  1   
 13   6  25  1   
 14   7  11  1   
 15   7  12  2   
 16   8  12  1   
 17   8  13  2   
 18   9  14  ar  
 19   9  15  ar  
 20  10  16  1   
 21  10  26  1   
 22  10  27  1   
 23  12  28  1   
 24  14  17  ar  
 25  14  29  1   
 26  15  18  ar  
 27  15  30  1   
 28  16  19  1   
 29  16  31  1   
 30  16  32  1   
 31  17  20  ar  
 32  17  33  1   
 33  18  20  ar  
 34  18  34  1   
 35  19  21  1   
 36  19  35  1   
 37  19  36  1   
 38  20  37  1   
 39  21  38  1   
 40  21  39  1   
 41  21  40  1   
@<TRIPOS>SUBSTRUCTURE
  1 ****   1 GROUP 4 **** **** 0

# MOE 2024.06 (io_trps.svl 2023.06)
