@<TRIPOS>MOLECULE
NONAME
34 34 1 0 0 
SMALL
USER_CHARGES


@<TRIPOS>ATOM
  1 O        1.1330     2.8180    -1.8000 O.2   1 <1>  -0.5700 
  2 C        0.4900     2.5300    -0.8100 C.2   1 <1>   0.5440 
  3 N        1.0810     1.8660     0.2310 N.am  1 <1>  -0.7300 
  4 C       -0.9050     2.9120    -0.7060 C.ar  1 <1>   0.0860 
  5 C        2.4470     1.3530     0.3610 C.3   1 <1>   0.3000 
  6 C       -1.9440     1.9830    -0.5570 C.ar  1 <1>  -0.1440 
  7 C       -1.2420     4.2630    -0.7430 C.ar  1 <1>  -0.1500 
  8 C        3.4420     2.5130     0.3130 C.3   1 <1>  -0.2400 
  9 C        2.5240     0.6700     1.7250 C.3   1 <1>  -0.2400 
 10 C        2.7250     0.3290    -0.7390 C.3   1 <1>  -0.2400 
 11 C       -3.2530     2.4160    -0.4240 C.ar  1 <1>  -0.1500 
 12 C       -1.6680     0.4830    -0.5540 C.3   1 <1>  -0.0970 
 13 C       -2.5500     4.6890    -0.6140 C.ar  1 <1>  -0.1500 
 14 C       -3.5660     3.7640    -0.4500 C.ar  1 <1>  -0.1430 
 15 C       -5.0060     4.2210    -0.3030 C.3   1 <1>  -0.0970 
 16 H        0.5140     1.7210     1.0640 H     1 <1>   0.3700 
 17 H       -0.4560     4.9860    -0.8760 H     1 <1>   0.1500 
 18 H        3.2050     3.2450     1.0630 H     1 <1>   0.0800 
 19 H        3.4240     2.9860    -0.6530 H     1 <1>   0.0800 
 20 H        4.4400     2.1540     0.4860 H     1 <1>   0.0800 
 21 H        2.3210     1.3740     2.5130 H     1 <1>   0.0800 
 22 H        3.5090     0.2700     1.8810 H     1 <1>   0.0800 
 23 H        1.8200    -0.1410     1.7820 H     1 <1>   0.0800 
 24 H        2.7090     0.7990    -1.7060 H     1 <1>   0.0800 
 25 H        1.9890    -0.4540    -0.7200 H     1 <1>   0.0800 
 26 H        3.6960    -0.1090    -0.6020 H     1 <1>   0.0800 
 27 H       -4.0450     1.6980    -0.3020 H     1 <1>   0.1500 
 28 H       -1.2680     0.1820     0.3970 H     1 <1>   0.0800 
 29 H       -0.9600     0.2320    -1.3250 H     1 <1>   0.0800 
 30 H       -2.5690    -0.0730    -0.7380 H     1 <1>   0.0800 
 31 H       -2.7730     5.7410    -0.6430 H     1 <1>   0.1500 
 32 H       -5.6710     3.5190    -0.7740 H     1 <1>   0.0800 
 33 H       -5.1470     5.1820    -0.7630 H     1 <1>   0.0800 
 34 H       -5.2600     4.2940     0.7400 H     1 <1>   0.0800 
@<TRIPOS>BOND
  1   1   2  2   
  2   2   3  am  
  3   2   4  1   
  4   3   5  1   
  5   3  16  1   
  6   4   6  ar  
  7   4   7  ar  
  8   5   8  1   
  9   5   9  1   
 10   5  10  1   
 11   6  11  ar  
 12   6  12  1   
 13   7  13  ar  
 14   7  17  1   
 15   8  18  1   
 16   8  19  1   
 17   8  20  1   
 18   9  21  1   
 19   9  22  1   
 20   9  23  1   
 21  10  24  1   
 22  10  25  1   
 23  10  26  1   
 24  11  14  ar  
 25  11  27  1   
 26  12  28  1   
 27  12  29  1   
 28  12  30  1   
 29  13  14  ar  
 30  13  31  1   
 31  14  15  1   
 32  15  32  1   
 33  15  33  1   
 34  15  34  1   
@<TRIPOS>SUBSTRUCTURE
  1 ****   4 GROUP 4 **** **** 0

# MOE 2024.06 (io_trps.svl 2023.06)
