@<TRIPOS>MOLECULE
NONAME
33 33 1 0 0 
SMALL
USER_CHARGES


@<TRIPOS>ATOM
  1 CL       0.2610     0.5620     1.1490 Cl    1 <1>  -0.1770 
  2 C       -0.8140     1.8890     0.7640 C.ar  1 <1>   0.1770 
  3 C       -0.3150     3.1790     0.6530 C.ar  1 <1>   0.0830 
  4 C       -2.1510     1.6120     0.5620 C.ar  1 <1>  -0.1500 
  5 O        1.0090     3.3990     0.8300 O.3   1 <1>  -0.3630 
  6 C       -1.2120     4.2100     0.3590 C.ar  1 <1>   0.0830 
  7 C       -3.0540     2.6250     0.2340 C.ar  1 <1>   0.0860 
  8 C        1.7540     3.7330    -0.3190 C.3   1 <1>   0.1200 
  9 O       -0.8370     5.5100     0.2650 O.3   1 <1>  -0.3620 
 10 C       -2.5500     3.9250     0.1450 C.ar  1 <1>  -0.1500 
 11 C       -4.4550     2.3240     0.0030 C.2   1 <1>   0.5440 
 12 C        3.2170     3.8980     0.0920 C.3   1 <1>  -0.1600 
 13 C       -0.3050     6.1110     1.4270 C.3   1 <1>   0.0400 
 14 O       -4.9650     1.3410     0.5030 O.2   1 <1>  -0.5700 
 15 N       -5.2250     3.1300    -0.7930 N.am  1 <1>  -0.7300 
 16 C        4.0950     4.2650    -1.1090 C.3   1 <1>  -0.2400 
 17 C       -6.6670     2.9280    -1.0880 C.3   1 <1>   0.0600 
 18 H       -2.5010     0.5990     0.6560 H     1 <1>   0.1500 
 19 H        1.3660     4.6490    -0.7300 H     1 <1>   0.0800 
 20 H        1.6440     2.9370    -1.0350 H     1 <1>   0.0800 
 21 H       -3.2100     4.7420    -0.0800 H     1 <1>   0.1500 
 22 H        3.5680     2.9750     0.5200 H     1 <1>   0.0800 
 23 H        3.2910     4.6720     0.8350 H     1 <1>   0.0800 
 24 H       -0.2400     7.1710     1.2560 H     1 <1>   0.0800 
 25 H        0.6740     5.7140     1.6210 H     1 <1>   0.0800 
 26 H       -0.9610     5.9120     2.2560 H     1 <1>   0.0800 
 27 H       -4.7770     3.8990    -1.2940 H     1 <1>   0.3700 
 28 H        4.0510     3.4940    -1.8590 H     1 <1>   0.0800 
 29 H        5.1180     4.3750    -0.7940 H     1 <1>   0.0800 
 30 H        3.7700     5.1940    -1.5450 H     1 <1>   0.0800 
 31 H       -7.0630     2.1160    -0.5020 H     1 <1>   0.0800 
 32 H       -6.7970     2.6970    -2.1310 H     1 <1>   0.0800 
 33 H       -7.2160     3.8230    -0.8510 H     1 <1>   0.0800 
@<TRIPOS>BOND
  1   1   2  1   
  2   2   3  ar  
  3   2   4  ar  
  4   3   5  1   
  5   3   6  ar  
  6   4   7  ar  
  7   4  18  1   
  8   5   8  1   
  9   6   9  1   
 10   6  10  ar  
 11   7  10  ar  
 12   7  11  1   
 13   8  12  1   
 14   8  19  1   
 15   8  20  1   
 16   9  13  1   
 17  10  21  1   
 18  11  14  2   
 19  11  15  am  
 20  12  16  1   
 21  12  22  1   
 22  12  23  1   
 23  13  24  1   
 24  13  25  1   
 25  13  26  1   
 26  15  17  1   
 27  15  27  1   
 28  16  28  1   
 29  16  29  1   
 30  16  30  1   
 31  17  31  1   
 32  17  32  1   
 33  17  33  1   
@<TRIPOS>SUBSTRUCTURE
  1 ****   6 GROUP 4 **** **** 0

# MOE 2024.06 (io_trps.svl 2023.06)
