@<TRIPOS>MOLECULE
NONAME
47 49 1 0 0 
SMALL
USER_CHARGES


@<TRIPOS>ATOM
  1 S       -0.7560     0.7600     1.4560 S.o2  1 <1>   1.4470 
  2 O       -0.2060     1.8190     2.2740 O.2   1 <1>  -0.6500 
  3 O       -0.8970    -0.5690     2.0090 O.2   1 <1>  -0.6500 
  4 N       -2.3160     1.2550     1.0300 N.am  1 <1>  -0.8490 
  5 C        0.1110     0.6590    -0.1360 C.ar  1 <1>  -0.0090 
  6 C       -3.2090     1.1900     2.2200 C.3   1 <1>   0.2570 
  7 C       -2.3510     2.5970     0.4340 C.3   1 <1>   0.1960 
  8 C       -0.3760    -0.1440    -1.1620 C.ar  1 <1>  -0.1500 
  9 C        1.2750     1.3810    -0.3730 C.ar  1 <1>  -0.1500 
 10 C       -4.7090     1.2910     1.9080 C.2   1 <1>   0.5690 
 11 C       -3.2190     2.5670    -0.8200 C.3   1 <1>  -0.2400 
 12 C        0.2710    -0.2220    -2.3830 C.ar  1 <1>  -0.1500 
 13 C        1.9290     1.3090    -1.5910 C.ar  1 <1>  -0.1500 
 14 O       -5.2850     2.2920     2.2710 O.2   1 <1>  -0.5700 
 15 N       -5.3660     0.2850     1.2410 N.am  1 <1>  -0.6600 
 16 C        1.4260     0.5070    -2.5980 C.ar  1 <1>  -0.1500 
 17 C       -6.7600     0.4720     0.7550 C.3   1 <1>   0.2840 
 18 C       -4.7470    -0.9970     0.8090 C.3   1 <1>   0.1400 
 19 C       -6.9140     0.0660    -0.7110 C.ar  1 <1>  -0.1430 
 20 C       -4.6160    -1.0080    -0.7130 C.3   1 <1>  -0.0170 
 21 C       -5.9230    -0.6310    -1.3970 C.ar  1 <1>  -0.1430 
 22 C       -8.0870     0.4020    -1.3710 C.ar  1 <1>  -0.1500 
 23 C       -6.1170    -0.9800    -2.7240 C.ar  1 <1>  -0.1500 
 24 C       -8.2760     0.0520    -2.6950 C.ar  1 <1>  -0.1500 
 25 C       -7.2910    -0.6400    -3.3730 C.ar  1 <1>  -0.1500 
 26 H       -2.9480     1.9760     2.9080 H     1 <1>   0.0800 
 27 H       -3.0610     0.2630     2.7430 H     1 <1>   0.0800 
 28 H       -1.3620     2.9160     0.1490 H     1 <1>   0.0800 
 29 H       -2.7340     3.3240     1.1320 H     1 <1>   0.0800 
 30 H       -1.2730    -0.7150    -0.9980 H     1 <1>   0.1500 
 31 H        1.6770     2.0090     0.4060 H     1 <1>   0.1500 
 32 H       -4.2300     2.2890    -0.5860 H     1 <1>   0.0800 
 33 H       -2.8140     1.8750    -1.5360 H     1 <1>   0.0800 
 34 H       -3.2360     3.5440    -1.2670 H     1 <1>   0.0800 
 35 H       -0.1230    -0.8490    -3.1640 H     1 <1>   0.1500 
 36 H        2.8300     1.8770    -1.7540 H     1 <1>   0.1500 
 37 H        1.9330     0.4490    -3.5470 H     1 <1>   0.1500 
 38 H       -7.0560     1.5020     0.8610 H     1 <1>   0.0800 
 39 H       -7.4200    -0.1260     1.3580 H     1 <1>   0.0800 
 40 H       -5.3810    -1.8100     1.1180 H     1 <1>   0.0800 
 41 H       -3.7790    -1.1430     1.2550 H     1 <1>   0.0800 
 42 H       -4.3070    -1.9880    -1.0290 H     1 <1>   0.0800 
 43 H       -3.8530    -0.3110    -1.0050 H     1 <1>   0.0800 
 44 H       -8.8620     0.9410    -0.8550 H     1 <1>   0.1500 
 45 H       -5.3540    -1.5150    -3.2610 H     1 <1>   0.1500 
 46 H       -9.1900     0.3180    -3.1980 H     1 <1>   0.1500 
 47 H       -7.4360    -0.9140    -4.4040 H     1 <1>   0.1500 
@<TRIPOS>BOND
  1   1   2  2   
  2   1   3  2   
  3   1   4  am  
  4   1   5  1   
  5   4   6  1   
  6   4   7  1   
  7   5   8  ar  
  8   5   9  ar  
  9   6  10  1   
 10   6  26  1   
 11   6  27  1   
 12   7  11  1   
 13   7  28  1   
 14   7  29  1   
 15   8  12  ar  
 16   8  30  1   
 17   9  13  ar  
 18   9  31  1   
 19  10  14  2   
 20  10  15  am  
 21  11  32  1   
 22  11  33  1   
 23  11  34  1   
 24  12  16  ar  
 25  12  35  1   
 26  13  16  ar  
 27  13  36  1   
 28  15  17  1   
 29  15  18  1   
 30  16  37  1   
 31  17  19  1   
 32  17  38  1   
 33  17  39  1   
 34  18  20  1   
 35  18  40  1   
 36  18  41  1   
 37  19  21  ar  
 38  19  22  ar  
 39  20  21  1   
 40  20  42  1   
 41  20  43  1   
 42  21  23  ar  
 43  22  24  ar  
 44  22  44  1   
 45  23  25  ar  
 46  23  45  1   
 47  24  25  ar  
 48  24  46  1   
 49  25  47  1   
@<TRIPOS>SUBSTRUCTURE
  1 ****   4 GROUP 4 **** **** 0

# MOE 2024.06 (io_trps.svl 2023.06)
