@<TRIPOS>MOLECULE
NONAME
37 38 1 0 0 
SMALL
USER_CHARGES


@<TRIPOS>ATOM
  1 O        4.9460     3.6190     1.5650 O.2   1 <1>  -0.5700 
  2 C        4.2440     3.7990     0.5990 C.2   1 <1>   0.4230 
  3 C        2.8170     3.5300     0.6250 C.ar  1 <1>   0.0860 
  4 C        4.9310     4.3060    -0.6820 C.3   1 <1>  -0.0190 
  5 C        2.0410     3.3450    -0.5260 C.ar  1 <1>  -0.1500 
  6 C        2.1540     3.4340     1.8510 C.ar  1 <1>  -0.1500 
  7 C        6.4670     4.3920    -0.5430 C.3   1 <1>   0.3430 
  8 C        4.4050     5.7010    -1.0770 C.3   1 <1>  -0.2400 
  9 C        0.6840     3.0870    -0.4530 C.ar  1 <1>  -0.1500 
 10 C        0.7980     3.1760     1.9310 C.ar  1 <1>  -0.1500 
 11 N        7.0860     3.1360    -0.0230 N.4   1 <1>  -0.9590 
 12 C        0.0590     3.0030     0.7770 C.ar  1 <1>  -0.1500 
 13 C        8.5030     3.3600     0.4220 C.3   1 <1>   0.3430 
 14 C        6.9910     1.9580    -0.9520 C.3   1 <1>   0.3430 
 15 C        9.1440     2.0560     0.9350 C.3   1 <1>   0.1200 
 16 C        7.7060     0.7240    -0.3690 C.3   1 <1>   0.1200 
 17 O        9.0230     1.0460    -0.0250 O.3   1 <1>  -0.5600 
 18 H        4.7140     3.6260    -1.4840 H     1 <1>   0.0800 
 19 H        2.4820     3.3960    -1.5040 H     1 <1>   0.1500 
 20 H        2.7100     3.5650     2.7640 H     1 <1>   0.1500 
 21 H        6.6880     5.1920     0.1450 H     1 <1>   0.0800 
 22 H        6.9020     4.6480    -1.4950 H     1 <1>   0.0800 
 23 H        4.6010     6.4150    -0.2950 H     1 <1>   0.0800 
 24 H        3.3430     5.6840    -1.2490 H     1 <1>   0.0800 
 25 H        4.8780     6.0460    -1.9810 H     1 <1>   0.0800 
 26 H        0.1070     2.9510    -1.3520 H     1 <1>   0.1500 
 27 H        0.3150     3.1100     2.8920 H     1 <1>   0.1500 
 28 H        6.5360     2.9160     0.8350 H     1 <1>   0.4500 
 29 H       -0.9980     2.8030     0.8360 H     1 <1>   0.1500 
 30 H        8.5300     4.1000     1.2050 H     1 <1>   0.0800 
 31 H        9.0920     3.7250    -0.4030 H     1 <1>   0.0800 
 32 H        7.4480     2.2010    -1.8970 H     1 <1>   0.0800 
 33 H        5.9580     1.7130    -1.1330 H     1 <1>   0.0800 
 34 H        8.6770     1.7270     1.8480 H     1 <1>   0.0800 
 35 H       10.1930     2.2060     1.1220 H     1 <1>   0.0800 
 36 H        7.7430    -0.0640    -1.1010 H     1 <1>   0.0800 
 37 H        7.1980     0.3570     0.5060 H     1 <1>   0.0800 
@<TRIPOS>BOND
  1   1   2  2   
  2   2   3  1   
  3   2   4  1   
  4   3   5  ar  
  5   3   6  ar  
  6   4   7  1   
  7   4   8  1   
  8   4  18  1   
  9   5   9  ar  
 10   5  19  1   
 11   6  10  ar  
 12   6  20  1   
 13   7  11  1   
 14   7  21  1   
 15   7  22  1   
 16   8  23  1   
 17   8  24  1   
 18   8  25  1   
 19   9  12  ar  
 20   9  26  1   
 21  10  12  ar  
 22  10  27  1   
 23  11  13  1   
 24  11  14  1   
 25  11  28  1   
 26  12  29  1   
 27  13  15  1   
 28  13  30  1   
 29  13  31  1   
 30  14  16  1   
 31  14  32  1   
 32  14  33  1   
 33  15  17  1   
 34  15  34  1   
 35  15  35  1   
 36  16  17  1   
 37  16  36  1   
 38  16  37  1   
@<TRIPOS>SUBSTRUCTURE
  1 ****   2 GROUP 4 **** **** 0

# MOE 2024.06 (io_trps.svl 2023.06)
