@<TRIPOS>MOLECULE
NONAME
43 45 1 0 0 
SMALL
USER_CHARGES


@<TRIPOS>ATOM
  1 S        0.0470     0.1500     0.6080 S.o2  1 <1>   1.5000 
  2 O       -0.2180     0.4990     1.9860 O.2   1 <1>  -0.6500 
  3 O       -0.3980     1.0290    -0.4480 O.2   1 <1>  -0.6500 
  4 N        1.7430     0.1140     0.4930 N.am  1 <1>  -0.8490 
  5 C       -0.4610    -1.5550     0.2740 C.2   1 <1>  -0.0220 
  6 C        2.2930     1.4770     0.3280 C.3   1 <1>   0.1960 
  7 C        2.3810    -0.5610     1.6430 C.3   1 <1>   0.1960 
  8 S        0.5100    -2.5120    -0.8460 S.3   1 <1>  -0.0800 
  9 C       -1.5020    -2.2980     0.7050 C.2   1 <1>  -0.1500 
 10 C        3.8430     1.5040     0.3100 C.3   1 <1>   0.3430 
 11 C        3.9170    -0.6830     1.4660 C.3   1 <1>   0.3430 
 12 C       -0.5440    -3.9030    -0.6730 C.2   1 <1>  -0.1100 
 13 C       -1.5490    -3.6270     0.1750 C.2   1 <1>  -0.1500 
 14 N        4.4230     0.1160     0.2900 N.4   1 <1>  -0.9590 
 15 C        5.9110     0.1290     0.1460 C.3   1 <1>   0.3430 
 16 C        6.4720    -1.2560    -0.1810 C.3   1 <1>  -0.0170 
 17 C        7.9660    -1.1270    -0.4080 C.ar  1 <1>  -0.1430 
 18 C        8.4590    -0.8670    -1.6780 C.ar  1 <1>  -0.1500 
 19 C        8.8490    -1.2570     0.6540 C.ar  1 <1>  -0.1500 
 20 C        9.8210    -0.7310    -1.8820 C.ar  1 <1>  -0.1500 
 21 C       10.2110    -1.1200     0.4480 C.ar  1 <1>  -0.1500 
 22 C       10.6980    -0.8550    -0.8190 C.ar  1 <1>  -0.1500 
 23 H        1.9370     2.1170     1.1200 H     1 <1>   0.0800 
 24 H        1.9360     1.8950    -0.6000 H     1 <1>   0.0800 
 25 H        1.9670    -1.5480     1.7680 H     1 <1>   0.0800 
 26 H        2.1780    -0.0130     2.5500 H     1 <1>   0.0800 
 27 H       -2.2610    -1.9570     1.3910 H     1 <1>   0.1500 
 28 H        4.1920     2.0320     1.1820 H     1 <1>   0.0800 
 29 H        4.1700     2.0560    -0.5560 H     1 <1>   0.0800 
 30 H        4.1630    -1.7230     1.3290 H     1 <1>   0.0800 
 31 H        4.3980    -0.3540     2.3720 H     1 <1>   0.0800 
 32 H       -0.2990    -4.7890    -1.2320 H     1 <1>   0.1500 
 33 H       -2.3360    -4.3070     0.4540 H     1 <1>   0.1500 
 34 H        3.9980    -0.3280    -0.5410 H     1 <1>   0.4500 
 35 H        6.3680     0.4910     1.0530 H     1 <1>   0.0800 
 36 H        6.1900     0.7990    -0.6510 H     1 <1>   0.0800 
 37 H        6.0100    -1.6450    -1.0720 H     1 <1>   0.0800 
 38 H        6.2970    -1.9430     0.6270 H     1 <1>   0.0800 
 39 H        7.7980    -0.7720    -2.5210 H     1 <1>   0.1500 
 40 H        8.4960    -1.4680     1.6480 H     1 <1>   0.1500 
 41 H       10.2030    -0.5300    -2.8690 H     1 <1>   0.1500 
 42 H       10.8960    -1.2210     1.2730 H     1 <1>   0.1500 
 43 H       11.7570    -0.7500    -0.9790 H     1 <1>   0.1500 
@<TRIPOS>BOND
  1   1   2  2   
  2   1   3  2   
  3   1   4  am  
  4   1   5  1   
  5   4   6  1   
  6   4   7  1   
  7   5   8  1   
  8   5   9  2   
  9   6  10  1   
 10   6  23  1   
 11   6  24  1   
 12   7  11  1   
 13   7  25  1   
 14   7  26  1   
 15   8  12  1   
 16   9  13  1   
 17   9  27  1   
 18  10  14  1   
 19  10  28  1   
 20  10  29  1   
 21  11  14  1   
 22  11  30  1   
 23  11  31  1   
 24  12  13  2   
 25  12  32  1   
 26  13  33  1   
 27  14  15  1   
 28  14  34  1   
 29  15  16  1   
 30  15  35  1   
 31  15  36  1   
 32  16  17  1   
 33  16  37  1   
 34  16  38  1   
 35  17  18  ar  
 36  17  19  ar  
 37  18  20  ar  
 38  18  39  1   
 39  19  21  ar  
 40  19  40  1   
 41  20  22  ar  
 42  20  41  1   
 43  21  22  ar  
 44  21  42  1   
 45  22  43  1   
@<TRIPOS>SUBSTRUCTURE
  1 ****  14 GROUP 4 **** **** 0

# MOE 2024.06 (io_trps.svl 2023.06)
