@<TRIPOS>MOLECULE
NONAME
33 35 1 0 0 
SMALL
USER_CHARGES


@<TRIPOS>ATOM
  1 CL      -0.3490     0.1240     0.1880 Cl    1 <1>  -0.1770 
  2 C       -1.8430    -0.7850     0.0900 C.ar  1 <1>   0.1770 
  3 C       -3.0640    -0.1620     0.2860 C.ar  1 <1>   0.1900 
  4 C       -1.7950    -2.1380    -0.1860 C.ar  1 <1>  -0.1500 
  5 F       -3.1120     1.1210     0.5460 F     1 <1>  -0.1900 
  6 C       -4.2500    -0.8680     0.2150 C.ar  1 <1>  -0.1500 
  7 C       -2.9780    -2.8720    -0.2690 C.ar  1 <1>   0.1170 
  8 C       -4.1940    -2.2240    -0.0620 C.ar  1 <1>  -0.1500 
  9 N       -3.0260    -4.2420    -0.5420 N.am  1 <1>  -0.5470 
 10 C       -2.0950    -5.1790    -0.8840 C.2   1 <1>   0.5690 
 11 O       -0.9570    -4.8630    -1.1520 O.2   1 <1>  -0.5700 
 12 C       -2.4540    -6.6670    -1.0350 C.3   1 <1>  -0.0190 
 13 C       -3.7580    -7.3070    -0.4650 C.3   1 <1>  -0.1860 
 14 C       -1.4080    -7.4930    -0.2680 C.3   1 <1>   0.2000 
 15 C       -4.8850    -6.4290     0.0330 C.2   1 <1>   0.9060 
 16 C       -3.1920    -8.2390     0.6170 C.3   1 <1>   0.2000 
 17 O       -2.0120    -7.6110     0.9620 O.3   1 <1>  -0.5600 
 18 C       -1.3840    -8.9590    -0.7210 C.3   1 <1>  -0.1600 
 19 O       -5.3460    -5.5980    -0.7580 O.co2 1 <1>  -0.9000 
 20 O       -5.3420    -6.5500     1.1680 O.co2 1 <1>  -0.9000 
 21 C       -2.6370    -9.5090    -0.0330 C.3   1 <1>  -0.1600 
 22 H       -0.8430    -2.6110    -0.3300 H     1 <1>   0.1500 
 23 H       -5.1910    -0.3720     0.3730 H     1 <1>   0.1500 
 24 H       -5.1040    -2.8020    -0.1190 H     1 <1>   0.1500 
 25 H       -3.9920    -4.6190    -0.5310 H     1 <1>   0.3700 
 26 H       -2.3800    -6.8830    -2.0840 H     1 <1>   0.0800 
 27 H       -4.2150    -7.9040    -1.2300 H     1 <1>   0.0800 
 28 H       -0.4330    -7.0450    -0.1760 H     1 <1>   0.0800 
 29 H       -3.8190    -8.4050     1.4780 H     1 <1>   0.0800 
 30 H       -0.4980    -9.4440    -0.3500 H     1 <1>   0.0800 
 31 H       -1.4220    -9.0470    -1.7920 H     1 <1>   0.0800 
 32 H       -3.3360    -9.9560    -0.7170 H     1 <1>   0.0800 
 33 H       -2.3780   -10.2190     0.7320 H     1 <1>   0.0800 
@<TRIPOS>BOND
  1   1   2  1   
  2   2   3  ar  
  3   2   4  ar  
  4   3   5  1   
  5   3   6  ar  
  6   4   7  ar  
  7   4  22  1   
  8   6   8  ar  
  9   6  23  1   
 10   7   8  ar  
 11   7   9  1   
 12   8  24  1   
 13   9  10  am  
 14   9  25  1   
 15  10  11  2   
 16  10  12  1   
 17  12  13  1   
 18  12  14  1   
 19  12  26  1   
 20  13  15  1   
 21  13  16  1   
 22  13  27  1   
 23  14  17  1   
 24  14  18  1   
 25  14  28  1   
 26  15  19  ar  
 27  15  20  ar  
 28  16  17  1   
 29  16  21  1   
 30  16  29  1   
 31  18  21  1   
 32  18  30  1   
 33  18  31  1   
 34  21  32  1   
 35  21  33  1   
@<TRIPOS>SUBSTRUCTURE
  1 ****   9 GROUP 4 **** **** 0

# MOE 2024.06 (io_trps.svl 2023.06)
