@<TRIPOS>MOLECULE
NONAME
53 55 1 0 0 
SMALL
USER_CHARGES


@<TRIPOS>ATOM
  1 O       -0.3210    -0.6550    -1.0410 O.3   1 <1>  -0.3630 
  2 C       -1.2750    -1.0450    -0.1370 C.ar  1 <1>   0.0820 
  3 C       -0.4960     0.5010    -1.8330 C.3   1 <1>   0.0400 
  4 C       -1.0420    -2.2080     0.6230 C.ar  1 <1>   0.1000 
  5 C       -2.4560    -0.3310     0.0480 C.ar  1 <1>  -0.1500 
  6 N        0.1120    -2.9970     0.5130 N.pl3 1 <1>  -0.8380 
  7 C       -2.0020    -2.6100     1.5400 C.ar  1 <1>  -0.1500 
  8 C       -3.3980    -0.7530     0.9700 C.ar  1 <1>  -0.1500 
  9 C        1.3620    -2.3260     0.9770 C.3   1 <1>   0.2090 
 10 C        0.2490    -3.7060    -0.7930 C.3   1 <1>   0.2090 
 11 C       -3.1710    -1.8940     1.7160 C.ar  1 <1>  -0.1500 
 12 C        2.5550    -3.3020     0.9650 C.3   1 <1>   0.3430 
 13 C        1.4570    -4.6650    -0.7810 C.3   1 <1>   0.3430 
 14 N        2.7380    -3.9780    -0.3760 N.4   1 <1>  -0.9590 
 15 C        3.8800    -4.9310    -0.3890 C.3   1 <1>   0.3430 
 16 C        5.2060    -4.1740    -0.3210 C.3   1 <1>  -0.1600 
 17 C        6.4170    -5.1190    -0.3720 C.3   1 <1>   0.0630 
 18 C        7.6850    -4.3170    -0.0980 C.ar  1 <1>  -0.1430 
 19 C        6.5240    -5.8710    -1.7070 C.3   1 <1>  -0.2400 
 20 C        8.1430    -3.3590    -0.9930 C.ar  1 <1>  -0.1500 
 21 C        8.3980    -4.5340     1.0730 C.ar  1 <1>  -0.1500 
 22 C        9.2870    -2.6300    -0.7210 C.ar  1 <1>  -0.1500 
 23 C        9.5420    -3.8050     1.3470 C.ar  1 <1>  -0.1500 
 24 C        9.9870    -2.8520     0.4510 C.ar  1 <1>  -0.1500 
 25 H        0.3680     0.6120    -2.4630 H     1 <1>   0.0800 
 26 H       -0.5880     1.3570    -1.1880 H     1 <1>   0.0800 
 27 H       -1.3760     0.3790    -2.4410 H     1 <1>   0.0800 
 28 H       -2.6700     0.5590    -0.5110 H     1 <1>   0.1500 
 29 H       -1.8260    -3.4970     2.1210 H     1 <1>   0.1500 
 30 H       -4.3080    -0.1950     1.1060 H     1 <1>   0.1500 
 31 H        1.2100    -1.9590     1.9780 H     1 <1>   0.0800 
 32 H        1.5820    -1.4810     0.3490 H     1 <1>   0.0800 
 33 H        0.3640    -2.9920    -1.5900 H     1 <1>   0.0800 
 34 H       -0.6500    -4.2660    -0.9830 H     1 <1>   0.0800 
 35 H       -3.9030    -2.2240     2.4340 H     1 <1>   0.1500 
 36 H        2.3840    -4.0460     1.7250 H     1 <1>   0.0800 
 37 H        3.4450    -2.7570     1.2300 H     1 <1>   0.0800 
 38 H        1.5660    -5.0980    -1.7620 H     1 <1>   0.0800 
 39 H        1.2400    -5.4620    -0.0890 H     1 <1>   0.0800 
 40 H        2.9150    -3.2370    -1.0670 H     1 <1>   0.4500 
 41 H        3.8560    -5.5070    -1.3010 H     1 <1>   0.0800 
 42 H        3.8020    -5.6140     0.4420 H     1 <1>   0.0800 
 43 H        5.2660    -3.6240     0.6010 H     1 <1>   0.0800 
 44 H        5.2690    -3.4780    -1.1380 H     1 <1>   0.0800 
 45 H        6.3120    -5.8550     0.4080 H     1 <1>   0.0800 
 46 H        6.5380    -5.1890    -2.5380 H     1 <1>   0.0800 
 47 H        5.7090    -6.5590    -1.8350 H     1 <1>   0.0800 
 48 H        7.4390    -6.4370    -1.7250 H     1 <1>   0.0800 
 49 H        7.6170    -3.1690    -1.9120 H     1 <1>   0.1500 
 50 H        8.0730    -5.2730     1.7850 H     1 <1>   0.1500 
 51 H        9.6360    -1.8900    -1.4210 H     1 <1>   0.1500 
 52 H       10.0880    -3.9810     2.2580 H     1 <1>   0.1500 
 53 H       10.8770    -2.2850     0.6630 H     1 <1>   0.1500 
@<TRIPOS>BOND
  1   1   2  1   
  2   1   3  1   
  3   2   4  ar  
  4   2   5  ar  
  5   3  25  1   
  6   3  26  1   
  7   3  27  1   
  8   4   6  1   
  9   4   7  ar  
 10   5   8  ar  
 11   5  28  1   
 12   6   9  1   
 13   6  10  1   
 14   7  11  ar  
 15   7  29  1   
 16   8  11  ar  
 17   8  30  1   
 18   9  12  1   
 19   9  31  1   
 20   9  32  1   
 21  10  13  1   
 22  10  33  1   
 23  10  34  1   
 24  11  35  1   
 25  12  14  1   
 26  12  36  1   
 27  12  37  1   
 28  13  14  1   
 29  13  38  1   
 30  13  39  1   
 31  14  15  1   
 32  14  40  1   
 33  15  16  1   
 34  15  41  1   
 35  15  42  1   
 36  16  17  1   
 37  16  43  1   
 38  16  44  1   
 39  17  18  1   
 40  17  19  1   
 41  17  45  1   
 42  18  20  ar  
 43  18  21  ar  
 44  19  46  1   
 45  19  47  1   
 46  19  48  1   
 47  20  22  ar  
 48  20  49  1   
 49  21  23  ar  
 50  21  50  1   
 51  22  24  ar  
 52  22  51  1   
 53  23  24  ar  
 54  23  52  1   
 55  24  53  1   
@<TRIPOS>SUBSTRUCTURE
  1 ****  12 GROUP 4 **** **** 0

# MOE 2024.06 (io_trps.svl 2023.06)
