@<TRIPOS>MOLECULE
NONAME
46 48 1 0 0 
SMALL
USER_CHARGES


@<TRIPOS>ATOM
  1 S        0.3470     0.3670    -1.7140 S.3   1 <1>  -0.0800 
  2 C       -0.5510    -0.7290    -0.6700 C.2   1 <1>   0.1040 
  3 C        1.7730     0.2300    -0.7100 C.2   1 <1>  -0.1400 
  4 N       -1.8520    -1.0810    -1.0060 N.am  1 <1>  -0.4940 
  5 C        0.2200    -1.1380     0.3860 C.2   1 <1>  -0.0860 
  6 C        1.5490    -0.5740     0.3380 C.2   1 <1>  -0.1810 
  7 C        3.0390     0.9710    -1.0750 C.3   1 <1>   0.0200 
  8 C       -2.7390    -0.6410    -1.9510 C.2   1 <1>   0.5690 
  9 C       -0.2310    -2.0170     1.4320 C.2   1 <1>   0.7160 
 10 C        2.6450    -0.8390     1.3620 C.3   1 <1>   0.0210 
 11 C        4.2110     0.4090    -0.2430 C.3   1 <1>  -0.0800 
 12 O       -2.5580     0.2940    -2.6920 O.2   1 <1>  -0.5700 
 13 C       -4.0560    -1.4110    -2.0250 C.3   1 <1>   0.1710 
 14 O        0.4890    -2.8270     1.9800 O.2   1 <1>  -0.5700 
 15 N       -1.5060    -1.9690     1.8780 N.am  1 <1>  -0.8000 
 16 C        3.7970     0.1780     1.2270 C.3   1 <1>  -0.1600 
 17 C        5.4310     1.3350    -0.3270 C.3   1 <1>  -0.2400 
 18 N       -4.4780    -1.9720    -0.7060 N.3   1 <1>  -0.8100 
 19 C       -5.4840    -3.0390    -0.8860 C.3   1 <1>   0.1100 
 20 C       -5.0500    -0.9120     0.1550 C.3   1 <1>   0.1100 
 21 C       -5.9800    -3.5650     0.4740 C.3   1 <1>   0.1200 
 22 C       -5.5590    -1.4950     1.4860 C.3   1 <1>   0.1200 
 23 O       -6.4850    -2.5160     1.2500 O.3   1 <1>  -0.5600 
 24 H       -2.2760    -1.8310    -0.4470 H     1 <1>   0.3700 
 25 H        2.8950     2.0170    -0.8690 H     1 <1>   0.0800 
 26 H        3.2440     0.8520    -2.1240 H     1 <1>   0.0800 
 27 H        3.0210    -1.8360     1.2110 H     1 <1>   0.0800 
 28 H        2.2420    -0.7820     2.3580 H     1 <1>   0.0800 
 29 H        4.4840    -0.5460    -0.6620 H     1 <1>   0.0800 
 30 H       -3.9100    -2.2140    -2.7250 H     1 <1>   0.0800 
 31 H       -4.8220    -0.7660    -2.4200 H     1 <1>   0.0800 
 32 H       -1.7440    -2.5400     2.6880 H     1 <1>   0.3700 
 33 H       -2.0950    -1.1600     1.6910 H     1 <1>   0.3700 
 34 H        4.6400    -0.1730     1.7960 H     1 <1>   0.0800 
 35 H        3.4810     1.1160     1.6500 H     1 <1>   0.0800 
 36 H        5.2060     2.2980     0.0970 H     1 <1>   0.0800 
 37 H        5.7270     1.4710    -1.3520 H     1 <1>   0.0800 
 38 H        6.2590     0.9090     0.2110 H     1 <1>   0.0800 
 39 H       -5.0500    -3.8540    -1.4390 H     1 <1>   0.0800 
 40 H       -6.3270    -2.6650    -1.4420 H     1 <1>   0.0800 
 41 H       -5.8740    -0.4310    -0.3470 H     1 <1>   0.0800 
 42 H       -4.3040    -0.1640     0.3590 H     1 <1>   0.0800 
 43 H       -5.1770    -4.0370     1.0120 H     1 <1>   0.0800 
 44 H       -6.7720    -4.2780     0.3320 H     1 <1>   0.0800 
 45 H       -6.0530    -0.7330     2.0620 H     1 <1>   0.0800 
 46 H       -4.7450    -1.8970     2.0620 H     1 <1>   0.0800 
@<TRIPOS>BOND
  1   1   2  1   
  2   1   3  1   
  3   2   4  1   
  4   2   5  2   
  5   3   6  2   
  6   3   7  1   
  7   4   8  am  
  8   4  24  1   
  9   5   6  1   
 10   5   9  1   
 11   6  10  1   
 12   7  11  1   
 13   7  25  1   
 14   7  26  1   
 15   8  12  2   
 16   8  13  1   
 17   9  14  2   
 18   9  15  am  
 19  10  16  1   
 20  10  27  1   
 21  10  28  1   
 22  11  16  1   
 23  11  17  1   
 24  11  29  1   
 25  13  18  1   
 26  13  30  1   
 27  13  31  1   
 28  15  32  1   
 29  15  33  1   
 30  16  34  1   
 31  16  35  1   
 32  17  36  1   
 33  17  37  1   
 34  17  38  1   
 35  18  19  1   
 36  18  20  1   
 37  19  21  1   
 38  19  39  1   
 39  19  40  1   
 40  20  22  1   
 41  20  41  1   
 42  20  42  1   
 43  21  23  1   
 44  21  43  1   
 45  21  44  1   
 46  22  23  1   
 47  22  45  1   
 48  22  46  1   
@<TRIPOS>SUBSTRUCTURE
  1 ****   2 GROUP 4 **** **** 0

# MOE 2024.06 (io_trps.svl 2023.06)
