@<TRIPOS>MOLECULE
NONAME
44 46 1 0 0 
SMALL
USER_CHARGES


@<TRIPOS>ATOM
  1 O        8.1850    -3.5480    -0.8430 O.3   1 <1>  -0.6800 
  2 C        8.6530    -4.2080     0.2980 C.3   1 <1>   0.1200 
  3 C        9.0860    -3.2230     1.4000 C.3   1 <1>   0.2090 
  4 N       10.3730    -2.5340     1.0780 N.pl3 1 <1>  -0.8690 
  5 C       10.5330    -1.3590     0.4370 C.ar  1 <1>   0.4100 
  6 N        9.4470    -0.7420     0.0530 N.ar  1 <1>  -0.6200 
  7 C       11.8480    -0.8440     0.1780 C.ar  1 <1>   0.0000 
  8 C        9.5730     0.3260    -0.7120 C.ar  1 <1>   0.7710 
  9 C       11.9320     0.3210    -0.5880 C.ar  1 <1>   0.3610 
 10 C       13.0470    -1.4180     0.6320 C.ar  1 <1>  -0.1500 
 11 N       10.7490     0.8680    -1.0200 N.ar  1 <1>  -0.1790 
 12 N        8.4460     0.8490    -1.2130 N.pl3 1 <1>  -0.8380 
 13 C       13.1720     0.8880    -0.8940 C.ar  1 <1>  -0.1500 
 14 C       14.2650    -0.8540     0.3290 C.ar  1 <1>  -0.1500 
 15 C        7.5810    -0.0650    -2.0460 C.3   1 <1>   0.2090 
 16 C        7.6270     1.7750    -0.3580 C.3   1 <1>   0.2090 
 17 C       14.3310     0.3030    -0.4390 C.ar  1 <1>  -0.1500 
 18 C        6.5460    -0.8290    -1.1850 C.3   1 <1>   0.3430 
 19 C        6.5760     1.0060     0.4870 C.3   1 <1>   0.3430 
 20 N        5.7040     0.0980    -0.3440 N.4   1 <1>  -0.9590 
 21 C        4.7770    -0.6910     0.5240 C.3   1 <1>   0.2630 
 22 H        8.1560    -4.1830    -1.5890 H     1 <1>   0.4000 
 23 H        9.4840    -4.8320     0.0170 H     1 <1>   0.0800 
 24 H        7.8560    -4.8350     0.6600 H     1 <1>   0.0800 
 25 H        9.2190    -3.7700     2.3180 H     1 <1>   0.0800 
 26 H        8.3030    -2.5030     1.5660 H     1 <1>   0.0800 
 27 H       11.1990    -3.0720     1.3520 H     1 <1>   0.4000 
 28 H       13.0230    -2.3110     1.2320 H     1 <1>   0.1500 
 29 H       10.7360     1.6710    -1.6380 H     1 <1>   0.4570 
 30 H       13.2350     1.7840    -1.4860 H     1 <1>   0.1500 
 31 H       15.1790    -1.3050     0.6840 H     1 <1>   0.1500 
 32 H        8.1990    -0.7900    -2.5520 H     1 <1>   0.0800 
 33 H        7.0710     0.5070    -2.8020 H     1 <1>   0.0800 
 34 H        7.1260     2.4940    -0.9850 H     1 <1>   0.0800 
 35 H        8.2710     2.3220     0.3100 H     1 <1>   0.0800 
 36 H       15.2950     0.7300    -0.6680 H     1 <1>   0.1500 
 37 H        7.0810    -1.5090    -0.5420 H     1 <1>   0.0800 
 38 H        5.9150    -1.4200    -1.8290 H     1 <1>   0.0800 
 39 H        5.9630     1.7150     1.0180 H     1 <1>   0.0800 
 40 H        7.1040     0.4160     1.2190 H     1 <1>   0.0800 
 41 H        5.1360     0.6800    -0.9780 H     1 <1>   0.4500 
 42 H        5.3390    -1.3220     1.1950 H     1 <1>   0.0800 
 43 H        4.1380    -1.3160    -0.0790 H     1 <1>   0.0800 
 44 H        4.1560    -0.0330     1.1090 H     1 <1>   0.0800 
@<TRIPOS>BOND
  1   1   2  1   
  2   1  22  1   
  3   2   3  1   
  4   2  23  1   
  5   2  24  1   
  6   3   4  1   
  7   3  25  1   
  8   3  26  1   
  9   4   5  1   
 10   4  27  1   
 11   5   6  ar  
 12   5   7  ar  
 13   6   8  ar  
 14   7   9  ar  
 15   7  10  ar  
 16   8  11  ar  
 17   8  12  1   
 18   9  11  ar  
 19   9  13  ar  
 20  10  14  ar  
 21  10  28  1   
 22  11  29  1   
 23  12  15  1   
 24  12  16  1   
 25  13  17  ar  
 26  13  30  1   
 27  14  17  ar  
 28  14  31  1   
 29  15  18  1   
 30  15  32  1   
 31  15  33  1   
 32  16  19  1   
 33  16  34  1   
 34  16  35  1   
 35  17  36  1   
 36  18  20  1   
 37  18  37  1   
 38  18  38  1   
 39  19  20  1   
 40  19  39  1   
 41  19  40  1   
 42  20  21  1   
 43  20  41  1   
 44  21  42  1   
 45  21  43  1   
 46  21  44  1   
@<TRIPOS>SUBSTRUCTURE
  1 ****   6 GROUP 4 **** **** 0

# MOE 2024.06 (io_trps.svl 2023.06)
