@<TRIPOS>MOLECULE
NONAME
34 35 1 0 0 
SMALL
USER_CHARGES


@<TRIPOS>ATOM
  1 O        0.4970     0.1530    -0.6390 O.2   1 <1>  -0.5700 
  2 C        0.4610     1.3620    -0.5800 C.2   1 <1>   0.5690 
  3 N        1.4500     2.0750     0.0550 N.am  1 <1>  -0.6600 
  4 C       -0.7300     2.0570    -1.2530 C.3   1 <1>   0.1810 
  5 C        1.4690     3.5660     0.2120 C.3   1 <1>   0.1400 
  6 C        2.6290     1.4010     0.6860 C.3   1 <1>   0.1400 
  7 O       -1.5190     2.8190    -0.3670 O.3   1 <1>  -0.5600 
  8 C        2.8070     4.1670    -0.2520 C.3   1 <1>   0.2090 
  9 C        3.9540     2.0170     0.2070 C.3   1 <1>   0.2090 
 10 C       -2.1980     2.0650     0.5890 C.3   1 <1>   0.0400 
 11 N        3.9680     3.4950     0.4080 N.pl3 1 <1>  -0.8380 
 12 C        5.2010     4.1100     0.3160 C.ar  1 <1>   0.4100 
 13 N        5.4680     4.7790    -0.8000 N.ar  1 <1>  -0.6200 
 14 C        6.1010     3.9970     1.3730 C.ar  1 <1>  -0.1500 
 15 C        6.6620     5.3450    -0.8610 C.ar  1 <1>   0.1600 
 16 C        7.3400     4.5900     1.2950 C.ar  1 <1>  -0.1500 
 17 C        7.6200     5.2830     0.1350 C.ar  1 <1>  -0.1500 
 18 H       -1.3590     1.3230    -1.7230 H     1 <1>   0.0800 
 19 H       -0.3620     2.7210    -2.0120 H     1 <1>   0.0800 
 20 H        1.3240     3.8080     1.2500 H     1 <1>   0.0800 
 21 H        0.6750     4.0270    -0.3440 H     1 <1>   0.0800 
 22 H        2.6300     0.3490     0.4570 H     1 <1>   0.0800 
 23 H        2.5600     1.5050     1.7540 H     1 <1>   0.0800 
 24 H        2.8280     5.2180    -0.0220 H     1 <1>   0.0800 
 25 H        2.8940     4.0600    -1.3200 H     1 <1>   0.0800 
 26 H        4.0890     1.8010    -0.8390 H     1 <1>   0.0800 
 27 H        4.7700     1.5690     0.7460 H     1 <1>   0.0800 
 28 H       -2.8050     2.7330     1.1730 H     1 <1>   0.0800 
 29 H       -1.4870     1.5720     1.2300 H     1 <1>   0.0800 
 30 H       -2.8250     1.3420     0.0960 H     1 <1>   0.0800 
 31 H        5.8050     3.4460     2.2440 H     1 <1>   0.1500 
 32 H        6.8910     5.8890    -1.7610 H     1 <1>   0.1500 
 33 H        8.0540     4.5190     2.0970 H     1 <1>   0.1500 
 34 H        8.5690     5.7720     0.0070 H     1 <1>   0.1500 
@<TRIPOS>BOND
  1   1   2  2   
  2   2   3  am  
  3   2   4  1   
  4   3   5  1   
  5   3   6  1   
  6   4   7  1   
  7   4  18  1   
  8   4  19  1   
  9   5   8  1   
 10   5  20  1   
 11   5  21  1   
 12   6   9  1   
 13   6  22  1   
 14   6  23  1   
 15   7  10  1   
 16   8  11  1   
 17   8  24  1   
 18   8  25  1   
 19   9  11  1   
 20   9  26  1   
 21   9  27  1   
 22  10  28  1   
 23  10  29  1   
 24  10  30  1   
 25  11  12  1   
 26  12  13  ar  
 27  12  14  ar  
 28  13  15  ar  
 29  14  16  ar  
 30  14  31  1   
 31  15  17  ar  
 32  15  32  1   
 33  16  17  ar  
 34  16  33  1   
 35  17  34  1   
@<TRIPOS>SUBSTRUCTURE
  1 ****   8 GROUP 4 **** **** 0

# MOE 2024.06 (io_trps.svl 2023.06)
