@<TRIPOS>MOLECULE
NONAME
48 50 1 0 0 
SMALL
USER_CHARGES


@<TRIPOS>ATOM
  1 BR       1.4680    -1.3430    -3.1360 Br    1 <1>  -0.1110 
  2 C        0.4340    -2.3930    -1.8880 C.ar  1 <1>   0.1110 
  3 C        0.9210    -2.6230    -0.6090 C.ar  1 <1>   0.0820 
  4 C       -0.7780    -2.8880    -2.3230 C.ar  1 <1>  -0.1500 
  5 O        2.1270    -2.0920    -0.2750 O.3   1 <1>  -0.3630 
  6 C        0.1440    -3.3820     0.2610 C.ar  1 <1>  -0.1500 
  7 C       -1.5480    -3.6430    -1.4510 C.ar  1 <1>  -0.1430 
  8 C        2.7400    -2.3490     0.9700 C.3   1 <1>   0.0400 
  9 C       -1.0870    -3.8900    -0.1570 C.ar  1 <1>   0.0820 
 10 C       -2.8840    -4.1960    -1.9100 C.3   1 <1>   0.4870 
 11 O       -1.8930    -4.6280     0.6560 O.3   1 <1>  -0.3630 
 12 N       -3.9480    -3.6450    -1.0380 N.4   1 <1>  -0.9590 
 13 C       -1.4310    -5.1180     1.9010 C.3   1 <1>   0.0400 
 14 C       -5.2700    -4.3380    -1.2250 C.3   1 <1>   0.3430 
 15 C       -4.0830    -2.1480    -1.1640 C.3   1 <1>   0.3430 
 16 C       -6.3570    -3.7870    -0.2780 C.3   1 <1>   0.2090 
 17 C       -5.1610    -1.5760    -0.2200 C.3   1 <1>   0.2090 
 18 N       -6.4600    -2.2990    -0.3830 N.pl3 1 <1>  -0.8380 
 19 C       -7.5720    -1.7140     0.2380 C.ar  1 <1>   0.1000 
 20 C       -7.7640    -1.6460     1.6250 C.ar  1 <1>   0.1770 
 21 C       -8.5560    -1.1610    -0.5720 C.ar  1 <1>  -0.1500 
 22 CL      -6.5760    -2.3170     2.7280 Cl    1 <1>  -0.1770 
 23 C       -8.8850    -1.0540     2.1750 C.ar  1 <1>  -0.1500 
 24 C       -9.6820    -0.5660    -0.0300 C.ar  1 <1>  -0.1500 
 25 C       -9.8500    -0.5110     1.3440 C.ar  1 <1>  -0.1500 
 26 H       -1.0940    -2.6790    -3.3310 H     1 <1>   0.1500 
 27 H        0.4970    -3.5680     1.2540 H     1 <1>   0.1500 
 28 H        3.6930    -1.8510     0.9790 H     1 <1>   0.0800 
 29 H        2.8840    -3.4100     1.0780 H     1 <1>   0.0800 
 30 H        2.1180    -1.9590     1.7550 H     1 <1>   0.0800 
 31 H       -2.8620    -5.2710    -1.8280 H     1 <1>   0.0800 
 32 H       -3.0670    -3.9320    -2.9390 H     1 <1>   0.0800 
 33 H       -3.6110    -3.8400    -0.0800 H     1 <1>   0.4500 
 34 H       -1.2430    -4.2880     2.5600 H     1 <1>   0.0800 
 35 H       -0.5330    -5.6920     1.7430 H     1 <1>   0.0800 
 36 H       -2.1930    -5.7490     2.3220 H     1 <1>   0.0800 
 37 H       -5.1590    -5.3950    -1.0500 H     1 <1>   0.0800 
 38 H       -5.6100    -4.2010    -2.2380 H     1 <1>   0.0800 
 39 H       -4.3540    -1.8930    -2.1750 H     1 <1>   0.0800 
 40 H       -3.1400    -1.6740    -0.9440 H     1 <1>   0.0800 
 41 H       -6.1260    -4.0690     0.7340 H     1 <1>   0.0800 
 42 H       -7.3080    -4.2250    -0.5320 H     1 <1>   0.0800 
 43 H       -5.3080    -0.5320    -0.4370 H     1 <1>   0.0800 
 44 H       -4.8200    -1.6550     0.7980 H     1 <1>   0.0800 
 45 H       -8.4330    -1.2000    -1.6390 H     1 <1>   0.1500 
 46 H       -9.0020    -1.0190     3.2430 H     1 <1>   0.1500 
 47 H      -10.4320    -0.1440    -0.6780 H     1 <1>   0.1500 
 48 H      -10.7280    -0.0480     1.7630 H     1 <1>   0.1500 
@<TRIPOS>BOND
  1   1   2  1   
  2   2   3  ar  
  3   2   4  ar  
  4   3   5  1   
  5   3   6  ar  
  6   4   7  ar  
  7   4  26  1   
  8   5   8  1   
  9   6   9  ar  
 10   6  27  1   
 11   7   9  ar  
 12   7  10  1   
 13   8  28  1   
 14   8  29  1   
 15   8  30  1   
 16   9  11  1   
 17  10  12  1   
 18  10  31  1   
 19  10  32  1   
 20  11  13  1   
 21  12  14  1   
 22  12  15  1   
 23  12  33  1   
 24  13  34  1   
 25  13  35  1   
 26  13  36  1   
 27  14  16  1   
 28  14  37  1   
 29  14  38  1   
 30  15  17  1   
 31  15  39  1   
 32  15  40  1   
 33  16  18  1   
 34  16  41  1   
 35  16  42  1   
 36  17  18  1   
 37  17  43  1   
 38  17  44  1   
 39  18  19  1   
 40  19  20  ar  
 41  19  21  ar  
 42  20  22  1   
 43  20  23  ar  
 44  21  24  ar  
 45  21  45  1   
 46  23  25  ar  
 47  23  46  1   
 48  24  25  ar  
 49  24  47  1   
 50  25  48  1   
@<TRIPOS>SUBSTRUCTURE
  1 ****  15 GROUP 4 **** **** 0

# MOE 2024.06 (io_trps.svl 2023.06)
