@<TRIPOS>MOLECULE
NONAME
27 27 1 0 0 
SMALL
USER_CHARGES


@<TRIPOS>ATOM
  1 S       -0.1730    -0.1540     1.2450 S.3   1 <1>  -0.4600 
  2 C       -1.0490     0.1310    -0.3240 C.3   1 <1>   0.2140 
  3 C        1.3690     0.8310     1.0420 C.3   1 <1>  -0.0360 
  4 C       -2.4690    -0.4060    -0.2040 C.ar  1 <1>  -0.1440 
  5 C        1.9750     0.7710    -0.3540 C.2   1 <1>   0.9060 
  6 C       -3.5520     0.4590    -0.2390 C.ar  1 <1>  -0.1500 
  7 C       -2.6930    -1.7660    -0.0680 C.ar  1 <1>  -0.1500 
  8 O        1.4460     1.4280    -1.2610 O.co2 1 <1>  -0.9000 
  9 O        2.9960     0.1000    -0.5380 O.co2 1 <1>  -0.9000 
 10 C       -4.8470    -0.0270    -0.1460 C.ar  1 <1>  -0.1440 
 11 C       -3.9810    -2.2650     0.0300 C.ar  1 <1>  -0.1430 
 12 C       -5.0540    -1.3900    -0.0110 C.ar  1 <1>  -0.1500 
 13 C       -6.0290     0.9230    -0.1850 C.3   1 <1>  -0.0970 
 14 C       -4.2020    -3.7590     0.1810 C.3   1 <1>  -0.0970 
 15 H       -0.4990    -0.3790    -1.0960 H     1 <1>   0.0800 
 16 H       -1.0330     1.1890    -0.5110 H     1 <1>   0.0800 
 17 H        2.0780     0.4570     1.7540 H     1 <1>   0.0800 
 18 H        1.1220     1.8490     1.2690 H     1 <1>   0.0800 
 19 H       -3.3800     1.5150    -0.3400 H     1 <1>   0.1500 
 20 H       -1.8490    -2.4340    -0.0350 H     1 <1>   0.1500 
 21 H       -6.0570    -1.7700     0.0640 H     1 <1>   0.1500 
 22 H       -5.7510     1.8560    -0.6390 H     1 <1>   0.0800 
 23 H       -6.3750     1.1120     0.8160 H     1 <1>   0.0800 
 24 H       -6.8320     0.4930    -0.7560 H     1 <1>   0.0800 
 25 H       -3.4850    -4.1680     0.8700 H     1 <1>   0.0800 
 26 H       -4.0830    -4.2400    -0.7730 H     1 <1>   0.0800 
 27 H       -5.1890    -3.9620     0.5550 H     1 <1>   0.0800 
@<TRIPOS>BOND
  1   1   2  1   
  2   1   3  1   
  3   2   4  1   
  4   2  15  1   
  5   2  16  1   
  6   3   5  1   
  7   3  17  1   
  8   3  18  1   
  9   4   6  ar  
 10   4   7  ar  
 11   5   8  ar  
 12   5   9  ar  
 13   6  10  ar  
 14   6  19  1   
 15   7  11  ar  
 16   7  20  1   
 17  10  12  ar  
 18  10  13  1   
 19  11  12  ar  
 20  11  14  1   
 21  12  21  1   
 22  13  22  1   
 23  13  23  1   
 24  13  24  1   
 25  14  25  1   
 26  14  26  1   
 27  14  27  1   
@<TRIPOS>SUBSTRUCTURE
  1 ****   4 GROUP 4 **** **** 0

# MOE 2024.06 (io_trps.svl 2023.06)
