@<TRIPOS>MOLECULE
NONAME
48 50 1 0 0 
SMALL
USER_CHARGES


@<TRIPOS>ATOM
  1 S        0.8970    -1.2680    -1.2660 S.o2  1 <1>   1.4470 
  2 O        2.1280    -1.9070    -0.8650 O.2   1 <1>  -0.6500 
  3 O        0.7350    -0.8060    -2.6260 O.2   1 <1>  -0.6500 
  4 N        0.7440     0.0800    -0.2770 N.am  1 <1>  -0.9140 
  5 C       -0.5300    -2.2760    -0.7790 C.ar  1 <1>  -0.0090 
  6 C        1.5360     1.2280    -0.7110 C.3   1 <1>   0.1960 
  7 C       -1.8220    -1.8320    -1.0140 C.ar  1 <1>  -0.1500 
  8 C       -0.3730    -3.5010    -0.1460 C.ar  1 <1>  -0.1500 
  9 C        3.0080     1.0550    -0.2960 C.3   1 <1>   0.2000 
 10 C       -2.9510    -2.5550    -0.6330 C.ar  1 <1>   0.0860 
 11 C       -1.4710    -4.2490     0.2360 C.ar  1 <1>  -0.1500 
 12 O        3.0690     0.6290     1.0290 O.3   1 <1>  -0.5600 
 13 C        3.8370     2.3320    -0.3140 C.3   1 <1>  -0.1600 
 14 C       -2.7540    -3.7870     0.0000 C.ar  1 <1>  -0.1430 
 15 C       -4.2700    -2.0050    -0.8920 C.2   1 <1>   0.5440 
 16 C        4.3420     0.8690     1.5330 C.3   1 <1>   0.1200 
 17 C        4.8740     2.0820     0.7720 C.3   1 <1>  -0.1600 
 18 C       -3.9430    -4.6320     0.4380 C.3   1 <1>  -0.0970 
 19 O       -5.0350    -2.5730    -1.6490 O.2   1 <1>  -0.5700 
 20 N       -4.6760    -0.8370    -0.2910 N.am  1 <1>  -0.6600 
 21 C       -6.0130    -0.2480    -0.5140 C.3   1 <1>   0.1400 
 22 C       -3.9500    -0.1300     0.7850 C.3   1 <1>   0.1400 
 23 C       -6.0280     1.0170     0.3380 C.3   1 <1>  -0.1600 
 24 C       -5.0040     0.7550     1.4400 C.3   1 <1>  -0.1600 
 25 H        1.2240    -0.2000     0.5870 H     1 <1>   0.4200 
 26 H        1.1480     2.1060    -0.2240 H     1 <1>   0.0800 
 27 H        1.4550     1.3840    -1.7730 H     1 <1>   0.0800 
 28 H       -1.9630    -0.8870    -1.5120 H     1 <1>   0.1500 
 29 H        0.6190    -3.8760     0.0490 H     1 <1>   0.1500 
 30 H        3.4850     0.3030    -0.9030 H     1 <1>   0.0800 
 31 H       -1.3170    -5.1980     0.7210 H     1 <1>   0.1500 
 32 H        3.2250     3.1770    -0.0510 H     1 <1>   0.0800 
 33 H        4.2820     2.5020    -1.2790 H     1 <1>   0.0800 
 34 H        4.9440    -0.0050     1.3460 H     1 <1>   0.0800 
 35 H        4.2690     1.0470     2.5920 H     1 <1>   0.0800 
 36 H        4.9700     2.9320     1.4250 H     1 <1>   0.0800 
 37 H        5.8380     1.8540     0.3510 H     1 <1>   0.0800 
 38 H       -4.6070    -4.0510     1.0540 H     1 <1>   0.0800 
 39 H       -3.6260    -5.4930     0.9990 H     1 <1>   0.0800 
 40 H       -4.4870    -4.9710    -0.4270 H     1 <1>   0.0800 
 41 H       -6.7630    -0.9440    -0.1770 H     1 <1>   0.0800 
 42 H       -6.1650    -0.0330    -1.5580 H     1 <1>   0.0800 
 43 H       -3.1740     0.4750     0.3480 H     1 <1>   0.0800 
 44 H       -3.5220    -0.8230     1.4890 H     1 <1>   0.0800 
 45 H       -7.0090     1.2250     0.7270 H     1 <1>   0.0800 
 46 H       -5.7080     1.8470    -0.2690 H     1 <1>   0.0800 
 47 H       -4.5790     1.6620     1.8310 H     1 <1>   0.0800 
 48 H       -5.4660     0.2090     2.2450 H     1 <1>   0.0800 
@<TRIPOS>BOND
  1   1   2  2   
  2   1   3  2   
  3   1   4  am  
  4   1   5  1   
  5   4   6  1   
  6   4  25  1   
  7   5   7  ar  
  8   5   8  ar  
  9   6   9  1   
 10   6  26  1   
 11   6  27  1   
 12   7  10  ar  
 13   7  28  1   
 14   8  11  ar  
 15   8  29  1   
 16   9  12  1   
 17   9  13  1   
 18   9  30  1   
 19  10  14  ar  
 20  10  15  1   
 21  11  14  ar  
 22  11  31  1   
 23  12  16  1   
 24  13  17  1   
 25  13  32  1   
 26  13  33  1   
 27  14  18  1   
 28  15  19  2   
 29  15  20  am  
 30  16  17  1   
 31  16  34  1   
 32  16  35  1   
 33  17  36  1   
 34  17  37  1   
 35  18  38  1   
 36  18  39  1   
 37  18  40  1   
 38  20  21  1   
 39  20  22  1   
 40  21  23  1   
 41  21  41  1   
 42  21  42  1   
 43  22  24  1   
 44  22  43  1   
 45  22  44  1   
 46  23  24  1   
 47  23  45  1   
 48  23  46  1   
 49  24  47  1   
 50  24  48  1   
@<TRIPOS>SUBSTRUCTURE
  1 ****   7 GROUP 4 **** **** 0

# MOE 2024.06 (io_trps.svl 2023.06)
