@<TRIPOS>MOLECULE
NONAME
35 37 1 0 0 
SMALL
USER_CHARGES


@<TRIPOS>ATOM
  1 CL       2.4900    -1.7320    -2.2200 Cl    1 <1>  -0.1770 
  2 C        1.7000    -2.3480    -0.7850 C.ar  1 <1>   0.1770 
  3 C        1.9740    -1.8210     0.4810 C.ar  1 <1>   0.0540 
  4 C        0.7850    -3.3680    -0.9720 C.ar  1 <1>  -0.1500 
  5 C        2.9370    -0.7660     0.7100 C.2   1 <1>   0.4620 
  6 C        1.2670    -2.3680     1.5550 C.ar  1 <1>  -0.1500 
  7 C        0.1050    -3.8930     0.1120 C.ar  1 <1>  -0.1500 
  8 N        2.7150     0.2290     1.5760 N.2   1 <1>  -0.2270 
  9 N        4.0940    -0.6800     0.1450 N.2   1 <1>  -0.7070 
 10 C        0.3480    -3.3880     1.3770 C.ar  1 <1>  -0.1500 
 11 N        3.7500     0.9670     1.5610 N.2   1 <1>  -0.4180 
 12 N        4.5830     0.4050     0.7040 N.pl3 1 <1>   0.5800 
 13 C        5.8670     1.0000     0.3290 C.3   1 <1>   0.1570 
 14 C        6.9810     0.0230     0.6210 C.2   1 <1>   0.5690 
 15 O        7.5400     0.1520     1.6840 O.2   1 <1>  -0.5700 
 16 N        7.3710    -0.9390    -0.2810 N.am  1 <1>  -0.6600 
 17 C        6.7000    -1.2580    -1.5830 C.3   1 <1>   0.1400 
 18 C        8.4180    -1.9490     0.0680 C.3   1 <1>   0.1400 
 19 C        6.2140    -2.7170    -1.5910 C.3   1 <1>   0.1200 
 20 C        7.8430    -3.3720    -0.0350 C.3   1 <1>   0.1200 
 21 O        7.2730    -3.5850    -1.2960 O.3   1 <1>  -0.5600 
 22 H        0.6050    -3.7460    -1.9630 H     1 <1>   0.1500 
 23 H        1.4440    -1.9890     2.5470 H     1 <1>   0.1500 
 24 H       -0.6090    -4.6870    -0.0270 H     1 <1>   0.1500 
 25 H       -0.1790    -3.7900     2.2250 H     1 <1>   0.1500 
 26 H        6.0150     1.8890     0.9110 H     1 <1>   0.0800 
 27 H        5.8460     1.2620    -0.7080 H     1 <1>   0.0800 
 28 H        7.4040    -1.1220    -2.3850 H     1 <1>   0.0800 
 29 H        5.8630    -0.6120    -1.7690 H     1 <1>   0.0800 
 30 H        8.7880    -1.7910     1.0650 H     1 <1>   0.0800 
 31 H        9.2470    -1.8510    -0.6110 H     1 <1>   0.0800 
 32 H        5.8340    -2.9780    -2.5630 H     1 <1>   0.0800 
 33 H        5.4320    -2.8620    -0.8660 H     1 <1>   0.0800 
 34 H        7.0890    -3.5300     0.7170 H     1 <1>   0.0800 
 35 H        8.6240    -4.0990     0.0990 H     1 <1>   0.0800 
@<TRIPOS>BOND
  1   1   2  1   
  2   2   3  ar  
  3   2   4  ar  
  4   3   5  1   
  5   3   6  ar  
  6   4   7  ar  
  7   4  22  1   
  8   5   8  1   
  9   5   9  2   
 10   6  10  ar  
 11   6  23  1   
 12   7  10  ar  
 13   7  24  1   
 14   8  11  2   
 15   9  12  1   
 16  10  25  1   
 17  11  12  1   
 18  12  13  1   
 19  13  14  1   
 20  13  26  1   
 21  13  27  1   
 22  14  15  2   
 23  14  16  am  
 24  16  17  1   
 25  16  18  1   
 26  17  19  1   
 27  17  28  1   
 28  17  29  1   
 29  18  20  1   
 30  18  30  1   
 31  18  31  1   
 32  19  21  1   
 33  19  32  1   
 34  19  33  1   
 35  20  21  1   
 36  20  34  1   
 37  20  35  1   
@<TRIPOS>SUBSTRUCTURE
  1 ****   9 GROUP 4 **** **** 0

# MOE 2024.06 (io_trps.svl 2023.06)
