@<TRIPOS>MOLECULE
NONAME
51 52 1 0 0 
SMALL
USER_CHARGES


@<TRIPOS>ATOM
  1 O        0.2560    -0.5690     0.9490 O.3   1 <1>  -0.3630 
  2 C       -0.9700    -0.9070     0.4900 C.ar  1 <1>   0.0830 
  3 C        1.3120    -0.7050     0.0260 C.3   1 <1>   0.1200 
  4 C       -1.7740     0.0600    -0.1080 C.ar  1 <1>  -0.1440 
  5 C       -1.4210    -2.2170     0.6310 C.ar  1 <1>  -0.1440 
  6 C        2.6060    -0.3000     0.7260 C.3   1 <1>   0.1200 
  7 C       -3.0180    -0.3050    -0.5960 C.ar  1 <1>  -0.1500 
  8 C       -1.3190     1.5070    -0.2330 C.3   1 <1>  -0.0960 
  9 C       -2.6690    -2.5570     0.1350 C.ar  1 <1>  -0.1500 
 10 C       -0.5780    -3.2800     1.3210 C.3   1 <1>  -0.0960 
 11 O        3.6670    -0.4280    -0.1730 O.3   1 <1>  -0.5600 
 12 C       -3.4680    -1.6100    -0.4830 C.ar  1 <1>  -0.1430 
 13 C        4.9070    -0.0940     0.3530 C.3   1 <1>   0.1200 
 14 C       -4.8340    -1.9960    -1.0220 C.3   1 <1>  -0.0970 
 15 C        5.9450    -0.3090    -0.7560 C.3   1 <1>   0.3430 
 16 N        7.3510    -0.0490    -0.3040 N.4   1 <1>  -0.9590 
 17 C        7.5910     1.3930     0.0080 C.3   1 <1>   0.3430 
 18 C        8.3140    -0.5450    -1.3320 C.3   1 <1>   0.3430 
 19 C        9.0060     1.5730     0.5620 C.3   1 <1>  -0.1600 
 20 C        9.7450    -0.4100    -0.8080 C.3   1 <1>  -0.1600 
 21 C       10.0680     1.0340    -0.4050 C.3   1 <1>  -0.1600 
 22 H        1.1140    -0.0640    -0.8130 H     1 <1>   0.0800 
 23 H        1.3550    -1.7310    -0.2910 H     1 <1>   0.0800 
 24 H        2.7820    -0.9470     1.5690 H     1 <1>   0.0800 
 25 H        2.5420     0.7260     1.0460 H     1 <1>   0.0800 
 26 H       -3.6440     0.4320    -1.0660 H     1 <1>   0.1500 
 27 H       -0.6500     1.6100    -1.0680 H     1 <1>   0.0800 
 28 H       -0.8110     1.8150     0.6630 H     1 <1>   0.0800 
 29 H       -2.1600     2.1590    -0.3820 H     1 <1>   0.0800 
 30 H       -3.0250    -3.5670     0.2320 H     1 <1>   0.1500 
 31 H       -1.1920    -4.0980     1.6510 H     1 <1>   0.0800 
 32 H        0.1630    -3.6570     0.6410 H     1 <1>   0.0800 
 33 H       -0.0850    -2.8620     2.1810 H     1 <1>   0.0800 
 34 H        5.1050    -0.7390     1.1910 H     1 <1>   0.0800 
 35 H        4.8740     0.9360     0.6630 H     1 <1>   0.0800 
 36 H       -5.0910    -1.3840    -1.8680 H     1 <1>   0.0800 
 37 H       -5.5770    -1.8620    -0.2560 H     1 <1>   0.0800 
 38 H       -4.8370    -3.0250    -1.3340 H     1 <1>   0.0800 
 39 H        5.7050     0.3360    -1.5860 H     1 <1>   0.0800 
 40 H        5.8610    -1.3300    -1.0900 H     1 <1>   0.0800 
 41 H        7.5300    -0.5890     0.5530 H     1 <1>   0.4500 
 42 H        6.8780     1.7430     0.7370 H     1 <1>   0.0800 
 43 H        7.4790     1.9840    -0.8870 H     1 <1>   0.0800 
 44 H        8.2080     0.0280    -2.2390 H     1 <1>   0.0800 
 45 H        8.1130    -1.5800    -1.5600 H     1 <1>   0.0800 
 46 H        9.0860     1.0720     1.5110 H     1 <1>   0.0800 
 47 H        9.1850     2.6200     0.7370 H     1 <1>   0.0800 
 48 H       10.4310    -0.7260    -1.5750 H     1 <1>   0.0800 
 49 H        9.8820    -1.0670     0.0340 H     1 <1>   0.0800 
 50 H       11.0410     1.0770     0.0570 H     1 <1>   0.0800 
 51 H       10.0980     1.6540    -1.2870 H     1 <1>   0.0800 
@<TRIPOS>BOND
  1   1   2  1   
  2   1   3  1   
  3   2   4  ar  
  4   2   5  ar  
  5   3   6  1   
  6   3  22  1   
  7   3  23  1   
  8   4   7  ar  
  9   4   8  1   
 10   5   9  ar  
 11   5  10  1   
 12   6  11  1   
 13   6  24  1   
 14   6  25  1   
 15   7  12  ar  
 16   7  26  1   
 17   8  27  1   
 18   8  28  1   
 19   8  29  1   
 20   9  12  ar  
 21   9  30  1   
 22  10  31  1   
 23  10  32  1   
 24  10  33  1   
 25  11  13  1   
 26  12  14  1   
 27  13  15  1   
 28  13  34  1   
 29  13  35  1   
 30  14  36  1   
 31  14  37  1   
 32  14  38  1   
 33  15  16  1   
 34  15  39  1   
 35  15  40  1   
 36  16  17  1   
 37  16  18  1   
 38  16  41  1   
 39  17  19  1   
 40  17  42  1   
 41  17  43  1   
 42  18  20  1   
 43  18  44  1   
 44  18  45  1   
 45  19  21  1   
 46  19  46  1   
 47  19  47  1   
 48  20  21  1   
 49  20  48  1   
 50  20  49  1   
 51  21  50  1   
 52  21  51  1   
@<TRIPOS>SUBSTRUCTURE
  1 ****   6 GROUP 4 **** **** 0

# MOE 2024.06 (io_trps.svl 2023.06)
