@<TRIPOS>MOLECULE
NONAME
50 53 1 0 0 
SMALL
USER_CHARGES


@<TRIPOS>ATOM
  1 S        0.1000    -0.8380     0.1930 S.3   1 <1>  -0.2860 
  2 C       -1.6510    -1.0590     0.4650 C.2   1 <1>   0.5340 
  3 C        0.8320    -2.3440     1.0040 C.3   1 <1>   0.1310 
  4 O       -2.4700    -0.1780     0.0140 O.3   1 <1>  -0.2800 
  5 N       -2.2050    -2.0280     1.0790 N.2   1 <1>  -0.3380 
  6 C        2.3490    -2.3780     0.8930 C.2   1 <1>   0.5690 
  7 C       -3.6360    -0.6380     0.3790 C.2   1 <1>   0.4250 
  8 N       -3.5070    -1.7560     1.0260 N.2   1 <1>  -0.3380 
  9 O        2.9220    -3.3660     1.2820 O.2   1 <1>  -0.5700 
 10 N        3.0210    -1.3190     0.3710 N.am  1 <1>  -0.7300 
 11 C       -4.8530     0.0760     0.0580 C.ar  1 <1>   0.0530 
 12 C        4.4890    -1.2240     0.2060 C.3   1 <1>   0.2200 
 13 C       -6.0970    -0.4140     0.4540 C.ar  1 <1>  -0.1500 
 14 C       -4.8330     1.2760    -0.6560 C.ar  1 <1>  -0.1500 
 15 C        5.1050     0.0580     1.0200 C.3   1 <1>  -0.0800 
 16 C        4.8600    -1.0200    -1.4080 C.3   1 <1>  -0.1600 
 17 C       -7.2730     0.2510     0.1580 C.ar  1 <1>   0.0830 
 18 C       -6.0070     1.9560    -0.9610 C.ar  1 <1>   0.0830 
 19 C        5.4920     0.1700    -0.2570 C.3   1 <1>  -0.1600 
 20 C        6.1070     1.3450     0.8970 C.3   1 <1>  -0.1600 
 21 C        5.8500     0.2770    -1.5400 C.3   1 <1>  -0.0800 
 22 O       -8.4240    -0.3200     0.5940 O.3   1 <1>  -0.3630 
 23 C       -7.2250     1.4430    -0.5530 C.ar  1 <1>  -0.1500 
 24 O       -6.0450     3.1240    -1.6510 O.3   1 <1>  -0.3620 
 25 C        6.4830     1.5450    -0.7220 C.3   1 <1>  -0.1600 
 26 C       -9.6770     0.2790     0.3440 C.3   1 <1>   0.0400 
 27 C       -4.8680     3.7440    -2.1200 C.3   1 <1>   0.0400 
 28 H        0.4080    -3.2050     0.5220 H     1 <1>   0.0800 
 29 H        0.5390    -2.3260     2.0370 H     1 <1>   0.0800 
 30 H        2.4900    -0.5140     0.0320 H     1 <1>   0.3700 
 31 H        4.9500    -2.1320     0.5690 H     1 <1>   0.0800 
 32 H       -6.1590    -1.3360     1.0060 H     1 <1>   0.1500 
 33 H       -3.8860     1.6690    -0.9690 H     1 <1>   0.1500 
 34 H        4.2100     0.5370     1.3900 H     1 <1>   0.0800 
 35 H        3.9640    -0.8640    -1.9890 H     1 <1>   0.0800 
 36 H        5.3430    -1.9070    -1.7840 H     1 <1>   0.0800 
 37 H        4.5360     0.8240    -0.4740 H     1 <1>   0.0800 
 38 H        6.4400    -0.4960    -0.0450 H     1 <1>   0.0800 
 39 H        7.0060     1.1710     1.4690 H     1 <1>   0.0800 
 40 H        5.6420     2.2370     1.2890 H     1 <1>   0.0800 
 41 H        6.7510    -0.1900    -1.9170 H     1 <1>   0.0800 
 42 H       -8.1120     1.9900    -0.8040 H     1 <1>   0.1500 
 43 H        7.5520     1.5990    -0.8560 H     1 <1>   0.0800 
 44 H        6.0630     2.4690    -1.0910 H     1 <1>   0.0800 
 45 H      -10.4370    -0.3440     0.7780 H     1 <1>   0.0800 
 46 H       -9.8250     0.3490    -0.7190 H     1 <1>   0.0800 
 47 H       -9.6970     1.2520     0.8020 H     1 <1>   0.0800 
 48 H       -5.1490     4.6470    -2.6330 H     1 <1>   0.0800 
 49 H       -4.3700     3.0790    -2.8020 H     1 <1>   0.0800 
 50 H       -4.2400     3.9820    -1.2810 H     1 <1>   0.0800 
@<TRIPOS>BOND
  1   1   2  1   
  2   1   3  1   
  3   2   4  1   
  4   2   5  2   
  5   3   6  1   
  6   3  28  1   
  7   3  29  1   
  8   4   7  1   
  9   5   8  1   
 10   6   9  2   
 11   6  10  am  
 12   7   8  2   
 13   7  11  1   
 14  10  12  1   
 15  10  30  1   
 16  11  13  ar  
 17  11  14  ar  
 18  12  15  1   
 19  12  16  1   
 20  12  31  1   
 21  13  17  ar  
 22  13  32  1   
 23  14  18  ar  
 24  14  33  1   
 25  15  19  1   
 26  15  20  1   
 27  15  34  1   
 28  16  21  1   
 29  16  35  1   
 30  16  36  1   
 31  17  22  1   
 32  17  23  ar  
 33  18  23  ar  
 34  18  24  1   
 35  19  21  1   
 36  19  37  1   
 37  19  38  1   
 38  20  25  1   
 39  20  39  1   
 40  20  40  1   
 41  21  25  1   
 42  21  41  1   
 43  22  26  1   
 44  23  42  1   
 45  24  27  1   
 46  25  43  1   
 47  25  44  1   
 48  26  45  1   
 49  26  46  1   
 50  26  47  1   
 51  27  48  1   
 52  27  49  1   
 53  27  50  1   
@<TRIPOS>SUBSTRUCTURE
  1 ****   2 GROUP 4 **** **** 0

# MOE 2024.06 (io_trps.svl 2023.06)
