@<TRIPOS>MOLECULE
NONAME
33 35 1 0 0 
SMALL
USER_CHARGES


@<TRIPOS>ATOM
  1 O       -0.7210    -0.6120    -1.4340 O.2   1 <1>  -0.5700 
  2 C       -0.4560    -1.6910    -0.9170 C.2   1 <1>   0.5440 
  3 N        0.8110    -2.2040    -1.0560 N.am  1 <1>  -0.3250 
  4 C       -1.4540    -2.4010    -0.1580 C.ar  1 <1>   0.0860 
  5 O        1.7360    -1.5780    -1.9270 O.3   1 <1>  -0.4360 
  6 C        1.2600    -3.4700    -0.4070 C.3   1 <1>   0.6690 
  7 C       -1.0450    -3.4970     0.6070 C.ar  1 <1>   0.1000 
  8 C       -2.8040    -2.0480    -0.1480 C.ar  1 <1>  -0.1500 
  9 N        0.2870    -3.8700     0.6280 N.pl3 1 <1>  -0.8690 
 10 C        1.3530    -4.6040    -1.4540 C.3   1 <1>  -0.1600 
 11 C        2.6090    -3.2700     0.3040 C.3   1 <1>  -0.1600 
 12 C       -1.9770    -4.2080     1.3550 C.ar  1 <1>  -0.1500 
 13 C       -3.7250    -2.7600     0.5950 C.ar  1 <1>  -0.1500 
 14 C        2.4750    -5.6360    -1.1970 C.3   1 <1>  -0.1600 
 15 C        3.1320    -4.5420     1.0120 C.3   1 <1>  -0.1600 
 16 C       -3.3090    -3.8450     1.3500 C.ar  1 <1>  -0.1500 
 17 C        2.7380    -5.8500     0.2980 C.3   1 <1>  -0.1600 
 18 H        1.8480    -0.6400    -1.6650 H     1 <1>   0.4000 
 19 H       -3.1250    -1.2020    -0.7330 H     1 <1>   0.1500 
 20 H        0.5380    -4.7690     1.0410 H     1 <1>   0.4000 
 21 H        1.5330    -4.1760    -2.4240 H     1 <1>   0.0800 
 22 H        0.4050    -5.1080    -1.5050 H     1 <1>   0.0800 
 23 H        2.5260    -2.4650     1.0110 H     1 <1>   0.0800 
 24 H        3.3360    -2.9820    -0.4350 H     1 <1>   0.0800 
 25 H       -1.6530    -5.0450     1.9440 H     1 <1>   0.1500 
 26 H       -4.7630    -2.4740     0.5900 H     1 <1>   0.1500 
 27 H        3.3840    -5.2860    -1.6560 H     1 <1>   0.0800 
 28 H        2.2180    -6.5710    -1.6650 H     1 <1>   0.0800 
 29 H        2.7570    -4.5700     2.0210 H     1 <1>   0.0800 
 30 H        4.2050    -4.4780     1.0740 H     1 <1>   0.0800 
 31 H       -4.0250    -4.4000     1.9310 H     1 <1>   0.1500 
 32 H        3.5210    -6.5780     0.4290 H     1 <1>   0.0800 
 33 H        1.8500    -6.2560     0.7510 H     1 <1>   0.0800 
@<TRIPOS>BOND
  1   1   2  2   
  2   2   3  am  
  3   2   4  1   
  4   3   5  1   
  5   3   6  1   
  6   4   7  ar  
  7   4   8  ar  
  8   5  18  1   
  9   6   9  1   
 10   6  10  1   
 11   6  11  1   
 12   7   9  1   
 13   7  12  ar  
 14   8  13  ar  
 15   8  19  1   
 16   9  20  1   
 17  10  14  1   
 18  10  21  1   
 19  10  22  1   
 20  11  15  1   
 21  11  23  1   
 22  11  24  1   
 23  12  16  ar  
 24  12  25  1   
 25  13  16  ar  
 26  13  26  1   
 27  14  17  1   
 28  14  27  1   
 29  14  28  1   
 30  15  17  1   
 31  15  29  1   
 32  15  30  1   
 33  16  31  1   
 34  17  32  1   
 35  17  33  1   
@<TRIPOS>SUBSTRUCTURE
  1 ****   9 GROUP 4 **** **** 0

# MOE 2024.06 (io_trps.svl 2023.06)
