@<TRIPOS>MOLECULE
NONAME
55 57 1 0 0 
SMALL
USER_CHARGES


@<TRIPOS>ATOM
  1 S       -0.5930    -1.0730     1.1360 S.o2  1 <1>   1.4470 
  2 O       -0.8960     0.3400     1.2340 O.2   1 <1>  -0.6500 
  3 O       -0.8360    -1.8840     2.3120 O.2   1 <1>  -0.6500 
  4 N       -1.6160    -1.6820    -0.0760 N.am  1 <1>  -0.8490 
  5 C        1.0780    -1.2420     0.4450 C.ar  1 <1>  -0.0090 
  6 C       -3.0090    -1.2840     0.1790 C.3   1 <1>   0.1960 
  7 C       -1.4870    -3.1370    -0.2170 C.3   1 <1>   0.1960 
  8 C        1.8600    -2.3820     0.6300 C.ar  1 <1>   0.0820 
  9 C        1.6050    -0.2090    -0.3240 C.ar  1 <1>  -0.1500 
 10 C       -3.9460    -1.7530    -0.9410 C.3   1 <1>  -0.0190 
 11 C       -2.3490    -3.6430    -1.3770 C.3   1 <1>  -0.1600 
 12 O        1.3450    -3.4060     1.3550 O.3   1 <1>  -0.3630 
 13 C        3.1330    -2.4610     0.0690 C.ar  1 <1>  -0.1500 
 14 C        2.8680    -0.2820    -0.8860 C.ar  1 <1>  -0.1430 
 15 C       -5.3750    -1.3340    -0.6310 C.2   1 <1>   0.5690 
 16 C       -3.8220    -3.2690    -1.1820 C.3   1 <1>  -0.1600 
 17 C        2.1700    -4.3790     1.9580 C.3   1 <1>   0.0400 
 18 C        3.6330    -1.4160    -0.6820 C.ar  1 <1>  -0.1500 
 19 C        3.4070     0.8720    -1.7120 C.3   1 <1>  -0.0970 
 20 O       -5.9270    -0.5530    -1.3640 O.2   1 <1>  -0.5700 
 21 N       -6.0040    -1.8550     0.4570 N.am  1 <1>  -0.7300 
 22 C       -7.3980    -1.5220     0.8630 C.3   1 <1>   0.1400 
 23 C       -8.4360    -2.1240    -0.0960 C.3   1 <1>   0.2000 
 24 O       -9.7020    -2.0020     0.4620 O.3   1 <1>  -0.5600 
 25 C       -8.2950    -3.6210    -0.3500 C.3   1 <1>  -0.1600 
 26 C      -10.5770    -2.8900    -0.1530 C.3   1 <1>   0.1200 
 27 C       -9.7220    -4.0570    -0.6430 C.3   1 <1>  -0.1600 
 28 H       -3.0720    -0.2100     0.2430 H     1 <1>   0.0800 
 29 H       -3.3280    -1.6900     1.1250 H     1 <1>   0.0800 
 30 H       -1.7780    -3.6260     0.6990 H     1 <1>   0.0800 
 31 H       -0.4630    -3.3920    -0.4240 H     1 <1>   0.0800 
 32 H        1.0090     0.6740    -0.4820 H     1 <1>   0.1500 
 33 H       -3.6500    -1.2400    -1.8400 H     1 <1>   0.0800 
 34 H       -2.2540    -4.7120    -1.4510 H     1 <1>   0.0800 
 35 H       -1.9810    -3.2160    -2.2940 H     1 <1>   0.0800 
 36 H        3.7460    -3.3320     0.2000 H     1 <1>   0.1500 
 37 H       -4.3910    -3.5460    -2.0530 H     1 <1>   0.0800 
 38 H       -4.2130    -3.8110    -0.3380 H     1 <1>   0.0800 
 39 H        1.5600    -4.9650     2.6230 H     1 <1>   0.0800 
 40 H        2.9440    -3.8830     2.5170 H     1 <1>   0.0800 
 41 H        2.5870    -5.0100     1.1940 H     1 <1>   0.0800 
 42 H        4.6180    -1.4880    -1.1090 H     1 <1>   0.1500 
 43 H        2.6050     1.3860    -2.2100 H     1 <1>   0.0800 
 44 H        4.0940     0.5140    -2.4580 H     1 <1>   0.0800 
 45 H        3.9200     1.5680    -1.0730 H     1 <1>   0.0800 
 46 H       -5.5290    -2.5440     1.0410 H     1 <1>   0.3700 
 47 H       -7.5160    -0.4520     0.8710 H     1 <1>   0.0800 
 48 H       -7.5730    -1.8960     1.8560 H     1 <1>   0.0800 
 49 H       -8.4380    -1.5810    -1.0260 H     1 <1>   0.0800 
 50 H       -7.9330    -4.1090     0.5380 H     1 <1>   0.0800 
 51 H       -7.6240    -3.8190    -1.1660 H     1 <1>   0.0800 
 52 H      -11.0500    -2.3800    -0.9750 H     1 <1>   0.0800 
 53 H      -11.3170    -3.1980     0.5660 H     1 <1>   0.0800 
 54 H       -9.9720    -4.9650    -0.1230 H     1 <1>   0.0800 
 55 H       -9.8770    -4.2020    -1.6980 H     1 <1>   0.0800 
@<TRIPOS>BOND
  1   1   2  2   
  2   1   3  2   
  3   1   4  am  
  4   1   5  1   
  5   4   6  1   
  6   4   7  1   
  7   5   8  ar  
  8   5   9  ar  
  9   6  10  1   
 10   6  28  1   
 11   6  29  1   
 12   7  11  1   
 13   7  30  1   
 14   7  31  1   
 15   8  12  1   
 16   8  13  ar  
 17   9  14  ar  
 18   9  32  1   
 19  10  15  1   
 20  10  16  1   
 21  10  33  1   
 22  11  16  1   
 23  11  34  1   
 24  11  35  1   
 25  12  17  1   
 26  13  18  ar  
 27  13  36  1   
 28  14  18  ar  
 29  14  19  1   
 30  15  20  2   
 31  15  21  am  
 32  16  37  1   
 33  16  38  1   
 34  17  39  1   
 35  17  40  1   
 36  17  41  1   
 37  18  42  1   
 38  19  43  1   
 39  19  44  1   
 40  19  45  1   
 41  21  22  1   
 42  21  46  1   
 43  22  23  1   
 44  22  47  1   
 45  22  48  1   
 46  23  24  1   
 47  23  25  1   
 48  23  49  1   
 49  24  26  1   
 50  25  27  1   
 51  25  50  1   
 52  25  51  1   
 53  26  27  1   
 54  26  52  1   
 55  26  53  1   
 56  27  54  1   
 57  27  55  1   
@<TRIPOS>SUBSTRUCTURE
  1 ****   6 GROUP 4 **** **** 0

# MOE 2024.06 (io_trps.svl 2023.06)
