@<TRIPOS>MOLECULE
NONAME
42 42 1 0 0 
SMALL
USER_CHARGES


@<TRIPOS>ATOM
  1 O       -0.4180     1.3630     1.6720 O.2   1 <1>  -0.5700 
  2 C       -0.6360     1.7600     0.5570 C.2   1 <1>   0.6590 
  3 O       -1.8660     1.9870     0.1150 O.3   1 <1>  -0.4300 
  4 C        0.4870     2.0080    -0.4330 C.3   1 <1>  -0.0990 
  5 C       -2.9970     1.7770     0.9380 C.3   1 <1>   0.1200 
  6 C        1.2530     3.3180    -0.1800 C.3   1 <1>  -0.1600 
  7 C       -4.2700     1.7950     0.0860 C.3   1 <1>   0.1200 
  8 C        0.3490     4.5520    -0.2950 C.3   1 <1>  -0.1600 
  9 O       -4.4190     3.0420    -0.5690 O.3   1 <1>  -0.4300 
 10 C        1.1540     5.8490    -0.1220 C.3   1 <1>  -0.1600 
 11 C       -4.9280     4.1010     0.0470 C.2   1 <1>   0.6590 
 12 C        0.2650     7.1000    -0.2140 C.3   1 <1>  -0.1600 
 13 O       -5.3120     4.0560     1.1870 O.2   1 <1>  -0.5700 
 14 C       -5.0080     5.3730    -0.7770 C.3   1 <1>  -0.0990 
 15 C       -0.6360     7.2920     1.0230 C.3   1 <1>  -0.1600 
 16 C       -4.3010     6.5770    -0.1290 C.3   1 <1>  -0.1600 
 17 C       -2.1080     7.5590     0.6720 C.3   1 <1>  -0.1600 
 18 C       -2.8070     6.3160     0.1030 C.3   1 <1>  -0.1600 
 19 H        0.0790     2.0110    -1.4280 H     1 <1>   0.0800 
 20 H        1.1720     1.1840    -0.3640 H     1 <1>   0.0800 
 21 H       -3.0250     2.5480     1.6890 H     1 <1>   0.0800 
 22 H       -2.8940     0.8200     1.4200 H     1 <1>   0.0800 
 23 H        2.0540     3.3940    -0.8950 H     1 <1>   0.0800 
 24 H        1.6900     3.2850     0.8040 H     1 <1>   0.0800 
 25 H       -5.1380     1.6170     0.6970 H     1 <1>   0.0800 
 26 H       -4.2180     1.0300    -0.6680 H     1 <1>   0.0800 
 27 H       -0.4180     4.5000     0.4580 H     1 <1>   0.0800 
 28 H       -0.1330     4.5590    -1.2580 H     1 <1>   0.0800 
 29 H        1.6680     5.8420     0.8240 H     1 <1>   0.0800 
 30 H        1.8980     5.9010    -0.8980 H     1 <1>   0.0800 
 31 H       -0.3170     7.0540    -1.1170 H     1 <1>   0.0800 
 32 H        0.9010     7.9640    -0.3040 H     1 <1>   0.0800 
 33 H       -6.0470     5.6080    -0.9180 H     1 <1>   0.0800 
 34 H       -4.5800     5.1880    -1.7460 H     1 <1>   0.0800 
 35 H       -0.2620     8.1300     1.5850 H     1 <1>   0.0800 
 36 H       -0.5820     6.4390     1.6780 H     1 <1>   0.0800 
 37 H       -4.7750     6.7980     0.8140 H     1 <1>   0.0800 
 38 H       -4.4200     7.4350    -0.7670 H     1 <1>   0.0800 
 39 H       -2.6190     7.8620     1.5700 H     1 <1>   0.0800 
 40 H       -2.1710     8.3730    -0.0300 H     1 <1>   0.0800 
 41 H       -2.3480     6.0290    -0.8270 H     1 <1>   0.0800 
 42 H       -2.6890     5.5010     0.7970 H     1 <1>   0.0800 
@<TRIPOS>BOND
  1   1   2  2   
  2   2   3  1   
  3   2   4  1   
  4   3   5  1   
  5   4   6  1   
  6   4  19  1   
  7   4  20  1   
  8   5   7  1   
  9   5  21  1   
 10   5  22  1   
 11   6   8  1   
 12   6  23  1   
 13   6  24  1   
 14   7   9  1   
 15   7  25  1   
 16   7  26  1   
 17   8  10  1   
 18   8  27  1   
 19   8  28  1   
 20   9  11  1   
 21  10  12  1   
 22  10  29  1   
 23  10  30  1   
 24  11  13  2   
 25  11  14  1   
 26  12  15  1   
 27  12  31  1   
 28  12  32  1   
 29  14  16  1   
 30  14  33  1   
 31  14  34  1   
 32  15  17  1   
 33  15  35  1   
 34  15  36  1   
 35  16  18  1   
 36  16  37  1   
 37  16  38  1   
 38  17  18  1   
 39  17  39  1   
 40  17  40  1   
 41  18  41  1   
 42  18  42  1   
@<TRIPOS>SUBSTRUCTURE
  1 ****   3 GROUP 4 **** **** 0

# MOE 2024.06 (io_trps.svl 2023.06)
