@<TRIPOS>MOLECULE
NONAME
51 53 1 0 0 
SMALL
USER_CHARGES


@<TRIPOS>ATOM
  1 O        0.4740    -1.8710    -0.9750 O.2   1 <1>  -0.5700 
  2 C        0.3010    -2.3670     0.1220 C.2   1 <1>   0.6900 
  3 N        1.1840    -3.3080     0.5610 N.am  1 <1>  -0.6600 
  4 N       -0.6900    -1.9740     0.9620 N.am  1 <1>  -0.5470 
  5 C        1.5940    -4.3590    -0.4160 C.3   1 <1>   0.1400 
  6 C        2.3300    -2.7970     1.3610 C.3   1 <1>   0.1400 
  7 C       -1.5870    -0.9090     0.8190 C.ar  1 <1>   0.1170 
  8 C        2.6900    -3.8250    -1.3640 C.3   1 <1>   0.3430 
  9 C        3.4130    -2.2290     0.4200 C.3   1 <1>   0.3430 
 10 C       -2.5500    -0.8580    -0.1930 C.ar  1 <1>  -0.1440 
 11 C       -1.5220     0.1290     1.7410 C.ar  1 <1>  -0.1500 
 12 N        3.8570    -3.2340    -0.6160 N.4   1 <1>  -0.9590 
 13 C       -3.4030     0.2320    -0.2700 C.ar  1 <1>  -0.1500 
 14 C       -2.7030    -1.9710    -1.2220 C.3   1 <1>  -0.0970 
 15 C       -2.3790     1.2090     1.6590 C.ar  1 <1>  -0.1500 
 16 C        4.8310    -2.6200    -1.5570 C.3   1 <1>   0.4860 
 17 C       -3.3220     1.2630     0.6490 C.ar  1 <1>  -0.1500 
 18 C        6.0540    -2.2000    -0.7680 C.ar  1 <1>  -0.1440 
 19 C        6.9010    -3.1600    -0.2340 C.ar  1 <1>  -0.1500 
 20 C        6.3310    -0.8560    -0.5590 C.ar  1 <1>  -0.1500 
 21 C        8.0030    -2.7920     0.5170 C.ar  1 <1>   0.0820 
 22 C        7.4360    -0.4820     0.1860 C.ar  1 <1>  -0.1500 
 23 O        8.7610    -3.8010     1.0080 O.3   1 <1>  -0.3620 
 24 C        8.2710    -1.4430     0.7270 C.ar  1 <1>  -0.1500 
 25 C        9.9560    -3.5450     1.7140 C.3   1 <1>   0.0400 
 26 H       -0.7300    -2.4800     1.8430 H     1 <1>   0.3700 
 27 H        0.7380    -4.6560    -0.9990 H     1 <1>   0.0800 
 28 H        1.9480    -5.2270     0.1130 H     1 <1>   0.0800 
 29 H        2.7370    -3.5900     1.9640 H     1 <1>   0.0800 
 30 H        1.9910    -2.0170     2.0230 H     1 <1>   0.0800 
 31 H        2.2450    -3.0690    -1.9910 H     1 <1>   0.0800 
 32 H        3.0270    -4.6250    -2.0020 H     1 <1>   0.0800 
 33 H        4.2580    -1.9080     1.0080 H     1 <1>   0.0800 
 34 H        3.0050    -1.3610    -0.0730 H     1 <1>   0.0800 
 35 H       -0.7900     0.0950     2.5260 H     1 <1>   0.1500 
 36 H        4.3550    -3.9820    -0.1200 H     1 <1>   0.4500 
 37 H       -4.1420     0.2860    -1.0510 H     1 <1>   0.1500 
 38 H       -2.5680    -2.9320    -0.7620 H     1 <1>   0.0800 
 39 H       -1.9720    -1.8480    -2.0000 H     1 <1>   0.0800 
 40 H       -3.6820    -1.9490    -1.6660 H     1 <1>   0.0800 
 41 H       -2.3140     2.0090     2.3770 H     1 <1>   0.1500 
 42 H        4.3920    -1.7640    -2.0440 H     1 <1>   0.0800 
 43 H        5.1220    -3.3330    -2.3120 H     1 <1>   0.0800 
 44 H       -3.9900     2.1030     0.5780 H     1 <1>   0.1500 
 45 H        6.7310    -4.2110    -0.3890 H     1 <1>   0.1500 
 46 H        5.6980    -0.0880    -0.9710 H     1 <1>   0.1500 
 47 H        7.6500     0.5620     0.3460 H     1 <1>   0.1500 
 48 H        9.1200    -1.1250     1.3030 H     1 <1>   0.1500 
 49 H       10.4010    -4.4890     1.9730 H     1 <1>   0.0800 
 50 H        9.7250    -2.9930     2.6070 H     1 <1>   0.0800 
 51 H       10.6250    -2.9890     1.0800 H     1 <1>   0.0800 
@<TRIPOS>BOND
  1   1   2  2   
  2   2   3  am  
  3   2   4  am  
  4   3   5  1   
  5   3   6  1   
  6   4   7  1   
  7   4  26  1   
  8   5   8  1   
  9   5  27  1   
 10   5  28  1   
 11   6   9  1   
 12   6  29  1   
 13   6  30  1   
 14   7  10  ar  
 15   7  11  ar  
 16   8  12  1   
 17   8  31  1   
 18   8  32  1   
 19   9  12  1   
 20   9  33  1   
 21   9  34  1   
 22  10  13  ar  
 23  10  14  1   
 24  11  15  ar  
 25  11  35  1   
 26  12  16  1   
 27  12  36  1   
 28  13  17  ar  
 29  13  37  1   
 30  14  38  1   
 31  14  39  1   
 32  14  40  1   
 33  15  17  ar  
 34  15  41  1   
 35  16  18  1   
 36  16  42  1   
 37  16  43  1   
 38  17  44  1   
 39  18  19  ar  
 40  18  20  ar  
 41  19  21  ar  
 42  19  45  1   
 43  20  22  ar  
 44  20  46  1   
 45  21  23  1   
 46  21  24  ar  
 47  22  24  ar  
 48  22  47  1   
 49  23  25  1   
 50  24  48  1   
 51  25  49  1   
 52  25  50  1   
 53  25  51  1   
@<TRIPOS>SUBSTRUCTURE
  1 ****   9 GROUP 4 **** **** 0

# MOE 2024.06 (io_trps.svl 2023.06)
