@<TRIPOS>MOLECULE
NONAME
33 34 1 0 0 
SMALL
USER_CHARGES


@<TRIPOS>ATOM
  1 O       -0.1090    -0.1960    -0.0080 O.2   1 <1>  -0.5700 
  2 C       -0.3000    -1.3890    -0.0020 C.2   1 <1>   0.5690 
  3 N        0.7240    -2.3150    -0.0010 N.am  1 <1>  -0.4770 
  4 C       -1.7400    -1.8830     0.0040 C.3   1 <1>  -0.0990 
  5 C        2.1090    -2.0940    -0.0060 C.ar  1 <1>   0.1170 
  6 C        0.4820    -3.7870     0.0060 C.3   1 <1>   0.1400 
  7 C       -2.7590    -0.7440     0.0020 C.3   1 <1>   0.1200 
  8 C        2.8120    -3.2810    -0.0030 C.ar  1 <1>  -0.1440 
  9 C        2.8120    -0.8950    -0.0130 C.ar  1 <1>  -0.1500 
 10 C        1.8670    -4.4530     0.0050 C.3   1 <1>  -0.0160 
 11 O       -4.0280    -1.3120     0.0080 O.3   1 <1>  -0.5600 
 12 C        4.1940    -3.3100    -0.0070 C.ar  1 <1>  -0.1500 
 13 C        4.1970    -0.9070    -0.0170 C.ar  1 <1>  -0.1500 
 14 C       -5.0570    -0.3810     0.0060 C.3   1 <1>   0.1200 
 15 C        4.8880    -2.1100    -0.0140 C.ar  1 <1>  -0.1500 
 16 C       -6.3720    -1.1500     0.0130 C.3   1 <1>  -0.2400 
 17 H       -1.8980    -2.4770     0.8830 H     1 <1>   0.0800 
 18 H       -1.9030    -2.4850    -0.8700 H     1 <1>   0.0800 
 19 H       -0.0700    -4.0720    -0.8730 H     1 <1>   0.0800 
 20 H       -0.0650    -4.0640     0.8900 H     1 <1>   0.0800 
 21 H       -2.6490    -0.1390    -0.8830 H     1 <1>   0.0800 
 22 H       -2.6440    -0.1320     0.8800 H     1 <1>   0.0800 
 23 H        2.2870     0.0430    -0.0160 H     1 <1>   0.1500 
 24 H        2.0000    -5.0590    -0.8720 H     1 <1>   0.0800 
 25 H        2.0050    -5.0520     0.8870 H     1 <1>   0.0800 
 26 H        4.7240    -4.2460    -0.0040 H     1 <1>   0.1500 
 27 H        4.7380     0.0230    -0.0230 H     1 <1>   0.1500 
 28 H       -4.9760     0.2270    -0.8790 H     1 <1>   0.0800 
 29 H       -4.9710     0.2350     0.8860 H     1 <1>   0.0800 
 30 H        5.9640    -2.1120    -0.0170 H     1 <1>   0.1500 
 31 H       -6.4400    -1.7700    -0.8620 H     1 <1>   0.0800 
 32 H       -7.1970    -0.4610     0.0130 H     1 <1>   0.0800 
 33 H       -6.4350    -1.7630     0.8940 H     1 <1>   0.0800 
@<TRIPOS>BOND
  1   1   2  2   
  2   2   3  am  
  3   2   4  1   
  4   3   5  1   
  5   3   6  1   
  6   4   7  1   
  7   4  17  1   
  8   4  18  1   
  9   5   8  ar  
 10   5   9  ar  
 11   6  10  1   
 12   6  19  1   
 13   6  20  1   
 14   7  11  1   
 15   7  21  1   
 16   7  22  1   
 17   8  10  1   
 18   8  12  ar  
 19   9  13  ar  
 20   9  23  1   
 21  10  24  1   
 22  10  25  1   
 23  11  14  1   
 24  12  15  ar  
 25  12  26  1   
 26  13  15  ar  
 27  13  27  1   
 28  14  16  1   
 29  14  28  1   
 30  14  29  1   
 31  15  30  1   
 32  16  31  1   
 33  16  32  1   
 34  16  33  1   
@<TRIPOS>SUBSTRUCTURE
  1 ****   3 GROUP 4 **** **** 0

# MOE 2024.06 (io_trps.svl 2023.06)
