@<TRIPOS>MOLECULE
NONAME
49 51 1 0 0 
SMALL
USER_CHARGES


@<TRIPOS>ATOM
  1 O        0.0020    -1.1320    -3.3120 O.2   1 <1>  -0.5700 
  2 C        0.4270    -1.2780    -2.1910 C.2   1 <1>   0.5690 
  3 N       -0.3250    -1.1940    -1.0540 N.am  1 <1>  -0.5470 
  4 C        1.9130    -1.5800    -1.9890 C.3   1 <1>   0.1710 
  5 C       -1.6830    -0.9370    -0.8070 C.ar  1 <1>   0.1170 
  6 N        2.4200    -1.2050    -0.6340 N.3   1 <1>  -0.8100 
  7 C       -2.1000    -0.8100     0.5130 C.ar  1 <1>  -0.1500 
  8 C       -2.6330    -0.8030    -1.8140 C.ar  1 <1>  -0.1500 
  9 C        2.5910     0.2670    -0.5330 C.3   1 <1>   0.1100 
 10 C        3.7320    -1.8470    -0.3820 C.3   1 <1>   0.1100 
 11 C       -3.4230    -0.5550     0.8270 C.ar  1 <1>  -0.1500 
 12 C       -3.9580    -0.5480    -1.5080 C.ar  1 <1>  -0.1500 
 13 C        3.1160     0.7010     0.8500 C.3   1 <1>   0.2090 
 14 C        4.3190    -1.4710     0.9940 C.3   1 <1>   0.2090 
 15 C       -4.3640    -0.4210    -0.1900 C.ar  1 <1>   0.0820 
 16 N        4.3930     0.0110     1.1870 N.pl3 1 <1>  -0.8380 
 17 O       -5.6830    -0.1700     0.0220 O.3   1 <1>  -0.3620 
 18 C        5.5630     0.6670     0.8570 C.ar  1 <1>   0.4100 
 19 C       -6.1950    -0.0360     1.3270 C.3   1 <1>   0.1200 
 20 N        6.2250     0.2440    -0.2150 N.ar  1 <1>  -0.6200 
 21 C        5.9860     1.7370     1.6410 C.ar  1 <1>  -0.1500 
 22 C       -7.6930     0.2310     1.2210 C.3   1 <1>  -0.2400 
 23 C        7.3310     0.9070    -0.5090 C.ar  1 <1>   0.1600 
 24 C        7.1370     2.4190     1.3230 C.ar  1 <1>  -0.1500 
 25 C        7.8240     1.9810     0.2090 C.ar  1 <1>  -0.1500 
 26 H        0.2710    -1.2980    -0.2270 H     1 <1>   0.3700 
 27 H        2.4800    -1.0730    -2.7500 H     1 <1>   0.0800 
 28 H        2.0390    -2.6370    -2.1350 H     1 <1>   0.0800 
 29 H       -1.3820    -0.9120     1.3060 H     1 <1>   0.1500 
 30 H       -2.3480    -0.8990    -2.8450 H     1 <1>   0.1500 
 31 H        1.6500     0.7580    -0.7110 H     1 <1>   0.0800 
 32 H        3.2890     0.6060    -1.2800 H     1 <1>   0.0800 
 33 H        4.4350    -1.5540    -1.1440 H     1 <1>   0.0800 
 34 H        3.6230    -2.9160    -0.4250 H     1 <1>   0.0800 
 35 H       -3.7010    -0.4640     1.8590 H     1 <1>   0.1500 
 36 H       -4.6860    -0.4460    -2.2920 H     1 <1>   0.1500 
 37 H        2.3810     0.4690     1.5990 H     1 <1>   0.0800 
 38 H        3.2680     1.7660     0.8500 H     1 <1>   0.0800 
 39 H        5.3040    -1.8950     1.0890 H     1 <1>   0.0800 
 40 H        3.7050    -1.8940     1.7680 H     1 <1>   0.0800 
 41 H       -5.6950     0.7880     1.8070 H     1 <1>   0.0800 
 42 H       -6.0090    -0.9520     1.8620 H     1 <1>   0.0800 
 43 H        5.3980     2.0110     2.4950 H     1 <1>   0.1500 
 44 H       -7.8670     1.1380     0.6700 H     1 <1>   0.0800 
 45 H       -8.1150     0.3390     2.2030 H     1 <1>   0.0800 
 46 H       -8.1800    -0.5890     0.7250 H     1 <1>   0.0800 
 47 H        7.8760     0.5740    -1.3750 H     1 <1>   0.1500 
 48 H        7.4860     3.2480     1.9130 H     1 <1>   0.1500 
 49 H        8.7330     2.4670    -0.0970 H     1 <1>   0.1500 
@<TRIPOS>BOND
  1   1   2  2   
  2   2   3  am  
  3   2   4  1   
  4   3   5  1   
  5   3  26  1   
  6   4   6  1   
  7   4  27  1   
  8   4  28  1   
  9   5   7  ar  
 10   5   8  ar  
 11   6   9  1   
 12   6  10  1   
 13   7  11  ar  
 14   7  29  1   
 15   8  12  ar  
 16   8  30  1   
 17   9  13  1   
 18   9  31  1   
 19   9  32  1   
 20  10  14  1   
 21  10  33  1   
 22  10  34  1   
 23  11  15  ar  
 24  11  35  1   
 25  12  15  ar  
 26  12  36  1   
 27  13  16  1   
 28  13  37  1   
 29  13  38  1   
 30  14  16  1   
 31  14  39  1   
 32  14  40  1   
 33  15  17  1   
 34  16  18  1   
 35  17  19  1   
 36  18  20  ar  
 37  18  21  ar  
 38  19  22  1   
 39  19  41  1   
 40  19  42  1   
 41  20  23  ar  
 42  21  24  ar  
 43  21  43  1   
 44  22  44  1   
 45  22  45  1   
 46  22  46  1   
 47  23  25  ar  
 48  23  47  1   
 49  24  25  ar  
 50  24  48  1   
 51  25  49  1   
@<TRIPOS>SUBSTRUCTURE
  1 ****   9 GROUP 4 **** **** 0

# MOE 2024.06 (io_trps.svl 2023.06)
