@<TRIPOS>MOLECULE
NONAME
44 46 1 0 0 
SMALL
USER_CHARGES


@<TRIPOS>ATOM
  1 S       -0.6500     0.2470     0.5440 S.o2  1 <1>   1.4470 
  2 O       -0.2020    -0.7470     1.4970 O.2   1 <1>  -0.6500 
  3 O       -1.5560     1.2870     0.9800 O.2   1 <1>  -0.6500 
  4 N        0.7420     1.0040    -0.0600 N.am  1 <1>  -0.8490 
  5 C       -1.3480    -0.5650    -0.9230 C.ar  1 <1>  -0.0090 
  6 C        1.8040     0.0390    -0.3640 C.3   1 <1>   0.1960 
  7 C        1.2140     2.0590     0.8420 C.3   1 <1>   0.1960 
  8 C       -1.7490    -1.9000    -0.8840 C.ar  1 <1>  -0.1500 
  9 C       -1.5030     0.1370    -2.1170 C.ar  1 <1>  -0.1500 
 10 C        2.9800     0.7390    -1.0470 C.3   1 <1>  -0.1600 
 11 C        2.3770     2.8220     0.2040 C.3   1 <1>  -0.1600 
 12 C       -2.2820    -2.5240    -2.0000 C.ar  1 <1>  -0.1500 
 13 C       -2.0350    -0.4680    -3.2440 C.ar  1 <1>  -0.1500 
 14 C        3.5320     1.8760    -0.1720 C.3   1 <1>  -0.0190 
 15 C       -2.4150    -1.7930    -3.1640 C.ar  1 <1>   0.1900 
 16 C        4.6870     2.6000    -0.8740 C.2   1 <1>   0.5690 
 17 F       -2.9150    -2.3730    -4.2200 F     1 <1>  -0.1900 
 18 O        4.4250     3.4830    -1.6580 O.2   1 <1>  -0.5700 
 19 N        5.9860     2.2400    -0.6280 N.am  1 <1>  -0.6600 
 20 C        7.1210     2.9250    -1.2840 C.3   1 <1>   0.1400 
 21 C        6.4630     1.1380     0.2360 C.3   1 <1>   0.1400 
 22 C        8.3650     2.3610    -0.6070 C.3   1 <1>  -0.1600 
 23 C        7.9390     0.9820    -0.1100 C.3   1 <1>  -0.1600 
 24 H        1.4230    -0.7250    -1.0230 H     1 <1>   0.0800 
 25 H        2.1400    -0.4370     0.5430 H     1 <1>   0.0800 
 26 H        1.5180     1.6280     1.7820 H     1 <1>   0.0800 
 27 H        0.4150     2.7570     1.0360 H     1 <1>   0.0800 
 28 H       -1.6410    -2.4580     0.0330 H     1 <1>   0.1500 
 29 H       -1.2020     1.1710    -2.1600 H     1 <1>   0.1500 
 30 H        2.6520     1.1360    -1.9920 H     1 <1>   0.0800 
 31 H        3.7560     0.0220    -1.2450 H     1 <1>   0.0800 
 32 H        2.7330     3.5710     0.8880 H     1 <1>   0.0800 
 33 H        2.0140     3.3280    -0.6740 H     1 <1>   0.0800 
 34 H       -2.5910    -3.5540    -1.9720 H     1 <1>   0.1500 
 35 H       -2.1540     0.0730    -4.1660 H     1 <1>   0.1500 
 36 H        3.9000     1.4520     0.7430 H     1 <1>   0.0800 
 37 H        7.0470     3.9930    -1.1610 H     1 <1>   0.0800 
 38 H        7.1160     2.6840    -2.3340 H     1 <1>   0.0800 
 39 H        5.9200     0.2280     0.0460 H     1 <1>   0.0800 
 40 H        6.3520     1.4260     1.2680 H     1 <1>   0.0800 
 41 H        8.6220     2.9890     0.2270 H     1 <1>   0.0800 
 42 H        9.2000     2.3150    -1.2830 H     1 <1>   0.0800 
 43 H        8.0390     0.2620    -0.9040 H     1 <1>   0.0800 
 44 H        8.5170     0.6540     0.7350 H     1 <1>   0.0800 
@<TRIPOS>BOND
  1   1   2  2   
  2   1   3  2   
  3   1   4  am  
  4   1   5  1   
  5   4   6  1   
  6   4   7  1   
  7   5   8  ar  
  8   5   9  ar  
  9   6  10  1   
 10   6  24  1   
 11   6  25  1   
 12   7  11  1   
 13   7  26  1   
 14   7  27  1   
 15   8  12  ar  
 16   8  28  1   
 17   9  13  ar  
 18   9  29  1   
 19  10  14  1   
 20  10  30  1   
 21  10  31  1   
 22  11  14  1   
 23  11  32  1   
 24  11  33  1   
 25  12  15  ar  
 26  12  34  1   
 27  13  15  ar  
 28  13  35  1   
 29  14  16  1   
 30  14  36  1   
 31  15  17  1   
 32  16  18  2   
 33  16  19  am  
 34  19  20  1   
 35  19  21  1   
 36  20  22  1   
 37  20  37  1   
 38  20  38  1   
 39  21  23  1   
 40  21  39  1   
 41  21  40  1   
 42  22  23  1   
 43  22  41  1   
 44  22  42  1   
 45  23  43  1   
 46  23  44  1   
@<TRIPOS>SUBSTRUCTURE
  1 ****   6 GROUP 4 **** **** 0

# MOE 2024.06 (io_trps.svl 2023.06)
