@<TRIPOS>MOLECULE
NONAME
30 32 1 0 0 
SMALL
USER_CHARGES


@<TRIPOS>ATOM
  1 O        0.5100    -0.4790     0.7980 O.2   1 <1>  -0.5700 
  2 C        0.4100    -1.6320     0.4560 C.2   1 <1>   0.5690 
  3 N        1.4030    -2.2780    -0.2310 N.am  1 <1>  -0.6600 
  4 C       -0.8750    -2.3440     0.8110 C.3   1 <1>  -0.1790 
  5 C        1.3360    -3.7110    -0.6590 C.3   1 <1>   0.3200 
  6 C        2.6840    -1.5740    -0.5710 C.3   1 <1>   0.1400 
  7 C        2.6860    -4.3720    -0.4410 C.2   1 <1>  -0.3320 
  8 C        3.8820    -2.2340     0.1280 C.3   1 <1>   0.0210 
  9 N        2.9430    -5.7090    -0.5680 N.pl3 1 <1>   0.0330 
 10 C        3.8210    -3.7310    -0.0880 C.2   1 <1>  -0.1810 
 11 C        4.2710    -5.9150    -0.2830 C.ar  1 <1>  -0.1520 
 12 C        4.8520    -4.6870     0.0260 C.ar  1 <1>   0.0000 
 13 C        5.0280    -7.0890    -0.2690 C.ar  1 <1>  -0.1500 
 14 C        6.2090    -4.6280     0.3580 C.ar  1 <1>  -0.1500 
 15 C        6.3630    -7.0160     0.0590 C.ar  1 <1>  -0.1500 
 16 C        6.9530    -5.7860     0.3720 C.ar  1 <1>  -0.1500 
 17 H       -0.6730    -3.1250     1.5200 H     1 <1>   0.0800 
 18 H       -1.3270    -2.7530    -0.0720 H     1 <1>   0.0800 
 19 H       -1.5610    -1.6470     1.2560 H     1 <1>   0.0800 
 20 H        1.0770    -3.7540    -1.7030 H     1 <1>   0.0800 
 21 H        0.5930    -4.2430    -0.0940 H     1 <1>   0.0800 
 22 H        2.6370    -0.5350    -0.2940 H     1 <1>   0.0800 
 23 H        2.8270    -1.6240    -1.6370 H     1 <1>   0.0800 
 24 H        3.8520    -2.0200     1.1800 H     1 <1>   0.0800 
 25 H        4.7960    -1.8400    -0.2770 H     1 <1>   0.0800 
 26 H        2.2810    -6.4470    -0.8230 H     1 <1>   0.2700 
 27 H        4.5680    -8.0300    -0.5100 H     1 <1>   0.1500 
 28 H        6.6480    -3.6780     0.5980 H     1 <1>   0.1500 
 29 H        6.9670    -7.9060     0.0770 H     1 <1>   0.1500 
 30 H        7.9980    -5.7560     0.6260 H     1 <1>   0.1500 
@<TRIPOS>BOND
  1   1   2  2   
  2   2   3  am  
  3   2   4  1   
  4   3   5  1   
  5   3   6  1   
  6   4  17  1   
  7   4  18  1   
  8   4  19  1   
  9   5   7  1   
 10   5  20  1   
 11   5  21  1   
 12   6   8  1   
 13   6  22  1   
 14   6  23  1   
 15   7   9  1   
 16   7  10  2   
 17   8  10  1   
 18   8  24  1   
 19   8  25  1   
 20   9  11  1   
 21   9  26  1   
 22  10  12  1   
 23  11  12  ar  
 24  11  13  ar  
 25  12  14  ar  
 26  13  15  ar  
 27  13  27  1   
 28  14  16  ar  
 29  14  28  1   
 30  15  16  ar  
 31  15  29  1   
 32  16  30  1   
@<TRIPOS>SUBSTRUCTURE
  1 ****  10 GROUP 4 **** **** 0

# MOE 2024.06 (io_trps.svl 2023.06)
