@<TRIPOS>MOLECULE
NONAME
45 46 1 0 0 
SMALL
USER_CHARGES


@<TRIPOS>ATOM
  1 O        1.1850    -2.4210    -1.7150 O.2   1 <1>  -0.5700 
  2 C        0.5660    -2.2510    -0.6780 C.2   1 <1>   0.5440 
  3 N        1.2920    -1.7850     0.3930 N.am  1 <1>  -0.6600 
  4 C       -0.8300    -2.6350    -0.5320 C.ar  1 <1>   0.0860 
  5 C        2.4240    -0.8310     0.1410 C.3   1 <1>   0.1400 
  6 C        1.6160    -2.7750     1.4620 C.3   1 <1>   0.1400 
  7 C       -1.2460    -3.9570    -0.7560 C.ar  1 <1>  -0.1440 
  8 C       -1.7990    -1.6980    -0.1440 C.ar  1 <1>  -0.1440 
  9 C        3.7680    -1.5770    -0.0590 C.3   1 <1>   0.3430 
 10 C        2.8700    -3.6010     1.0710 C.3   1 <1>   0.3430 
 11 C       -2.5700    -4.3180    -0.5720 C.ar  1 <1>  -0.1500 
 12 C       -0.2710    -5.0380    -1.2130 C.3   1 <1>  -0.0970 
 13 C       -3.1160    -2.0810     0.0380 C.ar  1 <1>  -0.1500 
 14 C       -1.4450    -0.2310     0.0800 C.3   1 <1>  -0.0960 
 15 N        3.5410    -3.0540    -0.1660 N.4   1 <1>  -0.9590 
 16 C       -3.5100    -3.3890    -0.1690 C.ar  1 <1>  -0.1440 
 17 C        4.7220    -3.8240    -0.6040 C.3   1 <1>   0.4810 
 18 C       -4.9580    -3.7970     0.0310 C.3   1 <1>  -0.0970 
 19 C        4.2620    -5.2320    -0.9050 C.2   1 <1>  -0.2880 
 20 C        4.6210    -6.3290    -0.2290 C.2   1 <1>  -0.3000 
 21 H        2.5060    -0.1410     0.9630 H     1 <1>   0.0800 
 22 H        2.2090    -0.2510    -0.7420 H     1 <1>   0.0800 
 23 H        0.7810    -3.4360     1.6230 H     1 <1>   0.0800 
 24 H        1.7960    -2.2550     2.3870 H     1 <1>   0.0800 
 25 H        4.4210    -1.3630     0.7700 H     1 <1>   0.0800 
 26 H        4.2380    -1.2070    -0.9560 H     1 <1>   0.0800 
 27 H        2.5680    -4.6210     0.8930 H     1 <1>   0.0800 
 28 H        3.5610    -3.6100     1.8970 H     1 <1>   0.0800 
 29 H       -2.8830    -5.3320    -0.7460 H     1 <1>   0.1500 
 30 H       -0.7430    -6.0040    -1.2300 H     1 <1>   0.0800 
 31 H        0.0720    -4.8180    -2.2090 H     1 <1>   0.0800 
 32 H        0.5740    -5.0900    -0.5540 H     1 <1>   0.0800 
 33 H       -3.8510    -1.3560     0.3410 H     1 <1>   0.1500 
 34 H       -0.8990    -0.1200     0.9990 H     1 <1>   0.0800 
 35 H       -2.3310     0.3750     0.1370 H     1 <1>   0.0800 
 36 H       -0.8460     0.1380    -0.7330 H     1 <1>   0.0800 
 37 H        2.8170    -3.1250    -0.9130 H     1 <1>   0.4500 
 38 H        5.4680    -3.8360     0.1740 H     1 <1>   0.0800 
 39 H        5.1500    -3.3840    -1.4910 H     1 <1>   0.0800 
 40 H       -5.0210    -4.8230     0.3460 H     1 <1>   0.0800 
 41 H       -5.4980    -3.6830    -0.8920 H     1 <1>   0.0800 
 42 H       -5.4220    -3.1840     0.7830 H     1 <1>   0.0800 
 43 H        3.5960    -5.2740    -1.7520 H     1 <1>   0.1500 
 44 H        4.2780    -7.3220    -0.4750 H     1 <1>   0.1500 
 45 H        5.2880    -6.3470     0.6180 H     1 <1>   0.1500 
@<TRIPOS>BOND
  1   1   2  2   
  2   2   3  am  
  3   2   4  1   
  4   3   5  1   
  5   3   6  1   
  6   4   7  ar  
  7   4   8  ar  
  8   5   9  1   
  9   5  21  1   
 10   5  22  1   
 11   6  10  1   
 12   6  23  1   
 13   6  24  1   
 14   7  11  ar  
 15   7  12  1   
 16   8  13  ar  
 17   8  14  1   
 18   9  15  1   
 19   9  25  1   
 20   9  26  1   
 21  10  15  1   
 22  10  27  1   
 23  10  28  1   
 24  11  16  ar  
 25  11  29  1   
 26  12  30  1   
 27  12  31  1   
 28  12  32  1   
 29  13  16  ar  
 30  13  33  1   
 31  14  34  1   
 32  14  35  1   
 33  14  36  1   
 34  15  17  1   
 35  15  37  1   
 36  16  18  1   
 37  17  19  1   
 38  17  38  1   
 39  17  39  1   
 40  18  40  1   
 41  18  41  1   
 42  18  42  1   
 43  19  20  2   
 44  19  43  1   
 45  20  44  1   
 46  20  45  1   
@<TRIPOS>SUBSTRUCTURE
  1 ****   2 GROUP 4 **** **** 0

# MOE 2024.06 (io_trps.svl 2023.06)
