@<TRIPOS>MOLECULE
NONAME
41 42 1 0 0 
SMALL
USER_CHARGES


@<TRIPOS>ATOM
  1 O       -2.5390    -0.0670     1.9200 O.3   1 <1>  -0.3630 
  2 C       -2.5810     0.6910     0.7850 C.ar  1 <1>   0.0830 
  3 C       -1.3370    -0.3300     2.6070 C.3   1 <1>   0.0400 
  4 C       -1.6000     1.5900     0.3340 C.ar  1 <1>   0.0830 
  5 C       -3.7320     0.5340     0.0320 C.ar  1 <1>  -0.1500 
  6 O       -0.4550     1.8390     1.0040 O.3   1 <1>  -0.5330 
  7 C       -1.7940     2.2860    -0.8500 C.ar  1 <1>  -0.1500 
  8 C       -3.9350     1.2400    -1.1440 C.ar  1 <1>  -0.1440 
  9 C       -2.9540     2.1130    -1.5850 C.ar  1 <1>  -0.1500 
 10 C       -5.2300     1.0590    -1.9230 C.3   1 <1>   0.2530 
 11 N       -6.3860     1.3350    -1.0480 N.3   1 <1>  -0.8100 
 12 C       -6.3920     2.7290    -0.5320 C.3   1 <1>   0.1100 
 13 C       -7.6790     1.0060    -1.6840 C.3   1 <1>   0.1100 
 14 C       -7.5950     3.0020     0.4030 C.3   1 <1>   0.3430 
 15 C       -8.8670     1.2090    -0.7090 C.3   1 <1>   0.3430 
 16 N       -8.4030     1.7570     0.6120 N.4   1 <1>  -0.9590 
 17 C       -9.4600     1.9160     1.6380 C.3   1 <1>   0.3430 
 18 C       -9.9590     0.5450     2.0770 C.3   1 <1>  -0.2400 
 19 H       -1.5250    -1.1050     3.3270 H     1 <1>   0.0800 
 20 H       -1.0210     0.5660     3.1100 H     1 <1>   0.0800 
 21 H       -0.5950    -0.6560     1.9000 H     1 <1>   0.0800 
 22 H       -4.4830    -0.1520     0.3800 H     1 <1>   0.1500 
 23 H        0.1010     2.5050     0.5640 H     1 <1>   0.4500 
 24 H       -1.0460     2.9690    -1.2070 H     1 <1>   0.1500 
 25 H       -3.0860     2.6650    -2.5000 H     1 <1>   0.1500 
 26 H       -5.2780     0.0410    -2.2730 H     1 <1>   0.0800 
 27 H       -5.2480     1.7120    -2.7790 H     1 <1>   0.0800 
 28 H       -6.4110     3.4270    -1.3520 H     1 <1>   0.0800 
 29 H       -5.4880     2.9130     0.0250 H     1 <1>   0.0800 
 30 H       -7.6680    -0.0220    -2.0070 H     1 <1>   0.0800 
 31 H       -7.8250     1.6190    -2.5580 H     1 <1>   0.0800 
 32 H       -8.2100     3.7750    -0.0260 H     1 <1>   0.0800 
 33 H       -7.2230     3.3640     1.3480 H     1 <1>   0.0800 
 34 H       -9.3540     0.2600    -0.5610 H     1 <1>   0.0800 
 35 H       -9.5830     1.8780    -1.1570 H     1 <1>   0.0800 
 36 H       -7.7010     1.0700     0.9310 H     1 <1>   0.4500 
 37 H      -10.2760     2.5020     1.2460 H     1 <1>   0.0800 
 38 H       -9.0550     2.4300     2.4960 H     1 <1>   0.0800 
 39 H      -10.4630     0.0340     1.2770 H     1 <1>   0.0800 
 40 H      -10.6640     0.6680     2.8810 H     1 <1>   0.0800 
 41 H       -9.1460    -0.0590     2.4400 H     1 <1>   0.0800 
@<TRIPOS>BOND
  1   1   2  1   
  2   1   3  1   
  3   2   4  ar  
  4   2   5  ar  
  5   3  19  1   
  6   3  20  1   
  7   3  21  1   
  8   4   6  1   
  9   4   7  ar  
 10   5   8  ar  
 11   5  22  1   
 12   6  23  1   
 13   7   9  ar  
 14   7  24  1   
 15   8   9  ar  
 16   8  10  1   
 17   9  25  1   
 18  10  11  1   
 19  10  26  1   
 20  10  27  1   
 21  11  12  1   
 22  11  13  1   
 23  12  14  1   
 24  12  28  1   
 25  12  29  1   
 26  13  15  1   
 27  13  30  1   
 28  13  31  1   
 29  14  16  1   
 30  14  32  1   
 31  14  33  1   
 32  15  16  1   
 33  15  34  1   
 34  15  35  1   
 35  16  17  1   
 36  16  36  1   
 37  17  18  1   
 38  17  37  1   
 39  17  38  1   
 40  18  39  1   
 41  18  40  1   
 42  18  41  1   
@<TRIPOS>SUBSTRUCTURE
  1 ****   5 GROUP 4 **** **** 0

# MOE 2024.06 (io_trps.svl 2023.06)
