@<TRIPOS>MOLECULE
NONAME
44 46 1 0 0 
SMALL
USER_CHARGES


@<TRIPOS>ATOM
  1 O        0.1550     0.3500    -0.0640 O.3   1 <1>  -0.3630 
  2 C       -1.0680     0.9350    -0.1520 C.ar  1 <1>   0.0830 
  3 C        1.3480     1.0670    -0.2660 C.3   1 <1>   0.1200 
  4 C       -2.1960     0.1030     0.0700 C.ar  1 <1>   0.0000 
  5 C       -1.2340     2.2720    -0.4410 C.ar  1 <1>  -0.1500 
  6 C        2.5120     0.0890    -0.0910 C.3   1 <1>  -0.1600 
  7 C       -3.4870     0.6720    -0.0110 C.ar  1 <1>   0.0000 
  8 C       -2.0990    -1.2750     0.3710 C.ar  1 <1>  -0.1500 
  9 C       -2.5130     2.8260    -0.5200 C.ar  1 <1>  -0.1500 
 10 C        3.8710     0.7770    -0.2910 C.3   1 <1>  -0.1600 
 11 C       -3.6120     2.0420    -0.3090 C.ar  1 <1>  -0.1500 
 12 C       -4.6130    -0.1470     0.2080 C.ar  1 <1>  -0.1500 
 13 C       -3.2080    -2.0470     0.5790 C.ar  1 <1>  -0.1500 
 14 C        5.0130    -0.2280    -0.1170 C.3   1 <1>   0.3430 
 15 C       -4.4820    -1.4770     0.4960 C.ar  1 <1>  -0.1500 
 16 N        6.3240     0.4210    -0.3890 N.4   1 <1>  -0.9590 
 17 C        7.4380    -0.5550    -0.4680 C.3   1 <1>   0.3430 
 18 C        6.7370     1.4180     0.6320 C.3   1 <1>   0.3430 
 19 C        8.6930     0.2890    -0.2860 C.3   1 <1>  -0.1600 
 20 C        8.2400     1.5600     0.4380 C.3   1 <1>  -0.1600 
 21 H        1.3940     1.8580     0.4630 H     1 <1>   0.0800 
 22 H        1.3310     1.4750    -1.2630 H     1 <1>   0.0800 
 23 H       -0.4030     2.9290    -0.6140 H     1 <1>   0.1500 
 24 H        2.3980    -0.7070    -0.8080 H     1 <1>   0.0800 
 25 H        2.4580    -0.3310     0.8990 H     1 <1>   0.0800 
 26 H       -1.1220    -1.7170     0.4350 H     1 <1>   0.1500 
 27 H       -2.6200     3.8730    -0.7470 H     1 <1>   0.1500 
 28 H        3.9650     1.5710     0.4290 H     1 <1>   0.0800 
 29 H        3.9070     1.1960    -1.2820 H     1 <1>   0.0800 
 30 H       -4.5990     2.4650    -0.3690 H     1 <1>   0.1500 
 31 H       -5.5900     0.2970     0.1430 H     1 <1>   0.1500 
 32 H       -3.1170    -3.0950     0.8060 H     1 <1>   0.1500 
 33 H        4.8650    -1.0440    -0.8070 H     1 <1>   0.0800 
 34 H        4.9980    -0.6290     0.8840 H     1 <1>   0.0800 
 35 H       -5.3450    -2.0970     0.6620 H     1 <1>   0.1500 
 36 H        6.2780     0.9050    -1.2950 H     1 <1>   0.4500 
 37 H        7.4450    -1.0820    -1.4090 H     1 <1>   0.0800 
 38 H        7.3630    -1.2640     0.3410 H     1 <1>   0.0800 
 39 H        6.5370     1.0330     1.6200 H     1 <1>   0.0800 
 40 H        6.2270     2.3590     0.5040 H     1 <1>   0.0800 
 41 H        9.1110     0.5330    -1.2470 H     1 <1>   0.0800 
 42 H        9.4320    -0.2530     0.2800 H     1 <1>   0.0800 
 43 H        8.7310     1.6750     1.3900 H     1 <1>   0.0800 
 44 H        8.4520     2.4300    -0.1600 H     1 <1>   0.0800 
@<TRIPOS>BOND
  1   1   2  1   
  2   1   3  1   
  3   2   4  ar  
  4   2   5  ar  
  5   3   6  1   
  6   3  21  1   
  7   3  22  1   
  8   4   7  ar  
  9   4   8  ar  
 10   5   9  ar  
 11   5  23  1   
 12   6  10  1   
 13   6  24  1   
 14   6  25  1   
 15   7  11  ar  
 16   7  12  ar  
 17   8  13  ar  
 18   8  26  1   
 19   9  11  ar  
 20   9  27  1   
 21  10  14  1   
 22  10  28  1   
 23  10  29  1   
 24  11  30  1   
 25  12  15  ar  
 26  12  31  1   
 27  13  15  ar  
 28  13  32  1   
 29  14  16  1   
 30  14  33  1   
 31  14  34  1   
 32  15  35  1   
 33  16  17  1   
 34  16  18  1   
 35  16  36  1   
 36  17  19  1   
 37  17  37  1   
 38  17  38  1   
 39  18  20  1   
 40  18  39  1   
 41  18  40  1   
 42  19  20  1   
 43  19  41  1   
 44  19  42  1   
 45  20  43  1   
 46  20  44  1   
@<TRIPOS>SUBSTRUCTURE
  1 ****   3 GROUP 4 **** **** 0

# MOE 2024.06 (io_trps.svl 2023.06)
