@<TRIPOS>MOLECULE
NONAME
39 40 1 0 0 
SMALL
USER_CHARGES


@<TRIPOS>ATOM
  1 BR      -0.0110     1.5420     2.7890 Br    1 <1>  -0.1110 
  2 C       -1.1160     1.5920     1.2050 C.ar  1 <1>   0.1110 
  3 C       -0.6560     2.2240     0.0560 C.ar  1 <1>   0.0820 
  4 C       -2.3580     0.9890     1.2600 C.ar  1 <1>  -0.1500 
  5 O        0.5580     2.8130     0.0040 O.3   1 <1>  -0.3630 
  6 C       -1.4790     2.2630    -1.0590 C.ar  1 <1>  -0.1500 
  7 C       -3.1670     1.0250     0.1350 C.ar  1 <1>  -0.1500 
  8 C        1.6490     1.9630    -0.2470 C.3   1 <1>   0.1200 
  9 C       -2.7280     1.6610    -1.0180 C.ar  1 <1>  -0.1500 
 10 C        2.9240     2.7490     0.0640 C.3   1 <1>  -0.1600 
 11 C        4.1830     1.8910    -0.1220 C.3   1 <1>  -0.1600 
 12 C        5.4330     2.7000     0.2340 C.3   1 <1>   0.3430 
 13 N        6.6480     1.8420     0.1740 N.4   1 <1>  -0.9590 
 14 C        7.8130     2.5270     0.8380 C.3   1 <1>   0.3430 
 15 C        7.0140     1.4540    -1.2360 C.3   1 <1>   0.3430 
 16 C        9.1100     1.7060     0.6970 C.3   1 <1>   0.1200 
 17 C        8.3470     0.6820    -1.2850 C.3   1 <1>   0.1200 
 18 O        9.3540     1.4140    -0.6480 O.3   1 <1>  -0.5600 
 19 H       -2.6870     0.5050     2.1620 H     1 <1>   0.1500 
 20 H       -1.1420     2.7620    -1.9490 H     1 <1>   0.1500 
 21 H       -4.1380     0.5610     0.1560 H     1 <1>   0.1500 
 22 H        1.6090     1.6630    -1.2800 H     1 <1>   0.0800 
 23 H        1.5660     1.0970     0.3870 H     1 <1>   0.0800 
 24 H       -3.3630     1.6910    -1.8870 H     1 <1>   0.1500 
 25 H        2.8670     3.0930     1.0840 H     1 <1>   0.0800 
 26 H        2.9650     3.6080    -0.5850 H     1 <1>   0.0800 
 27 H        4.2270     1.5630    -1.1450 H     1 <1>   0.0800 
 28 H        4.1140     1.0310     0.5220 H     1 <1>   0.0800 
 29 H        5.3160     3.0900     1.2330 H     1 <1>   0.0800 
 30 H        5.5340     3.5360    -0.4400 H     1 <1>   0.0800 
 31 H        6.4600     0.9780     0.6990 H     1 <1>   0.4500 
 32 H        7.6040     2.6830     1.8830 H     1 <1>   0.0800 
 33 H        7.9750     3.4910     0.3850 H     1 <1>   0.0800 
 34 H        7.1140     2.3390    -1.8430 H     1 <1>   0.0800 
 35 H        6.2380     0.8430    -1.6660 H     1 <1>   0.0800 
 36 H        9.0520     0.7830     1.2490 H     1 <1>   0.0800 
 37 H        9.9490     2.2710     1.0650 H     1 <1>   0.0800 
 38 H        8.6510     0.5320    -2.3060 H     1 <1>   0.0800 
 39 H        8.2610    -0.2790    -0.8080 H     1 <1>   0.0800 
@<TRIPOS>BOND
  1   1   2  1   
  2   2   3  ar  
  3   2   4  ar  
  4   3   5  1   
  5   3   6  ar  
  6   4   7  ar  
  7   4  19  1   
  8   5   8  1   
  9   6   9  ar  
 10   6  20  1   
 11   7   9  ar  
 12   7  21  1   
 13   8  10  1   
 14   8  22  1   
 15   8  23  1   
 16   9  24  1   
 17  10  11  1   
 18  10  25  1   
 19  10  26  1   
 20  11  12  1   
 21  11  27  1   
 22  11  28  1   
 23  12  13  1   
 24  12  29  1   
 25  12  30  1   
 26  13  14  1   
 27  13  15  1   
 28  13  31  1   
 29  14  16  1   
 30  14  32  1   
 31  14  33  1   
 32  15  17  1   
 33  15  34  1   
 34  15  35  1   
 35  16  18  1   
 36  16  36  1   
 37  16  37  1   
 38  17  18  1   
 39  17  38  1   
 40  17  39  1   
@<TRIPOS>SUBSTRUCTURE
  1 ****  10 GROUP 4 **** **** 0

# MOE 2024.06 (io_trps.svl 2023.06)
