@<TRIPOS>MOLECULE
NONAME
54 56 1 0 0 
SMALL
USER_CHARGES


@<TRIPOS>ATOM
  1 S        0.1580     1.1420     0.6800 S.o2  1 <1>   1.4470 
  2 O        1.5520     1.4770     0.4880 O.2   1 <1>  -0.6500 
  3 O       -0.3590     1.0220     2.0250 O.2   1 <1>  -0.6500 
  4 N       -0.7530     2.4100    -0.0720 N.am  1 <1>  -0.6930 
  5 C       -0.2890    -0.3240    -0.2900 C.ar  1 <1>  -0.0090 
  6 C       -2.1410     2.3820    -0.1050 C.ar  1 <1>   0.1990 
  7 C        0.0000     3.4100    -0.8890 C.3   1 <1>   0.2570 
  8 C        0.5100    -0.7820    -1.3310 C.ar  1 <1>  -0.1500 
  9 C       -1.4660    -1.0180    -0.0250 C.ar  1 <1>  -0.1500 
 10 C       -2.8750     2.5860     1.0610 C.ar  1 <1>  -0.1500 
 11 C       -2.8170     2.1400    -1.3000 C.ar  1 <1>  -0.1500 
 12 C        0.7490     2.8390    -2.1070 C.2   1 <1>   0.5690 
 13 C        0.1550    -1.8920    -2.0770 C.ar  1 <1>  -0.1500 
 14 C       -1.8290    -2.1300    -0.7650 C.ar  1 <1>  -0.1500 
 15 C       -4.2590     2.5550     1.0420 C.ar  1 <1>  -0.1500 
 16 C       -4.2010     2.1060    -1.3360 C.ar  1 <1>  -0.1500 
 17 O        0.2350     1.9730    -2.7710 O.2   1 <1>  -0.5700 
 18 N        1.9720     3.2970    -2.4770 N.am  1 <1>  -0.7300 
 19 C       -1.0160    -2.5690    -1.7930 C.ar  1 <1>  -0.1500 
 20 C       -4.8970     2.3150    -0.1600 C.ar  1 <1>   0.1900 
 21 C        2.7870     4.3910    -1.8960 C.3   1 <1>   0.1400 
 22 F       -6.2040     2.2840    -0.1860 F     1 <1>  -0.1900 
 23 C        3.7730     3.8340    -0.8670 C.3   1 <1>  -0.0220 
 24 C        4.6720     4.8960    -0.2350 C.2   1 <1>  -0.2760 
 25 C        4.6700     6.2030    -0.5310 C.2   1 <1>  -0.2880 
 26 C        5.6150     4.3020     0.8090 C.3   1 <1>  -0.0220 
 27 C        5.5990     7.2290     0.1000 C.3   1 <1>  -0.0220 
 28 C        6.2590     5.3820     1.6910 C.3   1 <1>  -0.1600 
 29 C        6.7600     6.5580     0.8450 C.3   1 <1>  -0.1600 
 30 H        0.7040     3.8980    -0.2410 H     1 <1>   0.0800 
 31 H       -0.6850     4.1560    -1.2460 H     1 <1>   0.0800 
 32 H        1.4210    -0.2570    -1.5680 H     1 <1>   0.1500 
 33 H       -2.1070    -0.6820     0.7740 H     1 <1>   0.1500 
 34 H       -2.3530     2.7670     1.9840 H     1 <1>   0.1500 
 35 H       -2.2560     1.9670    -2.2010 H     1 <1>   0.1500 
 36 H        0.7900    -2.2250    -2.8800 H     1 <1>   0.1500 
 37 H       -2.7440    -2.6510    -0.5410 H     1 <1>   0.1500 
 38 H       -4.8330     2.7110     1.9380 H     1 <1>   0.1500 
 39 H       -4.7310     1.9180    -2.2520 H     1 <1>   0.1500 
 40 H        2.3960     2.8050    -3.2680 H     1 <1>   0.3700 
 41 H       -1.2950    -3.4320    -2.3730 H     1 <1>   0.1500 
 42 H        2.1500     5.1210    -1.4290 H     1 <1>   0.0800 
 43 H        3.3310     4.8780    -2.6870 H     1 <1>   0.0800 
 44 H        4.3930     3.0950    -1.3430 H     1 <1>   0.0800 
 45 H        3.2180     3.3510    -0.0840 H     1 <1>   0.0800 
 46 H        4.0090     6.6590    -1.2460 H     1 <1>   0.1500 
 47 H        6.3850     3.7470     0.3020 H     1 <1>   0.0800 
 48 H        5.0790     3.6200     1.4460 H     1 <1>   0.0800 
 49 H        5.0310     7.8350     0.7830 H     1 <1>   0.0800 
 50 H        5.9990     7.8720    -0.6650 H     1 <1>   0.0800 
 51 H        7.0730     4.9530     2.2470 H     1 <1>   0.0800 
 52 H        5.5280     5.7420     2.3940 H     1 <1>   0.0800 
 53 H        7.2530     7.2800     1.4710 H     1 <1>   0.0800 
 54 H        7.4750     6.1940     0.1280 H     1 <1>   0.0800 
@<TRIPOS>BOND
  1   1   2  2   
  2   1   3  2   
  3   1   4  am  
  4   1   5  1   
  5   4   6  1   
  6   4   7  1   
  7   5   8  ar  
  8   5   9  ar  
  9   6  10  ar  
 10   6  11  ar  
 11   7  12  1   
 12   7  30  1   
 13   7  31  1   
 14   8  13  ar  
 15   8  32  1   
 16   9  14  ar  
 17   9  33  1   
 18  10  15  ar  
 19  10  34  1   
 20  11  16  ar  
 21  11  35  1   
 22  12  17  2   
 23  12  18  am  
 24  13  19  ar  
 25  13  36  1   
 26  14  19  ar  
 27  14  37  1   
 28  15  20  ar  
 29  15  38  1   
 30  16  20  ar  
 31  16  39  1   
 32  18  21  1   
 33  18  40  1   
 34  19  41  1   
 35  20  22  1   
 36  21  23  1   
 37  21  42  1   
 38  21  43  1   
 39  23  24  1   
 40  23  44  1   
 41  23  45  1   
 42  24  25  2   
 43  24  26  1   
 44  25  27  1   
 45  25  46  1   
 46  26  28  1   
 47  26  47  1   
 48  26  48  1   
 49  27  29  1   
 50  27  49  1   
 51  27  50  1   
 52  28  29  1   
 53  28  51  1   
 54  28  52  1   
 55  29  53  1   
 56  29  54  1   
@<TRIPOS>SUBSTRUCTURE
  1 ****   4 GROUP 4 **** **** 0

# MOE 2024.06 (io_trps.svl 2023.06)
