@<TRIPOS>MOLECULE
NONAME
44 46 1 0 0 
SMALL
USER_CHARGES


@<TRIPOS>ATOM
  1 S       -0.2320    -0.0880     0.1010 S.3   1 <1>  -0.3320 
  2 C       -1.7760    -1.0000     0.2590 C.ar  1 <1>   0.1020 
  3 C        0.3740    -0.3450    -1.6250 C.3   1 <1>  -0.0100 
  4 C       -2.3520    -1.6710    -0.8060 C.ar  1 <1>  -0.1500 
  5 C       -2.3740    -1.0050     1.5050 C.ar  1 <1>  -0.1500 
  6 C       -3.5450    -2.3490    -0.6170 C.ar  1 <1>  -0.1500 
  7 C       -3.5650    -1.6840     1.6910 C.ar  1 <1>  -0.1500 
  8 C       -4.1610    -2.3520     0.6290 C.ar  1 <1>  -0.1430 
  9 C       -5.4790    -3.0740     0.8310 C.3   1 <1>   0.4860 
 10 N       -6.5630    -2.2580     0.2220 N.4   1 <1>  -0.9590 
 11 C       -6.6920    -0.9080     0.8910 C.3   1 <1>   0.3430 
 12 C       -7.8830    -2.9860     0.2220 C.3   1 <1>   0.3430 
 13 C       -7.8210    -0.0520     0.2830 C.3   1 <1>   0.2090 
 14 C       -9.0210    -2.1450    -0.3940 C.3   1 <1>   0.2090 
 15 N       -9.1130    -0.8040     0.2580 N.pl3 1 <1>  -0.8380 
 16 C      -10.2330    -0.0430    -0.1070 C.ar  1 <1>   0.1000 
 17 C      -10.4490     0.4900    -1.3840 C.ar  1 <1>   0.1900 
 18 C      -11.2060     0.2110     0.8510 C.ar  1 <1>  -0.1500 
 19 F       -9.5610     0.2830    -2.3300 F     1 <1>  -0.1900 
 20 C      -11.5650     1.2360    -1.7070 C.ar  1 <1>  -0.1500 
 21 C      -12.3340     0.9570     0.5460 C.ar  1 <1>  -0.1500 
 22 C      -12.5170     1.4700    -0.7280 C.ar  1 <1>  -0.1500 
 23 H        1.3120     0.1730    -1.7180 H     1 <1>   0.0800 
 24 H       -0.3550     0.0650    -2.3000 H     1 <1>   0.0800 
 25 H        0.5060    -1.4010    -1.7770 H     1 <1>   0.0800 
 26 H       -1.8870    -1.6750    -1.7730 H     1 <1>   0.1500 
 27 H       -1.9020    -0.4820     2.3180 H     1 <1>   0.1500 
 28 H       -3.9780    -2.8730    -1.4530 H     1 <1>   0.1500 
 29 H       -4.0120    -1.6820     2.6710 H     1 <1>   0.1500 
 30 H       -5.6640    -3.2160     1.8830 H     1 <1>   0.0800 
 31 H       -5.4300    -4.0420     0.3580 H     1 <1>   0.0800 
 32 H       -6.2930    -2.0740    -0.7520 H     1 <1>   0.4500 
 33 H       -5.7630    -0.3660     0.8090 H     1 <1>   0.0800 
 34 H       -6.9030    -1.0430     1.9390 H     1 <1>   0.0800 
 35 H       -8.1620    -3.2280     1.2340 H     1 <1>   0.0800 
 36 H       -7.7960    -3.9090    -0.3280 H     1 <1>   0.0800 
 37 H       -7.5510     0.2460    -0.7150 H     1 <1>   0.0800 
 38 H       -7.9450     0.8420     0.8710 H     1 <1>   0.0800 
 39 H       -9.9570    -2.6620    -0.2650 H     1 <1>   0.0800 
 40 H       -8.8540    -2.0270    -1.4510 H     1 <1>   0.0800 
 41 H      -11.0750    -0.1820     1.8420 H     1 <1>   0.1500 
 42 H      -11.6880     1.6250    -2.7020 H     1 <1>   0.1500 
 43 H      -13.0750     1.1400     1.3060 H     1 <1>   0.1500 
 44 H      -13.3960     2.0490    -0.9570 H     1 <1>   0.1500 
@<TRIPOS>BOND
  1   1   2  1   
  2   1   3  1   
  3   2   4  ar  
  4   2   5  ar  
  5   3  23  1   
  6   3  24  1   
  7   3  25  1   
  8   4   6  ar  
  9   4  26  1   
 10   5   7  ar  
 11   5  27  1   
 12   6   8  ar  
 13   6  28  1   
 14   7   8  ar  
 15   7  29  1   
 16   8   9  1   
 17   9  10  1   
 18   9  30  1   
 19   9  31  1   
 20  10  11  1   
 21  10  12  1   
 22  10  32  1   
 23  11  13  1   
 24  11  33  1   
 25  11  34  1   
 26  12  14  1   
 27  12  35  1   
 28  12  36  1   
 29  13  15  1   
 30  13  37  1   
 31  13  38  1   
 32  14  15  1   
 33  14  39  1   
 34  14  40  1   
 35  15  16  1   
 36  16  17  ar  
 37  16  18  ar  
 38  17  19  1   
 39  17  20  ar  
 40  18  21  ar  
 41  18  41  1   
 42  20  22  ar  
 43  20  42  1   
 44  21  22  ar  
 45  21  43  1   
 46  22  44  1   
@<TRIPOS>SUBSTRUCTURE
  1 ****  11 GROUP 4 **** **** 0

# MOE 2024.06 (io_trps.svl 2023.06)
