@<TRIPOS>MOLECULE
NONAME
38 39 1 0 0 
SMALL
USER_CHARGES


@<TRIPOS>ATOM
  1 O        0.3690     0.2080    -0.7880 O.2   1 <1>  -0.5700 
  2 C        0.6890     1.2630    -0.2720 C.2   1 <1>   0.6900 
  3 N        2.0170     1.5780    -0.1180 N.am  1 <1>  -0.6600 
  4 N       -0.2540     2.1510     0.1660 N.am  1 <1>  -0.5470 
  5 C        2.5070     2.9560     0.1900 C.3   1 <1>   0.1400 
  6 C        3.0510     0.5270    -0.3590 C.3   1 <1>   0.1400 
  7 C       -1.6570     2.1320     0.1440 C.ar  1 <1>   0.1170 
  8 C        3.9010     3.1850    -0.4050 C.3   1 <1>  -0.1600 
  9 C        4.3120     0.8130     0.4630 C.3   1 <1>  -0.1600 
 10 C       -2.4050     0.9640     0.0290 C.ar  1 <1>  -0.1500 
 11 C       -2.3380     3.3390     0.2600 C.ar  1 <1>  -0.1500 
 12 C        4.9360     2.1780     0.1240 C.3   1 <1>  -0.1600 
 13 C       -3.7880     0.9970     0.0240 C.ar  1 <1>  -0.1500 
 14 C       -3.7200     3.3790     0.2570 C.ar  1 <1>  -0.1500 
 15 C       -4.4560     2.2120     0.1380 C.ar  1 <1>   0.0820 
 16 O       -5.8100     2.3390     0.1430 O.3   1 <1>  -0.3620 
 17 C       -6.6390     1.2110    -0.0060 C.3   1 <1>   0.1200 
 18 C       -8.0890     1.6850     0.0220 C.3   1 <1>  -0.2400 
 19 H        0.1570     2.9790     0.5760 H     1 <1>   0.3700 
 20 H        2.5460     3.0830     1.2580 H     1 <1>   0.0800 
 21 H        1.8320     3.6860    -0.2230 H     1 <1>   0.0800 
 22 H        3.2900     0.5060    -1.4090 H     1 <1>   0.0800 
 23 H        2.6580    -0.4390    -0.0870 H     1 <1>   0.0800 
 24 H        4.2290     4.1860    -0.1880 H     1 <1>   0.0800 
 25 H        3.8270     3.0960    -1.4760 H     1 <1>   0.0800 
 26 H        5.0340     0.0340     0.2970 H     1 <1>   0.0800 
 27 H        4.0440     0.7860     1.5050 H     1 <1>   0.0800 
 28 H       -1.9070     0.0150    -0.0530 H     1 <1>   0.1500 
 29 H       -1.7870     4.2560     0.3500 H     1 <1>   0.1500 
 30 H        5.4060     2.5700     1.0100 H     1 <1>   0.0800 
 31 H        5.7030     2.0500    -0.6210 H     1 <1>   0.0800 
 32 H       -4.3200     0.0700    -0.0690 H     1 <1>   0.1500 
 33 H       -4.2410     4.3150     0.3460 H     1 <1>   0.1500 
 34 H       -6.4440     0.5350     0.8090 H     1 <1>   0.0800 
 35 H       -6.4100     0.7410    -0.9470 H     1 <1>   0.0800 
 36 H       -8.3020     2.1680     0.9590 H     1 <1>   0.0800 
 37 H       -8.7490     0.8450    -0.0900 H     1 <1>   0.0800 
 38 H       -8.2680     2.3730    -0.7860 H     1 <1>   0.0800 
@<TRIPOS>BOND
  1   1   2  2   
  2   2   3  am  
  3   2   4  am  
  4   3   5  1   
  5   3   6  1   
  6   4   7  1   
  7   4  19  1   
  8   5   8  1   
  9   5  20  1   
 10   5  21  1   
 11   6   9  1   
 12   6  22  1   
 13   6  23  1   
 14   7  10  ar  
 15   7  11  ar  
 16   8  12  1   
 17   8  24  1   
 18   8  25  1   
 19   9  12  1   
 20   9  26  1   
 21   9  27  1   
 22  10  13  ar  
 23  10  28  1   
 24  11  14  ar  
 25  11  29  1   
 26  12  30  1   
 27  12  31  1   
 28  13  15  ar  
 29  13  32  1   
 30  14  15  ar  
 31  14  33  1   
 32  15  16  1   
 33  16  17  1   
 34  17  18  1   
 35  17  34  1   
 36  17  35  1   
 37  18  36  1   
 38  18  37  1   
 39  18  38  1   
@<TRIPOS>SUBSTRUCTURE
  1 ****   7 GROUP 4 **** **** 0

# MOE 2024.06 (io_trps.svl 2023.06)
