@<TRIPOS>MOLECULE
NONAME
50 53 1 0 0 
SMALL
USER_CHARGES


@<TRIPOS>ATOM
  1 O        1.1000    -2.3100     1.6110 O.3   1 <1>  -0.3630 
  2 C        0.2160    -2.4600     0.6220 C.ar  1 <1>   0.0830 
  3 C        2.1300    -1.4540     1.1130 C.3   1 <1>   0.4000 
  4 C        0.6020    -1.7400    -0.4690 C.ar  1 <1>   0.0830 
  5 C       -0.9410    -3.2120     0.6200 C.ar  1 <1>  -0.1500 
  6 O        1.7500    -1.1040    -0.2170 O.3   1 <1>  -0.3630 
  7 C       -0.1480    -1.7310    -1.6270 C.ar  1 <1>  -0.1500 
  8 C       -1.7220    -3.2130    -0.5330 C.ar  1 <1>  -0.1440 
  9 C       -1.3190    -2.4780    -1.6510 C.ar  1 <1>  -0.1500 
 10 C       -3.0110    -4.0110    -0.5670 C.3   1 <1>   0.4870 
 11 N       -4.1530    -3.0720    -0.4170 N.4   1 <1>  -0.9590 
 12 C       -4.1320    -2.3670     0.9200 C.3   1 <1>   0.3430 
 13 C       -5.4780    -3.7560    -0.6390 C.3   1 <1>   0.3430 
 14 C       -5.3160    -1.3950     1.0910 C.3   1 <1>   0.2090 
 15 C       -6.6700    -2.7910    -0.4840 C.3   1 <1>   0.2090 
 16 N       -6.6170    -2.0800     0.8270 N.pl3 1 <1>  -0.8380 
 17 C       -7.7470    -1.2970     1.1040 C.ar  1 <1>   0.1000 
 18 C       -8.1000    -0.1440     0.3770 C.ar  1 <1>   0.0830 
 19 C       -8.5550    -1.6950     2.1590 C.ar  1 <1>  -0.1500 
 20 O       -7.2930     0.2400    -0.6620 O.3   1 <1>  -0.3620 
 21 C       -9.2440     0.5660     0.7290 C.ar  1 <1>  -0.1500 
 22 C       -9.6900    -0.9830     2.5020 C.ar  1 <1>  -0.1500 
 23 C       -7.5630     1.4050    -1.4070 C.3   1 <1>   0.1200 
 24 C      -10.0340     0.1480     1.7860 C.ar  1 <1>  -0.1500 
 25 C       -6.4690     1.5570    -2.4590 C.3   1 <1>  -0.2400 
 26 H        3.0640    -1.9870     1.0930 H     1 <1>   0.0800 
 27 H        2.1900    -0.5670     1.7180 H     1 <1>   0.0800 
 28 H       -1.2010    -3.7710     1.5020 H     1 <1>   0.1500 
 29 H        0.1820    -1.1590    -2.4770 H     1 <1>   0.1500 
 30 H       -1.9040    -2.4810    -2.5550 H     1 <1>   0.1500 
 31 H       -3.0170    -4.7370     0.2300 H     1 <1>   0.0800 
 32 H       -3.0800    -4.5340    -1.5070 H     1 <1>   0.0800 
 33 H       -4.0460    -2.3410    -1.1300 H     1 <1>   0.4500 
 34 H       -3.2130    -1.8150     1.0310 H     1 <1>   0.0800 
 35 H       -4.1810    -3.0930     1.7130 H     1 <1>   0.0800 
 36 H       -5.5990    -4.5500     0.0790 H     1 <1>   0.0800 
 37 H       -5.5090    -4.1910    -1.6240 H     1 <1>   0.0800 
 38 H       -5.1960    -0.5610     0.4220 H     1 <1>   0.0800 
 39 H       -5.3200    -1.0100     2.0960 H     1 <1>   0.0800 
 40 H       -7.5910    -3.3470    -0.5430 H     1 <1>   0.0800 
 41 H       -6.6650    -2.0790    -1.2900 H     1 <1>   0.0800 
 42 H       -8.2880    -2.5740     2.7150 H     1 <1>   0.1500 
 43 H       -9.5470     1.4490     0.1990 H     1 <1>   0.1500 
 44 H      -10.3030    -1.3090     3.3240 H     1 <1>   0.1500 
 45 H       -7.5650     2.2480    -0.7360 H     1 <1>   0.0800 
 46 H       -8.5270     1.2970    -1.8740 H     1 <1>   0.0800 
 47 H      -10.9180     0.7030     2.0520 H     1 <1>   0.1500 
 48 H       -5.5090     1.6530    -1.9850 H     1 <1>   0.0800 
 49 H       -6.6500     2.4410    -3.0430 H     1 <1>   0.0800 
 50 H       -6.4680     0.7080    -3.1180 H     1 <1>   0.0800 
@<TRIPOS>BOND
  1   1   2  1   
  2   1   3  1   
  3   2   4  ar  
  4   2   5  ar  
  5   3   6  1   
  6   3  26  1   
  7   3  27  1   
  8   4   6  1   
  9   4   7  ar  
 10   5   8  ar  
 11   5  28  1   
 12   7   9  ar  
 13   7  29  1   
 14   8   9  ar  
 15   8  10  1   
 16   9  30  1   
 17  10  11  1   
 18  10  31  1   
 19  10  32  1   
 20  11  12  1   
 21  11  13  1   
 22  11  33  1   
 23  12  14  1   
 24  12  34  1   
 25  12  35  1   
 26  13  15  1   
 27  13  36  1   
 28  13  37  1   
 29  14  16  1   
 30  14  38  1   
 31  14  39  1   
 32  15  16  1   
 33  15  40  1   
 34  15  41  1   
 35  16  17  1   
 36  17  18  ar  
 37  17  19  ar  
 38  18  20  1   
 39  18  21  ar  
 40  19  22  ar  
 41  19  42  1   
 42  20  23  1   
 43  21  24  ar  
 44  21  43  1   
 45  22  24  ar  
 46  22  44  1   
 47  23  25  1   
 48  23  45  1   
 49  23  46  1   
 50  24  47  1   
 51  25  48  1   
 52  25  49  1   
 53  25  50  1   
@<TRIPOS>SUBSTRUCTURE
  1 ****  12 GROUP 4 **** **** 0

# MOE 2024.06 (io_trps.svl 2023.06)
