@<TRIPOS>MOLECULE
NONAME
40 41 1 0 0 
SMALL
USER_CHARGES


@<TRIPOS>ATOM
  1 O       -0.1710     0.1410    -0.8060 O.2   1 <1>  -0.5700 
  2 C       -0.1200     1.2670    -0.3460 C.2   1 <1>   0.6900 
  3 N       -1.2670     1.9280     0.0320 N.am  1 <1>  -0.6600 
  4 N        1.0800     1.9080    -0.2090 N.am  1 <1>  -0.5470 
  5 C       -2.5960     1.2930    -0.2460 C.3   1 <1>   0.2200 
  6 C       -1.2330     3.0850     0.9750 C.3   1 <1>   0.1400 
  7 C        2.4020     1.4850    -0.4020 C.ar  1 <1>   0.1170 
  8 C       -3.6440     2.3110    -0.7240 C.3   1 <1>  -0.1600 
  9 C       -3.0900     0.5130     0.9810 C.3   1 <1>  -0.1600 
 10 C       -1.0760     4.3970     0.2060 C.3   1 <1>  -0.2400 
 11 C        3.3810     2.4440    -0.6400 C.ar  1 <1>  -0.1500 
 12 C        2.7870     0.1490    -0.3460 C.ar  1 <1>  -0.1500 
 13 C       -4.9840     1.6190    -1.0160 C.3   1 <1>  -0.1600 
 14 C       -4.4350    -0.1700     0.6950 C.3   1 <1>  -0.1600 
 15 C        4.7040     2.0820    -0.8210 C.ar  1 <1>  -0.1500 
 16 C        4.1080    -0.2180    -0.5270 C.ar  1 <1>  -0.1500 
 17 C       -5.4830     0.8410     0.2100 C.3   1 <1>  -0.1600 
 18 C        5.0700     0.7480    -0.7650 C.ar  1 <1>  -0.1500 
 19 H        0.9590     2.8950    -0.0200 H     1 <1>   0.3700 
 20 H       -2.4740     0.5840    -1.0490 H     1 <1>   0.0800 
 21 H       -0.4140     2.9620     1.6650 H     1 <1>   0.0800 
 22 H       -2.1350     3.1160     1.5600 H     1 <1>   0.0800 
 23 H       -3.2900     2.7890    -1.6190 H     1 <1>   0.0800 
 24 H       -3.8100     3.0590     0.0280 H     1 <1>   0.0800 
 25 H       -3.2090     1.1740     1.8190 H     1 <1>   0.0800 
 26 H       -2.3610    -0.2360     1.2370 H     1 <1>   0.0800 
 27 H       -0.1760     4.4020    -0.3800 H     1 <1>   0.0800 
 28 H       -1.0330     5.2170     0.9000 H     1 <1>   0.0800 
 29 H       -1.9150     4.5550    -0.4460 H     1 <1>   0.0800 
 30 H        3.1090     3.4810    -0.6890 H     1 <1>   0.1500 
 31 H        2.0520    -0.6120    -0.1570 H     1 <1>   0.1500 
 32 H       -4.8630     0.9410    -1.8430 H     1 <1>   0.0800 
 33 H       -5.7170     2.3560    -1.2990 H     1 <1>   0.0800 
 34 H       -4.7890    -0.6590     1.5870 H     1 <1>   0.0800 
 35 H       -4.2940    -0.9260    -0.0590 H     1 <1>   0.0800 
 36 H        5.4500     2.8350    -1.0060 H     1 <1>   0.1500 
 37 H        4.3860    -1.2570    -0.4830 H     1 <1>   0.1500 
 38 H       -6.3940     0.3230    -0.0390 H     1 <1>   0.0800 
 39 H       -5.7060     1.5320     1.0050 H     1 <1>   0.0800 
 40 H        6.0980     0.4620    -0.9060 H     1 <1>   0.1500 
@<TRIPOS>BOND
  1   1   2  2   
  2   2   3  am  
  3   2   4  am  
  4   3   5  1   
  5   3   6  1   
  6   4   7  1   
  7   4  19  1   
  8   5   8  1   
  9   5   9  1   
 10   5  20  1   
 11   6  10  1   
 12   6  21  1   
 13   6  22  1   
 14   7  11  ar  
 15   7  12  ar  
 16   8  13  1   
 17   8  23  1   
 18   8  24  1   
 19   9  14  1   
 20   9  25  1   
 21   9  26  1   
 22  10  27  1   
 23  10  28  1   
 24  10  29  1   
 25  11  15  ar  
 26  11  30  1   
 27  12  16  ar  
 28  12  31  1   
 29  13  17  1   
 30  13  32  1   
 31  13  33  1   
 32  14  17  1   
 33  14  34  1   
 34  14  35  1   
 35  15  18  ar  
 36  15  36  1   
 37  16  18  ar  
 38  16  37  1   
 39  17  38  1   
 40  17  39  1   
 41  18  40  1   
@<TRIPOS>SUBSTRUCTURE
  1 ****   2 GROUP 4 **** **** 0

# MOE 2024.06 (io_trps.svl 2023.06)
