@<TRIPOS>MOLECULE
NONAME
47 48 1 0 0 
SMALL
USER_CHARGES


@<TRIPOS>ATOM
  1 O       -0.2340    -0.3560     2.6940 O.2   1 <1>  -0.5700 
  2 C       -0.6440    -0.7530     1.6250 C.2   1 <1>   0.6900 
  3 N       -1.9100    -0.4800     1.2790 N.am  1 <1>  -0.7300 
  4 N        0.1290    -1.4740     0.7880 N.am  1 <1>  -0.7300 
  5 C       -2.3560     0.2820     0.1090 C.3   1 <1>   0.4440 
  6 C        1.5280    -1.8580     1.0210 C.3   1 <1>   0.2200 
  7 C       -3.4510     1.2410     0.6120 C.ar  1 <1>  -0.1430 
  8 C       -2.8500    -0.7450    -0.9140 C.3   1 <1>  -0.2400 
  9 C       -1.2220     1.1120    -0.5080 C.3   1 <1>  -0.2400 
 10 C        2.3740    -1.3380    -0.1340 C.3   1 <1>  -0.1600 
 11 C        1.6490    -3.3710     0.8910 C.3   1 <1>  -0.1600 
 12 C       -4.7150     1.3280     0.0360 C.ar  1 <1>  -0.1500 
 13 C       -3.1690     2.0720     1.6920 C.ar  1 <1>  -0.1500 
 14 C        2.1850    -2.3470    -1.2740 C.3   1 <1>  -0.1600 
 15 C        1.7350    -3.6570    -0.6130 C.3   1 <1>  -0.1600 
 16 C       -5.6910     2.2020     0.5080 C.ar  1 <1>   0.0280 
 17 C       -4.1190     2.9510     2.1770 C.ar  1 <1>  -0.1500 
 18 C       -7.0060     2.2830    -0.0920 C.2   1 <1>  -0.1670 
 19 C       -5.3660     3.0130     1.5890 C.ar  1 <1>  -0.1500 
 20 C       -7.6110     3.4360    -0.4190 C.2   1 <1>  -0.3000 
 21 C       -7.7170     0.9590    -0.3300 C.3   1 <1>  -0.1020 
 22 H       -2.4560    -0.1840     2.0870 H     1 <1>   0.3700 
 23 H       -0.3100    -1.8850    -0.0290 H     1 <1>   0.3700 
 24 H        1.8700    -1.4960     1.9770 H     1 <1>   0.0800 
 25 H       -2.0600    -1.4230    -1.1770 H     1 <1>   0.0800 
 26 H       -3.1740    -0.2510    -1.8120 H     1 <1>   0.0800 
 27 H       -3.6710    -1.3080    -0.5080 H     1 <1>   0.0800 
 28 H       -0.4730     0.4830    -0.9510 H     1 <1>   0.0800 
 29 H       -0.7610     1.7380     0.2340 H     1 <1>   0.0800 
 30 H       -1.6210     1.7450    -1.2790 H     1 <1>   0.0800 
 31 H        3.4060    -1.3460     0.1710 H     1 <1>   0.0800 
 32 H        2.1060    -0.3350    -0.4150 H     1 <1>   0.0800 
 33 H        0.8330    -3.8850     1.3690 H     1 <1>   0.0800 
 34 H        2.5680    -3.6780     1.3580 H     1 <1>   0.0800 
 35 H       -4.9720     0.7190    -0.8080 H     1 <1>   0.1500 
 36 H       -2.2010     2.0440     2.1660 H     1 <1>   0.1500 
 37 H        3.0990    -2.4770    -1.8280 H     1 <1>   0.0800 
 38 H        1.4190    -1.9980    -1.9450 H     1 <1>   0.0800 
 39 H        0.7670    -3.9400    -0.9900 H     1 <1>   0.0800 
 40 H        2.4300    -4.4550    -0.8100 H     1 <1>   0.0800 
 41 H       -3.8850     3.5870     3.0130 H     1 <1>   0.1500 
 42 H       -6.1030     3.6950     1.9720 H     1 <1>   0.1500 
 43 H       -8.5910     3.5060    -0.8570 H     1 <1>   0.1500 
 44 H       -7.1660     4.4050    -0.2750 H     1 <1>   0.1500 
 45 H       -7.2310     0.4030    -1.1100 H     1 <1>   0.0800 
 46 H       -8.7400     1.1210    -0.6210 H     1 <1>   0.0800 
 47 H       -7.7110     0.3740     0.5720 H     1 <1>   0.0800 
@<TRIPOS>BOND
  1   1   2  2   
  2   2   3  am  
  3   2   4  am  
  4   3   5  1   
  5   3  22  1   
  6   4   6  1   
  7   4  23  1   
  8   5   7  1   
  9   5   8  1   
 10   5   9  1   
 11   6  10  1   
 12   6  11  1   
 13   6  24  1   
 14   7  12  ar  
 15   7  13  ar  
 16   8  25  1   
 17   8  26  1   
 18   8  27  1   
 19   9  28  1   
 20   9  29  1   
 21   9  30  1   
 22  10  14  1   
 23  10  31  1   
 24  10  32  1   
 25  11  15  1   
 26  11  33  1   
 27  11  34  1   
 28  12  16  ar  
 29  12  35  1   
 30  13  17  ar  
 31  13  36  1   
 32  14  15  1   
 33  14  37  1   
 34  14  38  1   
 35  15  39  1   
 36  15  40  1   
 37  16  18  1   
 38  16  19  ar  
 39  17  19  ar  
 40  17  41  1   
 41  18  20  2   
 42  18  21  1   
 43  19  42  1   
 44  20  43  1   
 45  20  44  1   
 46  21  45  1   
 47  21  46  1   
 48  21  47  1   
@<TRIPOS>SUBSTRUCTURE
  1 ****   5 GROUP 4 **** **** 0

# MOE 2024.06 (io_trps.svl 2023.06)
