@<TRIPOS>MOLECULE
NONAME
42 43 1 0 0 
SMALL
USER_CHARGES


@<TRIPOS>ATOM
  1 O        0.2310     0.7560     2.3530 O.2   1 <1>  -0.5700 
  2 C        0.7970     0.8620     1.2900 C.2   1 <1>   0.5690 
  3 N        0.1860     1.2590     0.1380 N.am  1 <1>  -0.4930 
  4 C        2.2830     0.5450     1.2350 C.3   1 <1>   0.1810 
  5 C       -1.1460     1.6920    -0.0850 C.2   1 <1>   0.0630 
  6 O        2.8350     0.9100    -0.0230 O.3   1 <1>  -0.3630 
  7 C       -1.5240     2.8170    -0.8210 C.2   1 <1>   0.1080 
  8 C       -2.3120     1.1420     0.3210 C.2   1 <1>  -0.3320 
  9 C        4.1710     0.7550    -0.1420 C.ar  1 <1>   0.0830 
 10 N       -2.8090     2.9680    -0.8690 N.2   1 <1>  -0.7070 
 11 C       -0.5760     3.7810    -1.4980 C.3   1 <1>  -0.0590 
 12 N       -3.2980     1.9400    -0.1550 N.pl3 1 <1>   0.3140 
 13 C       -2.5590    -0.1150     1.1430 C.3   1 <1>  -0.0600 
 14 C        4.6820    -0.4460    -0.6280 C.ar  1 <1>  -0.1430 
 15 C        5.0180     1.8020     0.2140 C.ar  1 <1>  -0.1430 
 16 C       -4.7440     1.7760     0.0420 C.3   1 <1>   0.0160 
 17 C        6.0550    -0.6020    -0.7260 C.ar  1 <1>  -0.1500 
 18 C        3.7680    -1.5860    -1.0570 C.3   1 <1>  -0.0970 
 19 C        6.3880     1.6230     0.1070 C.ar  1 <1>  -0.1500 
 20 C        4.4760     3.1350     0.7100 C.3   1 <1>  -0.0970 
 21 C        6.9040     0.4260    -0.3580 C.ar  1 <1>  -0.1500 
 22 H        0.8190     1.3690    -0.6570 H     1 <1>   0.3700 
 23 H        2.4350    -0.5080     1.3820 H     1 <1>   0.0800 
 24 H        2.7950     1.0890     2.0060 H     1 <1>   0.0800 
 25 H        0.2680     3.9780    -0.8630 H     1 <1>   0.0800 
 26 H       -1.0830     4.7080    -1.6960 H     1 <1>   0.0800 
 27 H       -0.2380     3.3630    -2.4270 H     1 <1>   0.0800 
 28 H       -1.6530    -0.6830     1.2430 H     1 <1>   0.0800 
 29 H       -3.2940    -0.7380     0.6660 H     1 <1>   0.0800 
 30 H       -2.9030     0.1520     2.1260 H     1 <1>   0.0800 
 31 H       -4.9510     1.7150     1.0930 H     1 <1>   0.0800 
 32 H       -5.0660     0.8800    -0.4520 H     1 <1>   0.0800 
 33 H       -5.2530     2.6230    -0.3770 H     1 <1>   0.0800 
 34 H        6.4730    -1.5230    -1.0920 H     1 <1>   0.1500 
 35 H        3.4100    -2.1150    -0.1930 H     1 <1>   0.0800 
 36 H        4.2940    -2.2780    -1.6900 H     1 <1>   0.0800 
 37 H        2.9280    -1.2030    -1.6080 H     1 <1>   0.0800 
 38 H        7.0620     2.4140     0.3830 H     1 <1>   0.1500 
 39 H        3.6110     3.4220     0.1400 H     1 <1>   0.0800 
 40 H        5.2160     3.9080     0.6080 H     1 <1>   0.0800 
 41 H        4.2020     3.0570     1.7460 H     1 <1>   0.0800 
 42 H        7.9690     0.2960    -0.4360 H     1 <1>   0.1500 
@<TRIPOS>BOND
  1   1   2  2   
  2   2   3  am  
  3   2   4  1   
  4   3   5  1   
  5   3  22  1   
  6   4   6  1   
  7   4  23  1   
  8   4  24  1   
  9   5   7  1   
 10   5   8  2   
 11   6   9  1   
 12   7  10  2   
 13   7  11  1   
 14   8  12  1   
 15   8  13  1   
 16   9  14  ar  
 17   9  15  ar  
 18  10  12  1   
 19  11  25  1   
 20  11  26  1   
 21  11  27  1   
 22  12  16  1   
 23  13  28  1   
 24  13  29  1   
 25  13  30  1   
 26  14  17  ar  
 27  14  18  1   
 28  15  19  ar  
 29  15  20  1   
 30  16  31  1   
 31  16  32  1   
 32  16  33  1   
 33  17  21  ar  
 34  17  34  1   
 35  18  35  1   
 36  18  36  1   
 37  18  37  1   
 38  19  21  ar  
 39  19  38  1   
 40  20  39  1   
 41  20  40  1   
 42  20  41  1   
 43  21  42  1   
@<TRIPOS>SUBSTRUCTURE
  1 ****   3 GROUP 4 **** **** 0

# MOE 2024.06 (io_trps.svl 2023.06)
