@<TRIPOS>MOLECULE
NONAME
42 43 1 0 0 
SMALL
USER_CHARGES


@<TRIPOS>ATOM
  1 S       -0.4540    -0.6170     0.3380 S.3   1 <1>  -0.2860 
  2 C        1.2530    -0.8630     0.8440 C.2   1 <1>   0.2420 
  3 C       -1.4050    -1.3280     1.7720 C.3   1 <1>   0.1310 
  4 N        1.5870    -1.3740     1.9750 N.2   1 <1>  -0.3380 
  5 N        2.2920    -0.5280     0.0810 N.pl3 1 <1>   0.0480 
  6 C       -2.9050    -1.1430     1.5990 C.2   1 <1>   0.5690 
  7 N        2.9230    -1.3860     1.9840 N.2   1 <1>  -0.3380 
  8 C        3.3220    -0.8850     0.8630 C.2   1 <1>   0.0060 
  9 C        2.2960     0.0750    -1.2700 C.3   1 <1>   0.0960 
 10 O       -3.6360    -1.8840     2.2090 O.2   1 <1>  -0.5700 
 11 N       -3.3520    -0.1490     0.7700 N.am  1 <1>  -0.5470 
 12 C        4.7820    -0.7230     0.4850 C.3   1 <1>  -0.0600 
 13 C        2.2720     1.6060    -1.1770 C.3   1 <1>  -0.1600 
 14 C       -4.6490     0.2810     0.4420 C.ar  1 <1>   0.1170 
 15 C        2.2930     2.2470    -2.5690 C.3   1 <1>  -0.2400 
 16 C       -4.8290     1.0200    -0.7220 C.ar  1 <1>  -0.1500 
 17 C       -5.7620     0.0170     1.2340 C.ar  1 <1>  -0.1500 
 18 C       -6.0800     1.4820    -1.0910 C.ar  1 <1>  -0.1500 
 19 C       -7.0150     0.4750     0.8700 C.ar  1 <1>  -0.1500 
 20 C       -7.1860     1.2090    -0.2920 C.ar  1 <1>   0.0830 
 21 O       -8.4500     1.6210    -0.5760 O.3   1 <1>  -0.3630 
 22 C       -8.7280     2.3550    -1.7470 C.3   1 <1>   0.0400 
 23 H       -1.0680    -0.8280     2.6600 H     1 <1>   0.0800 
 24 H       -1.1600    -2.3730     1.8290 H     1 <1>   0.0800 
 25 H        1.4350    -0.2760    -1.8100 H     1 <1>   0.0800 
 26 H        3.1760    -0.2500    -1.7940 H     1 <1>   0.0800 
 27 H       -2.6060     0.3240     0.2600 H     1 <1>   0.3700 
 28 H        5.0030     0.3090     0.2860 H     1 <1>   0.0800 
 29 H        5.0080    -1.3130    -0.3840 H     1 <1>   0.0800 
 30 H        5.4060    -1.0560     1.2960 H     1 <1>   0.0800 
 31 H        3.1270     1.9490    -0.6200 H     1 <1>   0.0800 
 32 H        1.3810     1.9210    -0.6590 H     1 <1>   0.0800 
 33 H        3.1850     1.9680    -3.1020 H     1 <1>   0.0800 
 34 H        2.2730     3.3190    -2.4790 H     1 <1>   0.0800 
 35 H        1.4350     1.9390    -3.1410 H     1 <1>   0.0800 
 36 H       -3.9840     1.2360    -1.3490 H     1 <1>   0.1500 
 37 H       -5.6570    -0.5460     2.1430 H     1 <1>   0.1500 
 38 H       -6.1760     2.0480    -1.9980 H     1 <1>   0.1500 
 39 H       -7.8700     0.2650     1.4870 H     1 <1>   0.1500 
 40 H       -9.7830     2.5620    -1.7680 H     1 <1>   0.0800 
 41 H       -8.4550     1.7630    -2.6030 H     1 <1>   0.0800 
 42 H       -8.1750     3.2770    -1.7210 H     1 <1>   0.0800 
@<TRIPOS>BOND
  1   1   2  1   
  2   1   3  1   
  3   2   4  2   
  4   2   5  1   
  5   3   6  1   
  6   3  23  1   
  7   3  24  1   
  8   4   7  1   
  9   5   8  1   
 10   5   9  1   
 11   6  10  2   
 12   6  11  am  
 13   7   8  2   
 14   8  12  1   
 15   9  13  1   
 16   9  25  1   
 17   9  26  1   
 18  11  14  1   
 19  11  27  1   
 20  12  28  1   
 21  12  29  1   
 22  12  30  1   
 23  13  15  1   
 24  13  31  1   
 25  13  32  1   
 26  14  16  ar  
 27  14  17  ar  
 28  15  33  1   
 29  15  34  1   
 30  15  35  1   
 31  16  18  ar  
 32  16  36  1   
 33  17  19  ar  
 34  17  37  1   
 35  18  20  ar  
 36  18  38  1   
 37  19  20  ar  
 38  19  39  1   
 39  20  21  1   
 40  21  22  1   
 41  22  40  1   
 42  22  41  1   
 43  22  42  1   
@<TRIPOS>SUBSTRUCTURE
  1 ****  11 GROUP 4 **** **** 0

# MOE 2024.06 (io_trps.svl 2023.06)
