@<TRIPOS>MOLECULE
NONAME
45 46 1 0 0 
SMALL
USER_CHARGES


@<TRIPOS>ATOM
  1 S       -0.0430     0.4140     1.3730 S.o2  1 <1>   1.4470 
  2 O       -0.6670    -0.7600     1.9340 O.2   1 <1>  -0.6500 
  3 O       -0.0050     1.6520     2.1170 O.2   1 <1>  -0.6500 
  4 N       -1.0230     0.7260     0.0440 N.am  1 <1>  -0.9140 
  5 C        1.5680     0.0350     0.6370 C.ar  1 <1>  -0.0090 
  6 C       -2.3070     1.2980     0.4440 C.3   1 <1>   0.1960 
  7 C        2.4380     1.0530     0.2660 C.ar  1 <1>  -0.1500 
  8 C        1.9600    -1.2750     0.4000 C.ar  1 <1>  -0.1500 
  9 C       -3.1000     1.7820    -0.7840 C.3   1 <1>   0.3430 
 10 C        3.6720     0.7920    -0.3230 C.ar  1 <1>   0.0830 
 11 C        3.1750    -1.5550    -0.1960 C.ar  1 <1>  -0.1500 
 12 N       -4.3640     2.5100    -0.4220 N.4   1 <1>  -0.9590 
 13 O        4.5150     1.8160    -0.6440 O.3   1 <1>  -0.3630 
 14 C        4.0390    -0.5420    -0.5730 C.ar  1 <1>   0.0830 
 15 C       -5.2000     2.7580    -1.6520 C.3   1 <1>   0.3430 
 16 C       -4.0900     3.8200     0.2800 C.3   1 <1>   0.3430 
 17 C        4.4250     3.0770    -0.0160 C.3   1 <1>   0.0400 
 18 O        5.1890    -0.9760    -1.1620 O.3   1 <1>  -0.3630 
 19 C       -6.4450     3.6070    -1.3330 C.3   1 <1>   0.1200 
 20 C       -5.3840     4.6240     0.5110 C.3   1 <1>   0.1200 
 21 C        6.0290    -0.1350    -1.9190 C.3   1 <1>   0.0400 
 22 O       -6.0700     4.7930    -0.6950 O.3   1 <1>  -0.5600 
 23 H       -1.1880    -0.2120    -0.3260 H     1 <1>   0.4200 
 24 H       -2.1250     2.1420     1.0870 H     1 <1>   0.0800 
 25 H       -2.8730     0.5620     0.9930 H     1 <1>   0.0800 
 26 H        2.1240     2.0640     0.4490 H     1 <1>   0.1500 
 27 H        1.3140    -2.0900     0.6830 H     1 <1>   0.1500 
 28 H       -3.3410     0.9250    -1.3910 H     1 <1>   0.0800 
 29 H       -2.4670     2.4360    -1.3620 H     1 <1>   0.0800 
 30 H        3.4660    -2.5760    -0.3760 H     1 <1>   0.1500 
 31 H       -4.9260     1.9260     0.2130 H     1 <1>   0.4500 
 32 H       -5.5110     1.8210    -2.0840 H     1 <1>   0.0800 
 33 H       -4.6160     3.2850    -2.3900 H     1 <1>   0.0800 
 34 H       -3.4230     4.4200    -0.3150 H     1 <1>   0.0800 
 35 H       -3.6150     3.6420     1.2310 H     1 <1>   0.0800 
 36 H        5.3040     3.6400    -0.2730 H     1 <1>   0.0800 
 37 H        4.3800     2.9370     1.0500 H     1 <1>   0.0800 
 38 H        3.5510     3.5880    -0.3770 H     1 <1>   0.0800 
 39 H       -7.1330     3.0740    -0.6990 H     1 <1>   0.0800 
 40 H       -6.9560     3.8750    -2.2420 H     1 <1>   0.0800 
 41 H       -5.1490     5.6040     0.8910 H     1 <1>   0.0800 
 42 H       -6.0330     4.1320     1.2150 H     1 <1>   0.0800 
 43 H        6.7400    -0.7520    -2.4390 H     1 <1>   0.0800 
 44 H        6.5460     0.5320    -1.2520 H     1 <1>   0.0800 
 45 H        5.4320     0.4130    -2.6260 H     1 <1>   0.0800 
@<TRIPOS>BOND
  1   1   2  2   
  2   1   3  2   
  3   1   4  am  
  4   1   5  1   
  5   4   6  1   
  6   4  23  1   
  7   5   7  ar  
  8   5   8  ar  
  9   6   9  1   
 10   6  24  1   
 11   6  25  1   
 12   7  10  ar  
 13   7  26  1   
 14   8  11  ar  
 15   8  27  1   
 16   9  12  1   
 17   9  28  1   
 18   9  29  1   
 19  10  13  1   
 20  10  14  ar  
 21  11  14  ar  
 22  11  30  1   
 23  12  15  1   
 24  12  16  1   
 25  12  31  1   
 26  13  17  1   
 27  14  18  1   
 28  15  19  1   
 29  15  32  1   
 30  15  33  1   
 31  16  20  1   
 32  16  34  1   
 33  16  35  1   
 34  17  36  1   
 35  17  37  1   
 36  17  38  1   
 37  18  21  1   
 38  19  22  1   
 39  19  39  1   
 40  19  40  1   
 41  20  22  1   
 42  20  41  1   
 43  20  42  1   
 44  21  43  1   
 45  21  44  1   
 46  21  45  1   
@<TRIPOS>SUBSTRUCTURE
  1 ****   4 GROUP 4 **** **** 0

# MOE 2024.06 (io_trps.svl 2023.06)
