@<TRIPOS>MOLECULE
NONAME
34 35 1 0 0 
SMALL
USER_CHARGES


@<TRIPOS>ATOM
  1 O        0.3590     0.7200    -1.8870 O.2   1 <1>  -0.5700 
  2 C        0.0740     1.2800    -0.8510 C.2   1 <1>   0.6900 
  3 N       -1.2090     1.6820    -0.6880 N.am  1 <1>  -0.4900 
  4 N        0.9960     1.5070     0.1080 N.am  1 <1>  -0.7300 
  5 C       -1.8180     2.3880     0.3190 C.2   1 <1>   0.5440 
  6 C        2.4470     1.1960     0.0410 C.3   1 <1>   0.1400 
  7 O       -1.1790     2.7070     1.3030 O.2   1 <1>  -0.5700 
  8 C       -3.2220     2.7340     0.2020 C.ar  1 <1>   0.0860 
  9 C        3.2730     2.4700    -0.1760 C.3   1 <1>   0.2000 
 10 C       -3.8280     2.9790    -1.0350 C.ar  1 <1>  -0.1500 
 11 C       -4.0270     2.8360     1.3380 C.ar  1 <1>  -0.1500 
 12 O        4.6260     2.1710    -0.0690 O.3   1 <1>  -0.5600 
 13 C        3.0550     3.5620     0.8660 C.3   1 <1>  -0.1600 
 14 C       -5.1720     3.2920    -1.1300 C.ar  1 <1>  -0.1500 
 15 C       -5.3700     3.1490     1.2490 C.ar  1 <1>  -0.1500 
 16 C        5.3530     3.3270     0.1990 C.3   1 <1>   0.1200 
 17 C        4.3850     4.2980     0.8730 C.3   1 <1>  -0.1600 
 18 C       -5.9460     3.3750     0.0120 C.ar  1 <1>  -0.1500 
 19 H       -1.7880     1.3800    -1.4620 H     1 <1>   0.3700 
 20 H        0.6570     2.0090     0.9390 H     1 <1>   0.3700 
 21 H        2.6340     0.5140    -0.7710 H     1 <1>   0.0800 
 22 H        2.7450     0.7260     0.9610 H     1 <1>   0.0800 
 23 H        3.1060     2.8540    -1.1680 H     1 <1>   0.0800 
 24 H       -3.2460     2.9370    -1.9380 H     1 <1>   0.1500 
 25 H       -3.5860     2.6650     2.3060 H     1 <1>   0.1500 
 26 H        2.8740     3.1150     1.8280 H     1 <1>   0.0800 
 27 H        2.2280     4.1980     0.6080 H     1 <1>   0.0800 
 28 H       -5.6190     3.4750    -2.0920 H     1 <1>   0.1500 
 29 H       -5.9690     3.2180     2.1420 H     1 <1>   0.1500 
 30 H        5.7150     3.7190    -0.7350 H     1 <1>   0.0800 
 31 H        6.1800     3.0680     0.8370 H     1 <1>   0.0800 
 32 H        4.7030     4.5330     1.8730 H     1 <1>   0.0800 
 33 H        4.3280     5.2060     0.2990 H     1 <1>   0.0800 
 34 H       -6.9930     3.6190    -0.0590 H     1 <1>   0.1500 
@<TRIPOS>BOND
  1   1   2  2   
  2   2   3  am  
  3   2   4  am  
  4   3   5  am  
  5   3  19  1   
  6   4   6  1   
  7   4  20  1   
  8   5   7  2   
  9   5   8  1   
 10   6   9  1   
 11   6  21  1   
 12   6  22  1   
 13   8  10  ar  
 14   8  11  ar  
 15   9  12  1   
 16   9  13  1   
 17   9  23  1   
 18  10  14  ar  
 19  10  24  1   
 20  11  15  ar  
 21  11  25  1   
 22  12  16  1   
 23  13  17  1   
 24  13  26  1   
 25  13  27  1   
 26  14  18  ar  
 27  14  28  1   
 28  15  18  ar  
 29  15  29  1   
 30  16  17  1   
 31  16  30  1   
 32  16  31  1   
 33  17  32  1   
 34  17  33  1   
 35  18  34  1   
@<TRIPOS>SUBSTRUCTURE
  1 ****   3 GROUP 4 **** **** 0

# MOE 2024.06 (io_trps.svl 2023.06)
