@<TRIPOS>MOLECULE
NONAME
47 49 1 0 0 
SMALL
USER_CHARGES


@<TRIPOS>ATOM
  1 F        0.4320    -1.5550    -1.8230 F     1 <1>  -0.3400 
  2 C        0.7300    -0.7350    -0.8230 C.3   1 <1>   1.1640 
  3 F        0.6330     0.4970    -1.3100 F     1 <1>  -0.3400 
  4 F       -0.2540    -0.8580     0.0610 F     1 <1>  -0.3400 
  5 C        2.1070    -1.0430    -0.2170 C.ar  1 <1>  -0.1440 
  6 C        3.2310    -0.3040    -0.5690 C.ar  1 <1>  -0.1500 
  7 C        2.2570    -2.0830     0.6970 C.ar  1 <1>  -0.1500 
  8 C        4.4790    -0.5780    -0.0290 C.ar  1 <1>   0.1000 
  9 C        3.4970    -2.3670     1.2440 C.ar  1 <1>  -0.1500 
 10 N        5.5700     0.1910    -0.4120 N.pl3 1 <1>  -0.8380 
 11 C        4.6000    -1.6180     0.8830 C.ar  1 <1>  -0.1500 
 12 C        6.6490    -0.4410    -1.2340 C.3   1 <1>   0.2090 
 13 C        6.0480     1.2620     0.5150 C.3   1 <1>   0.2090 
 14 C        7.8740    -0.8610    -0.3990 C.3   1 <1>   0.1400 
 15 C        7.2450     0.8000     1.3630 C.3   1 <1>   0.1400 
 16 N        8.3370     0.2350     0.5110 N.am  1 <1>  -0.6600 
 17 C        9.5270     0.9000     0.3490 C.2   1 <1>   0.6900 
 18 O        9.6330     2.0650     0.6750 O.2   1 <1>  -0.5700 
 19 N       10.6290     0.3120    -0.1900 N.am  1 <1>  -0.5470 
 20 C       11.0810    -1.0120    -0.1350 C.ar  1 <1>   0.1170 
 21 C       10.7480    -1.8590     0.9170 C.ar  1 <1>  -0.1500 
 22 C       11.8950    -1.4980    -1.1500 C.ar  1 <1>  -0.1500 
 23 C       11.2070    -3.1640     0.9530 C.ar  1 <1>  -0.1500 
 24 C       12.3570    -2.8010    -1.1190 C.ar  1 <1>  -0.1500 
 25 C       12.0180    -3.6430    -0.0730 C.ar  1 <1>   0.0830 
 26 O       12.5140    -4.9080    -0.1200 O.3   1 <1>  -0.3620 
 27 C       12.2810    -5.8190     0.9310 C.3   1 <1>   0.0400 
 28 H        3.1640     0.5050    -1.2750 H     1 <1>   0.1500 
 29 H        1.4070    -2.6790     0.9890 H     1 <1>   0.1500 
 30 H        3.6010    -3.1710     1.9520 H     1 <1>   0.1500 
 31 H        5.5600    -1.8350     1.3090 H     1 <1>   0.1500 
 32 H        6.9640     0.2630    -1.9840 H     1 <1>   0.0800 
 33 H        6.2520    -1.3020    -1.7420 H     1 <1>   0.0800 
 34 H        5.2430     1.5580     1.1660 H     1 <1>   0.0800 
 35 H        6.3380     2.1220    -0.0620 H     1 <1>   0.0800 
 36 H        8.6580    -1.1480    -1.0760 H     1 <1>   0.0800 
 37 H        7.6220    -1.7230     0.1910 H     1 <1>   0.0800 
 38 H        6.9150     0.0480     2.0550 H     1 <1>   0.0800 
 39 H        7.6110     1.6320     1.9390 H     1 <1>   0.0800 
 40 H       11.3350     1.0110    -0.4120 H     1 <1>   0.3700 
 41 H       10.1280    -1.4900     1.7150 H     1 <1>   0.1500 
 42 H       12.1640    -0.8560    -1.9680 H     1 <1>   0.1500 
 43 H       10.9270    -3.7860     1.7810 H     1 <1>   0.1500 
 44 H       12.9850    -3.1770    -1.9070 H     1 <1>   0.1500 
 45 H       12.7820    -6.7400     0.6910 H     1 <1>   0.0800 
 46 H       11.2230    -5.9910     1.0160 H     1 <1>   0.0800 
 47 H       12.6820    -5.4120     1.8420 H     1 <1>   0.0800 
@<TRIPOS>BOND
  1   1   2  1   
  2   2   3  1   
  3   2   4  1   
  4   2   5  1   
  5   5   6  ar  
  6   5   7  ar  
  7   6   8  ar  
  8   6  28  1   
  9   7   9  ar  
 10   7  29  1   
 11   8  10  1   
 12   8  11  ar  
 13   9  11  ar  
 14   9  30  1   
 15  10  12  1   
 16  10  13  1   
 17  11  31  1   
 18  12  14  1   
 19  12  32  1   
 20  12  33  1   
 21  13  15  1   
 22  13  34  1   
 23  13  35  1   
 24  14  16  1   
 25  14  36  1   
 26  14  37  1   
 27  15  16  1   
 28  15  38  1   
 29  15  39  1   
 30  16  17  am  
 31  17  18  2   
 32  17  19  am  
 33  19  20  1   
 34  19  40  1   
 35  20  21  ar  
 36  20  22  ar  
 37  21  23  ar  
 38  21  41  1   
 39  22  24  ar  
 40  22  42  1   
 41  23  25  ar  
 42  23  43  1   
 43  24  25  ar  
 44  24  44  1   
 45  25  26  1   
 46  26  27  1   
 47  27  45  1   
 48  27  46  1   
 49  27  47  1   
@<TRIPOS>SUBSTRUCTURE
  1 ****  14 GROUP 4 **** **** 0

# MOE 2024.06 (io_trps.svl 2023.06)
