@<TRIPOS>MOLECULE
NONAME
48 51 1 0 0 
SMALL
USER_CHARGES


@<TRIPOS>ATOM
  1 O        1.2090     2.7740     3.2300 O.2   1 <1>  -0.5700 
  2 C        0.6820     2.5610     2.1640 C.2   1 <1>   0.5690 
  3 N        1.3560     2.0050     1.1260 N.am  1 <1>  -0.7300 
  4 C       -0.7860     2.9310     1.9900 C.3   1 <1>   0.1810 
  5 C        2.7710     1.5870     1.1150 C.3   1 <1>   0.2200 
  6 O       -1.2550     2.6180     0.6820 O.3   1 <1>  -0.3630 
  7 C        3.5500     2.3690     0.0360 C.3   1 <1>  -0.0800 
  8 C        2.8770     0.0730     0.8290 C.3   1 <1>  -0.0800 
  9 C       -2.5400     2.8710     0.3230 C.ar  1 <1>   0.0820 
 10 C        5.0350     1.9570     0.1100 C.3   1 <1>  -0.1600 
 11 C        3.0170     2.0360    -1.3770 C.3   1 <1>  -0.1600 
 12 C        4.3630    -0.3350     0.9020 C.3   1 <1>  -0.1600 
 13 C        2.3440    -0.2580    -0.5840 C.3   1 <1>  -0.1600 
 14 C       -2.9020     2.5340    -0.9720 C.ar  1 <1>  -0.1500 
 15 C       -3.4860     3.4400     1.1730 C.ar  1 <1>  -0.1500 
 16 C        5.1770     0.4440    -0.1500 C.3   1 <1>  -0.0800 
 17 C        3.1430     0.5230    -1.6450 C.3   1 <1>  -0.0800 
 18 C       -4.1910     2.7560    -1.4250 C.ar  1 <1>  -0.1500 
 19 C       -4.7740     3.6610     0.7180 C.ar  1 <1>  -0.1500 
 20 C        4.6280     0.1210    -1.5520 C.3   1 <1>  -0.1600 
 21 C       -5.1370     3.3240    -0.5760 C.ar  1 <1>   0.0820 
 22 O       -6.4220     3.5770    -0.9350 O.3   1 <1>  -0.3620 
 23 C       -6.8910     3.2710    -2.2290 C.3   1 <1>   0.0400 
 24 H        0.8520     1.8510     0.2510 H     1 <1>   0.3700 
 25 H       -0.9040     3.9870     2.1500 H     1 <1>   0.0800 
 26 H       -1.3740     2.3820     2.7020 H     1 <1>   0.0800 
 27 H        3.2020     1.7950     2.0810 H     1 <1>   0.0800 
 28 H        3.4640     3.4240     0.2280 H     1 <1>   0.0800 
 29 H        2.3220    -0.4700     1.5750 H     1 <1>   0.0800 
 30 H        5.4320     2.1990     1.0810 H     1 <1>   0.0800 
 31 H        5.6030     2.5080    -0.6200 H     1 <1>   0.0800 
 32 H        3.5810     2.5820    -2.1130 H     1 <1>   0.0800 
 33 H        1.9900     2.3410    -1.4720 H     1 <1>   0.0800 
 34 H        4.4600    -1.3930     0.7290 H     1 <1>   0.0800 
 35 H        4.7490    -0.1300     1.8860 H     1 <1>   0.0800 
 36 H        1.2990    -0.0140    -0.6570 H     1 <1>   0.0800 
 37 H        2.4390    -1.3140    -0.7660 H     1 <1>   0.0800 
 38 H       -2.1680     2.0950    -1.6230 H     1 <1>   0.1500 
 39 H       -3.2460     3.7160     2.1820 H     1 <1>   0.1500 
 40 H        6.2150     0.1600    -0.0920 H     1 <1>   0.0800 
 41 H        2.7660     0.2940    -2.6280 H     1 <1>   0.0800 
 42 H       -4.4370     2.4820    -2.4330 H     1 <1>   0.1500 
 43 H       -5.5120     4.0990     1.3660 H     1 <1>   0.1500 
 44 H        4.7320    -0.9320    -1.7500 H     1 <1>   0.0800 
 45 H        5.1960     0.6500    -2.2970 H     1 <1>   0.0800 
 46 H       -7.9260     3.5550    -2.2850 H     1 <1>   0.0800 
 47 H       -6.7940     2.2120    -2.3950 H     1 <1>   0.0800 
 48 H       -6.3200     3.8290    -2.9490 H     1 <1>   0.0800 
@<TRIPOS>BOND
  1   1   2  2   
  2   2   3  am  
  3   2   4  1   
  4   3   5  1   
  5   3  24  1   
  6   4   6  1   
  7   4  25  1   
  8   4  26  1   
  9   5   7  1   
 10   5   8  1   
 11   5  27  1   
 12   6   9  1   
 13   7  10  1   
 14   7  11  1   
 15   7  28  1   
 16   8  12  1   
 17   8  13  1   
 18   8  29  1   
 19   9  14  ar  
 20   9  15  ar  
 21  10  16  1   
 22  10  30  1   
 23  10  31  1   
 24  11  17  1   
 25  11  32  1   
 26  11  33  1   
 27  12  16  1   
 28  12  34  1   
 29  12  35  1   
 30  13  17  1   
 31  13  36  1   
 32  13  37  1   
 33  14  18  ar  
 34  14  38  1   
 35  15  19  ar  
 36  15  39  1   
 37  16  20  1   
 38  16  40  1   
 39  17  20  1   
 40  17  41  1   
 41  18  21  ar  
 42  18  42  1   
 43  19  21  ar  
 44  19  43  1   
 45  20  44  1   
 46  20  45  1   
 47  21  22  1   
 48  22  23  1   
 49  23  46  1   
 50  23  47  1   
 51  23  48  1   
@<TRIPOS>SUBSTRUCTURE
  1 ****   6 GROUP 4 **** **** 0

# MOE 2024.06 (io_trps.svl 2023.06)
