@<TRIPOS>MOLECULE
NONAME
46 47 1 0 0 
SMALL
USER_CHARGES


@<TRIPOS>ATOM
  1 O       -0.0180     1.4260     2.6060 O.2   1 <1>  -0.5700 
  2 C        0.0330     2.2210     1.6870 C.2   1 <1>   0.5440 
  3 N       -1.1620     2.6610     1.1430 N.am  1 <1>  -0.6600 
  4 C        1.3220     2.6710     1.2150 C.ar  1 <1>   0.0860 
  5 C       -1.2570     3.3780    -0.1610 C.3   1 <1>   0.1400 
  6 C       -2.4660     2.0960     1.6000 C.3   1 <1>   0.1400 
  7 C        1.8590     2.2470    -0.0070 C.ar  1 <1>   0.0830 
  8 C        2.0800     3.5420     1.9980 C.ar  1 <1>  -0.1500 
  9 C       -1.8190     2.4270    -1.2380 C.3   1 <1>   0.3430 
 10 C       -3.0010     1.1250     0.5330 C.3   1 <1>   0.3430 
 11 O        1.1300     1.3900    -0.7650 O.3   1 <1>  -0.3630 
 12 C        3.1060     2.7040    -0.4210 C.ar  1 <1>  -0.1500 
 13 C        3.3190     3.9930     1.5870 C.ar  1 <1>  -0.1500 
 14 N       -3.1230     1.7840    -0.8210 N.4   1 <1>  -0.9590 
 15 C        1.7710     0.4770    -1.6300 C.3   1 <1>   0.1200 
 16 C        3.8390     3.5740     0.3660 C.ar  1 <1>   0.0830 
 17 C       -3.5800     0.8000    -1.8470 C.3   1 <1>   0.2630 
 18 C        0.7320    -0.5350    -2.1020 C.3   1 <1>  -0.2400 
 19 O        5.0400     3.9670    -0.1160 O.3   1 <1>  -0.3620 
 20 C        5.8960     4.8140     0.6170 C.3   1 <1>   0.1200 
 21 C        7.1620     5.0320    -0.2060 C.3   1 <1>  -0.2400 
 22 H       -0.2950     3.7440    -0.4720 H     1 <1>   0.0800 
 23 H       -1.9040     4.2310    -0.0510 H     1 <1>   0.0800 
 24 H       -3.1680     2.8950     1.7620 H     1 <1>   0.0800 
 25 H       -2.3550     1.5720     2.5340 H     1 <1>   0.0800 
 26 H        1.6840     3.8600     2.9480 H     1 <1>   0.1500 
 27 H       -1.0860     1.6600    -1.4210 H     1 <1>   0.0800 
 28 H       -1.9560     2.9750    -2.1550 H     1 <1>   0.0800 
 29 H       -3.9600     0.7480     0.8480 H     1 <1>   0.0800 
 30 H       -2.3200     0.2910     0.4730 H     1 <1>   0.0800 
 31 H        3.5350     2.4040    -1.3570 H     1 <1>   0.1500 
 32 H        3.8650     4.6630     2.2250 H     1 <1>   0.1500 
 33 H       -3.8250     2.5320    -0.7370 H     1 <1>   0.4500 
 34 H        2.5600    -0.0140    -1.0840 H     1 <1>   0.0800 
 35 H        2.1820     1.0180    -2.4650 H     1 <1>   0.0800 
 36 H       -2.8580     0.0060    -1.9500 H     1 <1>   0.0800 
 37 H       -3.7010     1.2830    -2.8030 H     1 <1>   0.0800 
 38 H       -4.5260     0.3700    -1.5590 H     1 <1>   0.0800 
 39 H        0.3050    -1.0470    -1.2570 H     1 <1>   0.0800 
 40 H        1.2050    -1.2640    -2.7350 H     1 <1>   0.0800 
 41 H       -0.0400    -0.0460    -2.6660 H     1 <1>   0.0800 
 42 H        6.1280     4.3370     1.5530 H     1 <1>   0.0800 
 43 H        5.3880     5.7470     0.7880 H     1 <1>   0.0800 
 44 H        7.6520     4.0920    -0.3850 H     1 <1>   0.0800 
 45 H        7.8370     5.6760     0.3270 H     1 <1>   0.0800 
 46 H        6.9160     5.4930    -1.1460 H     1 <1>   0.0800 
@<TRIPOS>BOND
  1   1   2  2   
  2   2   3  am  
  3   2   4  1   
  4   3   5  1   
  5   3   6  1   
  6   4   7  ar  
  7   4   8  ar  
  8   5   9  1   
  9   5  22  1   
 10   5  23  1   
 11   6  10  1   
 12   6  24  1   
 13   6  25  1   
 14   7  11  1   
 15   7  12  ar  
 16   8  13  ar  
 17   8  26  1   
 18   9  14  1   
 19   9  27  1   
 20   9  28  1   
 21  10  14  1   
 22  10  29  1   
 23  10  30  1   
 24  11  15  1   
 25  12  16  ar  
 26  12  31  1   
 27  13  16  ar  
 28  13  32  1   
 29  14  17  1   
 30  14  33  1   
 31  15  18  1   
 32  15  34  1   
 33  15  35  1   
 34  16  19  1   
 35  17  36  1   
 36  17  37  1   
 37  17  38  1   
 38  18  39  1   
 39  18  40  1   
 40  18  41  1   
 41  19  20  1   
 42  20  21  1   
 43  20  42  1   
 44  20  43  1   
 45  21  44  1   
 46  21  45  1   
 47  21  46  1   
@<TRIPOS>SUBSTRUCTURE
  1 ****   7 GROUP 4 **** **** 0

# MOE 2024.06 (io_trps.svl 2023.06)
