@<TRIPOS>MOLECULE
NONAME
40 41 1 0 0 
SMALL
USER_CHARGES


@<TRIPOS>ATOM
  1 O       -0.7030    -0.0960     2.3870 O.3   1 <1>  -0.5320 
  2 C       -1.6250    -0.4620     1.4770 C.ar  1 <1>   0.0830 
  3 C       -1.4150    -1.5690     0.6620 C.ar  1 <1>   0.1670 
  4 C       -2.7900     0.2660     1.3510 C.ar  1 <1>  -0.1500 
  5 N       -2.2710    -1.9870    -0.2660 N.ar  1 <1>  -0.6200 
  6 C       -0.1270    -2.3690     0.8220 C.3   1 <1>   0.4860 
  7 C       -3.6970    -0.1600     0.4010 C.ar  1 <1>  -0.1440 
  8 C       -3.3890    -1.2770    -0.3670 C.ar  1 <1>   0.1600 
  9 N        0.3250    -2.8600    -0.5200 N.4   1 <1>  -0.9590 
 10 C       -5.0110     0.5860     0.1960 C.3   1 <1>   0.1270 
 11 C        1.1820    -4.0760    -0.4330 C.3   1 <1>   0.2630 
 12 C        0.9490    -1.7640    -1.3170 C.3   1 <1>   0.2630 
 13 C       -6.1780    -0.3690    -0.0120 C.ar  1 <1>  -0.1430 
 14 C       -6.5430    -1.2500     0.9940 C.ar  1 <1>  -0.1500 
 15 C       -6.8850    -0.3750    -1.2050 C.ar  1 <1>  -0.1500 
 16 C       -7.5980    -2.1270     0.8080 C.ar  1 <1>  -0.1500 
 17 C       -7.9400    -1.2520    -1.3890 C.ar  1 <1>  -0.1500 
 18 C       -8.3010    -2.1340    -0.3850 C.ar  1 <1>  -0.1430 
 19 C       -9.4590    -3.0940    -0.5870 C.3   1 <1>  -0.0970 
 20 H       -0.9730     0.6740     2.9280 H     1 <1>   0.4500 
 21 H       -2.9850     1.1270     1.9660 H     1 <1>   0.1500 
 22 H       -0.3360    -3.2070     1.4650 H     1 <1>   0.0800 
 23 H        0.6360    -1.7640     1.2830 H     1 <1>   0.0800 
 24 H       -4.1050    -1.6070    -1.1040 H     1 <1>   0.1500 
 25 H       -0.5820    -3.0890    -0.9760 H     1 <1>   0.4500 
 26 H       -4.9130     1.2400    -0.6520 H     1 <1>   0.0800 
 27 H       -5.2250     1.2000     1.0530 H     1 <1>   0.0800 
 28 H        2.1040    -3.8500     0.0780 H     1 <1>   0.0800 
 29 H        1.4150    -4.4380    -1.4210 H     1 <1>   0.0800 
 30 H        0.6680    -4.8570     0.1040 H     1 <1>   0.0800 
 31 H        1.8580    -1.4260    -0.8470 H     1 <1>   0.0800 
 32 H        0.2690    -0.9310    -1.3970 H     1 <1>   0.0800 
 33 H        1.1810    -2.1110    -2.3110 H     1 <1>   0.0800 
 34 H       -6.0080    -1.2600     1.9270 H     1 <1>   0.1500 
 35 H       -6.6230     0.3000    -2.0010 H     1 <1>   0.1500 
 36 H       -7.8680    -2.8050     1.5990 H     1 <1>   0.1500 
 37 H       -8.4800    -1.2440    -2.3190 H     1 <1>   0.1500 
 38 H       -9.3140    -3.9870    -0.0060 H     1 <1>   0.0800 
 39 H       -9.5390    -3.3730    -1.6220 H     1 <1>   0.0800 
 40 H      -10.3770    -2.6260    -0.2810 H     1 <1>   0.0800 
@<TRIPOS>BOND
  1   1   2  1   
  2   1  20  1   
  3   2   3  ar  
  4   2   4  ar  
  5   3   5  ar  
  6   3   6  1   
  7   4   7  ar  
  8   4  21  1   
  9   5   8  ar  
 10   6   9  1   
 11   6  22  1   
 12   6  23  1   
 13   7   8  ar  
 14   7  10  1   
 15   8  24  1   
 16   9  11  1   
 17   9  12  1   
 18   9  25  1   
 19  10  13  1   
 20  10  26  1   
 21  10  27  1   
 22  11  28  1   
 23  11  29  1   
 24  11  30  1   
 25  12  31  1   
 26  12  32  1   
 27  12  33  1   
 28  13  14  ar  
 29  13  15  ar  
 30  14  16  ar  
 31  14  34  1   
 32  15  17  ar  
 33  15  35  1   
 34  16  18  ar  
 35  16  36  1   
 36  17  18  ar  
 37  17  37  1   
 38  18  19  1   
 39  19  38  1   
 40  19  39  1   
 41  19  40  1   
@<TRIPOS>SUBSTRUCTURE
  1 ****   8 GROUP 4 **** **** 0

# MOE 2024.06 (io_trps.svl 2023.06)
