@<TRIPOS>MOLECULE
NONAME
47 49 1 0 0 
SMALL
USER_CHARGES


@<TRIPOS>ATOM
  1 O       -1.9470     0.7160    -1.2580 O.3   1 <1>  -0.3630 
  2 C       -1.2720     1.6190    -0.4960 C.ar  1 <1>   0.0830 
  3 C       -1.3160    -0.0140    -2.2900 C.3   1 <1>   0.0400 
  4 C       -1.9680     2.2360     0.5520 C.ar  1 <1>   0.0280 
  5 C        0.0620     1.9430    -0.7370 C.ar  1 <1>  -0.1500 
  6 C       -1.2900     3.1690     1.3340 C.ar  1 <1>  -0.1500 
  7 C       -3.3530     1.9150     0.8220 C.2   1 <1>  -0.1780 
  8 C        0.7090     2.8750     0.0520 C.ar  1 <1>  -0.1500 
  9 C        0.0310     3.4890     1.0890 C.ar  1 <1>  -0.1500 
 10 C       -4.2960     2.7330     1.3180 C.2   1 <1>  -0.2880 
 11 C       -5.7310     2.3310     1.5420 C.3   1 <1>   0.4810 
 12 N       -6.4660     2.7240     0.3250 N.4   1 <1>  -0.9590 
 13 C       -6.6310     4.2210     0.2260 C.3   1 <1>   0.3430 
 14 C       -7.8060     2.0390     0.2500 C.3   1 <1>   0.3430 
 15 C       -7.4290     4.6520    -1.0240 C.3   1 <1>   0.2090 
 16 C       -8.6170     2.4500    -1.0000 C.3   1 <1>   0.2090 
 17 N       -8.7360     3.9340    -1.1130 N.pl3 1 <1>  -0.8380 
 18 C       -9.7700     4.5000    -0.3990 C.ar  1 <1>   0.4100 
 19 N       -9.6700     4.4450     0.9250 N.ar  1 <1>  -0.6200 
 20 C      -10.8360     5.0840    -1.0740 C.ar  1 <1>  -0.1500 
 21 C      -10.6760     4.9960     1.5910 C.ar  1 <1>   0.1600 
 22 C      -11.8690     5.6510    -0.3670 C.ar  1 <1>  -0.1500 
 23 C      -11.7760     5.5990     1.0090 C.ar  1 <1>  -0.1500 
 24 H       -2.0400    -0.6830    -2.7180 H     1 <1>   0.0800 
 25 H       -0.5010    -0.5770    -1.8720 H     1 <1>   0.0800 
 26 H       -0.9650     0.6730    -3.0400 H     1 <1>   0.0800 
 27 H        0.6160     1.4850    -1.5340 H     1 <1>   0.1500 
 28 H       -1.7960     3.6480     2.1520 H     1 <1>   0.1500 
 29 H       -3.6020     0.8990     0.5640 H     1 <1>   0.1500 
 30 H        1.7390     3.1230    -0.1380 H     1 <1>   0.1500 
 31 H        0.5380     4.2120     1.7060 H     1 <1>   0.1500 
 32 H       -4.0950     3.7560     1.5830 H     1 <1>   0.1500 
 33 H       -6.1390     2.8060     2.4200 H     1 <1>   0.0800 
 34 H       -5.7820     1.2610     1.6670 H     1 <1>   0.0800 
 35 H       -5.8900     2.4210    -0.4710 H     1 <1>   0.4500 
 36 H       -7.1580     4.5820     1.0940 H     1 <1>   0.0800 
 37 H       -5.6650     4.6980     0.2040 H     1 <1>   0.0800 
 38 H       -7.6750     0.9700     0.2460 H     1 <1>   0.0800 
 39 H       -8.3900     2.2990     1.1180 H     1 <1>   0.0800 
 40 H       -6.8540     4.4590    -1.9120 H     1 <1>   0.0800 
 41 H       -7.6100     5.7130    -0.9770 H     1 <1>   0.0800 
 42 H       -9.6030     2.0190    -0.9370 H     1 <1>   0.0800 
 43 H       -8.1480     2.0620    -1.8870 H     1 <1>   0.0800 
 44 H      -10.8340     5.0840    -2.1480 H     1 <1>   0.1500 
 45 H      -10.6240     4.9670     2.6670 H     1 <1>   0.1500 
 46 H      -12.7090     6.1110    -0.8590 H     1 <1>   0.1500 
 47 H      -12.5510     6.0240     1.6220 H     1 <1>   0.1500 
@<TRIPOS>BOND
  1   1   2  1   
  2   1   3  1   
  3   2   4  ar  
  4   2   5  ar  
  5   3  24  1   
  6   3  25  1   
  7   3  26  1   
  8   4   6  ar  
  9   4   7  1   
 10   5   8  ar  
 11   5  27  1   
 12   6   9  ar  
 13   6  28  1   
 14   7  10  2   
 15   7  29  1   
 16   8   9  ar  
 17   8  30  1   
 18   9  31  1   
 19  10  11  1   
 20  10  32  1   
 21  11  12  1   
 22  11  33  1   
 23  11  34  1   
 24  12  13  1   
 25  12  14  1   
 26  12  35  1   
 27  13  15  1   
 28  13  36  1   
 29  13  37  1   
 30  14  16  1   
 31  14  38  1   
 32  14  39  1   
 33  15  17  1   
 34  15  40  1   
 35  15  41  1   
 36  16  17  1   
 37  16  42  1   
 38  16  43  1   
 39  17  18  1   
 40  18  19  ar  
 41  18  20  ar  
 42  19  21  ar  
 43  20  22  ar  
 44  20  44  1   
 45  21  23  ar  
 46  21  45  1   
 47  22  23  ar  
 48  22  46  1   
 49  23  47  1   
@<TRIPOS>SUBSTRUCTURE
  1 ****  12 GROUP 4 **** **** 0

# MOE 2024.06 (io_trps.svl 2023.06)
