@<TRIPOS>MOLECULE
NONAME
50 52 1 0 0 
SMALL
USER_CHARGES


@<TRIPOS>ATOM
  1 O       -0.1340    -0.3440     1.2510 O.2   1 <1>  -0.5700 
  2 C       -0.2250    -0.9860     0.2240 C.2   1 <1>   0.6900 
  3 N        0.8600    -1.4600    -0.4500 N.am  1 <1>  -0.5470 
  4 N       -1.4540    -1.2520    -0.2870 N.am  1 <1>  -0.7300 
  5 C        2.2320    -1.2530    -0.2470 C.ar  1 <1>   0.1170 
  6 C       -2.6980    -0.8400     0.3750 C.3   1 <1>   0.2200 
  7 C        3.1300    -2.1870    -0.7530 C.ar  1 <1>  -0.1500 
  8 C        2.7420    -0.1430     0.4200 C.ar  1 <1>  -0.1500 
  9 C       -3.8260    -1.8020     0.0140 C.3   1 <1>  -0.1600 
 10 C       -3.0480     0.5860    -0.0450 C.3   1 <1>  -0.1600 
 11 C        4.4970    -2.0290    -0.6000 C.ar  1 <1>  -0.1440 
 12 C        4.1050     0.0220     0.5790 C.ar  1 <1>  -0.1500 
 13 C       -5.1340    -1.3430     0.6540 C.3   1 <1>   0.3430 
 14 C       -4.3570     1.0210     0.6030 C.3   1 <1>   0.3430 
 15 C        4.9830    -0.9190     0.0710 C.ar  1 <1>  -0.1500 
 16 C        5.4670    -3.0580    -1.1520 C.3   1 <1>  -0.0970 
 17 N       -5.4410     0.0620     0.2420 N.4   1 <1>  -0.9590 
 18 C       -6.7570     0.5090     0.7780 C.3   1 <1>   0.4860 
 19 C       -7.8410    -0.3530     0.1630 C.ar  1 <1>  -0.1440 
 20 C       -8.4690    -1.3320     0.9200 C.ar  1 <1>  -0.1500 
 21 C       -8.2090    -0.1750    -1.1640 C.ar  1 <1>  -0.1500 
 22 C       -9.4440    -2.1330     0.3520 C.ar  1 <1>  -0.1500 
 23 C       -9.1840    -0.9770    -1.7290 C.ar  1 <1>  -0.1500 
 24 C       -9.8000    -1.9580    -0.9730 C.ar  1 <1>  -0.1500 
 25 H        0.6430    -2.1640    -1.1450 H     1 <1>   0.3700 
 26 H       -1.5240    -1.6150    -1.2350 H     1 <1>   0.3700 
 27 H       -2.5460    -0.8650     1.4440 H     1 <1>   0.0800 
 28 H        2.7530    -3.0500    -1.2680 H     1 <1>   0.1500 
 29 H        2.0760     0.6010     0.8160 H     1 <1>   0.1500 
 30 H       -3.5860    -2.7850     0.3820 H     1 <1>   0.0800 
 31 H       -3.9500    -1.8610    -1.0520 H     1 <1>   0.0800 
 32 H       -3.1280     0.6600    -1.1150 H     1 <1>   0.0800 
 33 H       -2.2650     1.2510     0.2800 H     1 <1>   0.0800 
 34 H        4.4840     0.8840     1.1000 H     1 <1>   0.1500 
 35 H       -5.0480    -1.3990     1.7270 H     1 <1>   0.0800 
 36 H       -5.9310    -2.0030     0.3450 H     1 <1>   0.0800 
 37 H       -4.6100     2.0140     0.2670 H     1 <1>   0.0800 
 38 H       -4.2320     1.0480     1.6750 H     1 <1>   0.0800 
 39 H        6.0420    -0.7840     0.2010 H     1 <1>   0.1500 
 40 H        4.9710    -3.7300    -1.8300 H     1 <1>   0.0800 
 41 H        5.8880    -3.6300    -0.3450 H     1 <1>   0.0800 
 42 H        6.2630    -2.5670    -1.6830 H     1 <1>   0.0800 
 43 H       -5.5440     0.0540    -0.7810 H     1 <1>   0.4500 
 44 H       -6.9360     1.5400     0.5170 H     1 <1>   0.0800 
 45 H       -6.7770     0.4190     1.8510 H     1 <1>   0.0800 
 46 H       -8.2150    -1.4840     1.9560 H     1 <1>   0.1500 
 47 H       -7.7530     0.5870    -1.7730 H     1 <1>   0.1500 
 48 H       -9.9320    -2.8930     0.9390 H     1 <1>   0.1500 
 49 H       -9.4710    -0.8400    -2.7590 H     1 <1>   0.1500 
 50 H      -10.5600    -2.5810    -1.4130 H     1 <1>   0.1500 
@<TRIPOS>BOND
  1   1   2  2   
  2   2   3  am  
  3   2   4  am  
  4   3   5  1   
  5   3  25  1   
  6   4   6  1   
  7   4  26  1   
  8   5   7  ar  
  9   5   8  ar  
 10   6   9  1   
 11   6  10  1   
 12   6  27  1   
 13   7  11  ar  
 14   7  28  1   
 15   8  12  ar  
 16   8  29  1   
 17   9  13  1   
 18   9  30  1   
 19   9  31  1   
 20  10  14  1   
 21  10  32  1   
 22  10  33  1   
 23  11  15  ar  
 24  11  16  1   
 25  12  15  ar  
 26  12  34  1   
 27  13  17  1   
 28  13  35  1   
 29  13  36  1   
 30  14  17  1   
 31  14  37  1   
 32  14  38  1   
 33  15  39  1   
 34  16  40  1   
 35  16  41  1   
 36  16  42  1   
 37  17  18  1   
 38  17  43  1   
 39  18  19  1   
 40  18  44  1   
 41  18  45  1   
 42  19  20  ar  
 43  19  21  ar  
 44  20  22  ar  
 45  20  46  1   
 46  21  23  ar  
 47  21  47  1   
 48  22  24  ar  
 49  22  48  1   
 50  23  24  ar  
 51  23  49  1   
 52  24  50  1   
@<TRIPOS>SUBSTRUCTURE
  1 ****   6 GROUP 4 **** **** 0

# MOE 2024.06 (io_trps.svl 2023.06)
