@<TRIPOS>MOLECULE
NONAME
53 54 1 0 0 
SMALL
USER_CHARGES


@<TRIPOS>ATOM
  1 S       -0.0080    -0.4150     0.2850 S.3   1 <1>  -0.0800 
  2 C        1.0170     0.9970     0.0640 C.2   1 <1>   0.1040 
  3 C       -1.4540     0.5580     0.1900 C.2   1 <1>  -0.1400 
  4 N        2.3990     0.8450     0.0480 N.am  1 <1>  -0.4940 
  5 C        0.2620     2.1360    -0.0820 C.2   1 <1>  -0.0860 
  6 C       -1.1570     1.8530     0.0190 C.2   1 <1>  -0.1810 
  7 C       -2.8120    -0.0990     0.3070 C.3   1 <1>   0.0200 
  8 C        3.2080    -0.2520     0.2370 C.2   1 <1>   0.5690 
  9 C        0.8050     3.4530    -0.3200 C.2   1 <1>   0.8060 
 10 C       -2.2780     2.8860    -0.0610 C.3   1 <1>   0.0210 
 11 C       -3.8930     0.8920    -0.1640 C.3   1 <1>  -0.0800 
 12 O        2.8160    -1.3620     0.5050 O.2   1 <1>  -0.5700 
 13 C        4.7300    -0.1020     0.1080 C.3   1 <1>   0.4040 
 14 O        0.1370     4.4550    -0.4800 O.2   1 <1>  -0.5700 
 15 O        2.1450     3.5760    -0.3750 O.3   1 <1>  -0.4300 
 16 C       -3.6310     2.3040     0.3990 C.3   1 <1>  -0.1600 
 17 C       -5.2920     0.4000     0.2270 C.3   1 <1>  -0.2400 
 18 N        5.4060    -1.4430    -0.0510 N.4   1 <1>  -0.9060 
 19 C        2.7870     4.8270    -0.5570 C.3   1 <1>   0.1200 
 20 C        6.8320    -1.5450     0.2350 C.3   1 <1>   0.5030 
 21 C        2.9590     5.4950     0.8050 C.3   1 <1>  -0.2400 
 22 C        7.6060    -0.6030    -0.6840 C.3   1 <1>  -0.2400 
 23 C        7.0830    -1.2120     1.7050 C.3   1 <1>  -0.2400 
 24 C        7.2240    -2.9910    -0.0460 C.3   1 <1>  -0.2400 
 25 H        2.8700     1.7390    -0.1200 H     1 <1>   0.3700 
 26 H       -2.9720    -0.3770     1.3330 H     1 <1>   0.0800 
 27 H       -2.8430    -0.9880    -0.2980 H     1 <1>   0.0800 
 28 H       -2.3590     3.2310    -1.0770 H     1 <1>   0.0800 
 29 H       -2.0480     3.7320     0.5630 H     1 <1>   0.0800 
 30 H       -3.8440     0.9510    -1.2390 H     1 <1>   0.0800 
 31 H        5.0850     0.3810     1.0010 H     1 <1>   0.0800 
 32 H        4.9580     0.5260    -0.7360 H     1 <1>   0.0800 
 33 H       -4.4180     2.9740     0.0980 H     1 <1>   0.0800 
 34 H       -3.6360     2.2550     1.4750 H     1 <1>   0.0800 
 35 H       -5.3890     0.3420     1.2970 H     1 <1>   0.0800 
 36 H       -5.4740    -0.5760    -0.1880 H     1 <1>   0.0800 
 37 H       -6.0420     1.0720    -0.1500 H     1 <1>   0.0800 
 38 H        5.2240    -1.8080    -0.9910 H     1 <1>   0.4500 
 39 H        4.8890    -2.0880     0.5680 H     1 <1>   0.4500 
 40 H        2.2060     5.4400    -1.2270 H     1 <1>   0.0800 
 41 H        3.7470     4.6430    -1.0060 H     1 <1>   0.0800 
 42 H        1.9990     5.7010     1.2450 H     1 <1>   0.0800 
 43 H        3.4760     6.4300     0.6850 H     1 <1>   0.0800 
 44 H        3.5330     4.8700     1.4660 H     1 <1>   0.0800 
 45 H        8.6630    -0.7370    -0.5300 H     1 <1>   0.0800 
 46 H        7.3820     0.4280    -0.4770 H     1 <1>   0.0800 
 47 H        7.3990    -0.8130    -1.7180 H     1 <1>   0.0800 
 48 H        6.8770    -0.1810     1.9230 H     1 <1>   0.0800 
 49 H        8.1190    -1.3850     1.9420 H     1 <1>   0.0800 
 50 H        6.4930    -1.8390     2.3500 H     1 <1>   0.0800 
 51 H        7.0510    -3.2500    -1.0750 H     1 <1>   0.0800 
 52 H        6.6800    -3.6710     0.5860 H     1 <1>   0.0800 
 53 H        8.2730    -3.1320     0.1530 H     1 <1>   0.0800 
@<TRIPOS>BOND
  1   1   2  1   
  2   1   3  1   
  3   2   4  1   
  4   2   5  2   
  5   3   6  2   
  6   3   7  1   
  7   4   8  am  
  8   4  25  1   
  9   5   6  1   
 10   5   9  1   
 11   6  10  1   
 12   7  11  1   
 13   7  26  1   
 14   7  27  1   
 15   8  12  2   
 16   8  13  1   
 17   9  14  2   
 18   9  15  1   
 19  10  16  1   
 20  10  28  1   
 21  10  29  1   
 22  11  16  1   
 23  11  17  1   
 24  11  30  1   
 25  13  18  1   
 26  13  31  1   
 27  13  32  1   
 28  15  19  1   
 29  16  33  1   
 30  16  34  1   
 31  17  35  1   
 32  17  36  1   
 33  17  37  1   
 34  18  20  1   
 35  18  38  1   
 36  18  39  1   
 37  19  21  1   
 38  19  40  1   
 39  19  41  1   
 40  20  22  1   
 41  20  23  1   
 42  20  24  1   
 43  21  42  1   
 44  21  43  1   
 45  21  44  1   
 46  22  45  1   
 47  22  46  1   
 48  22  47  1   
 49  23  48  1   
 50  23  49  1   
 51  23  50  1   
 52  24  51  1   
 53  24  52  1   
 54  24  53  1   
@<TRIPOS>SUBSTRUCTURE
  1 ****   2 GROUP 4 **** **** 0

# MOE 2024.06 (io_trps.svl 2023.06)
