@<TRIPOS>MOLECULE
NONAME
29 29 1 0 0 
SMALL
USER_CHARGES


@<TRIPOS>ATOM
  1 S        0.3770    -0.4420     0.0030 S.3   1 <1>  -0.4100 
  2 C       -1.3620    -0.9420     0.0000 C.3   1 <1>   0.0700 
  3 C       -1.4120    -2.4710     0.0050 C.3   1 <1>  -0.1600 
  4 C       -2.8600    -2.9800     0.0030 C.3   1 <1>  -0.1600 
  5 C       -2.9020    -4.5140     0.0080 C.3   1 <1>  -0.1600 
  6 C       -4.3420    -5.0290     0.0060 C.3   1 <1>   0.1200 
  7 O       -4.3040    -6.4370     0.0110 O.3   1 <1>  -0.3620 
  8 C       -5.4430    -7.1740     0.0100 C.ar  1 <1>   0.0820 
  9 C       -6.7240    -6.6180     0.0050 C.ar  1 <1>  -0.1500 
 10 C       -5.2860    -8.5540     0.0150 C.ar  1 <1>  -0.1500 
 11 C       -7.8370    -7.4440     0.0050 C.ar  1 <1>  -0.1500 
 12 C       -6.3920    -9.3880     0.0150 C.ar  1 <1>  -0.1500 
 13 C       -7.6490    -8.8130     0.0100 C.ar  1 <1>   0.1900 
 14 F       -8.6980    -9.5920     0.0100 F     1 <1>  -0.1900 
 15 H        0.2930     0.9210    -0.0010 H     1 <1>   0.1800 
 16 H       -1.8130    -0.5310    -0.8860 H     1 <1>   0.0800 
 17 H       -1.8180    -0.5250     0.8810 H     1 <1>   0.0800 
 18 H       -0.9020    -2.8360     0.8800 H     1 <1>   0.0800 
 19 H       -0.8980    -2.8420    -0.8640 H     1 <1>   0.0800 
 20 H       -3.3670    -2.6100    -0.8720 H     1 <1>   0.0800 
 21 H       -3.3720    -2.6050     0.8730 H     1 <1>   0.0800 
 22 H       -2.4000    -4.8840     0.8850 H     1 <1>   0.0800 
 23 H       -2.3950    -4.8900    -0.8640 H     1 <1>   0.0800 
 24 H       -4.8600    -4.7060    -0.8800 H     1 <1>   0.0800 
 25 H       -4.8650    -4.7000     0.8880 H     1 <1>   0.0800 
 26 H       -6.8730    -5.5550     0.0010 H     1 <1>   0.1500 
 27 H       -4.2930    -8.9670     0.0190 H     1 <1>   0.1500 
 28 H       -8.8330    -7.0390     0.0010 H     1 <1>   0.1500 
 29 H       -6.2860   -10.4570     0.0190 H     1 <1>   0.1500 
@<TRIPOS>BOND
  1   1   2  1   
  2   1  15  1   
  3   2   3  1   
  4   2  16  1   
  5   2  17  1   
  6   3   4  1   
  7   3  18  1   
  8   3  19  1   
  9   4   5  1   
 10   4  20  1   
 11   4  21  1   
 12   5   6  1   
 13   5  22  1   
 14   5  23  1   
 15   6   7  1   
 16   6  24  1   
 17   6  25  1   
 18   7   8  1   
 19   8   9  ar  
 20   8  10  ar  
 21   9  11  ar  
 22   9  26  1   
 23  10  12  ar  
 24  10  27  1   
 25  11  13  ar  
 26  11  28  1   
 27  12  13  ar  
 28  12  29  1   
 29  13  14  1   
@<TRIPOS>SUBSTRUCTURE
  1 ****   7 GROUP 4 **** **** 0

# MOE 2024.06 (io_trps.svl 2023.06)
