@<TRIPOS>MOLECULE
NONAME
35 36 1 0 0 
SMALL
USER_CHARGES


@<TRIPOS>ATOM
  1 S       -0.0180    -2.1690     2.1620 S.2   1 <1>  -0.6770 
  2 P        0.2360    -1.8800     0.2630 P.3   1 <1>   1.4760 
  3 O        1.7270    -1.4780    -0.1190 O.3   1 <1>  -0.5510 
  4 O        0.1130    -3.1900    -0.6320 O.3   1 <1>  -0.5510 
  5 N       -0.7900    -0.7160    -0.4410 N.am  1 <1>  -0.4330 
  6 C        2.3330    -2.4530    -0.8900 C.3   1 <1>   0.2000 
  7 C        1.1940    -3.3050    -1.4900 C.3   1 <1>   0.1200 
  8 C       -2.1810    -0.8580    -0.3630 C.ar  1 <1>   0.1170 
  9 C       -0.2350     0.0290    -1.4290 C.2   1 <1>   0.7800 
 10 C        3.2570    -3.2560     0.0270 C.3   1 <1>  -0.2400 
 11 C       -2.8420    -0.6850     0.8490 C.ar  1 <1>  -0.1500 
 12 C       -2.9310    -1.1650    -1.4940 C.ar  1 <1>  -0.1500 
 13 O        0.2110    -0.4710    -2.4380 O.2   1 <1>  -0.5700 
 14 O       -0.1890     1.3570    -1.3160 O.3   1 <1>  -0.4300 
 15 C       -4.2170    -0.8160     0.9280 C.ar  1 <1>  -0.1500 
 16 C       -4.3060    -1.2940    -1.4170 C.ar  1 <1>  -0.1500 
 17 C       -0.6890     2.0660    -0.2040 C.3   1 <1>   0.1200 
 18 C       -4.9510    -1.1190    -0.2050 C.ar  1 <1>  -0.1500 
 19 C       -0.3640     3.5410    -0.4050 C.3   1 <1>  -0.2400 
 20 H        2.9050    -1.9710    -1.6650 H     1 <1>   0.0800 
 21 H        0.9050    -2.9190    -2.4530 H     1 <1>   0.0800 
 22 H        1.4620    -4.3430    -1.5910 H     1 <1>   0.0800 
 23 H        2.7000    -3.7370     0.8120 H     1 <1>   0.0800 
 24 H        3.9950    -2.6060     0.4630 H     1 <1>   0.0800 
 25 H        3.7680    -4.0120    -0.5400 H     1 <1>   0.0800 
 26 H       -2.2860    -0.4500     1.7390 H     1 <1>   0.1500 
 27 H       -2.4410    -1.3080    -2.4420 H     1 <1>   0.1500 
 28 H       -4.7160    -0.6830     1.8730 H     1 <1>   0.1500 
 29 H       -4.8750    -1.5320    -2.2990 H     1 <1>   0.1500 
 30 H       -0.2180     1.6900     0.6880 H     1 <1>   0.0800 
 31 H       -1.7550     1.9160    -0.1520 H     1 <1>   0.0800 
 32 H       -6.0210    -1.2210    -0.1430 H     1 <1>   0.1500 
 33 H        0.7010     3.6800    -0.4700 H     1 <1>   0.0800 
 34 H       -0.7340     4.1130     0.4270 H     1 <1>   0.0800 
 35 H       -0.8290     3.9040    -1.3040 H     1 <1>   0.0800 
@<TRIPOS>BOND
  1   1   2  2   
  2   2   3  1   
  3   2   4  1   
  4   2   5  1   
  5   3   6  1   
  6   4   7  1   
  7   5   8  1   
  8   5   9  am  
  9   6   7  1   
 10   6  10  1   
 11   6  20  1   
 12   7  21  1   
 13   7  22  1   
 14   8  11  ar  
 15   8  12  ar  
 16   9  13  2   
 17   9  14  1   
 18  10  23  1   
 19  10  24  1   
 20  10  25  1   
 21  11  15  ar  
 22  11  26  1   
 23  12  16  ar  
 24  12  27  1   
 25  14  17  1   
 26  15  18  ar  
 27  15  28  1   
 28  16  18  ar  
 29  16  29  1   
 30  17  19  1   
 31  17  30  1   
 32  17  31  1   
 33  18  32  1   
 34  19  33  1   
 35  19  34  1   
 36  19  35  1   
@<TRIPOS>SUBSTRUCTURE
  1 ****   5 GROUP 4 **** **** 0

# MOE 2024.06 (io_trps.svl 2023.06)
