@<TRIPOS>MOLECULE
NONAME
39 39 1 0 0 
SMALL
USER_CHARGES


@<TRIPOS>ATOM
  1 CL      -2.2510     0.9600     1.7190 Cl    1 <1>  -0.1770 
  2 C       -1.1720     2.0910     0.9350 C.ar  1 <1>   0.1770 
  3 C       -1.5020     2.5840    -0.3160 C.ar  1 <1>  -0.1440 
  4 C       -0.0170     2.4830     1.5910 C.ar  1 <1>  -0.1500 
  5 C       -0.6300     3.4950    -0.8850 C.ar  1 <1>   0.1900 
  6 C       -2.7540     2.1410    -1.0410 C.3   1 <1>   0.4860 
  7 C        0.8390     3.3950     0.9900 C.ar  1 <1>  -0.1500 
  8 F       -0.9240     3.9920    -2.0560 F     1 <1>  -0.1900 
  9 C        0.5320     3.9090    -0.2590 C.ar  1 <1>  -0.1500 
 10 N       -3.9530     2.6500    -0.3020 N.4   1 <1>  -0.9590 
 11 C       -5.1840     1.8650    -0.6840 C.3   1 <1>   0.3430 
 12 C       -4.0680     4.1280    -0.4870 C.3   1 <1>   0.3430 
 13 C       -6.4220     2.1100     0.2280 C.3   1 <1>   0.3430 
 14 C       -4.3410     4.7700     0.8660 C.3   1 <1>  -0.2400 
 15 N       -7.6160     1.2360    -0.0780 N.4   1 <1>  -0.9590 
 16 C       -8.8070     1.6910     0.7190 C.3   1 <1>   0.2630 
 17 C       -7.3790    -0.2220     0.2040 C.3   1 <1>   0.2630 
 18 H        0.2150     2.0800     2.5620 H     1 <1>   0.1500 
 19 H       -2.7650     1.0630    -1.0720 H     1 <1>   0.0800 
 20 H       -2.7500     2.5070    -2.0560 H     1 <1>   0.0800 
 21 H        1.7420     3.7030     1.4940 H     1 <1>   0.1500 
 22 H        1.1840     4.6190    -0.7400 H     1 <1>   0.1500 
 23 H       -3.7160     2.4830     0.6900 H     1 <1>   0.4500 
 24 H       -4.9430     0.8160    -0.6400 H     1 <1>   0.0800 
 25 H       -5.4490     2.1030    -1.7020 H     1 <1>   0.0800 
 26 H       -4.8510     4.3690    -1.1880 H     1 <1>   0.0800 
 27 H       -3.1430     4.5310    -0.8740 H     1 <1>   0.0800 
 28 H       -6.7160     3.1420     0.1260 H     1 <1>   0.0800 
 29 H       -6.1310     1.9490     1.2540 H     1 <1>   0.0800 
 30 H       -5.2730     4.4480     1.2890 H     1 <1>   0.0800 
 31 H       -4.3920     5.8380     0.7400 H     1 <1>   0.0800 
 32 H       -3.5380     4.5660     1.5530 H     1 <1>   0.0800 
 33 H       -7.8840     1.3310    -1.0730 H     1 <1>   0.4500 
 34 H       -8.6140     1.6000     1.7760 H     1 <1>   0.0800 
 35 H       -9.6710     1.0910     0.4780 H     1 <1>   0.0800 
 36 H       -9.0410     2.7210     0.4980 H     1 <1>   0.0800 
 37 H       -7.1250    -0.3700     1.2420 H     1 <1>   0.0800 
 38 H       -6.5800    -0.6070    -0.4080 H     1 <1>   0.0800 
 39 H       -8.2700    -0.7920    -0.0090 H     1 <1>   0.0800 
@<TRIPOS>BOND
  1   1   2  1   
  2   2   3  ar  
  3   2   4  ar  
  4   3   5  ar  
  5   3   6  1   
  6   4   7  ar  
  7   4  18  1   
  8   5   8  1   
  9   5   9  ar  
 10   6  10  1   
 11   6  19  1   
 12   6  20  1   
 13   7   9  ar  
 14   7  21  1   
 15   9  22  1   
 16  10  11  1   
 17  10  12  1   
 18  10  23  1   
 19  11  13  1   
 20  11  24  1   
 21  11  25  1   
 22  12  14  1   
 23  12  26  1   
 24  12  27  1   
 25  13  15  1   
 26  13  28  1   
 27  13  29  1   
 28  14  30  1   
 29  14  31  1   
 30  14  32  1   
 31  15  16  1   
 32  15  17  1   
 33  15  33  1   
 34  16  34  1   
 35  16  35  1   
 36  16  36  1   
 37  17  37  1   
 38  17  38  1   
 39  17  39  1   
@<TRIPOS>SUBSTRUCTURE
  1 ****  10 GROUP 4 **** **** 0

# MOE 2024.06 (io_trps.svl 2023.06)
