@<TRIPOS>MOLECULE
NONAME
42 43 1 0 0 
SMALL
USER_CHARGES


@<TRIPOS>ATOM
  1 CL       1.8930    -0.1330     3.2840 Cl    1 <1>  -0.1770 
  2 C        2.4690    -0.8120     1.7820 C.ar  1 <1>   0.1770 
  3 C        1.9080    -1.9640     1.2580 C.ar  1 <1>   0.1770 
  4 C        3.5060    -0.1740     1.1220 C.ar  1 <1>  -0.1500 
  5 CL       0.6020    -2.7800     2.0820 Cl    1 <1>  -0.1770 
  6 C        2.3780    -2.4870     0.0680 C.ar  1 <1>  -0.1500 
  7 C        3.9890    -0.6960    -0.0730 C.ar  1 <1>  -0.1430 
  8 C        3.4170    -1.8520    -0.5970 C.ar  1 <1>  -0.1500 
  9 C        5.1280    -0.0100    -0.7980 C.3   1 <1>   0.4870 
 10 N        6.3860    -0.5520    -0.2390 N.4   1 <1>  -0.9060 
 11 C        7.6260    -0.0280    -0.8490 C.3   1 <1>   0.4230 
 12 C        8.7950    -0.8750    -0.3310 C.3   1 <1>  -0.1600 
 13 C        7.7830     1.4600    -0.5050 C.3   1 <1>  -0.1600 
 14 C       10.1470    -0.2980    -0.7580 C.3   1 <1>   0.1400 
 15 C        9.1550     1.9840    -0.9320 C.3   1 <1>   0.1400 
 16 N       10.1910     1.1180    -0.3280 N.am  1 <1>  -0.6600 
 17 C       10.8020     1.4920     0.8440 C.2   1 <1>   0.7800 
 18 O       10.3330     2.3440     1.5670 O.2   1 <1>  -0.5700 
 19 O       11.9050     0.8670     1.2370 O.3   1 <1>  -0.4300 
 20 C       13.0570     0.9140     0.4290 C.3   1 <1>   0.1200 
 21 C       14.1090     0.0050     1.0560 C.3   1 <1>  -0.2400 
 22 H        3.9120     0.7230     1.5580 H     1 <1>   0.1500 
 23 H        1.9290    -3.3810    -0.3310 H     1 <1>   0.1500 
 24 H        3.7640    -2.2730    -1.5270 H     1 <1>   0.1500 
 25 H        5.0710     1.0560    -0.6430 H     1 <1>   0.0800 
 26 H        5.0660    -0.2110    -1.8560 H     1 <1>   0.0800 
 27 H        6.3580    -1.5730    -0.3270 H     1 <1>   0.4500 
 28 H        6.4040    -0.3590     0.7690 H     1 <1>   0.4500 
 29 H        7.5820    -0.1330    -1.9220 H     1 <1>   0.0800 
 30 H        8.7200    -1.8800    -0.7080 H     1 <1>   0.0800 
 31 H        8.7810    -0.9140     0.7450 H     1 <1>   0.0800 
 32 H        7.6900     1.6140     0.5570 H     1 <1>   0.0800 
 33 H        7.0350     2.0480    -1.0030 H     1 <1>   0.0800 
 34 H       10.2720    -0.3520    -1.8270 H     1 <1>   0.0800 
 35 H       10.9430    -0.8590    -0.2970 H     1 <1>   0.0800 
 36 H        9.2830     3.0020    -0.5990 H     1 <1>   0.0800 
 37 H        9.2570     1.9700    -2.0040 H     1 <1>   0.0800 
 38 H       13.4020     1.9340     0.3980 H     1 <1>   0.0800 
 39 H       12.8120     0.5860    -0.5660 H     1 <1>   0.0800 
 40 H       14.3410     0.3430     2.0510 H     1 <1>   0.0800 
 41 H       15.0080     0.0300     0.4680 H     1 <1>   0.0800 
 42 H       13.7510    -1.0080     1.0960 H     1 <1>   0.0800 
@<TRIPOS>BOND
  1   1   2  1   
  2   2   3  ar  
  3   2   4  ar  
  4   3   5  1   
  5   3   6  ar  
  6   4   7  ar  
  7   4  22  1   
  8   6   8  ar  
  9   6  23  1   
 10   7   8  ar  
 11   7   9  1   
 12   8  24  1   
 13   9  10  1   
 14   9  25  1   
 15   9  26  1   
 16  10  11  1   
 17  10  27  1   
 18  10  28  1   
 19  11  12  1   
 20  11  13  1   
 21  11  29  1   
 22  12  14  1   
 23  12  30  1   
 24  12  31  1   
 25  13  15  1   
 26  13  32  1   
 27  13  33  1   
 28  14  16  1   
 29  14  34  1   
 30  14  35  1   
 31  15  16  1   
 32  15  36  1   
 33  15  37  1   
 34  16  17  am  
 35  17  18  2   
 36  17  19  1   
 37  19  20  1   
 38  20  21  1   
 39  20  38  1   
 40  20  39  1   
 41  21  40  1   
 42  21  41  1   
 43  21  42  1   
@<TRIPOS>SUBSTRUCTURE
  1 ****  10 GROUP 4 **** **** 0

# MOE 2024.06 (io_trps.svl 2023.06)
