@<TRIPOS>MOLECULE
NONAME
46 48 1 0 0 
SMALL
USER_CHARGES


@<TRIPOS>ATOM
  1 O        0.3280     0.8670     1.3360 O.2   1 <1>  -0.5700 
  2 C        0.2590     1.6770     0.4330 C.2   1 <1>   0.5440 
  3 N       -0.9700     1.9110    -0.1220 N.am  1 <1>  -0.7300 
  4 C        1.4450     2.3550    -0.0610 C.ar  1 <1>   0.0860 
  5 C       -2.2070     1.2720     0.3480 C.3   1 <1>   0.2200 
  6 C        2.6920     1.7350    -0.0110 C.ar  1 <1>  -0.1500 
  7 C        1.3880     3.6410    -0.6040 C.ar  1 <1>  -0.1500 
  8 C       -2.3860    -0.0650    -0.3670 C.3   1 <1>  -0.1600 
  9 C       -3.3990     2.1890     0.0900 C.3   1 <1>  -0.1600 
 10 C        3.8310     2.3600    -0.4880 C.ar  1 <1>   0.0820 
 11 C        2.5190     4.2710    -1.0910 C.ar  1 <1>  -0.1500 
 12 C       -3.6880    -0.7260     0.0740 C.3   1 <1>   0.3430 
 13 C       -4.6930     1.5000     0.5190 C.3   1 <1>   0.3430 
 14 O        5.0090     1.6910    -0.4150 O.3   1 <1>  -0.1650 
 15 C        3.7430     3.6310    -1.0400 C.ar  1 <1>  -0.1500 
 16 N       -4.8380     0.1920    -0.1920 N.4   1 <1>  -0.9590 
 17 C        6.1740     2.3310    -0.1450 C.ar  1 <1>   0.0820 
 18 C       -6.1300    -0.4670     0.1700 C.3   1 <1>   0.2630 
 19 C        7.3140     1.9340    -0.8260 C.ar  1 <1>  -0.1500 
 20 C        6.2490     3.3510     0.7960 C.ar  1 <1>  -0.1500 
 21 C        8.5230     2.5620    -0.5810 C.ar  1 <1>  -0.1500 
 22 C        7.4590     3.9790     1.0390 C.ar  1 <1>  -0.1500 
 23 C        8.5940     3.5860     0.3500 C.ar  1 <1>  -0.1500 
 24 H       -1.0240     2.4690    -0.9750 H     1 <1>   0.3700 
 25 H       -2.1250     1.0960     1.4100 H     1 <1>   0.0800 
 26 H        2.7750     0.7480     0.4110 H     1 <1>   0.1500 
 27 H        0.4490     4.1630    -0.6410 H     1 <1>   0.1500 
 28 H       -1.5660    -0.7130    -0.1090 H     1 <1>   0.0800 
 29 H       -2.3870     0.0690    -1.4330 H     1 <1>   0.0800 
 30 H       -3.4600     2.4510    -0.9520 H     1 <1>   0.0800 
 31 H       -3.2810     3.0930     0.6610 H     1 <1>   0.0800 
 32 H        2.4520     5.2620    -1.5100 H     1 <1>   0.1500 
 33 H       -3.6350    -0.9520     1.1270 H     1 <1>   0.0800 
 34 H       -3.8200    -1.6520    -0.4640 H     1 <1>   0.0800 
 35 H       -5.5330     2.1380     0.2930 H     1 <1>   0.0800 
 36 H       -4.6730     1.3340     1.5840 H     1 <1>   0.0800 
 37 H        4.6230     4.1150    -1.4270 H     1 <1>   0.1500 
 38 H       -4.8470     0.3870    -1.2040 H     1 <1>   0.4500 
 39 H       -6.1550    -0.6890     1.2250 H     1 <1>   0.0800 
 40 H       -6.2480    -1.3870    -0.3790 H     1 <1>   0.0800 
 41 H       -6.9600     0.1800    -0.0650 H     1 <1>   0.0800 
 42 H        7.2500     1.1370    -1.5450 H     1 <1>   0.1500 
 43 H        5.3700     3.6500     1.3390 H     1 <1>   0.1500 
 44 H        9.4070     2.2550    -1.1120 H     1 <1>   0.1500 
 45 H        7.5180     4.7700     1.7660 H     1 <1>   0.1500 
 46 H        9.5340     4.0740     0.5400 H     1 <1>   0.1500 
@<TRIPOS>BOND
  1   1   2  2   
  2   2   3  am  
  3   2   4  1   
  4   3   5  1   
  5   3  24  1   
  6   4   6  ar  
  7   4   7  ar  
  8   5   8  1   
  9   5   9  1   
 10   5  25  1   
 11   6  10  ar  
 12   6  26  1   
 13   7  11  ar  
 14   7  27  1   
 15   8  12  1   
 16   8  28  1   
 17   8  29  1   
 18   9  13  1   
 19   9  30  1   
 20   9  31  1   
 21  10  14  1   
 22  10  15  ar  
 23  11  15  ar  
 24  11  32  1   
 25  12  16  1   
 26  12  33  1   
 27  12  34  1   
 28  13  16  1   
 29  13  35  1   
 30  13  36  1   
 31  14  17  1   
 32  15  37  1   
 33  16  18  1   
 34  16  38  1   
 35  17  19  ar  
 36  17  20  ar  
 37  18  39  1   
 38  18  40  1   
 39  18  41  1   
 40  19  21  ar  
 41  19  42  1   
 42  20  22  ar  
 43  20  43  1   
 44  21  23  ar  
 45  21  44  1   
 46  22  23  ar  
 47  22  45  1   
 48  23  46  1   
@<TRIPOS>SUBSTRUCTURE
  1 ****   4 GROUP 4 **** **** 0

# MOE 2024.06 (io_trps.svl 2023.06)
