@<TRIPOS>MOLECULE
NONAME
58 59 1 0 0 
SMALL
USER_CHARGES


@<TRIPOS>ATOM
  1 N       -0.0110    -0.0240    -0.0390 N.4   1 <1>  -0.9590 
  2 C       -0.2440    -1.3200    -0.7440 C.3   1 <1>   0.3430 
  3 C       -1.1950     0.8780    -0.0260 C.3   1 <1>   0.3430 
  4 C        1.1890     0.6750    -0.6000 C.3   1 <1>   0.4860 
  5 C       -1.4310    -2.0510    -0.1120 C.3   1 <1>  -0.1600 
  6 C       -2.3930     0.1610     0.6090 C.3   1 <1>  -0.1600 
  7 C        2.4030    -0.1860    -0.3200 C.ar  1 <1>  -0.1440 
  8 C       -2.6840    -1.1680    -0.1060 C.3   1 <1>   0.4230 
  9 C        2.9250    -0.2630     0.9650 C.ar  1 <1>  -0.1500 
 10 C        2.9950    -0.9130    -1.3430 C.ar  1 <1>  -0.1500 
 11 N       -3.8540    -1.9190     0.4850 N.4   1 <1>  -0.9590 
 12 C        4.0160    -1.0740     1.2240 C.ar  1 <1>  -0.1500 
 13 C        4.0860    -1.7230    -1.0800 C.ar  1 <1>  -0.1500 
 14 C       -5.1800    -1.2540     0.1530 C.3   1 <1>   0.3430 
 15 C       -3.7130    -2.1990     1.9650 C.3   1 <1>   0.2630 
 16 C        4.5940    -1.8060     0.2030 C.ar  1 <1>  -0.1500 
 17 C       -6.4490    -2.1010     0.4820 C.3   1 <1>   0.3430 
 18 N       -7.7630    -1.5080     0.0240 N.4   1 <1>  -0.9590 
 19 C       -8.1380    -0.2360     0.7170 C.3   1 <1>   0.3430 
 20 C       -8.8540    -2.5150     0.2020 C.3   1 <1>   0.3430 
 21 C       -7.7550     0.9450    -0.1650 C.3   1 <1>  -0.2400 
 22 C      -10.0080    -2.1810    -0.7360 C.3   1 <1>  -0.2400 
 23 H        0.2700    -0.2450     0.9270 H     1 <1>   0.4500 
 24 H        0.6370    -1.9410    -0.6730 H     1 <1>   0.0800 
 25 H       -0.4370    -1.1380    -1.7900 H     1 <1>   0.0800 
 26 H       -1.4380     1.1720    -1.0360 H     1 <1>   0.0800 
 27 H       -0.9700     1.7720     0.5350 H     1 <1>   0.0800 
 28 H        1.3230     1.6350    -0.1250 H     1 <1>   0.0800 
 29 H        1.0810     0.8300    -1.6610 H     1 <1>   0.0800 
 30 H       -1.1490    -2.3430     0.8840 H     1 <1>   0.0800 
 31 H       -1.6130    -2.9430    -0.6850 H     1 <1>   0.0800 
 32 H       -3.2430     0.8150     0.5390 H     1 <1>   0.0800 
 33 H       -2.1720     0.0060     1.6500 H     1 <1>   0.0800 
 34 H       -2.9170    -0.9420    -1.1350 H     1 <1>   0.0800 
 35 H        2.5050     0.3050     1.7770 H     1 <1>   0.1500 
 36 H        2.6270    -0.8600    -2.3540 H     1 <1>   0.1500 
 37 H       -3.8390    -2.8410     0.0160 H     1 <1>   0.4500 
 38 H        4.4240    -1.1360     2.2200 H     1 <1>   0.1500 
 39 H        4.5470    -2.2880    -1.8730 H     1 <1>   0.1500 
 40 H       -5.1980    -1.0320    -0.9020 H     1 <1>   0.0800 
 41 H       -5.2450    -0.3220     0.6900 H     1 <1>   0.0800 
 42 H       -3.7380    -1.2810     2.5310 H     1 <1>   0.0800 
 43 H       -2.7810    -2.7010     2.1710 H     1 <1>   0.0800 
 44 H       -4.5120    -2.8350     2.3120 H     1 <1>   0.0800 
 45 H        5.4450    -2.4360     0.4060 H     1 <1>   0.1500 
 46 H       -6.4970    -2.2580     1.5470 H     1 <1>   0.0800 
 47 H       -6.3360    -3.0650     0.0120 H     1 <1>   0.0800 
 48 H       -7.7510    -1.3130    -0.9890 H     1 <1>   0.4500 
 49 H       -7.6570    -0.1660     1.6790 H     1 <1>   0.0800 
 50 H       -9.2040    -0.2040     0.8810 H     1 <1>   0.0800 
 51 H       -9.1980    -2.5260     1.2250 H     1 <1>   0.0800 
 52 H       -8.4920    -3.5020    -0.0420 H     1 <1>   0.0800 
 53 H       -6.6970     1.0130    -0.3260 H     1 <1>   0.0800 
 54 H       -8.0690     1.8550     0.3180 H     1 <1>   0.0800 
 55 H       -8.2650     0.8940    -1.1120 H     1 <1>   0.0800 
 56 H      -10.4540    -1.2310    -0.5030 H     1 <1>   0.0800 
 57 H      -10.7730    -2.9310    -0.6300 H     1 <1>   0.0800 
 58 H       -9.6870    -2.1890    -1.7630 H     1 <1>   0.0800 
@<TRIPOS>BOND
  1   1   2  1   
  2   1   3  1   
  3   1   4  1   
  4   1  23  1   
  5   2   5  1   
  6   2  24  1   
  7   2  25  1   
  8   3   6  1   
  9   3  26  1   
 10   3  27  1   
 11   4   7  1   
 12   4  28  1   
 13   4  29  1   
 14   5   8  1   
 15   5  30  1   
 16   5  31  1   
 17   6   8  1   
 18   6  32  1   
 19   6  33  1   
 20   7   9  ar  
 21   7  10  ar  
 22   8  11  1   
 23   8  34  1   
 24   9  12  ar  
 25   9  35  1   
 26  10  13  ar  
 27  10  36  1   
 28  11  14  1   
 29  11  15  1   
 30  11  37  1   
 31  12  16  ar  
 32  12  38  1   
 33  13  16  ar  
 34  13  39  1   
 35  14  17  1   
 36  14  40  1   
 37  14  41  1   
 38  15  42  1   
 39  15  43  1   
 40  15  44  1   
 41  16  45  1   
 42  17  18  1   
 43  17  46  1   
 44  17  47  1   
 45  18  19  1   
 46  18  20  1   
 47  18  48  1   
 48  19  21  1   
 49  19  49  1   
 50  19  50  1   
 51  20  22  1   
 52  20  51  1   
 53  20  52  1   
 54  21  53  1   
 55  21  54  1   
 56  21  55  1   
 57  22  56  1   
 58  22  57  1   
 59  22  58  1   
@<TRIPOS>SUBSTRUCTURE
  1 ****   8 GROUP 4 **** **** 0

# MOE 2024.06 (io_trps.svl 2023.06)
