@<TRIPOS>MOLECULE
NONAME
43 42 1 0 0 
SMALL
USER_CHARGES


@<TRIPOS>ATOM
  1 O        0.2850     2.4020     0.7460 O.2   1 <1>  -0.5700 
  2 C       -0.5250     1.6230     0.3030 C.2   1 <1>   0.6590 
  3 O       -1.6920     1.9740    -0.2210 O.3   1 <1>  -0.4300 
  4 C       -0.2540     0.1420     0.3070 C.3   1 <1>  -0.1790 
  5 C       -2.2700     3.2670    -0.2440 C.3   1 <1>   0.4800 
  6 C       -1.2630     4.2390    -0.7780 C.1   1 <1>  -0.2000 
  7 C       -2.7140     3.6500     1.2050 C.3   1 <1>  -0.0800 
  8 C       -3.4340     3.1770    -1.2350 C.3   1 <1>  -0.2400 
  9 C       -0.3020     4.9000    -1.0050 C.1   1 <1>  -0.2000 
 10 C       -3.6020     2.5910     1.8900 C.3   1 <1>  -0.2400 
 11 C       -3.4290     5.0140     1.2960 C.3   1 <1>  -0.2400 
 12 C        1.0470     5.5070    -1.0200 C.3   1 <1>   0.5430 
 13 N        1.9560     4.4370    -0.5400 N.4   1 <1>  -0.9590 
 14 C        2.9960     4.9390     0.3920 C.3   1 <1>   0.3430 
 15 C        2.4860     3.6600    -1.6900 C.3   1 <1>   0.3430 
 16 C        2.3550     5.2740     1.7330 C.3   1 <1>  -0.2400 
 17 C        3.1550     2.3750    -1.2150 C.3   1 <1>  -0.2400 
 18 H       -1.0210    -0.3600     0.8660 H     1 <1>   0.0800 
 19 H        0.6990    -0.0580     0.7620 H     1 <1>   0.0800 
 20 H       -0.2510    -0.2280    -0.7010 H     1 <1>   0.0800 
 21 H       -1.8160     3.7400     1.7920 H     1 <1>   0.0800 
 22 H       -3.0720     2.8760    -2.2020 H     1 <1>   0.0800 
 23 H       -3.9120     4.1330    -1.3450 H     1 <1>   0.0800 
 24 H       -4.1650     2.4640    -0.9030 H     1 <1>   0.0800 
 25 H       -4.5480     2.4940     1.3890 H     1 <1>   0.0800 
 26 H       -3.7930     2.8730     2.9110 H     1 <1>   0.0800 
 27 H       -3.1200     1.6300     1.9010 H     1 <1>   0.0800 
 28 H       -4.3800     4.9880     0.7930 H     1 <1>   0.0800 
 29 H       -2.8310     5.7950     0.8610 H     1 <1>   0.0800 
 30 H       -3.6050     5.2700     2.3260 H     1 <1>   0.0800 
 31 H        1.0620     6.3530    -0.3530 H     1 <1>   0.0800 
 32 H        1.3140     5.8320    -2.0120 H     1 <1>   0.0800 
 33 H        1.3410     3.7900     0.0000 H     1 <1>   0.4500 
 34 H        3.4860     5.8060    -0.0210 H     1 <1>   0.0800 
 35 H        3.7400     4.1770     0.5550 H     1 <1>   0.0800 
 36 H        3.1900     4.2550    -2.2490 H     1 <1>   0.0800 
 37 H        1.6700     3.3990    -2.3460 H     1 <1>   0.0800 
 38 H        1.6590     6.0880     1.6530 H     1 <1>   0.0800 
 39 H        3.1220     5.5650     2.4280 H     1 <1>   0.0800 
 40 H        1.8530     4.4110     2.1370 H     1 <1>   0.0800 
 41 H        4.0610     2.5760    -0.6740 H     1 <1>   0.0800 
 42 H        3.4170     1.7790    -2.0720 H     1 <1>   0.0800 
 43 H        2.4880     1.7970    -0.6030 H     1 <1>   0.0800 
@<TRIPOS>BOND
  1   1   2  2   
  2   2   3  1   
  3   2   4  1   
  4   3   5  1   
  5   4  18  1   
  6   4  19  1   
  7   4  20  1   
  8   5   6  1   
  9   5   7  1   
 10   5   8  1   
 11   6   9  3   
 12   7  10  1   
 13   7  11  1   
 14   7  21  1   
 15   8  22  1   
 16   8  23  1   
 17   8  24  1   
 18   9  12  1   
 19  10  25  1   
 20  10  26  1   
 21  10  27  1   
 22  11  28  1   
 23  11  29  1   
 24  11  30  1   
 25  12  13  1   
 26  12  31  1   
 27  12  32  1   
 28  13  14  1   
 29  13  15  1   
 30  13  33  1   
 31  14  16  1   
 32  14  34  1   
 33  14  35  1   
 34  15  17  1   
 35  15  36  1   
 36  15  37  1   
 37  16  38  1   
 38  16  39  1   
 39  16  40  1   
 40  17  41  1   
 41  17  42  1   
 42  17  43  1   
@<TRIPOS>SUBSTRUCTURE
  1 ****   1 GROUP 4 **** **** 0

# MOE 2024.06 (io_trps.svl 2023.06)
