@<TRIPOS>MOLECULE
NONAME
30 31 1 0 0 
SMALL
USER_CHARGES


@<TRIPOS>ATOM
  1 S        0.0850     0.2480    -0.6780 S.o2  1 <1>   1.4470 
  2 O        0.4540    -1.0770    -0.2270 O.2   1 <1>  -0.6500 
  3 O        0.4750     0.6780    -2.0040 O.2   1 <1>  -0.6500 
  4 N        0.8010     1.3460     0.3980 N.am  1 <1>  -0.8490 
  5 C       -1.6880     0.5210    -0.4110 C.ar  1 <1>  -0.0090 
  6 C        0.5090     2.7430     0.0170 C.3   1 <1>   0.1960 
  7 C        2.2520     1.1130     0.4980 C.3   1 <1>   0.1960 
  8 C       -2.2510     0.3680     0.8490 C.ar  1 <1>  -0.1500 
  9 C       -2.5220     0.9270    -1.4450 C.ar  1 <1>  -0.1500 
 10 C        0.8660     3.7310     1.1320 C.3   1 <1>   0.0700 
 11 C        2.8840     1.8700     1.6730 C.3   1 <1>   0.0700 
 12 C       -3.5890     0.6300     1.0720 C.ar  1 <1>  -0.1500 
 13 C       -3.8610     1.1900    -1.2220 C.ar  1 <1>  -0.1500 
 14 S        2.6480     3.6530     1.4460 S.3   1 <1>  -0.4600 
 15 C       -4.4300     1.0580     0.0450 C.ar  1 <1>  -0.1790 
 16 C       -5.8360     1.3590     0.2850 C.2   1 <1>   0.9790 
 17 O       -6.5690     1.7410    -0.6450 O.co2 1 <1>  -0.9000 
 18 O       -6.3200     1.2510     1.4260 O.co2 1 <1>  -0.9000 
 19 H       -0.5430     2.8520    -0.1840 H     1 <1>   0.0800 
 20 H        1.0430     3.0020    -0.8830 H     1 <1>   0.0800 
 21 H        2.7370     1.3960    -0.4230 H     1 <1>   0.0800 
 22 H        2.4380     0.0640     0.6550 H     1 <1>   0.0800 
 23 H       -1.6320     0.0450     1.6680 H     1 <1>   0.1500 
 24 H       -2.1230     1.0460    -2.4380 H     1 <1>   0.1500 
 25 H        0.3580     3.4840     2.0480 H     1 <1>   0.0800 
 26 H        0.6370     4.7420     0.8470 H     1 <1>   0.0800 
 27 H        3.9440     1.6950     1.7250 H     1 <1>   0.0800 
 28 H        2.4220     1.5940     2.6030 H     1 <1>   0.0800 
 29 H       -4.0080     0.5090     2.0580 H     1 <1>   0.1500 
 30 H       -4.4940     1.5080    -2.0350 H     1 <1>   0.1500 
@<TRIPOS>BOND
  1   1   2  2   
  2   1   3  2   
  3   1   4  am  
  4   1   5  1   
  5   4   6  1   
  6   4   7  1   
  7   5   8  ar  
  8   5   9  ar  
  9   6  10  1   
 10   6  19  1   
 11   6  20  1   
 12   7  11  1   
 13   7  21  1   
 14   7  22  1   
 15   8  12  ar  
 16   8  23  1   
 17   9  13  ar  
 18   9  24  1   
 19  10  14  1   
 20  10  25  1   
 21  10  26  1   
 22  11  14  1   
 23  11  27  1   
 24  11  28  1   
 25  12  15  ar  
 26  12  29  1   
 27  13  15  ar  
 28  13  30  1   
 29  15  16  1   
 30  16  17  ar  
 31  16  18  ar  
@<TRIPOS>SUBSTRUCTURE
  1 ****   5 GROUP 4 **** **** 0

# MOE 2024.06 (io_trps.svl 2023.06)
