@<TRIPOS>MOLECULE
NONAME
43 46 1 0 0 
SMALL
USER_CHARGES


@<TRIPOS>ATOM
  1 BR       0.6370     0.8050    -0.1210 Br    1 <1>  -0.1110 
  2 C        2.0460    -0.4660    -0.4430 C.ar  1 <1>   0.1110 
  3 C        3.3580    -0.0580    -0.2640 C.ar  1 <1>  -0.1500 
  4 C        1.7050    -1.7500    -0.8430 C.ar  1 <1>  -0.1500 
  5 C        4.3540    -0.9910    -0.4990 C.ar  1 <1>  -0.1440 
  6 C        2.7140    -2.6700    -1.0800 C.ar  1 <1>  -0.1500 
  7 C        4.0330    -2.2760    -0.9070 C.ar  1 <1>   0.1170 
  8 C        5.8690    -0.8580    -0.3790 C.3   1 <1>   0.4850 
  9 N        5.1870    -3.0160    -1.1030 N.am  1 <1>  -0.5470 
 10 O        6.2690     0.1630    -1.2380 O.3   1 <1>  -0.6800 
 11 C        6.2930    -2.2670    -0.8740 C.2   1 <1>   0.5690 
 12 C        6.2810    -0.5060     1.0530 C.3   1 <1>  -0.0990 
 13 O        7.4170    -2.6450    -1.1060 O.2   1 <1>  -0.5700 
 14 C        7.7410    -0.8110     1.3330 C.2   1 <1>   0.4230 
 15 O        7.9390    -1.7690     2.0360 O.2   1 <1>  -0.5700 
 16 C        8.8170     0.0060     0.8010 C.ar  1 <1>   0.0860 
 17 C       10.1080    -0.5170     0.7230 C.ar  1 <1>  -0.1500 
 18 C        8.6480     1.3200     0.3590 C.ar  1 <1>  -0.1500 
 19 C       11.1790     0.2130     0.2370 C.ar  1 <1>  -0.1430 
 20 C        9.7070     2.0610    -0.1290 C.ar  1 <1>  -0.1500 
 21 C       10.9790     1.5180    -0.1950 C.ar  1 <1>  -0.1430 
 22 C       12.5480    -0.4550     0.1720 C.3   1 <1>  -0.0170 
 23 C       12.1200     2.3770    -0.7270 C.3   1 <1>  -0.0170 
 24 C       13.6920     0.5490    -0.0080 C.3   1 <1>  -0.1600 
 25 C       13.3520     1.5510    -1.1150 C.3   1 <1>  -0.1600 
 26 H        3.5850     0.9470     0.0440 H     1 <1>   0.1500 
 27 H        0.6700    -2.0170    -0.9660 H     1 <1>   0.1500 
 28 H        2.4830    -3.6730    -1.3940 H     1 <1>   0.1500 
 29 H        5.2480    -3.9720    -1.4560 H     1 <1>   0.3700 
 30 H        6.1670    -0.1420    -2.1600 H     1 <1>   0.4000 
 31 H        5.6930    -1.1080     1.7230 H     1 <1>   0.0800 
 32 H        6.0500     0.5180     1.2720 H     1 <1>   0.0800 
 33 H       10.2670    -1.5300     1.0500 H     1 <1>   0.1500 
 34 H        7.6790     1.7820     0.3900 H     1 <1>   0.1500 
 35 H        9.5380     3.0700    -0.4600 H     1 <1>   0.1500 
 36 H       12.5470    -1.1390    -0.6590 H     1 <1>   0.0800 
 37 H       12.7160    -1.0270     1.0680 H     1 <1>   0.0800 
 38 H       12.3960     3.0800     0.0400 H     1 <1>   0.0800 
 39 H       11.7860     2.9360    -1.5830 H     1 <1>   0.0800 
 40 H       14.5980     0.0230    -0.2520 H     1 <1>   0.0800 
 41 H       13.8510     1.0780     0.9170 H     1 <1>   0.0800 
 42 H       14.1860     2.2080    -1.2880 H     1 <1>   0.0800 
 43 H       13.1490     1.0180    -2.0290 H     1 <1>   0.0800 
@<TRIPOS>BOND
  1   1   2  1   
  2   2   3  ar  
  3   2   4  ar  
  4   3   5  ar  
  5   3  26  1   
  6   4   6  ar  
  7   4  27  1   
  8   5   7  ar  
  9   5   8  1   
 10   6   7  ar  
 11   6  28  1   
 12   7   9  1   
 13   8  10  1   
 14   8  11  1   
 15   8  12  1   
 16   9  11  am  
 17   9  29  1   
 18  10  30  1   
 19  11  13  2   
 20  12  14  1   
 21  12  31  1   
 22  12  32  1   
 23  14  15  2   
 24  14  16  1   
 25  16  17  ar  
 26  16  18  ar  
 27  17  19  ar  
 28  17  33  1   
 29  18  20  ar  
 30  18  34  1   
 31  19  21  ar  
 32  19  22  1   
 33  20  21  ar  
 34  20  35  1   
 35  21  23  1   
 36  22  24  1   
 37  22  36  1   
 38  22  37  1   
 39  23  25  1   
 40  23  38  1   
 41  23  39  1   
 42  24  25  1   
 43  24  40  1   
 44  24  41  1   
 45  25  42  1   
 46  25  43  1   
@<TRIPOS>SUBSTRUCTURE
  1 ****   8 GROUP 4 **** **** 0

# MOE 2024.06 (io_trps.svl 2023.06)
