@<TRIPOS>MOLECULE
NONAME
25 26 1 0 0 
SMALL
USER_CHARGES


@<TRIPOS>ATOM
  1 O       -0.3790     0.2270    -0.2820 O.2   1 <1>  -0.5700 
  2 C       -1.3760     0.9270    -0.1410 C.2   1 <1>   0.6160 
  3 N       -2.5840     0.2900    -0.1310 N.am  1 <1>  -0.5390 
  4 C       -1.3520     2.3380     0.0070 C.2   1 <1>   0.0790 
  5 C       -3.7700     0.9370     0.0190 C.2   1 <1>   0.2090 
  6 C       -0.0950     3.0060     0.0030 C.1   1 <1>   0.4920 
  7 C       -2.5420     3.0130     0.1480 C.2   1 <1>  -0.1500 
  8 N       -4.9200     0.1880     0.0260 N.pl3 1 <1>  -0.8380 
  9 C       -3.7570     2.3110     0.1480 C.2   1 <1>  -0.1380 
 10 N        0.8790     3.6020     0.0080 N.1   1 <1>  -0.5570 
 11 C       -6.2550     0.8420     0.1290 C.3   1 <1>   0.2090 
 12 C       -4.9500    -1.3020     0.0690 C.3   1 <1>   0.1290 
 13 C       -5.0660     3.0710     0.2940 C.3   1 <1>  -0.0220 
 14 C       -6.1990     2.2870    -0.3780 C.3   1 <1>  -0.1600 
 15 H       -2.5660    -0.7140    -0.2690 H     1 <1>   0.3700 
 16 H       -2.5540     4.0840     0.2590 H     1 <1>   0.1500 
 17 H       -6.5680     0.8290     1.1590 H     1 <1>   0.0800 
 18 H       -6.9730     0.2910    -0.4550 H     1 <1>   0.0800 
 19 H       -4.9280    -1.6930    -0.9330 H     1 <1>   0.0800 
 20 H       -5.8460    -1.6430     0.5580 H     1 <1>   0.0800 
 21 H       -4.1070    -1.6810     0.6200 H     1 <1>   0.0800 
 22 H       -4.9870     4.0420    -0.1610 H     1 <1>   0.0800 
 23 H       -5.2810     3.1990     1.3400 H     1 <1>   0.0800 
 24 H       -7.1400     2.7710    -0.1910 H     1 <1>   0.0800 
 25 H       -6.0390     2.2700    -1.4410 H     1 <1>   0.0800 
@<TRIPOS>BOND
  1   1   2  2   
  2   2   3  am  
  3   2   4  1   
  4   3   5  1   
  5   3  15  1   
  6   4   6  1   
  7   4   7  2   
  8   5   8  1   
  9   5   9  2   
 10   6  10  3   
 11   7   9  1   
 12   7  16  1   
 13   8  11  1   
 14   8  12  1   
 15   9  13  1   
 16  11  14  1   
 17  11  17  1   
 18  11  18  1   
 19  12  19  1   
 20  12  20  1   
 21  12  21  1   
 22  13  14  1   
 23  13  22  1   
 24  13  23  1   
 25  14  24  1   
 26  14  25  1   
@<TRIPOS>SUBSTRUCTURE
  1 ****   5 GROUP 4 **** **** 0

# MOE 2024.06 (io_trps.svl 2023.06)
