@<TRIPOS>MOLECULE
NONAME
40 40 1 0 0 
SMALL
USER_CHARGES


@<TRIPOS>ATOM
  1 O        7.3130    -0.2990    -0.2030 O.3   1 <1>  -0.3630 
  2 C        8.4890     0.3720    -0.3210 C.ar  1 <1>   0.0830 
  3 C        7.2540    -1.6610     0.1350 C.3   1 <1>   0.1200 
  4 C        8.4490     1.7560    -0.5140 C.ar  1 <1>  -0.1440 
  5 C        9.7170    -0.2850    -0.2550 C.ar  1 <1>  -0.1500 
  6 C        5.7720    -2.0230     0.2650 C.3   1 <1>   0.3430 
  7 C        9.6490     2.4470    -0.6290 C.ar  1 <1>  -0.1500 
  8 C        7.1500     2.5720    -0.6050 C.3   1 <1>   0.0640 
  9 C       10.8980     0.4230    -0.3720 C.ar  1 <1>  -0.1500 
 10 N        5.5460    -3.4680     0.6140 N.4   1 <1>  -0.9590 
 11 C       10.8640     1.7910    -0.5590 C.ar  1 <1>  -0.1500 
 12 C        6.3680     2.5340     0.7230 C.3   1 <1>  -0.1600 
 13 C        6.3070     2.1490    -1.8180 C.3   1 <1>  -0.2400 
 14 C        4.0930    -3.8010     0.4880 C.3   1 <1>   0.2630 
 15 C        6.0340    -3.8000     1.9920 C.3   1 <1>   0.2630 
 16 C        5.2000     3.5290     0.7730 C.3   1 <1>  -0.2400 
 17 H        7.7740    -1.7920     1.0660 H     1 <1>   0.0800 
 18 H        7.7200    -2.2210    -0.6560 H     1 <1>   0.0800 
 19 H        9.7870    -1.3450    -0.1160 H     1 <1>   0.1500 
 20 H        5.2940    -1.8050    -0.6760 H     1 <1>   0.0800 
 21 H        5.3280    -1.3950     1.0210 H     1 <1>   0.0800 
 22 H        9.6510     3.5130    -0.7760 H     1 <1>   0.1500 
 23 H        7.4230     3.6000    -0.7710 H     1 <1>   0.0800 
 24 H       11.8450    -0.0860    -0.3210 H     1 <1>   0.1500 
 25 H        6.0610    -4.0480    -0.0680 H     1 <1>   0.4500 
 26 H       11.7810     2.3460    -0.6510 H     1 <1>   0.1500 
 27 H        7.0500     2.7680     1.5220 H     1 <1>   0.0800 
 28 H        5.9890     1.5450     0.9020 H     1 <1>   0.0800 
 29 H        5.8620     1.1850    -1.6640 H     1 <1>   0.0800 
 30 H        6.9310     2.1040    -2.6930 H     1 <1>   0.0800 
 31 H        5.5260     2.8630    -2.0000 H     1 <1>   0.0800 
 32 H        3.5120    -3.2130     1.1800 H     1 <1>   0.0800 
 33 H        3.9280    -4.8450     0.7000 H     1 <1>   0.0800 
 34 H        3.7470    -3.5970    -0.5130 H     1 <1>   0.0800 
 35 H        5.5240    -3.1970     2.7250 H     1 <1>   0.0800 
 36 H        7.0930    -3.6190     2.0730 H     1 <1>   0.0800 
 37 H        5.8490    -4.8390     2.2130 H     1 <1>   0.0800 
 38 H        5.5480     4.5290     0.5790 H     1 <1>   0.0800 
 39 H        4.7480     3.5130     1.7490 H     1 <1>   0.0800 
 40 H        4.4460     3.2770     0.0500 H     1 <1>   0.0800 
@<TRIPOS>BOND
  1   1   2  1   
  2   1   3  1   
  3   2   4  ar  
  4   2   5  ar  
  5   3   6  1   
  6   3  17  1   
  7   3  18  1   
  8   4   7  ar  
  9   4   8  1   
 10   5   9  ar  
 11   5  19  1   
 12   6  10  1   
 13   6  20  1   
 14   6  21  1   
 15   7  11  ar  
 16   7  22  1   
 17   8  12  1   
 18   8  13  1   
 19   8  23  1   
 20   9  11  ar  
 21   9  24  1   
 22  10  14  1   
 23  10  15  1   
 24  10  25  1   
 25  11  26  1   
 26  12  16  1   
 27  12  27  1   
 28  12  28  1   
 29  13  29  1   
 30  13  30  1   
 31  13  31  1   
 32  14  32  1   
 33  14  33  1   
 34  14  34  1   
 35  15  35  1   
 36  15  36  1   
 37  15  37  1   
 38  16  38  1   
 39  16  39  1   
 40  16  40  1   
@<TRIPOS>SUBSTRUCTURE
  1 ****   1 GROUP 4 **** **** 0

# MOE 2024.06 (io_trps.svl 2023.06)
