@<TRIPOS>MOLECULE
NONAME
33 34 1 0 0 
SMALL
USER_CHARGES


@<TRIPOS>ATOM
  1 O        0.3460    -0.2610    -0.0830 O.3   1 <1>  -0.3630 
  2 C        1.7010    -0.2750    -0.0960 C.ar  1 <1>   0.0820 
  3 C       -0.3990    -1.4560    -0.0170 C.3   1 <1>   0.1200 
  4 C        2.4690    -1.4330    -0.0360 C.ar  1 <1>  -0.1500 
  5 C        2.3400     0.9510    -0.1770 C.ar  1 <1>  -0.1500 
  6 C       -1.8840    -1.0950    -0.0260 C.3   1 <1>  -0.1600 
  7 C        3.8490    -1.3490    -0.0550 C.ar  1 <1>  -0.1500 
  8 C        3.7200     1.0270    -0.1960 C.ar  1 <1>  -0.1500 
  9 C       -2.7620    -2.3510     0.0430 C.3   1 <1>  -0.1600 
 10 C        4.5130    -0.1230    -0.1310 C.ar  1 <1>   0.0530 
 11 C       -4.2480    -1.9840     0.0340 C.3   1 <1>  -0.2400 
 12 C        5.9570    -0.0690    -0.1420 C.2   1 <1>   0.1340 
 13 N        6.7690    -1.0690    -0.3310 N.2   1 <1>  -0.3380 
 14 N        6.6760     1.0500     0.0570 N.pl3 1 <1>   0.0330 
 15 N        8.0220    -0.6100    -0.2530 N.2   1 <1>  -0.3380 
 16 C        7.9420     0.6570    -0.0240 C.2   1 <1>   0.2710 
 17 N        9.0340     1.4800     0.1190 N.pl3 1 <1>  -0.8840 
 18 H       -0.1380    -1.9690     0.8920 H     1 <1>   0.0800 
 19 H       -0.1490    -2.0590    -0.8730 H     1 <1>   0.0800 
 20 H        2.0140    -2.4030     0.0240 H     1 <1>   0.1500 
 21 H        1.7410     1.8430    -0.2260 H     1 <1>   0.1500 
 22 H       -2.1070    -0.5510    -0.9280 H     1 <1>   0.0800 
 23 H       -2.0960    -0.4630     0.8190 H     1 <1>   0.0800 
 24 H        4.4320    -2.2530    -0.0090 H     1 <1>   0.1500 
 25 H        4.1750     1.9960    -0.2670 H     1 <1>   0.1500 
 26 H       -2.5400    -2.9000     0.9430 H     1 <1>   0.0800 
 27 H       -2.5500    -2.9880    -0.7990 H     1 <1>   0.0800 
 28 H       -4.4880    -1.3640     0.8790 H     1 <1>   0.0800 
 29 H       -4.8480    -2.8760     0.0830 H     1 <1>   0.0800 
 30 H       -4.4990    -1.4530    -0.8680 H     1 <1>   0.0800 
 31 H        6.3430     1.9830     0.2880 H     1 <1>   0.2700 
 32 H        9.9020     0.9350     0.1370 H     1 <1>   0.4000 
 33 H        9.1160     2.2180    -0.5830 H     1 <1>   0.4000 
@<TRIPOS>BOND
  1   1   2  1   
  2   1   3  1   
  3   2   4  ar  
  4   2   5  ar  
  5   3   6  1   
  6   3  18  1   
  7   3  19  1   
  8   4   7  ar  
  9   4  20  1   
 10   5   8  ar  
 11   5  21  1   
 12   6   9  1   
 13   6  22  1   
 14   6  23  1   
 15   7  10  ar  
 16   7  24  1   
 17   8  10  ar  
 18   8  25  1   
 19   9  11  1   
 20   9  26  1   
 21   9  27  1   
 22  10  12  1   
 23  11  28  1   
 24  11  29  1   
 25  11  30  1   
 26  12  13  2   
 27  12  14  1   
 28  13  15  1   
 29  14  16  1   
 30  14  31  1   
 31  15  16  2   
 32  16  17  1   
 33  17  32  1   
 34  17  33  1   
@<TRIPOS>SUBSTRUCTURE
  1 ****   7 GROUP 4 **** **** 0

# MOE 2024.06 (io_trps.svl 2023.06)
