@<TRIPOS>MOLECULE
NONAME
37 39 1 0 0 
SMALL
USER_CHARGES


@<TRIPOS>ATOM
  1 O        0.5040     0.1300    -1.3040 O.2   1 <1>  -0.5700 
  2 C        1.2360     0.9690    -0.8120 C.2   1 <1>   0.6900 
  3 N        0.7720     2.1470    -0.3410 N.am  1 <1>  -0.7300 
  4 N        2.5620     0.7610    -0.7020 N.am  1 <1>  -0.7300 
  5 C       -0.6160     2.6150    -0.2250 C.3   1 <1>   0.3000 
  6 C        3.2420    -0.5760    -0.7210 C.3   1 <1>   0.0340 
  7 C       -0.5800     4.0130     0.4210 C.3   1 <1>  -0.1600 
  8 C       -1.4390     1.6730     0.6750 C.3   1 <1>  -0.1600 
  9 C       -1.2770     2.7260    -1.6110 C.3   1 <1>  -0.1600 
 10 C        4.4010    -0.6390     0.2770 C.2   1 <1>   0.9060 
 11 C       -2.0090     4.5690     0.5760 C.3   1 <1>  -0.0800 
 12 C       -2.8760     2.2110     0.8250 C.3   1 <1>  -0.0800 
 13 C       -2.7140     3.2670    -1.4680 C.3   1 <1>  -0.0800 
 14 O        4.6810     0.3880     0.9190 O.co2 1 <1>  -0.9000 
 15 O        5.0280    -1.6960     0.4100 O.co2 1 <1>  -0.9000 
 16 C       -2.8290     3.6130     1.4630 C.3   1 <1>  -0.1600 
 17 C       -2.6670     4.6610    -0.8130 C.3   1 <1>  -0.1600 
 18 C       -3.5250     2.3120    -0.5700 C.3   1 <1>  -0.1600 
 19 H        1.4610     2.7460     0.1010 H     1 <1>   0.3700 
 20 H        3.1030     1.3680    -0.0730 H     1 <1>   0.3700 
 21 H        3.6320    -0.7660    -1.7010 H     1 <1>   0.0800 
 22 H        2.5390    -1.3490    -0.4710 H     1 <1>   0.0800 
 23 H       -0.0030     4.6810    -0.1920 H     1 <1>   0.0800 
 24 H       -0.1150     3.9540     1.3900 H     1 <1>   0.0800 
 25 H       -0.9750     1.5930     1.6410 H     1 <1>   0.0800 
 26 H       -1.4760     0.6910     0.2390 H     1 <1>   0.0800 
 27 H       -1.3120     1.7580    -2.0790 H     1 <1>   0.0800 
 28 H       -0.7000     3.3800    -2.2390 H     1 <1>   0.0800 
 29 H       -1.9740     5.5460     1.0280 H     1 <1>   0.0800 
 30 H       -3.4500     1.5450     1.4460 H     1 <1>   0.0800 
 31 H       -3.1750     3.3340    -2.4390 H     1 <1>   0.0800 
 32 H       -2.3850     3.5520     2.4420 H     1 <1>   0.0800 
 33 H       -3.8290     3.9920     1.5810 H     1 <1>   0.0800 
 34 H       -2.1100     5.3370    -1.4380 H     1 <1>   0.0800 
 35 H       -3.6660     5.0510    -0.7190 H     1 <1>   0.0800 
 36 H       -4.5350     2.6710    -0.4770 H     1 <1>   0.0800 
 37 H       -3.5650     1.3360    -1.0220 H     1 <1>   0.0800 
@<TRIPOS>BOND
  1   1   2  2   
  2   2   3  am  
  3   2   4  am  
  4   3   5  1   
  5   3  19  1   
  6   4   6  1   
  7   4  20  1   
  8   5   7  1   
  9   5   8  1   
 10   5   9  1   
 11   6  10  1   
 12   6  21  1   
 13   6  22  1   
 14   7  11  1   
 15   7  23  1   
 16   7  24  1   
 17   8  12  1   
 18   8  25  1   
 19   8  26  1   
 20   9  13  1   
 21   9  27  1   
 22   9  28  1   
 23  10  14  ar  
 24  10  15  ar  
 25  11  16  1   
 26  11  17  1   
 27  11  29  1   
 28  12  16  1   
 29  12  18  1   
 30  12  30  1   
 31  13  17  1   
 32  13  18  1   
 33  13  31  1   
 34  16  32  1   
 35  16  33  1   
 36  17  34  1   
 37  17  35  1   
 38  18  36  1   
 39  18  37  1   
@<TRIPOS>SUBSTRUCTURE
  1 ****   3 GROUP 4 **** **** 0

# MOE 2024.06 (io_trps.svl 2023.06)
