@<TRIPOS>MOLECULE
NONAME
29 32 1 0 0 
SMALL
USER_CHARGES


@<TRIPOS>ATOM
  1 O        0.4490    -0.4640     2.1060 O.2   1 <1>  -0.5700 
  2 C        0.3970    -1.3510     1.2940 C.2   1 <1>   0.5690 
  3 N        1.3250    -1.6360     0.3430 N.am  1 <1>  -0.2370 
  4 C       -0.7690    -2.3130     1.2180 C.3   1 <1>  -0.0190 
  5 C        2.4340    -0.8710     0.1000 C.ar  1 <1>   0.7370 
  6 C        0.9410    -2.6860    -0.4300 C.2   1 <1>   0.5690 
  7 C       -0.3940    -3.2350     0.0270 C.3   1 <1>  -0.0190 
  8 C       -2.0920    -1.6630     0.7580 C.3   1 <1>   0.0580 
  9 N        3.5530    -1.2250     0.7270 N.ar  1 <1>  -0.6200 
 10 N        2.2770     0.1500    -0.7400 N.ar  1 <1>  -0.6200 
 11 O        1.5420    -3.1500    -1.3640 O.2   1 <1>  -0.5700 
 12 C       -1.5460    -3.0030    -0.9740 C.3   1 <1>   0.0580 
 13 C       -3.1010    -2.7950     0.7130 C.2   1 <1>  -0.2880 
 14 C       -1.8580    -1.5240    -0.7470 C.3   1 <1>  -0.1600 
 15 C        4.6050    -0.4810     0.4820 C.ar  1 <1>   0.1600 
 16 C        3.3480     0.8750    -0.9630 C.ar  1 <1>   0.1600 
 17 C       -2.7790    -3.5860    -0.3090 C.2   1 <1>  -0.2880 
 18 C        4.5550     0.5970    -0.3680 C.ar  1 <1>  -0.1500 
 19 H       -0.8800    -2.8510     2.1420 H     1 <1>   0.0800 
 20 H       -0.3030    -4.2670     0.3120 H     1 <1>   0.0800 
 21 H       -2.4060    -0.7670     1.2680 H     1 <1>   0.0800 
 22 H       -1.3770    -3.2950    -1.9970 H     1 <1>   0.0800 
 23 H       -3.8920    -2.8610     1.4410 H     1 <1>   0.1500 
 24 H       -1.0530    -0.8590    -1.0080 H     1 <1>   0.0800 
 25 H       -2.7530    -1.2190    -1.2650 H     1 <1>   0.0800 
 26 H        5.5300    -0.7370     0.9720 H     1 <1>   0.1500 
 27 H        3.2610     1.7110    -1.6370 H     1 <1>   0.1500 
 28 H       -3.2260    -4.4970    -0.6720 H     1 <1>   0.1500 
 29 H        5.4230     1.1980    -0.5590 H     1 <1>   0.1500 
@<TRIPOS>BOND
  1   1   2  2   
  2   2   3  am  
  3   2   4  1   
  4   3   5  1   
  5   3   6  am  
  6   4   7  1   
  7   4   8  1   
  8   4  19  1   
  9   5   9  ar  
 10   5  10  ar  
 11   6   7  1   
 12   6  11  2   
 13   7  12  1   
 14   7  20  1   
 15   8  13  1   
 16   8  14  1   
 17   8  21  1   
 18   9  15  ar  
 19  10  16  ar  
 20  12  14  1   
 21  12  17  1   
 22  12  22  1   
 23  13  17  2   
 24  13  23  1   
 25  14  24  1   
 26  14  25  1   
 27  15  18  ar  
 28  15  26  1   
 29  16  18  ar  
 30  16  27  1   
 31  17  28  1   
 32  18  29  1   
@<TRIPOS>SUBSTRUCTURE
  1 ****   3 GROUP 4 **** **** 0

# MOE 2024.06 (io_trps.svl 2023.06)
