@<TRIPOS>MOLECULE
NONAME
27 27 1 0 0 
SMALL
USER_CHARGES


@<TRIPOS>ATOM
  1 S       -0.1710    -0.3930     0.2260 S.3   1 <1>  -0.3710 
  2 C       -1.5920     0.6990     0.3030 C.2   1 <1>   0.6510 
  3 C        1.2380     0.7670    -0.0680 C.3   1 <1>   0.0700 
  4 N       -1.3560     1.9490     0.1560 N.2   1 <1>  -0.6210 
  5 N       -2.8260     0.1120     0.5100 N.am  1 <1>  -0.4200 
  6 C        2.5230    -0.0580    -0.1570 C.3   1 <1>  -0.1600 
  7 C       -2.4200     2.8040     0.2020 C.2   1 <1>   0.0210 
  8 C       -3.9190     0.9680     0.5490 C.2   1 <1>   0.6160 
  9 C       -3.0200    -1.3510     0.6920 C.3   1 <1>   0.1400 
 10 C        3.7410     0.8400    -0.4010 C.3   1 <1>  -0.2400 
 11 O       -2.1870     4.0070     0.0640 O.3   1 <1>  -0.8500 
 12 C       -3.6990     2.3240     0.3950 C.2   1 <1>  -0.1360 
 13 O       -5.0570     0.4900     0.7220 O.2   1 <1>  -0.5700 
 14 C       -3.2320    -2.0240    -0.6650 C.3   1 <1>  -0.2400 
 15 H        1.2560     1.4600     0.7550 H     1 <1>   0.0800 
 16 H        1.0300     1.2950    -0.9820 H     1 <1>   0.0800 
 17 H        2.4330    -0.7660    -0.9620 H     1 <1>   0.0800 
 18 H        2.6580    -0.6020     0.7610 H     1 <1>   0.0800 
 19 H       -3.8790    -1.5250     1.3180 H     1 <1>   0.0800 
 20 H       -2.1740    -1.7810     1.1960 H     1 <1>   0.0800 
 21 H        3.6260     1.3820    -1.3230 H     1 <1>   0.0800 
 22 H        4.6340     0.2440    -0.4610 H     1 <1>   0.0800 
 23 H        3.8510     1.5460     0.4030 H     1 <1>   0.0800 
 24 H       -4.5150     3.0130     0.4230 H     1 <1>   0.1500 
 25 H       -4.1040    -1.6170    -1.1450 H     1 <1>   0.0800 
 26 H       -3.3780    -3.0800    -0.5270 H     1 <1>   0.0800 
 27 H       -2.3740    -1.8740    -1.2960 H     1 <1>   0.0800 
@<TRIPOS>BOND
  1   1   2  1   
  2   1   3  1   
  3   2   4  2   
  4   2   5  1   
  5   3   6  1   
  6   3  15  1   
  7   3  16  1   
  8   4   7  1   
  9   5   8  am  
 10   5   9  1   
 11   6  10  1   
 12   6  17  1   
 13   6  18  1   
 14   7  11  1   
 15   7  12  2   
 16   8  12  1   
 17   8  13  2   
 18   9  14  1   
 19   9  19  1   
 20   9  20  1   
 21  10  21  1   
 22  10  22  1   
 23  10  23  1   
 24  12  24  1   
 25  14  25  1   
 26  14  26  1   
 27  14  27  1   
@<TRIPOS>SUBSTRUCTURE
  1 ****   2 GROUP 4 **** **** 0

# MOE 2024.06 (io_trps.svl 2023.06)
