@<TRIPOS>MOLECULE
NONAME
45 47 1 0 0 
SMALL
USER_CHARGES


@<TRIPOS>ATOM
  1 N        1.5670     2.8800    -2.6550 N.ar  1 <1>  -0.6200 
  2 C        1.6870     3.2980    -1.4050 C.ar  1 <1>   0.1600 
  3 C        2.0630     1.6780    -2.8960 C.ar  1 <1>   0.1600 
  4 C        2.2870     2.5830    -0.3790 C.ar  1 <1>  -0.1440 
  5 C        2.6770     0.8750    -1.9490 C.ar  1 <1>  -0.1500 
  6 C        2.7980     1.3300    -0.6530 C.ar  1 <1>  -0.1500 
  7 C        2.3770     3.1850     1.0130 C.3   1 <1>   0.2540 
  8 N        3.0760     4.4850     0.9630 N.3   1 <1>  -0.8100 
  9 C        3.0420     5.1850     2.2670 C.3   1 <1>   0.1100 
 10 C        4.4760     4.3510     0.4750 C.3   1 <1>   0.1100 
 11 C        3.6710     6.6000     2.1810 C.3   1 <1>   0.3430 
 12 C        5.2560     5.6870     0.5110 C.3   1 <1>   0.3430 
 13 N        4.3410     6.8250     0.8590 N.4   1 <1>  -0.9590 
 14 C        4.9550     8.1690     0.7030 C.3   1 <1>   0.4860 
 15 C        5.5220     8.2940    -0.7000 C.ar  1 <1>  -0.1430 
 16 C        6.8940     8.3490    -0.9310 C.ar  1 <1>  -0.1430 
 17 C        4.6420     8.3420    -1.7740 C.ar  1 <1>  -0.1500 
 18 C        7.3600     8.4350    -2.2340 C.ar  1 <1>  -0.1500 
 19 C        7.9130     8.3250     0.2030 C.3   1 <1>  -0.0970 
 20 C        5.1180     8.4280    -3.0690 C.ar  1 <1>  -0.1500 
 21 C        6.4790     8.4710    -3.2980 C.ar  1 <1>  -0.1500 
 22 H        1.2870     4.2730    -1.1850 H     1 <1>   0.1500 
 23 H        1.9740     1.3110    -3.9050 H     1 <1>   0.1500 
 24 H        3.0520    -0.0930    -2.2280 H     1 <1>   0.1500 
 25 H        3.2710     0.7260     0.1020 H     1 <1>   0.1500 
 26 H        2.8940     2.5130     1.6770 H     1 <1>   0.0800 
 27 H        1.3780     3.3270     1.3890 H     1 <1>   0.0800 
 28 H        3.5710     4.6060     3.0050 H     1 <1>   0.0800 
 29 H        2.0220     5.2810     2.6000 H     1 <1>   0.0800 
 30 H        4.4670     3.9970    -0.5430 H     1 <1>   0.0800 
 31 H        5.0060     3.6190     1.0620 H     1 <1>   0.0800 
 32 H        4.3810     6.7180     2.9830 H     1 <1>   0.0800 
 33 H        2.8930     7.3320     2.3220 H     1 <1>   0.0800 
 34 H        5.7050     5.8510    -0.4560 H     1 <1>   0.0800 
 35 H        6.0500     5.6180     1.2340 H     1 <1>   0.0800 
 36 H        3.5900     6.7290     0.1610 H     1 <1>   0.4500 
 37 H        5.7350     8.3060     1.4320 H     1 <1>   0.0800 
 38 H        4.2120     8.9350     0.8540 H     1 <1>   0.0800 
 39 H        3.5760     8.3150    -1.6220 H     1 <1>   0.1500 
 40 H        8.4170     8.4780    -2.4360 H     1 <1>   0.1500 
 41 H        7.7790     9.1820     0.8400 H     1 <1>   0.0800 
 42 H        8.9160     8.3590    -0.1840 H     1 <1>   0.0800 
 43 H        7.8140     7.4280     0.7850 H     1 <1>   0.0800 
 44 H        4.4330     8.4620    -3.8990 H     1 <1>   0.1500 
 45 H        6.8530     8.5380    -4.3060 H     1 <1>   0.1500 
@<TRIPOS>BOND
  1   1   2  ar  
  2   1   3  ar  
  3   2   4  ar  
  4   2  22  1   
  5   3   5  ar  
  6   3  23  1   
  7   4   6  ar  
  8   4   7  1   
  9   5   6  ar  
 10   5  24  1   
 11   6  25  1   
 12   7   8  1   
 13   7  26  1   
 14   7  27  1   
 15   8   9  1   
 16   8  10  1   
 17   9  11  1   
 18   9  28  1   
 19   9  29  1   
 20  10  12  1   
 21  10  30  1   
 22  10  31  1   
 23  11  13  1   
 24  11  32  1   
 25  11  33  1   
 26  12  13  1   
 27  12  34  1   
 28  12  35  1   
 29  13  14  1   
 30  13  36  1   
 31  14  15  1   
 32  14  37  1   
 33  14  38  1   
 34  15  16  ar  
 35  15  17  ar  
 36  16  18  ar  
 37  16  19  1   
 38  17  20  ar  
 39  17  39  1   
 40  18  21  ar  
 41  18  40  1   
 42  19  41  1   
 43  19  42  1   
 44  19  43  1   
 45  20  21  ar  
 46  20  44  1   
 47  21  45  1   
@<TRIPOS>SUBSTRUCTURE
  1 ****  12 GROUP 4 **** **** 0

# MOE 2024.06 (io_trps.svl 2023.06)
