@<TRIPOS>MOLECULE
NONAME
44 43 1 0 0 
SMALL
USER_CHARGES


@<TRIPOS>ATOM
  1 O        0.5730    -0.6030     1.6880 O.2   1 <1>  -0.5700 
  2 C        1.1820    -0.7860     0.6510 C.2   1 <1>   0.7060 
  3 O        1.7080     0.2670     0.0150 O.3   1 <1>  -0.4300 
  4 C        1.4080    -2.0810     0.0910 C.2   1 <1>   0.0290 
  5 C        1.5340     1.5780     0.5020 C.3   1 <1>   0.1200 
  6 C        0.2190    -2.7900    -0.2590 C.2   1 <1>   0.4950 
  7 C        2.6740    -2.5950    -0.0940 C.2   1 <1>  -0.1500 
  8 C        2.2640     2.5320    -0.4380 C.3   1 <1>  -0.2400 
  9 O       -0.8210    -2.2510    -0.5500 O.2   1 <1>  -0.5700 
 10 C        0.2170    -4.3050    -0.3080 C.3   1 <1>  -0.1790 
 11 C        3.9090    -2.0030     0.2460 C.2   1 <1>  -0.1500 
 12 C        5.1390    -2.5490     0.0340 C.2   1 <1>  -0.0500 
 13 N        6.3880    -2.0400     0.3200 N.pl3 1 <1>  -0.8380 
 14 C        6.6950    -0.6350     0.7320 C.3   1 <1>   0.2890 
 15 C        7.6010    -2.8950     0.1660 C.3   1 <1>   0.2890 
 16 C        6.2510    -0.3910     2.1720 C.3   1 <1>  -0.2400 
 17 C        6.1290     0.3770    -0.2650 C.3   1 <1>  -0.2400 
 18 C        7.8560    -3.1510    -1.3170 C.3   1 <1>  -0.2400 
 19 C        7.4420    -4.1960     0.9520 C.3   1 <1>  -0.2400 
 20 H        0.4790     1.7930     0.5290 H     1 <1>   0.0800 
 21 H        1.9400     1.6310     1.4980 H     1 <1>   0.0800 
 22 H        2.7680    -3.5620    -0.5550 H     1 <1>   0.1500 
 23 H        1.8570     2.4560    -1.4310 H     1 <1>   0.0800 
 24 H        3.3140     2.3010    -0.4610 H     1 <1>   0.0800 
 25 H        2.1420     3.5430    -0.0950 H     1 <1>   0.0800 
 26 H        0.8510    -4.7100     0.4600 H     1 <1>   0.0800 
 27 H        0.5550    -4.6380    -1.2710 H     1 <1>   0.0800 
 28 H       -0.7820    -4.6690    -0.1490 H     1 <1>   0.0800 
 29 H        3.8500    -1.0440     0.7150 H     1 <1>   0.1500 
 30 H        5.1470    -3.5250    -0.4200 H     1 <1>   0.1500 
 31 H        7.7620    -0.4940     0.7110 H     1 <1>   0.0800 
 32 H        8.4600    -2.3870     0.5710 H     1 <1>   0.0800 
 33 H        5.1870    -0.4480     2.2770 H     1 <1>   0.0800 
 34 H        6.5690     0.5850     2.4890 H     1 <1>   0.0800 
 35 H        6.7040    -1.1220     2.8160 H     1 <1>   0.0800 
 36 H        5.0610     0.4260    -0.2320 H     1 <1>   0.0800 
 37 H        6.4380     0.1120    -1.2590 H     1 <1>   0.0800 
 38 H        6.5120     1.3550    -0.0390 H     1 <1>   0.0800 
 39 H        7.0490    -3.7080    -1.7540 H     1 <1>   0.0800 
 40 H        8.7650    -3.7110    -1.4410 H     1 <1>   0.0800 
 41 H        7.9580    -2.2140    -1.8340 H     1 <1>   0.0800 
 42 H        6.6790    -4.8200     0.5270 H     1 <1>   0.0800 
 43 H        7.1900    -3.9710     1.9730 H     1 <1>   0.0800 
 44 H        8.3670    -4.7410     0.9410 H     1 <1>   0.0800 
@<TRIPOS>BOND
  1   1   2  2   
  2   2   3  1   
  3   2   4  1   
  4   3   5  1   
  5   4   6  1   
  6   4   7  2   
  7   5   8  1   
  8   5  20  1   
  9   5  21  1   
 10   6   9  2   
 11   6  10  1   
 12   7  11  1   
 13   7  22  1   
 14   8  23  1   
 15   8  24  1   
 16   8  25  1   
 17  10  26  1   
 18  10  27  1   
 19  10  28  1   
 20  11  12  2   
 21  11  29  1   
 22  12  13  1   
 23  12  30  1   
 24  13  14  1   
 25  13  15  1   
 26  14  16  1   
 27  14  17  1   
 28  14  31  1   
 29  15  18  1   
 30  15  19  1   
 31  15  32  1   
 32  16  33  1   
 33  16  34  1   
 34  16  35  1   
 35  17  36  1   
 36  17  37  1   
 37  17  38  1   
 38  18  39  1   
 39  18  40  1   
 40  18  41  1   
 41  19  42  1   
 42  19  43  1   
 43  19  44  1   
@<TRIPOS>SUBSTRUCTURE
  1 ****  11 GROUP 4 **** **** 0

# MOE 2024.06 (io_trps.svl 2023.06)
