@<TRIPOS>MOLECULE
NONAME
45 47 1 0 0 
SMALL
USER_CHARGES


@<TRIPOS>ATOM
  1 CL       3.8540    -1.7360     1.9940 Cl    1 <1>  -0.1770 
  2 C        2.6210    -2.1130     0.8140 C.ar  1 <1>   0.1770 
  3 C        2.4720    -1.3040    -0.3150 C.ar  1 <1>   0.0860 
  4 C        1.8320    -3.2250     1.0350 C.ar  1 <1>  -0.1500 
  5 C        3.2960    -0.1370    -0.5240 C.2   1 <1>   0.5440 
  6 C        1.4800    -1.6520    -1.2370 C.ar  1 <1>  -0.1500 
  7 C        0.8690    -3.5310     0.0940 C.ar  1 <1>   0.1900 
  8 O        2.8520     0.9540    -0.2350 O.2   1 <1>  -0.5700 
  9 N        4.5780    -0.2080    -1.0360 N.am  1 <1>  -0.6600 
 10 C        0.6780    -2.7640    -1.0400 C.ar  1 <1>  -0.1500 
 11 F        0.1180    -4.5790     0.2810 F     1 <1>  -0.1900 
 12 C        5.3750     1.0330    -1.2830 C.3   1 <1>   0.1400 
 13 C        5.4000    -1.4540    -1.0810 C.3   1 <1>   0.1400 
 14 C        6.5000     1.1420    -0.2390 C.3   1 <1>   0.3430 
 15 C        6.5650    -1.3580    -0.0720 C.3   1 <1>   0.3430 
 16 N        7.3700    -0.0880    -0.2250 N.4   1 <1>  -0.9590 
 17 C        8.4230     0.0070     0.8230 C.3   1 <1>   0.4860 
 18 C        9.3560    -1.1770     0.6730 C.ar  1 <1>  -0.1430 
 19 C        9.2960    -2.2300     1.5740 C.ar  1 <1>  -0.1500 
 20 C       10.2680    -1.2250    -0.3710 C.ar  1 <1>  -0.1500 
 21 C       10.1280    -3.3250     1.4220 C.ar  1 <1>  -0.1500 
 22 C       11.0980    -2.3220    -0.5190 C.ar  1 <1>  -0.1500 
 23 C       11.0290    -3.3790     0.3730 C.ar  1 <1>  -0.1430 
 24 C       11.9430    -4.5800     0.2090 C.3   1 <1>  -0.0970 
 25 H        1.9570    -3.8370     1.9100 H     1 <1>   0.1500 
 26 H        1.3360    -1.0350    -2.1090 H     1 <1>   0.1500 
 27 H       -0.0870    -3.0330    -1.7480 H     1 <1>   0.1500 
 28 H        4.7530     1.9100    -1.2260 H     1 <1>   0.0800 
 29 H        5.7910     1.0010    -2.2740 H     1 <1>   0.0800 
 30 H        5.7900    -1.5860    -2.0750 H     1 <1>   0.0800 
 31 H        4.8020    -2.3180    -0.8530 H     1 <1>   0.0800 
 32 H        6.0440     1.2790     0.7290 H     1 <1>   0.0800 
 33 H        7.0950     2.0150    -0.4520 H     1 <1>   0.0800 
 34 H        7.2070    -2.2160    -0.1980 H     1 <1>   0.0800 
 35 H        6.1560    -1.4030     0.9230 H     1 <1>   0.0800 
 36 H        7.8620    -0.1560    -1.1240 H     1 <1>   0.4500 
 37 H        7.9760     0.0020     1.8040 H     1 <1>   0.0800 
 38 H        8.9850     0.9200     0.7080 H     1 <1>   0.0800 
 39 H        8.6090    -2.2150     2.4040 H     1 <1>   0.1500 
 40 H       10.3540    -0.4170    -1.0770 H     1 <1>   0.1500 
 41 H       10.0770    -4.1380     2.1270 H     1 <1>   0.1500 
 42 H       11.8060    -2.3530    -1.3310 H     1 <1>   0.1500 
 43 H       11.4700    -5.4690     0.5860 H     1 <1>   0.0800 
 44 H       12.8570    -4.4190     0.7520 H     1 <1>   0.0800 
 45 H       12.1790    -4.7380    -0.8280 H     1 <1>   0.0800 
@<TRIPOS>BOND
  1   1   2  1   
  2   2   3  ar  
  3   2   4  ar  
  4   3   5  1   
  5   3   6  ar  
  6   4   7  ar  
  7   4  25  1   
  8   5   8  2   
  9   5   9  am  
 10   6  10  ar  
 11   6  26  1   
 12   7  10  ar  
 13   7  11  1   
 14   9  12  1   
 15   9  13  1   
 16  10  27  1   
 17  12  14  1   
 18  12  28  1   
 19  12  29  1   
 20  13  15  1   
 21  13  30  1   
 22  13  31  1   
 23  14  16  1   
 24  14  32  1   
 25  14  33  1   
 26  15  16  1   
 27  15  34  1   
 28  15  35  1   
 29  16  17  1   
 30  16  36  1   
 31  17  18  1   
 32  17  37  1   
 33  17  38  1   
 34  18  19  ar  
 35  18  20  ar  
 36  19  21  ar  
 37  19  39  1   
 38  20  22  ar  
 39  20  40  1   
 40  21  23  ar  
 41  21  41  1   
 42  22  23  ar  
 43  22  42  1   
 44  23  24  1   
 45  24  43  1   
 46  24  44  1   
 47  24  45  1   
@<TRIPOS>SUBSTRUCTURE
  1 ****  15 GROUP 4 **** **** 0

# MOE 2024.06 (io_trps.svl 2023.06)
