@<TRIPOS>MOLECULE
NONAME
37 38 1 0 0 
SMALL
USER_CHARGES


@<TRIPOS>ATOM
  1 O       -0.4830    -1.1340     1.6280 O.2   1 <1>  -0.5700 
  2 C       -0.9410    -1.6970     0.6510 C.2   1 <1>   0.5440 
  3 N       -0.1050    -2.4900    -0.1090 N.am  1 <1>  -0.6600 
  4 C       -2.3430    -1.5220     0.3260 C.ar  1 <1>   0.0860 
  5 C        1.3810    -2.4540     0.0500 C.3   1 <1>   0.1400 
  6 C       -0.5770    -3.6390    -0.9390 C.3   1 <1>   0.1400 
  7 C       -2.7730    -1.2570    -0.9760 C.ar  1 <1>  -0.1500 
  8 C       -3.3230    -1.6000     1.3160 C.ar  1 <1>  -0.1500 
  9 C        1.9160    -3.8340     0.4620 C.3   1 <1>   0.1200 
 10 C        0.0820    -4.9510    -0.4770 C.3   1 <1>   0.1200 
 11 C       -4.1120    -1.0890    -1.2740 C.ar  1 <1>  -0.1500 
 12 C       -4.6630    -1.4340     1.0220 C.ar  1 <1>  -0.1500 
 13 O        1.4740    -4.8200    -0.4290 O.3   1 <1>  -0.5600 
 14 C       -5.0750    -1.1690    -0.2780 C.ar  1 <1>   0.1170 
 15 N       -6.4200    -0.9920    -0.5930 N.am  1 <1>  -0.5470 
 16 C       -7.3130    -0.0570    -0.1670 C.2   1 <1>   0.5690 
 17 O       -8.4480    -0.1000    -0.5660 O.2   1 <1>  -0.5700 
 18 C       -6.9070     1.0590     0.7860 C.3   1 <1>  -0.0990 
 19 C       -6.0220     2.1260     0.1200 C.3   1 <1>  -0.2400 
 20 H        1.6700    -1.7250     0.7870 H     1 <1>   0.0800 
 21 H        1.8280    -2.1680    -0.8850 H     1 <1>   0.0800 
 22 H       -0.3220    -3.4600    -1.9690 H     1 <1>   0.0800 
 23 H       -1.6440    -3.7460    -0.8710 H     1 <1>   0.0800 
 24 H       -2.0380    -1.1760    -1.7580 H     1 <1>   0.1500 
 25 H       -3.0160    -1.7940     2.3300 H     1 <1>   0.1500 
 26 H        1.5820    -4.0860     1.4540 H     1 <1>   0.0800 
 27 H        2.9910    -3.8350     0.4480 H     1 <1>   0.0800 
 28 H       -0.1480    -5.7450    -1.1650 H     1 <1>   0.0800 
 29 H       -0.2710    -5.2280     0.5010 H     1 <1>   0.0800 
 30 H       -4.4160    -0.8830    -2.2850 H     1 <1>   0.1500 
 31 H       -5.3960    -1.5120     1.8050 H     1 <1>   0.1500 
 32 H       -6.8130    -1.6010    -1.3110 H     1 <1>   0.3700 
 33 H       -6.3990     0.6420     1.6340 H     1 <1>   0.0800 
 34 H       -7.8030     1.5300     1.1500 H     1 <1>   0.0800 
 35 H       -5.0960     1.6950    -0.2150 H     1 <1>   0.0800 
 36 H       -5.8000     2.9110     0.8200 H     1 <1>   0.0800 
 37 H       -6.5320     2.5520    -0.7270 H     1 <1>   0.0800 
@<TRIPOS>BOND
  1   1   2  2   
  2   2   3  am  
  3   2   4  1   
  4   3   5  1   
  5   3   6  1   
  6   4   7  ar  
  7   4   8  ar  
  8   5   9  1   
  9   5  20  1   
 10   5  21  1   
 11   6  10  1   
 12   6  22  1   
 13   6  23  1   
 14   7  11  ar  
 15   7  24  1   
 16   8  12  ar  
 17   8  25  1   
 18   9  13  1   
 19   9  26  1   
 20   9  27  1   
 21  10  13  1   
 22  10  28  1   
 23  10  29  1   
 24  11  14  ar  
 25  11  30  1   
 26  12  14  ar  
 27  12  31  1   
 28  14  15  1   
 29  15  16  am  
 30  15  32  1   
 31  16  17  2   
 32  16  18  1   
 33  18  19  1   
 34  18  33  1   
 35  18  34  1   
 36  19  35  1   
 37  19  36  1   
 38  19  37  1   
@<TRIPOS>SUBSTRUCTURE
  1 ****   4 GROUP 4 **** **** 0

# MOE 2024.06 (io_trps.svl 2023.06)
