@<TRIPOS>MOLECULE
NONAME
43 44 1 0 0 
SMALL
USER_CHARGES


@<TRIPOS>ATOM
  1 CL       0.2290    -0.9570    -1.5270 Cl    1 <1>  -0.1770 
  2 C        1.7650    -1.2590    -0.7400 C.ar  1 <1>   0.1770 
  3 C        2.1470    -0.5130     0.3690 C.ar  1 <1>   0.0830 
  4 C        2.5720    -2.2550    -1.2550 C.ar  1 <1>  -0.1500 
  5 O        1.2970     0.4530     0.8190 O.3   1 <1>  -0.3630 
  6 C        3.3740    -0.7860     0.9650 C.ar  1 <1>  -0.1500 
  7 C        3.7970    -2.5190    -0.6540 C.ar  1 <1>   0.0830 
  8 C        1.6360     1.2730     1.9170 C.3   1 <1>   0.0400 
  9 C        4.2070    -1.7810     0.4630 C.ar  1 <1>   0.1170 
 10 O        4.6500    -3.4880    -1.1080 O.3   1 <1>  -0.3630 
 11 N        5.4590    -2.0930     1.0260 N.am  1 <1>  -0.5470 
 12 C        4.3520    -4.2410    -2.2640 C.3   1 <1>   0.0400 
 13 C        6.2180    -1.5270     2.0100 C.2   1 <1>   0.5690 
 14 O        5.8870    -0.5620     2.6530 O.2   1 <1>  -0.5700 
 15 C        7.5640    -2.1620     2.2990 C.3   1 <1>  -0.0990 
 16 C        8.5550    -1.9670     1.1380 C.3   1 <1>  -0.1600 
 17 C        9.8890    -2.6650     1.4180 C.3   1 <1>   0.1400 
 18 N       10.7720    -2.5470     0.2390 N.am  1 <1>  -0.4200 
 19 C       10.6530    -3.3090    -0.8800 C.2   1 <1>   0.5690 
 20 C       11.8080    -1.6740     0.1390 C.2   1 <1>   0.5690 
 21 O        9.8230    -4.1600    -1.0680 O.2   1 <1>  -0.5700 
 22 C       11.7160    -2.9450    -1.8920 C.3   1 <1>  -0.0990 
 23 O       12.1510    -0.8840     0.9800 O.2   1 <1>  -0.5700 
 24 C       12.5040    -1.8190    -1.1950 C.3   1 <1>  -0.0990 
 25 H        2.2210    -2.7970    -2.1100 H     1 <1>   0.1500 
 26 H        3.6920    -0.2300     1.8230 H     1 <1>   0.1500 
 27 H        0.8300     1.9660     2.0780 H     1 <1>   0.0800 
 28 H        2.5390     1.8110     1.6870 H     1 <1>   0.0800 
 29 H        1.7670     0.6560     2.7880 H     1 <1>   0.0800 
 30 H        5.8910    -2.8840     0.5430 H     1 <1>   0.3700 
 31 H        5.1710    -4.9150    -2.4450 H     1 <1>   0.0800 
 32 H        4.2410    -3.5730    -3.1000 H     1 <1>   0.0800 
 33 H        3.4500    -4.8020    -2.0950 H     1 <1>   0.0800 
 34 H        7.4130    -3.2100     2.4850 H     1 <1>   0.0800 
 35 H        7.9660    -1.7210     3.1940 H     1 <1>   0.0800 
 36 H        8.7270    -0.9130     0.9950 H     1 <1>   0.0800 
 37 H        8.1290    -2.3700     0.2360 H     1 <1>   0.0800 
 38 H        9.7240    -3.7090     1.6230 H     1 <1>   0.0800 
 39 H       10.3680    -2.2210     2.2750 H     1 <1>   0.0800 
 40 H       11.2540    -2.6030    -2.8000 H     1 <1>   0.0800 
 41 H       12.3370    -3.7990    -2.0920 H     1 <1>   0.0800 
 42 H       13.5330    -2.0900    -1.0430 H     1 <1>   0.0800 
 43 H       12.4420    -0.8950    -1.7410 H     1 <1>   0.0800 
@<TRIPOS>BOND
  1   1   2  1   
  2   2   3  ar  
  3   2   4  ar  
  4   3   5  1   
  5   3   6  ar  
  6   4   7  ar  
  7   4  25  1   
  8   5   8  1   
  9   6   9  ar  
 10   6  26  1   
 11   7   9  ar  
 12   7  10  1   
 13   8  27  1   
 14   8  28  1   
 15   8  29  1   
 16   9  11  1   
 17  10  12  1   
 18  11  13  am  
 19  11  30  1   
 20  12  31  1   
 21  12  32  1   
 22  12  33  1   
 23  13  14  2   
 24  13  15  1   
 25  15  16  1   
 26  15  34  1   
 27  15  35  1   
 28  16  17  1   
 29  16  36  1   
 30  16  37  1   
 31  17  18  1   
 32  17  38  1   
 33  17  39  1   
 34  18  19  am  
 35  18  20  am  
 36  19  21  2   
 37  19  22  1   
 38  20  23  2   
 39  20  24  1   
 40  22  24  1   
 41  22  40  1   
 42  22  41  1   
 43  24  42  1   
 44  24  43  1   
@<TRIPOS>SUBSTRUCTURE
  1 ****  11 GROUP 4 **** **** 0

# MOE 2024.06 (io_trps.svl 2023.06)
