@<TRIPOS>MOLECULE
NONAME
45 46 1 0 0 
SMALL
USER_CHARGES


@<TRIPOS>ATOM
  1 O       -1.0210    -8.3720    -1.5470 O.3   1 <1>  -0.5600 
  2 C       -0.7660    -8.9580    -0.3040 C.3   1 <1>   0.1200 
  3 C       -0.7380    -7.0060    -1.6260 C.3   1 <1>   0.1200 
  4 C        0.7210    -8.7940     0.0670 C.3   1 <1>   0.3430 
  5 C        0.7500    -6.7500    -1.3150 C.3   1 <1>   0.3430 
  6 N        1.1520    -7.3520     0.0080 N.4   1 <1>  -0.9590 
  7 C        2.6280    -7.2440     0.2610 C.3   1 <1>   0.3430 
  8 C        3.1000    -5.7990     0.4490 C.3   1 <1>   0.1200 
  9 O        4.4860    -5.8510     0.6630 O.3   1 <1>  -0.3630 
 10 C        5.2510    -4.7300     0.7190 C.ar  1 <1>   0.0820 
 11 C        6.6410    -4.8660     0.6520 C.ar  1 <1>  -0.1440 
 12 C        4.6830    -3.4620     0.8400 C.ar  1 <1>  -0.1500 
 13 C        7.4250    -3.7210     0.6990 C.ar  1 <1>  -0.1500 
 14 C        7.3640    -6.2160     0.5250 C.3   1 <1>   0.0630 
 15 C        5.4830    -2.3360     0.8850 C.ar  1 <1>  -0.1500 
 16 C        6.8550    -2.4660     0.8130 C.ar  1 <1>  -0.1500 
 17 C        7.0320    -6.9090    -0.8110 C.3   1 <1>  -0.1600 
 18 C        7.1060    -7.1060     1.7510 C.3   1 <1>  -0.2400 
 19 C        7.9170    -8.1290    -1.1030 C.3   1 <1>  -0.2400 
 20 H       -1.0160   -10.0020    -0.3780 H     1 <1>   0.0800 
 21 H       -1.4070    -8.5050     0.4330 H     1 <1>   0.0800 
 22 H       -1.3780    -6.4770    -0.9410 H     1 <1>   0.0800 
 23 H       -0.9690    -6.6830    -2.6270 H     1 <1>   0.0800 
 24 H        1.3060    -9.3780    -0.6240 H     1 <1>   0.0800 
 25 H        0.8860    -9.1890     1.0560 H     1 <1>   0.0800 
 26 H        0.9320    -5.6890    -1.3130 H     1 <1>   0.0800 
 27 H        1.3380    -7.1850    -2.1070 H     1 <1>   0.0800 
 28 H        0.6470    -6.8540     0.7530 H     1 <1>   0.4500 
 29 H        3.1680    -7.6780    -0.5650 H     1 <1>   0.0800 
 30 H        2.8790    -7.7930     1.1540 H     1 <1>   0.0800 
 31 H        2.6450    -5.3520     1.3150 H     1 <1>   0.0800 
 32 H        2.9250    -5.2100    -0.4330 H     1 <1>   0.0800 
 33 H        3.6230    -3.3210     0.9080 H     1 <1>   0.1500 
 34 H        8.4980    -3.7930     0.6470 H     1 <1>   0.1500 
 35 H        8.4220    -6.0180     0.5150 H     1 <1>   0.0800 
 36 H        5.0420    -1.3580     0.9780 H     1 <1>   0.1500 
 37 H        7.4820    -1.5920     0.8470 H     1 <1>   0.1500 
 38 H        7.1670    -6.1930    -1.6040 H     1 <1>   0.0800 
 39 H        6.0040    -7.2150    -0.8240 H     1 <1>   0.0800 
 40 H        6.1000    -7.4790     1.7560 H     1 <1>   0.0800 
 41 H        7.2660    -6.5380     2.6500 H     1 <1>   0.0800 
 42 H        7.7820    -7.9410     1.7590 H     1 <1>   0.0800 
 43 H        8.9570    -7.8550    -1.0790 H     1 <1>   0.0800 
 44 H        7.6930    -8.5170    -2.0810 H     1 <1>   0.0800 
 45 H        7.7460    -8.9100    -0.3840 H     1 <1>   0.0800 
@<TRIPOS>BOND
  1   1   2  1   
  2   1   3  1   
  3   2   4  1   
  4   2  20  1   
  5   2  21  1   
  6   3   5  1   
  7   3  22  1   
  8   3  23  1   
  9   4   6  1   
 10   4  24  1   
 11   4  25  1   
 12   5   6  1   
 13   5  26  1   
 14   5  27  1   
 15   6   7  1   
 16   6  28  1   
 17   7   8  1   
 18   7  29  1   
 19   7  30  1   
 20   8   9  1   
 21   8  31  1   
 22   8  32  1   
 23   9  10  1   
 24  10  11  ar  
 25  10  12  ar  
 26  11  13  ar  
 27  11  14  1   
 28  12  15  ar  
 29  12  33  1   
 30  13  16  ar  
 31  13  34  1   
 32  14  17  1   
 33  14  18  1   
 34  14  35  1   
 35  15  16  ar  
 36  15  36  1   
 37  16  37  1   
 38  17  19  1   
 39  17  38  1   
 40  17  39  1   
 41  18  40  1   
 42  18  41  1   
 43  18  42  1   
 44  19  43  1   
 45  19  44  1   
 46  19  45  1   
@<TRIPOS>SUBSTRUCTURE
  1 ****   9 GROUP 4 **** **** 0

# MOE 2024.06 (io_trps.svl 2023.06)
