@<TRIPOS>MOLECULE
NONAME
30 31 1 0 0 
SMALL
USER_CHARGES


@<TRIPOS>ATOM
  1 I        0.3130     0.0310    -0.0920 I     1 <1>  -0.0810 
  2 C       -1.5900     0.9870    -0.0390 C.ar  1 <1>   0.0810 
  3 C       -2.7100     0.2230     0.2330 C.ar  1 <1>  -0.1500 
  4 C       -1.6580     2.3470    -0.2760 C.ar  1 <1>  -0.1500 
  5 C       -3.9420     0.8520     0.2650 C.ar  1 <1>  -0.1500 
  6 C       -2.9000     2.9580    -0.2410 C.ar  1 <1>  -0.1500 
  7 C       -4.0520     2.2210     0.0260 C.ar  1 <1>   0.1000 
  8 N       -5.2870     2.8810     0.0560 N.pl3 1 <1>  -0.6000 
  9 C       -6.5460     2.3430    -0.1330 C.2   1 <1>  -0.0500 
 10 C       -7.7370     2.9970    -0.0530 C.2   1 <1>  -0.1240 
 11 C       -8.9880     2.3250    -0.2470 C.2   1 <1>   0.4950 
 12 C       -7.7510     4.4930     0.2780 C.3   1 <1>  -0.0220 
 13 O       -9.0660     1.1290    -0.4060 O.2   1 <1>  -0.5700 
 14 C      -10.3110     3.0780    -0.2970 C.3   1 <1>  -0.0990 
 15 C       -9.0090     5.2180    -0.2090 C.3   1 <1>  -0.1600 
 16 C      -10.2580     4.4930     0.2890 C.3   1 <1>  -0.1600 
 17 H       -2.6240    -0.8330     0.4160 H     1 <1>   0.1500 
 18 H       -0.7680     2.9120    -0.4840 H     1 <1>   0.1500 
 19 H       -4.8210     0.2750     0.4850 H     1 <1>   0.1500 
 20 H       -2.9760     4.0130    -0.4270 H     1 <1>   0.1500 
 21 H       -5.2270     3.8890     0.2160 H     1 <1>   0.4000 
 22 H       -6.5610     1.2910    -0.3690 H     1 <1>   0.1500 
 23 H       -7.6800     4.6000     1.3470 H     1 <1>   0.0800 
 24 H       -6.8960     4.9790    -0.1570 H     1 <1>   0.0800 
 25 H      -10.6090     3.1320    -1.3290 H     1 <1>   0.0800 
 26 H      -11.0560     2.5040     0.2240 H     1 <1>   0.0800 
 27 H       -9.0050     6.2290     0.1590 H     1 <1>   0.0800 
 28 H       -9.0140     5.2550    -1.2860 H     1 <1>   0.0800 
 29 H      -11.1420     5.0370     0.0020 H     1 <1>   0.0800 
 30 H      -10.2380     4.4370     1.3650 H     1 <1>   0.0800 
@<TRIPOS>BOND
  1   1   2  1   
  2   2   3  ar  
  3   2   4  ar  
  4   3   5  ar  
  5   3  17  1   
  6   4   6  ar  
  7   4  18  1   
  8   5   7  ar  
  9   5  19  1   
 10   6   7  ar  
 11   6  20  1   
 12   7   8  1   
 13   8   9  1   
 14   8  21  1   
 15   9  10  2   
 16   9  22  1   
 17  10  11  1   
 18  10  12  1   
 19  11  13  2   
 20  11  14  1   
 21  12  15  1   
 22  12  23  1   
 23  12  24  1   
 24  14  16  1   
 25  14  25  1   
 26  14  26  1   
 27  15  16  1   
 28  15  27  1   
 29  15  28  1   
 30  16  29  1   
 31  16  30  1   
@<TRIPOS>SUBSTRUCTURE
  1 ****   8 GROUP 4 **** **** 0

# MOE 2024.06 (io_trps.svl 2023.06)
