@<TRIPOS>MOLECULE
NONAME
45 47 1 0 0 
SMALL
USER_CHARGES


@<TRIPOS>ATOM
  1 O       -0.2440     0.5120    -1.6810 O.2   1 <1>  -0.5700 
  2 C       -1.2040     1.0640    -1.1650 C.2   1 <1>   0.6160 
  3 N       -2.2730     0.2750    -0.8670 N.am  1 <1>  -0.5390 
  4 C       -1.2640     2.4550    -0.8440 C.2   1 <1>   0.0290 
  5 C       -3.4000     0.7440    -0.2620 C.2   1 <1>  -0.0290 
  6 C       -2.4040     2.9470    -0.2320 C.2   1 <1>  -0.1380 
  7 C       -0.1210     3.2500    -1.2040 C.2   1 <1>   0.5410 
  8 C       -3.4940     2.0750     0.0570 C.2   1 <1>  -0.1380 
  9 C       -4.4560    -0.3200     0.0000 C.3   1 <1>  -0.1020 
 10 C       -2.4900     4.4380     0.1150 C.3   1 <1>  -0.0220 
 11 O       -0.2730     4.2570    -1.8720 O.2   1 <1>  -0.5700 
 12 C        1.2020     2.9070    -0.7530 C.2   1 <1>  -0.1360 
 13 C       -4.7590     2.6120     0.7350 C.3   1 <1>  -0.0220 
 14 C       -3.5680     4.7720     1.1450 C.3   1 <1>  -0.1600 
 15 C        2.3490     3.5940    -0.9750 C.2   1 <1>  -0.1780 
 16 C       -4.8870     4.1360     0.7200 C.3   1 <1>  -0.1600 
 17 C        3.6830     3.2690    -0.5430 C.ar  1 <1>   0.0280 
 18 C        4.6740     4.2490    -0.5480 C.ar  1 <1>  -0.1500 
 19 C        4.0450     1.9910    -0.1140 C.ar  1 <1>  -0.1500 
 20 C        5.9630     3.9710    -0.1350 C.ar  1 <1>  -0.1500 
 21 C        5.3320     1.7050     0.3010 C.ar  1 <1>  -0.1500 
 22 C        6.3060     2.7000     0.2960 C.ar  1 <1>   0.0830 
 23 O        7.5870     2.5060     0.6860 O.3   1 <1>  -0.3630 
 24 C        8.0420     1.2490     1.1320 C.3   1 <1>   0.0400 
 25 H       -2.1640    -0.7020    -1.1360 H     1 <1>   0.3700 
 26 H       -4.0000    -1.1830     0.4490 H     1 <1>   0.0800 
 27 H       -4.9110    -0.6140    -0.9290 H     1 <1>   0.0800 
 28 H       -5.2260     0.0200     0.6650 H     1 <1>   0.0800 
 29 H       -1.5450     4.7900     0.4910 H     1 <1>   0.0800 
 30 H       -2.6980     4.9810    -0.7910 H     1 <1>   0.0800 
 31 H        1.2380     2.0030    -0.1780 H     1 <1>   0.1500 
 32 H       -5.6310     2.2060     0.2560 H     1 <1>   0.0800 
 33 H       -4.7560     2.2780     1.7580 H     1 <1>   0.0800 
 34 H       -3.2760     4.3990     2.1120 H     1 <1>   0.0800 
 35 H       -3.6800     5.8400     1.2150 H     1 <1>   0.0800 
 36 H        2.2860     4.5080    -1.5440 H     1 <1>   0.1500 
 37 H       -5.1440     4.4660    -0.2720 H     1 <1>   0.0800 
 38 H       -5.6750     4.4390     1.3880 H     1 <1>   0.0800 
 39 H        4.4310     5.2430    -0.8770 H     1 <1>   0.1500 
 40 H        3.3140     1.2040    -0.1130 H     1 <1>   0.1500 
 41 H        6.7170     4.7380    -0.1420 H     1 <1>   0.1500 
 42 H        5.5610     0.7070     0.6230 H     1 <1>   0.1500 
 43 H        9.0840     1.3410     1.3830 H     1 <1>   0.0800 
 44 H        7.9180     0.5320     0.3400 H     1 <1>   0.0800 
 45 H        7.4800     0.9630     2.0040 H     1 <1>   0.0800 
@<TRIPOS>BOND
  1   1   2  2   
  2   2   3  am  
  3   2   4  1   
  4   3   5  1   
  5   3  25  1   
  6   4   6  2   
  7   4   7  1   
  8   5   8  2   
  9   5   9  1   
 10   6   8  1   
 11   6  10  1   
 12   7  11  2   
 13   7  12  1   
 14   8  13  1   
 15   9  26  1   
 16   9  27  1   
 17   9  28  1   
 18  10  14  1   
 19  10  29  1   
 20  10  30  1   
 21  12  15  2   
 22  12  31  1   
 23  13  16  1   
 24  13  32  1   
 25  13  33  1   
 26  14  16  1   
 27  14  34  1   
 28  14  35  1   
 29  15  17  1   
 30  15  36  1   
 31  16  37  1   
 32  16  38  1   
 33  17  18  ar  
 34  17  19  ar  
 35  18  20  ar  
 36  18  39  1   
 37  19  21  ar  
 38  19  40  1   
 39  20  22  ar  
 40  20  41  1   
 41  21  22  ar  
 42  21  42  1   
 43  22  23  1   
 44  23  24  1   
 45  24  43  1   
 46  24  44  1   
 47  24  45  1   
@<TRIPOS>SUBSTRUCTURE
  1 ****  12 GROUP 4 **** **** 0

# MOE 2024.06 (io_trps.svl 2023.06)
