@<TRIPOS>MOLECULE
NONAME
41 42 1 0 0 
SMALL
USER_CHARGES


@<TRIPOS>ATOM
  1 O        0.7870    -1.6890     1.6000 O.2   1 <1>  -0.5700 
  2 C        0.4780    -2.6820     0.9680 C.2   1 <1>   0.5440 
  3 N        1.4680    -3.5420     0.5420 N.am  1 <1>  -0.6600 
  4 C       -0.9220    -2.9230     0.6790 C.ar  1 <1>   0.0860 
  5 C        2.8850    -3.3450     0.9670 C.3   1 <1>   0.2840 
  6 C        1.2210    -4.6720    -0.3950 C.3   1 <1>   0.1400 
  7 C       -1.6180    -2.1130    -0.2140 C.ar  1 <1>  -0.1500 
  8 C       -1.6180    -3.9690     1.2840 C.ar  1 <1>  -0.1500 
  9 C        3.7030    -2.7510    -0.1690 C.ar  1 <1>  -0.1440 
 10 C        1.1040    -4.1600    -1.8300 C.3   1 <1>  -0.2400 
 11 C       -2.9500    -2.3390    -0.5120 C.ar  1 <1>   0.0820 
 12 C       -2.9500    -4.2060     0.9970 C.ar  1 <1>  -0.1500 
 13 C        3.4550    -1.4760    -0.6360 C.ar  1 <1>  -0.1500 
 14 C        4.7240    -3.4410    -0.7920 C.ar  1 <1>  -0.1500 
 15 O       -3.5260    -1.4940    -1.4020 O.3   1 <1>  -0.3630 
 16 C       -3.6190    -3.3950     0.0980 C.ar  1 <1>  -0.1500 
 17 C        4.2140    -0.9680    -1.6760 C.ar  1 <1>   0.1600 
 18 C        5.4250    -2.8400    -1.8240 C.ar  1 <1>   0.1600 
 19 C       -4.8920    -1.5920    -1.7310 C.3   1 <1>   0.1200 
 20 N        5.1950    -1.6200    -2.2820 N.ar  1 <1>  -0.6200 
 21 C       -5.2200    -0.4800    -2.7220 C.3   1 <1>  -0.2400 
 22 H        3.2990    -4.2900     1.2690 H     1 <1>   0.0800 
 23 H        2.9350    -2.6870     1.8170 H     1 <1>   0.0800 
 24 H        0.3160    -5.1860    -0.1210 H     1 <1>   0.0800 
 25 H        2.0290    -5.3810    -0.3320 H     1 <1>   0.0800 
 26 H       -1.1080    -1.2900    -0.6820 H     1 <1>   0.1500 
 27 H       -1.1020    -4.5960     1.9900 H     1 <1>   0.1500 
 28 H        0.2880    -3.4680    -1.9230 H     1 <1>   0.0800 
 29 H        0.9220    -4.9850    -2.4940 H     1 <1>   0.0800 
 30 H        2.0130    -3.6760    -2.1370 H     1 <1>   0.0800 
 31 H       -3.4670    -5.0200     1.4750 H     1 <1>   0.1500 
 32 H        2.6730    -0.8810    -0.1980 H     1 <1>   0.1500 
 33 H        4.9800    -4.4390    -0.4870 H     1 <1>   0.1500 
 34 H       -4.6520    -3.5990    -0.1110 H     1 <1>   0.1500 
 35 H        4.0020     0.0280    -2.0270 H     1 <1>   0.1500 
 36 H        6.2180    -3.3910    -2.2980 H     1 <1>   0.1500 
 37 H       -5.4690    -1.4790    -0.8290 H     1 <1>   0.0800 
 38 H       -5.0690    -2.5580    -2.1710 H     1 <1>   0.0800 
 39 H       -5.0220     0.4800    -2.2780 H     1 <1>   0.0800 
 40 H       -6.2590    -0.5260    -2.9930 H     1 <1>   0.0800 
 41 H       -4.6270    -0.5920    -3.6120 H     1 <1>   0.0800 
@<TRIPOS>BOND
  1   1   2  2   
  2   2   3  am  
  3   2   4  1   
  4   3   5  1   
  5   3   6  1   
  6   4   7  ar  
  7   4   8  ar  
  8   5   9  1   
  9   5  22  1   
 10   5  23  1   
 11   6  10  1   
 12   6  24  1   
 13   6  25  1   
 14   7  11  ar  
 15   7  26  1   
 16   8  12  ar  
 17   8  27  1   
 18   9  13  ar  
 19   9  14  ar  
 20  10  28  1   
 21  10  29  1   
 22  10  30  1   
 23  11  15  1   
 24  11  16  ar  
 25  12  16  ar  
 26  12  31  1   
 27  13  17  ar  
 28  13  32  1   
 29  14  18  ar  
 30  14  33  1   
 31  15  19  1   
 32  16  34  1   
 33  17  20  ar  
 34  17  35  1   
 35  18  20  ar  
 36  18  36  1   
 37  19  21  1   
 38  19  37  1   
 39  19  38  1   
 40  21  39  1   
 41  21  40  1   
 42  21  41  1   
@<TRIPOS>SUBSTRUCTURE
  1 ****   2 GROUP 4 **** **** 0

# MOE 2024.06 (io_trps.svl 2023.06)
