@<TRIPOS>MOLECULE
NONAME
54 57 1 0 0 
SMALL
USER_CHARGES


@<TRIPOS>ATOM
  1 S       -0.2280     0.2890    -1.9790 S.o2  1 <1>   1.4470 
  2 O       -0.9420     1.4180    -2.5340 O.2   1 <1>  -0.6500 
  3 O        0.3590    -0.6850    -2.8760 O.2   1 <1>  -0.6500 
  4 N        1.0510     0.9090    -1.0520 N.am  1 <1>  -0.8490 
  5 C       -1.2710    -0.5380    -0.7450 C.ar  1 <1>  -0.0090 
  6 C        1.8070     1.9180    -1.7990 C.3   1 <1>   0.1960 
  7 C        1.9220    -0.1540    -0.5410 C.3   1 <1>   0.1960 
  8 C       -1.6960     0.1340     0.3950 C.ar  1 <1>  -0.1500 
  9 C       -1.6680    -1.8600    -0.9030 C.ar  1 <1>  -0.1500 
 10 C        2.8670     2.5610    -0.9010 C.3   1 <1>  -0.1600 
 11 C        2.9790     0.4290     0.4000 C.3   1 <1>  -0.1600 
 12 C       -2.4840    -0.4900     1.3460 C.ar  1 <1>  -0.1500 
 13 C       -2.4560    -2.4910     0.0440 C.ar  1 <1>  -0.1500 
 14 C        3.8190     1.5050    -0.3070 C.3   1 <1>  -0.0190 
 15 C       -2.8690    -1.8080     1.1750 C.ar  1 <1>  -0.1430 
 16 C        4.8660     2.1100     0.6400 C.2   1 <1>   0.5690 
 17 C       -3.7330    -2.4970     2.2160 C.3   1 <1>  -0.0970 
 18 O        4.5490     3.0780     1.2910 O.2   1 <1>  -0.5700 
 19 N        6.1220     1.5670     0.7540 N.am  1 <1>  -0.6600 
 20 C        7.1740     2.2850     1.5330 C.3   1 <1>   0.2840 
 21 C        6.5810     0.2680     0.1930 C.3   1 <1>   0.1400 
 22 C        8.5590     2.1780     0.8930 C.ar  1 <1>  -0.1430 
 23 C        7.7000     0.5230    -0.8160 C.3   1 <1>  -0.0170 
 24 C        8.8140     1.3540    -0.1990 C.ar  1 <1>  -0.1430 
 25 C        9.5940     2.9290     1.4310 C.ar  1 <1>  -0.1500 
 26 C       10.0910     1.2920    -0.7350 C.ar  1 <1>  -0.1500 
 27 C       10.8670     2.8640     0.8940 C.ar  1 <1>  -0.1500 
 28 C       11.1160     2.0440    -0.1910 C.ar  1 <1>  -0.1500 
 29 H        1.1400     2.6900    -2.1450 H     1 <1>   0.0800 
 30 H        2.2710     1.4640    -2.6600 H     1 <1>   0.0800 
 31 H        2.4040    -0.6610    -1.3620 H     1 <1>   0.0800 
 32 H        1.3350    -0.8760     0.0010 H     1 <1>   0.0800 
 33 H       -1.4030     1.1610     0.5370 H     1 <1>   0.1500 
 34 H       -1.3570    -2.4040    -1.7790 H     1 <1>   0.1500 
 35 H        2.3670     3.0940    -0.1110 H     1 <1>   0.0800 
 36 H        3.4320     3.2770    -1.4710 H     1 <1>   0.0800 
 37 H        3.6150    -0.3620     0.7530 H     1 <1>   0.0800 
 38 H        2.4870     0.8590     1.2550 H     1 <1>   0.0800 
 39 H       -2.7960     0.0560     2.2190 H     1 <1>   0.1500 
 40 H       -2.7470    -3.5170    -0.1050 H     1 <1>   0.1500 
 41 H        4.3340     1.0590    -1.1370 H     1 <1>   0.0800 
 42 H       -3.1080    -2.9600     2.9590 H     1 <1>   0.0800 
 43 H       -4.3450    -3.2530     1.7570 H     1 <1>   0.0800 
 44 H       -4.3780    -1.7860     2.6990 H     1 <1>   0.0800 
 45 H        7.2110     1.8700     2.5250 H     1 <1>   0.0800 
 46 H        6.9190     3.3280     1.6200 H     1 <1>   0.0800 
 47 H        5.7800    -0.2730    -0.2730 H     1 <1>   0.0800 
 48 H        6.9630    -0.3390     0.9970 H     1 <1>   0.0800 
 49 H        7.3010     1.0420    -1.6690 H     1 <1>   0.0800 
 50 H        8.0920    -0.4210    -1.1510 H     1 <1>   0.0800 
 51 H        9.4130     3.5720     2.2750 H     1 <1>   0.1500 
 52 H       10.2940     0.6600    -1.5810 H     1 <1>   0.1500 
 53 H       11.6630     3.4510     1.3190 H     1 <1>   0.1500 
 54 H       12.1050     1.9920    -0.6120 H     1 <1>   0.1500 
@<TRIPOS>BOND
  1   1   2  2   
  2   1   3  2   
  3   1   4  am  
  4   1   5  1   
  5   4   6  1   
  6   4   7  1   
  7   5   8  ar  
  8   5   9  ar  
  9   6  10  1   
 10   6  29  1   
 11   6  30  1   
 12   7  11  1   
 13   7  31  1   
 14   7  32  1   
 15   8  12  ar  
 16   8  33  1   
 17   9  13  ar  
 18   9  34  1   
 19  10  14  1   
 20  10  35  1   
 21  10  36  1   
 22  11  14  1   
 23  11  37  1   
 24  11  38  1   
 25  12  15  ar  
 26  12  39  1   
 27  13  15  ar  
 28  13  40  1   
 29  14  16  1   
 30  14  41  1   
 31  15  17  1   
 32  16  18  2   
 33  16  19  am  
 34  17  42  1   
 35  17  43  1   
 36  17  44  1   
 37  19  20  1   
 38  19  21  1   
 39  20  22  1   
 40  20  45  1   
 41  20  46  1   
 42  21  23  1   
 43  21  47  1   
 44  21  48  1   
 45  22  24  ar  
 46  22  25  ar  
 47  23  24  1   
 48  23  49  1   
 49  23  50  1   
 50  24  26  ar  
 51  25  27  ar  
 52  25  51  1   
 53  26  28  ar  
 54  26  52  1   
 55  27  28  ar  
 56  27  53  1   
 57  28  54  1   
@<TRIPOS>SUBSTRUCTURE
  1 ****  11 GROUP 4 **** **** 0

# MOE 2024.06 (io_trps.svl 2023.06)
