@<TRIPOS>MOLECULE
NONAME
50 51 1 0 0 
SMALL
USER_CHARGES


@<TRIPOS>ATOM
  1 S       -0.1760     1.0550     1.8550 S.o2  1 <1>   1.4470 
  2 O       -0.0010     1.8530     3.0470 O.2   1 <1>  -0.6500 
  3 O       -0.2090    -0.3840     1.9950 O.2   1 <1>  -0.6500 
  4 N       -1.6920     1.5790     1.1730 N.am  1 <1>  -0.6930 
  5 C        1.1230     1.4960     0.6690 C.ar  1 <1>  -0.0090 
  6 C       -2.5910     0.7390     0.5120 C.ar  1 <1>   0.1990 
  7 C       -2.1030     2.9920     1.4530 C.3   1 <1>   0.2570 
  8 C        1.0510     1.1550    -0.6790 C.ar  1 <1>   0.0830 
  9 C        2.2610     2.1730     1.0960 C.ar  1 <1>  -0.1500 
 10 C       -3.0930     1.0880    -0.7390 C.ar  1 <1>  -0.1500 
 11 C       -3.0280    -0.4520     1.0820 C.ar  1 <1>  -0.1500 
 12 C       -1.3480     4.0500     0.6430 C.2   1 <1>   0.5690 
 13 O       -0.0450     0.5580    -1.1790 O.3   1 <1>  -0.3630 
 14 C        2.0750     1.4700    -1.5590 C.ar  1 <1>  -0.1500 
 15 C        3.2910     2.4960     0.2270 C.ar  1 <1>  -0.1440 
 16 C       -3.9850     0.2710    -1.4100 C.ar  1 <1>  -0.1430 
 17 C       -3.9170    -1.2820     0.4230 C.ar  1 <1>  -0.1430 
 18 O       -1.3180     5.1830     1.0590 O.2   1 <1>  -0.5700 
 19 N       -0.7420     3.7030    -0.5280 N.am  1 <1>  -0.7300 
 20 C       -0.0080    -0.8460    -1.3100 C.3   1 <1>   0.0400 
 21 C        3.1950     2.1380    -1.1060 C.ar  1 <1>  -0.1500 
 22 C        4.5110     3.2400     0.7410 C.3   1 <1>  -0.0970 
 23 C       -4.3940    -0.9160    -0.8240 C.ar  1 <1>  -0.1500 
 24 C       -4.5180     0.6600    -2.7770 C.3   1 <1>  -0.0970 
 25 C       -4.3720    -2.5820     1.0620 C.3   1 <1>  -0.0970 
 26 C        0.0810     4.6000    -1.3740 C.3   1 <1>   0.0600 
 27 H       -1.9700     3.2060     2.4990 H     1 <1>   0.0800 
 28 H       -3.1500     3.1040     1.2410 H     1 <1>   0.0800 
 29 H        2.3420     2.4530     2.1330 H     1 <1>   0.1500 
 30 H       -2.7760     2.0060    -1.1930 H     1 <1>   0.1500 
 31 H       -2.6690    -0.7270     2.0570 H     1 <1>   0.1500 
 32 H        1.9870     1.1960    -2.5950 H     1 <1>   0.1500 
 33 H       -0.7440     2.7100    -0.8010 H     1 <1>   0.3700 
 34 H       -0.9830    -1.1800    -1.6180 H     1 <1>   0.0800 
 35 H        0.2410    -1.2860    -0.3600 H     1 <1>   0.0800 
 36 H        0.7270    -1.1100    -2.0490 H     1 <1>   0.0800 
 37 H        3.9870     2.3810    -1.7940 H     1 <1>   0.1500 
 38 H        4.2950     4.2910     0.8070 H     1 <1>   0.0800 
 39 H        5.3490     3.0990     0.0820 H     1 <1>   0.0800 
 40 H        4.7830     2.8800     1.7170 H     1 <1>   0.0800 
 41 H       -5.0880    -1.5560    -1.3400 H     1 <1>   0.1500 
 42 H       -3.9650     1.4880    -3.1840 H     1 <1>   0.0800 
 43 H       -5.5530     0.9420    -2.6970 H     1 <1>   0.0800 
 44 H       -4.4350    -0.1700    -3.4550 H     1 <1>   0.0800 
 45 H       -3.6580    -2.9120     1.7960 H     1 <1>   0.0800 
 46 H       -4.4700    -3.3500     0.3160 H     1 <1>   0.0800 
 47 H       -5.3220    -2.4380     1.5420 H     1 <1>   0.0800 
 48 H       -0.2590     4.5520    -2.3940 H     1 <1>   0.0800 
 49 H        1.1120     4.2950    -1.3280 H     1 <1>   0.0800 
 50 H        0.0040     5.6170    -1.0280 H     1 <1>   0.0800 
@<TRIPOS>BOND
  1   1   2  2   
  2   1   3  2   
  3   1   4  am  
  4   1   5  1   
  5   4   6  1   
  6   4   7  1   
  7   5   8  ar  
  8   5   9  ar  
  9   6  10  ar  
 10   6  11  ar  
 11   7  12  1   
 12   7  27  1   
 13   7  28  1   
 14   8  13  1   
 15   8  14  ar  
 16   9  15  ar  
 17   9  29  1   
 18  10  16  ar  
 19  10  30  1   
 20  11  17  ar  
 21  11  31  1   
 22  12  18  2   
 23  12  19  am  
 24  13  20  1   
 25  14  21  ar  
 26  14  32  1   
 27  15  21  ar  
 28  15  22  1   
 29  16  23  ar  
 30  16  24  1   
 31  17  23  ar  
 32  17  25  1   
 33  19  26  1   
 34  19  33  1   
 35  20  34  1   
 36  20  35  1   
 37  20  36  1   
 38  21  37  1   
 39  22  38  1   
 40  22  39  1   
 41  22  40  1   
 42  23  41  1   
 43  24  42  1   
 44  24  43  1   
 45  24  44  1   
 46  25  45  1   
 47  25  46  1   
 48  25  47  1   
 49  26  48  1   
 50  26  49  1   
 51  26  50  1   
@<TRIPOS>SUBSTRUCTURE
  1 ****   4 GROUP 4 **** **** 0

# MOE 2024.06 (io_trps.svl 2023.06)
