@<TRIPOS>MOLECULE
NONAME
40 42 1 0 0 
SMALL
USER_CHARGES


@<TRIPOS>ATOM
  1 O        0.2690    -0.0320    -0.0220 O.2   1 <1>  -0.5700 
  2 C        0.7240     1.0460     0.3110 C.2   1 <1>   0.6900 
  3 N        2.0750     1.1990     0.5100 N.am  1 <1>  -0.6600 
  4 N       -0.0910     2.1200     0.5250 N.am  1 <1>  -0.5470 
  5 C        2.7810     2.5030     0.4220 C.3   1 <1>   0.1400 
  6 C        2.9670     0.0200     0.6740 C.3   1 <1>   0.1400 
  7 C       -1.4550     2.3230     0.2760 C.ar  1 <1>   0.1170 
  8 C        3.9530     2.3710    -0.5510 C.3   1 <1>  -0.1600 
  9 C        4.1370     0.1130    -0.3070 C.3   1 <1>  -0.1600 
 10 C       -2.1680     1.5940    -0.6690 C.ar  1 <1>  -0.1500 
 11 C       -2.1260     3.3110     0.9870 C.ar  1 <1>  -0.1500 
 12 C        5.0290     1.3720     0.0290 C.3   1 <1>   0.5600 
 13 C       -3.5100     1.8420    -0.8930 C.ar  1 <1>  -0.1500 
 14 C       -3.4680     3.5620     0.7640 C.ar  1 <1>  -0.1500 
 15 O        5.8000     2.4810     0.4250 O.3   1 <1>  -0.5600 
 16 O        6.0380     0.5120     0.4960 O.3   1 <1>  -0.5600 
 17 C       -4.1700     2.8270    -0.1760 C.ar  1 <1>  -0.1430 
 18 C        7.0930     2.3710    -0.0390 C.3   1 <1>   0.1200 
 19 C        7.2680     0.8900     0.0070 C.3   1 <1>   0.1200 
 20 C       -5.6420     3.0980    -0.4240 C.3   1 <1>  -0.0970 
 21 H        0.3670     2.8480     1.0600 H     1 <1>   0.3700 
 22 H        3.1440     2.7830     1.3970 H     1 <1>   0.0800 
 23 H        2.1180     3.2710     0.0640 H     1 <1>   0.0800 
 24 H        2.4250    -0.8940     0.5020 H     1 <1>   0.0800 
 25 H        3.3420    -0.0010     1.6830 H     1 <1>   0.0800 
 26 H        4.3080     3.3750    -0.7360 H     1 <1>   0.0800 
 27 H        3.5720     2.0960    -1.5170 H     1 <1>   0.0800 
 28 H        3.7560     0.0970    -1.3120 H     1 <1>   0.0800 
 29 H        4.6350    -0.8440    -0.2440 H     1 <1>   0.0800 
 30 H       -1.6740     0.8270    -1.2380 H     1 <1>   0.1500 
 31 H       -1.5980     3.8880     1.7220 H     1 <1>   0.1500 
 32 H       -4.0380     1.2610    -1.6290 H     1 <1>   0.1500 
 33 H       -3.9660     4.3320     1.3270 H     1 <1>   0.1500 
 34 H        7.7580     2.8910     0.6270 H     1 <1>   0.0800 
 35 H        7.1540     2.7590    -1.0400 H     1 <1>   0.0800 
 36 H        7.4170     0.4640    -0.9700 H     1 <1>   0.0800 
 37 H        8.0370     0.5800     0.6930 H     1 <1>   0.0800 
 38 H       -6.1110     3.4750     0.4670 H     1 <1>   0.0800 
 39 H       -6.1460     2.1930    -0.7140 H     1 <1>   0.0800 
 40 H       -5.7510     3.8240    -1.2090 H     1 <1>   0.0800 
@<TRIPOS>BOND
  1   1   2  2   
  2   2   3  am  
  3   2   4  am  
  4   3   5  1   
  5   3   6  1   
  6   4   7  1   
  7   4  21  1   
  8   5   8  1   
  9   5  22  1   
 10   5  23  1   
 11   6   9  1   
 12   6  24  1   
 13   6  25  1   
 14   7  10  ar  
 15   7  11  ar  
 16   8  12  1   
 17   8  26  1   
 18   8  27  1   
 19   9  12  1   
 20   9  28  1   
 21   9  29  1   
 22  10  13  ar  
 23  10  30  1   
 24  11  14  ar  
 25  11  31  1   
 26  12  15  1   
 27  12  16  1   
 28  13  17  ar  
 29  13  32  1   
 30  14  17  ar  
 31  14  33  1   
 32  15  18  1   
 33  16  19  1   
 34  17  20  1   
 35  18  19  1   
 36  18  34  1   
 37  18  35  1   
 38  19  36  1   
 39  19  37  1   
 40  20  38  1   
 41  20  39  1   
 42  20  40  1   
@<TRIPOS>SUBSTRUCTURE
  1 ****   2 GROUP 4 **** **** 0

# MOE 2024.06 (io_trps.svl 2023.06)
