@<TRIPOS>MOLECULE
NONAME
37 39 1 0 0 
SMALL
USER_CHARGES


@<TRIPOS>ATOM
  1 O        0.2810     0.4620    -0.5600 O.2   1 <1>  -0.5700 
  2 C        0.0890     1.6600    -0.6640 C.2   1 <1>   0.6900 
  3 N        1.1330     2.5130    -0.9390 N.am  1 <1>  -0.6600 
  4 N       -1.1710     2.1740    -0.5420 N.am  1 <1>  -0.5470 
  5 C        2.4490     1.9480    -1.3490 C.3   1 <1>   0.1400 
  6 C        1.0260     3.9980    -0.8130 C.3   1 <1>   0.1400 
  7 C       -2.3790     1.5810    -0.1460 C.ar  1 <1>   0.1170 
  8 C        3.3170     1.6720    -0.1160 C.3   1 <1>  -0.1600 
  9 C        2.3040     4.6890    -0.3160 C.3   1 <1>  -0.1600 
 10 C       -3.5730     2.1360    -0.6030 C.ar  1 <1>  -0.1500 
 11 C       -2.4260     0.4710     0.7060 C.ar  1 <1>  -0.1500 
 12 C        3.9550     2.9210     0.5110 C.3   1 <1>  -0.1600 
 13 C        2.9550     4.0160     0.9040 C.3   1 <1>  -0.1600 
 14 C       -4.7630     1.5670    -0.2000 C.ar  1 <1>   0.0830 
 15 C       -3.6330    -0.0910     1.1010 C.ar  1 <1>  -0.1500 
 16 O       -6.0080     1.9390    -0.5180 O.3   1 <1>  -0.3630 
 17 C       -4.7950     0.4840     0.6280 C.ar  1 <1>   0.0830 
 18 C       -6.8870     1.0310     0.1430 C.3   1 <1>   0.4000 
 19 O       -6.0620     0.1220     0.8690 O.3   1 <1>  -0.3630 
 20 H       -1.2450     3.1160    -0.9030 H     1 <1>   0.3700 
 21 H        2.9500     2.6130    -2.0300 H     1 <1>   0.0800 
 22 H        2.2820     1.0200    -1.8710 H     1 <1>   0.0800 
 23 H        0.2440     4.2330    -0.1120 H     1 <1>   0.0800 
 24 H        0.7520     4.4090    -1.7700 H     1 <1>   0.0800 
 25 H        4.1100     1.0070    -0.4110 H     1 <1>   0.0800 
 26 H        2.7270     1.1510     0.6180 H     1 <1>   0.0800 
 27 H        2.0350     5.6940    -0.0440 H     1 <1>   0.0800 
 28 H        3.0130     4.7720    -1.1210 H     1 <1>   0.0800 
 29 H       -3.5830     2.9860    -1.2570 H     1 <1>   0.1500 
 30 H       -1.5090     0.0400     1.0660 H     1 <1>   0.1500 
 31 H        4.6810     3.3300    -0.1720 H     1 <1>   0.0800 
 32 H        4.4890     2.6140     1.3940 H     1 <1>   0.0800 
 33 H        2.2000     3.6140     1.5590 H     1 <1>   0.0800 
 34 H        3.4930     4.7680     1.4560 H     1 <1>   0.0800 
 35 H       -3.6720    -0.9450     1.7520 H     1 <1>   0.1500 
 36 H       -7.4620     0.4900    -0.5870 H     1 <1>   0.0800 
 37 H       -7.5170     1.5710     0.8260 H     1 <1>   0.0800 
@<TRIPOS>BOND
  1   1   2  2   
  2   2   3  am  
  3   2   4  am  
  4   3   5  1   
  5   3   6  1   
  6   4   7  1   
  7   4  20  1   
  8   5   8  1   
  9   5  21  1   
 10   5  22  1   
 11   6   9  1   
 12   6  23  1   
 13   6  24  1   
 14   7  10  ar  
 15   7  11  ar  
 16   8  12  1   
 17   8  25  1   
 18   8  26  1   
 19   9  13  1   
 20   9  27  1   
 21   9  28  1   
 22  10  14  ar  
 23  10  29  1   
 24  11  15  ar  
 25  11  30  1   
 26  12  13  1   
 27  12  31  1   
 28  12  32  1   
 29  13  33  1   
 30  13  34  1   
 31  14  16  1   
 32  14  17  ar  
 33  15  17  ar  
 34  15  35  1   
 35  16  18  1   
 36  17  19  1   
 37  18  19  1   
 38  18  36  1   
 39  18  37  1   
@<TRIPOS>SUBSTRUCTURE
  1 ****   4 GROUP 4 **** **** 0

# MOE 2024.06 (io_trps.svl 2023.06)
