@<TRIPOS>MOLECULE
NONAME
28 28 1 0 0 
SMALL
USER_CHARGES


@<TRIPOS>ATOM
  1 CL       0.3770     0.5570     0.0800 Cl    1 <1>  -0.1770 
  2 C       -1.2740     1.1280     0.0820 C.ar  1 <1>   0.1770 
  3 C       -1.8910     1.4170     1.2860 C.ar  1 <1>  -0.1500 
  4 C       -1.9410     1.2830    -1.1190 C.ar  1 <1>  -0.1500 
  5 C       -3.2000     1.8660     1.2810 C.ar  1 <1>  -0.1500 
  6 C       -3.2500     1.7340    -1.1120 C.ar  1 <1>  -0.1500 
  7 C       -3.8970     2.0270     0.0870 C.ar  1 <1>   0.1990 
  8 N       -5.2150     2.4700     0.1090 N.am  1 <1>  -0.6930 
  9 S       -5.5590     4.1440     0.4330 S.o2  1 <1>   1.3330 
 10 C       -6.2530     1.6160    -0.5870 C.3   1 <1>   0.1700 
 11 O       -4.3980     4.6810     1.1090 O.2   1 <1>  -0.6500 
 12 O       -6.8350     4.2520     1.0990 O.2   1 <1>  -0.6500 
 13 C       -5.6350     4.9430    -1.1570 C.3   1 <1>  -0.1350 
 14 C       -6.8180     2.2000    -1.9090 C.2   1 <1>   0.9060 
 15 C       -7.3200     1.1860     0.4330 C.3   1 <1>  -0.2400 
 16 O       -6.0430     2.3470    -2.8650 O.co2 1 <1>  -0.9000 
 17 O       -7.9990     2.5550    -1.9930 O.co2 1 <1>  -0.9000 
 18 H       -1.3530     1.2950     2.2080 H     1 <1>   0.1500 
 19 H       -1.4450     1.0560    -2.0450 H     1 <1>   0.1500 
 20 H       -3.7000     2.1040     2.2020 H     1 <1>   0.1500 
 21 H       -3.7770     1.8640    -2.0410 H     1 <1>   0.1500 
 22 H       -5.7630     0.7110    -0.8930 H     1 <1>   0.0800 
 23 H       -4.8280     4.6110    -1.7800 H     1 <1>   0.0800 
 24 H       -5.5700     6.0050    -1.0370 H     1 <1>   0.0800 
 25 H       -6.5620     4.7220    -1.6490 H     1 <1>   0.0800 
 26 H       -7.9410     2.0210     0.7020 H     1 <1>   0.0800 
 27 H       -6.8580     0.7770     1.3120 H     1 <1>   0.0800 
 28 H       -7.9550     0.4410    -0.0110 H     1 <1>   0.0800 
@<TRIPOS>BOND
  1   1   2  1   
  2   2   3  ar  
  3   2   4  ar  
  4   3   5  ar  
  5   3  18  1   
  6   4   6  ar  
  7   4  19  1   
  8   5   7  ar  
  9   5  20  1   
 10   6   7  ar  
 11   6  21  1   
 12   7   8  1   
 13   8   9  am  
 14   8  10  1   
 15   9  11  2   
 16   9  12  2   
 17   9  13  1   
 18  10  14  1   
 19  10  15  1   
 20  10  22  1   
 21  13  23  1   
 22  13  24  1   
 23  13  25  1   
 24  14  16  ar  
 25  14  17  ar  
 26  15  26  1   
 27  15  27  1   
 28  15  28  1   
@<TRIPOS>SUBSTRUCTURE
  1 ****   8 GROUP 4 **** **** 0

# MOE 2024.06 (io_trps.svl 2023.06)
