@<TRIPOS>MOLECULE
NONAME
32 34 1 0 0 
SMALL
USER_CHARGES


@<TRIPOS>ATOM
  1 O       -0.2360    -2.2900    -2.4170 O.2   1 <1>  -0.5700 
  2 C       -0.7780    -1.7050    -1.5070 C.2   1 <1>   0.5690 
  3 N       -0.2540    -1.6310    -0.2570 N.am  1 <1>  -0.5790 
  4 C       -2.1230    -1.0140    -1.7510 C.3   1 <1>   0.2700 
  5 C        0.9870    -2.2400     0.2310 C.3   1 <1>   0.0490 
  6 N       -2.6560    -0.2960    -0.5290 N.pl3 1 <1>  -0.8380 
  7 C        0.9920    -2.7940     1.6170 C.3   1 <1>  -0.2000 
  8 C        1.7390    -1.5310     1.3070 C.3   1 <1>  -0.2000 
  9 C       -3.5230    -0.9770     0.3140 C.ar  1 <1>   0.1000 
 10 C       -3.2170     1.0700    -0.7570 C.3   1 <1>   0.2090 
 11 C       -4.5320    -0.1710     0.7910 C.ar  1 <1>  -0.1430 
 12 C       -3.4700    -2.3120     0.6970 C.ar  1 <1>  -0.1500 
 13 C       -4.3800     1.2200     0.2360 C.3   1 <1>  -0.0170 
 14 C       -5.5010    -0.6580     1.6470 C.ar  1 <1>  -0.1500 
 15 C       -4.4350    -2.8130     1.5540 C.ar  1 <1>  -0.1500 
 16 C       -5.4480    -1.9900     2.0290 C.ar  1 <1>  -0.1500 
 17 H       -0.8280    -1.1120     0.4210 H     1 <1>   0.3700 
 18 H       -2.8330    -1.7550    -2.0680 H     1 <1>   0.0800 
 19 H       -1.9910    -0.3150    -2.5560 H     1 <1>   0.0800 
 20 H        1.5390    -2.7570    -0.5380 H     1 <1>   0.1000 
 21 H        1.5590    -3.6870     1.8120 H     1 <1>   0.1000 
 22 H        0.0890    -2.7390     2.1980 H     1 <1>   0.1000 
 23 H        1.3590    -0.5940     1.6720 H     1 <1>   0.1000 
 24 H        2.8140    -1.5660     1.2920 H     1 <1>   0.1000 
 25 H       -3.5840     1.1570    -1.7660 H     1 <1>   0.0800 
 26 H       -2.4610     1.8150    -0.5800 H     1 <1>   0.0800 
 27 H       -2.6860    -2.9480     0.3340 H     1 <1>   0.1500 
 28 H       -5.2750     1.5480    -0.2600 H     1 <1>   0.0800 
 29 H       -4.1210     1.9090     1.0190 H     1 <1>   0.0800 
 30 H       -6.2830    -0.0160     2.0120 H     1 <1>   0.1500 
 31 H       -4.4000    -3.8450     1.8550 H     1 <1>   0.1500 
 32 H       -6.1940    -2.3870     2.6950 H     1 <1>   0.1500 
@<TRIPOS>BOND
  1   1   2  2   
  2   2   3  am  
  3   2   4  1   
  4   3   5  1   
  5   3  17  1   
  6   4   6  1   
  7   4  18  1   
  8   4  19  1   
  9   5   7  1   
 10   5   8  1   
 11   5  20  1   
 12   6   9  1   
 13   6  10  1   
 14   7   8  1   
 15   7  21  1   
 16   7  22  1   
 17   8  23  1   
 18   8  24  1   
 19   9  11  ar  
 20   9  12  ar  
 21  10  13  1   
 22  10  25  1   
 23  10  26  1   
 24  11  13  1   
 25  11  14  ar  
 26  12  15  ar  
 27  12  27  1   
 28  13  28  1   
 29  13  29  1   
 30  14  16  ar  
 31  14  30  1   
 32  15  16  ar  
 33  15  31  1   
 34  16  32  1   
@<TRIPOS>SUBSTRUCTURE
  1 ****   9 GROUP 4 **** **** 0

# MOE 2024.06 (io_trps.svl 2023.06)
