@<TRIPOS>MOLECULE
NONAME
30 31 1 0 0 
SMALL
USER_CHARGES


@<TRIPOS>ATOM
  1 S       -0.4720    -0.5470    -1.2020 S.3   1 <1>  -0.3710 
  2 C       -0.5670     1.1080    -0.5300 C.2   1 <1>   0.5300 
  3 C        1.2710    -0.6720    -1.7990 C.3   1 <1>  -0.0100 
  4 N        0.3950     1.9080    -0.5220 N.2   1 <1>  -0.6960 
  5 C       -1.8850     1.5780     0.0580 C.3   1 <1>   0.3370 
  6 C       -0.0080     3.1580     0.0850 C.3   1 <1>   0.2460 
  7 C       -2.3780     0.6860     1.2070 C.2   1 <1>  -0.2880 
  8 C       -2.9760     1.7200    -1.0130 C.2   1 <1>  -0.2880 
  9 C       -1.4590     2.9550     0.5790 C.3   1 <1>  -0.1600 
 10 C        0.9510     3.4550     1.2360 C.3   1 <1>  -0.2400 
 11 C        0.0810     4.2450    -0.9840 C.3   1 <1>  -0.2400 
 12 C       -3.6130     0.1490     1.2450 C.2   1 <1>  -0.1360 
 13 C       -4.1930     1.1500    -0.9060 C.2   1 <1>  -0.1360 
 14 C       -4.5990     0.3490     0.2170 C.2   1 <1>   0.5410 
 15 O       -5.7070    -0.1260     0.2940 O.2   1 <1>  -0.5700 
 16 H        1.4070    -1.6510    -2.2220 H     1 <1>   0.0800 
 17 H        1.9200    -0.5190    -0.9560 H     1 <1>   0.0800 
 18 H        1.4210     0.0940    -2.5390 H     1 <1>   0.0800 
 19 H       -1.6420     0.5260     1.9770 H     1 <1>   0.1500 
 20 H       -2.6750     2.3140    -1.8590 H     1 <1>   0.1500 
 21 H       -1.4930     2.9770     1.6540 H     1 <1>   0.0800 
 22 H       -2.1100     3.7330     0.2230 H     1 <1>   0.0800 
 23 H        0.9250     2.6650     1.9640 H     1 <1>   0.0800 
 24 H        0.6800     4.3770     1.7190 H     1 <1>   0.0800 
 25 H        1.9560     3.5500     0.8650 H     1 <1>   0.0800 
 26 H       -0.5690     4.0200    -1.8100 H     1 <1>   0.0800 
 27 H        1.0900     4.3240    -1.3500 H     1 <1>   0.0800 
 28 H       -0.2040     5.1960    -0.5730 H     1 <1>   0.0800 
 29 H       -3.9430    -0.4740     2.0560 H     1 <1>   0.1500 
 30 H       -4.9460     1.2590    -1.6650 H     1 <1>   0.1500 
@<TRIPOS>BOND
  1   1   2  1   
  2   1   3  1   
  3   2   4  2   
  4   2   5  1   
  5   3  16  1   
  6   3  17  1   
  7   3  18  1   
  8   4   6  1   
  9   5   7  1   
 10   5   8  1   
 11   5   9  1   
 12   6   9  1   
 13   6  10  1   
 14   6  11  1   
 15   7  12  2   
 16   7  19  1   
 17   8  13  2   
 18   8  20  1   
 19   9  21  1   
 20   9  22  1   
 21  10  23  1   
 22  10  24  1   
 23  10  25  1   
 24  11  26  1   
 25  11  27  1   
 26  11  28  1   
 27  12  14  1   
 28  12  29  1   
 29  13  14  1   
 30  13  30  1   
 31  14  15  2   
@<TRIPOS>SUBSTRUCTURE
  1 ****   5 GROUP 4 **** **** 0

# MOE 2024.06 (io_trps.svl 2023.06)
