@<TRIPOS>MOLECULE
NONAME
41 43 1 0 0 
SMALL
USER_CHARGES


@<TRIPOS>ATOM
  1 O       -0.3520     2.2100    -2.7070 O.2   1 <1>  -0.5700 
  2 C       -0.3750     2.9810    -1.7730 C.2   1 <1>   0.7800 
  3 O        0.6840     3.7150    -1.4650 O.3   1 <1>  -0.4300 
  4 N       -1.4090     3.1500    -0.9230 N.am  1 <1>  -0.6600 
  5 C        0.5250     4.2750    -0.1780 C.3   1 <1>   0.2800 
  6 C       -1.0350     4.1850     0.0240 C.3   1 <1>   0.5800 
  7 C       -2.4070     2.0750    -0.6960 C.3   1 <1>   0.2840 
  8 C        1.1060     5.7130    -0.2270 C.3   1 <1>  -0.1600 
  9 C        1.3660     3.3530     0.7570 C.3   1 <1>  -0.1600 
 10 O       -1.4190     3.7760     1.2740 O.3   1 <1>  -0.6800 
 11 C       -1.8330     5.4540    -0.2910 C.3   1 <1>  -0.2400 
 12 C       -3.7670     2.6510    -0.3310 C.ar  1 <1>  -0.1440 
 13 C        2.6330     5.7250    -0.0730 C.3   1 <1>  -0.1600 
 14 C        2.0680     4.1360     1.8750 C.3   1 <1>  -0.1600 
 15 C       -4.5070     3.3350    -1.2840 C.ar  1 <1>  -0.1500 
 16 C       -4.2790     2.5000     0.9490 C.ar  1 <1>  -0.1500 
 17 C        3.0570     5.1680     1.2990 C.3   1 <1>  -0.1600 
 18 C       -5.7400     3.8720    -0.9580 C.ar  1 <1>  -0.1500 
 19 C       -5.5120     3.0380     1.2760 C.ar  1 <1>  -0.1500 
 20 C       -6.2420     3.7250     0.3230 C.ar  1 <1>  -0.1500 
 21 H       -2.0530     1.4280     0.0880 H     1 <1>   0.0800 
 22 H       -2.5060     1.4820    -1.5900 H     1 <1>   0.0800 
 23 H        0.6980     6.2900     0.5830 H     1 <1>   0.0800 
 24 H        0.8260     6.1910    -1.1490 H     1 <1>   0.0800 
 25 H        2.1310     2.8610     0.1800 H     1 <1>   0.0800 
 26 H        0.7570     2.5800     1.1890 H     1 <1>   0.0800 
 27 H       -2.3920     3.6990     1.2500 H     1 <1>   0.4000 
 28 H       -1.5830     6.2350     0.4020 H     1 <1>   0.0800 
 29 H       -2.8880     5.2730    -0.2230 H     1 <1>   0.0800 
 30 H       -1.6090     5.7930    -1.2850 H     1 <1>   0.0800 
 31 H        3.0110     6.7260    -0.1900 H     1 <1>   0.0800 
 32 H        3.0640     5.1210    -0.8540 H     1 <1>   0.0800 
 33 H        2.5930     3.4590     2.5270 H     1 <1>   0.0800 
 34 H        1.3220     4.6410     2.4640 H     1 <1>   0.0800 
 35 H       -4.1200     3.4530    -2.2820 H     1 <1>   0.1500 
 36 H       -3.7260     1.9590     1.7000 H     1 <1>   0.1500 
 37 H        3.1540     5.9770     2.0030 H     1 <1>   0.0800 
 38 H        4.0280     4.7150     1.1960 H     1 <1>   0.0800 
 39 H       -6.3090     4.4030    -1.7020 H     1 <1>   0.1500 
 40 H       -5.9050     2.9200     2.2710 H     1 <1>   0.1500 
 41 H       -7.2010     4.1430     0.5760 H     1 <1>   0.1500 
@<TRIPOS>BOND
  1   1   2  2   
  2   2   3  1   
  3   2   4  am  
  4   3   5  1   
  5   4   6  1   
  6   4   7  1   
  7   5   6  1   
  8   5   8  1   
  9   5   9  1   
 10   6  10  1   
 11   6  11  1   
 12   7  12  1   
 13   7  21  1   
 14   7  22  1   
 15   8  13  1   
 16   8  23  1   
 17   8  24  1   
 18   9  14  1   
 19   9  25  1   
 20   9  26  1   
 21  10  27  1   
 22  11  28  1   
 23  11  29  1   
 24  11  30  1   
 25  12  15  ar  
 26  12  16  ar  
 27  13  17  1   
 28  13  31  1   
 29  13  32  1   
 30  14  17  1   
 31  14  33  1   
 32  14  34  1   
 33  15  18  ar  
 34  15  35  1   
 35  16  19  ar  
 36  16  36  1   
 37  17  37  1   
 38  17  38  1   
 39  18  20  ar  
 40  18  39  1   
 41  19  20  ar  
 42  19  40  1   
 43  20  41  1   
@<TRIPOS>SUBSTRUCTURE
  1 ****   6 GROUP 4 **** **** 0

# MOE 2024.06 (io_trps.svl 2023.06)
