@<TRIPOS>MOLECULE
NONAME
39 40 1 0 0 
SMALL
USER_CHARGES


@<TRIPOS>ATOM
  1 N        0.9810    -0.5690     0.5960 N.ar  1 <1>  -0.6200 
  2 C        1.5820    -1.1580    -0.4260 C.ar  1 <1>   0.1660 
  3 C       -0.1680    -1.1100     0.9750 C.ar  1 <1>   0.1600 
  4 C        1.0850    -2.2740    -1.0850 C.ar  1 <1>  -0.1500 
  5 C        2.8900    -0.5320    -0.8630 C.3   1 <1>  -0.0160 
  6 C       -0.7450    -2.2210     0.3840 C.ar  1 <1>  -0.1500 
  7 C       -0.1080    -2.8280    -0.6760 C.ar  1 <1>  -0.1500 
  8 C        3.7450    -0.2560     0.3780 C.3   1 <1>   0.3430 
  9 N        5.0700     0.3550     0.0400 N.4   1 <1>  -0.9590 
 10 C        5.9700     0.3250     1.2270 C.3   1 <1>   0.4860 
 11 C        4.9390     1.7500    -0.4930 C.3   1 <1>   0.2630 
 12 C        7.3740     0.6590     0.7670 C.ar  1 <1>  -0.1430 
 13 C        8.1210    -0.2790     0.0680 C.ar  1 <1>  -0.1500 
 14 C        7.9210     1.9060     1.0360 C.ar  1 <1>  -0.1500 
 15 C        9.3980     0.0270    -0.3740 C.ar  1 <1>  -0.1430 
 16 C        9.1960     2.2130     0.5980 C.ar  1 <1>  -0.1500 
 17 C        9.9300     1.2770    -0.1070 C.ar  1 <1>  -0.1500 
 18 C       10.2200    -0.9960    -1.1380 C.3   1 <1>  -0.0970 
 19 H       -0.6800    -0.6450     1.8000 H     1 <1>   0.1500 
 20 H        1.6140    -2.7100    -1.9120 H     1 <1>   0.1500 
 21 H        2.6590     0.3840    -1.3730 H     1 <1>   0.0800 
 22 H        3.4090    -1.1940    -1.5310 H     1 <1>   0.0800 
 23 H       -1.6820    -2.6020     0.7510 H     1 <1>   0.1500 
 24 H       -0.5270    -3.6940    -1.1620 H     1 <1>   0.1500 
 25 H        3.8950    -1.1890     0.8960 H     1 <1>   0.0800 
 26 H        3.2000     0.3990     1.0390 H     1 <1>   0.0800 
 27 H        5.5410    -0.2150    -0.6760 H     1 <1>   0.4500 
 28 H        5.9700    -0.6580     1.6700 H     1 <1>   0.0800 
 29 H        5.6400     1.0350     1.9670 H     1 <1>   0.0800 
 30 H        4.4700     2.3890     0.2370 H     1 <1>   0.0800 
 31 H        4.3430     1.7580    -1.3910 H     1 <1>   0.0800 
 32 H        5.9120     2.1520    -0.7300 H     1 <1>   0.0800 
 33 H        7.7230    -1.2580    -0.1340 H     1 <1>   0.1500 
 34 H        7.3700     2.6490     1.5880 H     1 <1>   0.1500 
 35 H        9.6240     3.1790     0.8050 H     1 <1>   0.1500 
 36 H       10.9230     1.5240    -0.4420 H     1 <1>   0.1500 
 37 H        9.5860    -1.7240    -1.6120 H     1 <1>   0.0800 
 38 H       10.8860    -1.5050    -0.4630 H     1 <1>   0.0800 
 39 H       10.8060    -0.5120    -1.8990 H     1 <1>   0.0800 
@<TRIPOS>BOND
  1   1   2  ar  
  2   1   3  ar  
  3   2   4  ar  
  4   2   5  1   
  5   3   6  ar  
  6   3  19  1   
  7   4   7  ar  
  8   4  20  1   
  9   5   8  1   
 10   5  21  1   
 11   5  22  1   
 12   6   7  ar  
 13   6  23  1   
 14   7  24  1   
 15   8   9  1   
 16   8  25  1   
 17   8  26  1   
 18   9  10  1   
 19   9  11  1   
 20   9  27  1   
 21  10  12  1   
 22  10  28  1   
 23  10  29  1   
 24  11  30  1   
 25  11  31  1   
 26  11  32  1   
 27  12  13  ar  
 28  12  14  ar  
 29  13  15  ar  
 30  13  33  1   
 31  14  16  ar  
 32  14  34  1   
 33  15  17  ar  
 34  15  18  1   
 35  16  17  ar  
 36  16  35  1   
 37  17  36  1   
 38  18  37  1   
 39  18  38  1   
 40  18  39  1   
@<TRIPOS>SUBSTRUCTURE
  1 ****   9 GROUP 4 **** **** 0

# MOE 2024.06 (io_trps.svl 2023.06)
