@<TRIPOS>MOLECULE
NONAME
43 43 1 0 0 
SMALL
USER_CHARGES


@<TRIPOS>ATOM
  1 O        0.6850    -0.1040     0.2050 O.3   1 <1>  -0.3630 
  2 C       -0.5450    -0.6760     0.1830 C.ar  1 <1>   0.0830 
  3 C        1.8550    -0.8810     0.1550 C.3   1 <1>   0.1200 
  4 C       -0.7630    -2.0500     0.1050 C.ar  1 <1>  -0.1500 
  5 C       -1.6310     0.1830     0.2430 C.ar  1 <1>  -0.1500 
  6 C        3.0440     0.0800     0.2030 C.3   1 <1>  -0.1600 
  7 C       -2.0530    -2.5540     0.0870 C.ar  1 <1>  -0.1440 
  8 C       -2.9200    -0.3170     0.2270 C.ar  1 <1>  -0.1500 
  9 C        4.3870    -0.6630     0.1550 C.3   1 <1>  -0.1600 
 10 C       -3.1300    -1.6830     0.1500 C.ar  1 <1>  -0.1500 
 11 C       -2.2900    -4.0520     0.0040 C.3   1 <1>  -0.0970 
 12 C        5.5460     0.3310     0.2060 C.3   1 <1>   0.3430 
 13 N        6.8300    -0.4150     0.1590 N.4   1 <1>  -0.9060 
 14 C        8.0580     0.3820     0.1990 C.3   1 <1>   0.5030 
 15 C        8.1200     1.1720     1.5060 C.3   1 <1>  -0.2400 
 16 C        9.2140    -0.6100     0.1380 C.3   1 <1>  -0.2400 
 17 C        8.1100     1.3150    -1.0110 C.3   1 <1>  -0.2400 
 18 H        1.8460    -1.4440    -0.7630 H     1 <1>   0.0800 
 19 H        1.8560    -1.5440     1.0030 H     1 <1>   0.0800 
 20 H        0.0580    -2.7380     0.0590 H     1 <1>   0.1500 
 21 H       -1.4590     1.2420     0.3030 H     1 <1>   0.1500 
 22 H        2.9780     0.6560     1.1110 H     1 <1>   0.0800 
 23 H        2.9700     0.7540    -0.6350 H     1 <1>   0.0800 
 24 H       -3.7580     0.3550     0.2750 H     1 <1>   0.1500 
 25 H        4.4360    -1.2350    -0.7560 H     1 <1>   0.0800 
 26 H        4.4440    -1.3340     0.9950 H     1 <1>   0.0800 
 27 H       -4.1360    -2.0640     0.1400 H     1 <1>   0.1500 
 28 H       -1.5100    -4.5260    -0.5650 H     1 <1>   0.0800 
 29 H       -3.2300    -4.2590    -0.4750 H     1 <1>   0.0800 
 30 H       -2.3040    -4.4730     0.9930 H     1 <1>   0.0800 
 31 H        5.4830     0.9080     1.1150 H     1 <1>   0.0800 
 32 H        5.4760     1.0060    -0.6320 H     1 <1>   0.0800 
 33 H        6.8600    -0.9780    -0.6960 H     1 <1>   0.4500 
 34 H        6.8660    -1.0710     0.9440 H     1 <1>   0.4500 
 35 H        7.3540     1.9240     1.5530 H     1 <1>   0.0800 
 36 H        8.0340     0.5210     2.3580 H     1 <1>   0.0800 
 37 H        9.0660     1.6790     1.5770 H     1 <1>   0.0800 
 38 H        9.1900    -1.1820    -0.7730 H     1 <1>   0.0800 
 39 H        9.1970    -1.2820     0.9790 H     1 <1>   0.0800 
 40 H       10.1520    -0.0820     0.1640 H     1 <1>   0.0800 
 41 H        8.0170     0.7650    -1.9300 H     1 <1>   0.0800 
 42 H        9.0560     1.8280    -1.0310 H     1 <1>   0.0800 
 43 H        7.3430     2.0670    -0.9660 H     1 <1>   0.0800 
@<TRIPOS>BOND
  1   1   2  1   
  2   1   3  1   
  3   2   4  ar  
  4   2   5  ar  
  5   3   6  1   
  6   3  18  1   
  7   3  19  1   
  8   4   7  ar  
  9   4  20  1   
 10   5   8  ar  
 11   5  21  1   
 12   6   9  1   
 13   6  22  1   
 14   6  23  1   
 15   7  10  ar  
 16   7  11  1   
 17   8  10  ar  
 18   8  24  1   
 19   9  12  1   
 20   9  25  1   
 21   9  26  1   
 22  10  27  1   
 23  11  28  1   
 24  11  29  1   
 25  11  30  1   
 26  12  13  1   
 27  12  31  1   
 28  12  32  1   
 29  13  14  1   
 30  13  33  1   
 31  13  34  1   
 32  14  15  1   
 33  14  16  1   
 34  14  17  1   
 35  15  35  1   
 36  15  36  1   
 37  15  37  1   
 38  16  38  1   
 39  16  39  1   
 40  16  40  1   
 41  17  41  1   
 42  17  42  1   
 43  17  43  1   
@<TRIPOS>SUBSTRUCTURE
  1 ****   3 GROUP 4 **** **** 0

# MOE 2024.06 (io_trps.svl 2023.06)
