@<TRIPOS>MOLECULE
NONAME
44 44 1 0 0 
SMALL
USER_CHARGES


@<TRIPOS>ATOM
  1 O        0.6850    -0.3620    -0.6480 O.3   1 <1>  -0.3630 
  2 C       -0.5500    -0.8500    -0.3340 C.ar  1 <1>   0.0830 
  3 C        1.8600    -1.0660    -0.3350 C.3   1 <1>   0.1200 
  4 C       -0.8880    -2.2050    -0.1600 C.ar  1 <1>   0.0830 
  5 C       -1.5290     0.1200    -0.1850 C.ar  1 <1>  -0.1500 
  6 C        3.0250    -0.0780    -0.4000 C.3   1 <1>  -0.1600 
  7 O        0.0540    -3.1780    -0.3420 O.3   1 <1>  -0.3630 
  8 C       -2.1990    -2.5320     0.1850 C.ar  1 <1>  -0.1500 
  9 C       -2.8270    -0.2200     0.1490 C.ar  1 <1>  -0.1500 
 10 C        4.3590    -0.7640    -0.0750 C.3   1 <1>  -0.1600 
 11 C       -0.2940    -4.5420    -0.4450 C.3   1 <1>   0.0400 
 12 C       -3.1600    -1.5470     0.3380 C.ar  1 <1>  -0.1500 
 13 C        5.5070     0.2400    -0.1450 C.3   1 <1>   0.3430 
 14 N        6.7780    -0.4590     0.1730 N.4   1 <1>  -0.9060 
 15 C        7.9990     0.3500     0.1550 C.3   1 <1>   0.5030 
 16 C        8.2160     0.9270    -1.2430 C.3   1 <1>  -0.2400 
 17 C        9.1430    -0.5940     0.5100 C.3   1 <1>  -0.2400 
 18 C        7.8990     1.4610     1.2000 C.3   1 <1>  -0.2400 
 19 H        1.9810    -1.8520    -1.0590 H     1 <1>   0.0800 
 20 H        1.7550    -1.4800     0.6540 H     1 <1>   0.0800 
 21 H       -1.2660     1.1520    -0.3310 H     1 <1>   0.1500 
 22 H        2.8390     0.7150     0.3050 H     1 <1>   0.0800 
 23 H        3.0610     0.3420    -1.3910 H     1 <1>   0.0800 
 24 H       -2.5000    -3.5490     0.3420 H     1 <1>   0.1500 
 25 H       -3.5730     0.5480     0.2630 H     1 <1>   0.1500 
 26 H        4.5230    -1.5570    -0.7840 H     1 <1>   0.0800 
 27 H        4.3010    -1.1840     0.9150 H     1 <1>   0.0800 
 28 H        0.5910    -5.0950    -0.7030 H     1 <1>   0.0800 
 29 H       -1.0340    -4.6570    -1.2170 H     1 <1>   0.0800 
 30 H       -0.6700    -4.8800     0.5050 H     1 <1>   0.0800 
 31 H       -4.1680    -1.8150     0.6030 H     1 <1>   0.1500 
 32 H        5.3310     1.0360     0.5610 H     1 <1>   0.0800 
 33 H        5.5520     0.6650    -1.1350 H     1 <1>   0.0800 
 34 H        6.9110    -1.2280    -0.4900 H     1 <1>   0.4500 
 35 H        6.7040    -0.8810     1.1030 H     1 <1>   0.4500 
 36 H        7.4580     1.6450    -1.4990 H     1 <1>   0.0800 
 37 H        9.1620     1.4400    -1.2790 H     1 <1>   0.0800 
 38 H        8.2370     0.1500    -1.9860 H     1 <1>   0.0800 
 39 H        9.0090    -1.0170     1.4900 H     1 <1>   0.0800 
 40 H       10.0740    -0.0550     0.5130 H     1 <1>   0.0800 
 41 H        9.2310    -1.3880    -0.2110 H     1 <1>   0.0800 
 42 H        7.6960     1.0580     2.1770 H     1 <1>   0.0800 
 43 H        7.1400     2.1790     0.9460 H     1 <1>   0.0800 
 44 H        8.8330     1.9920     1.2530 H     1 <1>   0.0800 
@<TRIPOS>BOND
  1   1   2  1   
  2   1   3  1   
  3   2   4  ar  
  4   2   5  ar  
  5   3   6  1   
  6   3  19  1   
  7   3  20  1   
  8   4   7  1   
  9   4   8  ar  
 10   5   9  ar  
 11   5  21  1   
 12   6  10  1   
 13   6  22  1   
 14   6  23  1   
 15   7  11  1   
 16   8  12  ar  
 17   8  24  1   
 18   9  12  ar  
 19   9  25  1   
 20  10  13  1   
 21  10  26  1   
 22  10  27  1   
 23  11  28  1   
 24  11  29  1   
 25  11  30  1   
 26  12  31  1   
 27  13  14  1   
 28  13  32  1   
 29  13  33  1   
 30  14  15  1   
 31  14  34  1   
 32  14  35  1   
 33  15  16  1   
 34  15  17  1   
 35  15  18  1   
 36  16  36  1   
 37  16  37  1   
 38  16  38  1   
 39  17  39  1   
 40  17  40  1   
 41  17  41  1   
 42  18  42  1   
 43  18  43  1   
 44  18  44  1   
@<TRIPOS>SUBSTRUCTURE
  1 ****   3 GROUP 4 **** **** 0

# MOE 2024.06 (io_trps.svl 2023.06)
