@<TRIPOS>MOLECULE
NONAME
24 24 1 0 0 
SMALL
USER_CHARGES


@<TRIPOS>ATOM
  1 BR      -0.3060    -0.1520    -0.6800 Br    1 <1>  -0.1110 
  2 C        1.4550    -0.8910    -0.3990 C.ar  1 <1>   0.1110 
  3 C        1.6170    -2.1840     0.0800 C.ar  1 <1>   0.1660 
  4 C        2.5410    -0.0960    -0.6890 C.ar  1 <1>  -0.1500 
  5 N        2.8060    -2.7310     0.2870 N.ar  1 <1>  -0.6200 
  6 C        0.4130    -3.0520     0.3960 C.3   1 <1>  -0.0960 
  7 C        3.7740    -0.6700    -0.4720 C.ar  1 <1>  -0.1500 
  8 C        3.8640    -1.9780     0.0110 C.ar  1 <1>   0.4270 
  9 N        5.0490    -2.6340     0.2590 N.am  1 <1>  -0.5470 
 10 C        6.3570    -2.2870     0.1090 C.2   1 <1>   0.5690 
 11 O        6.7270    -1.2190    -0.3100 O.2   1 <1>  -0.5700 
 12 C        7.4030    -3.3160     0.5020 C.3   1 <1>  -0.0990 
 13 C        7.4320    -4.5280    -0.4430 C.3   1 <1>  -0.2400 
 14 H        2.4260     0.9060    -1.0600 H     1 <1>   0.1500 
 15 H       -0.1860    -2.5850     1.1550 H     1 <1>   0.0800 
 16 H        0.7270    -4.0160     0.7530 H     1 <1>   0.0800 
 17 H       -0.1810    -3.1920    -0.4890 H     1 <1>   0.0800 
 18 H        4.6610    -0.1030    -0.6780 H     1 <1>   0.1500 
 19 H        4.8700    -3.5710     0.6050 H     1 <1>   0.3700 
 20 H        7.2100    -3.6410     1.5080 H     1 <1>   0.0800 
 21 H        8.3680    -2.8400     0.4930 H     1 <1>   0.0800 
 22 H        6.4910    -5.0490    -0.4290 H     1 <1>   0.0800 
 23 H        8.2080    -5.2110    -0.1440 H     1 <1>   0.0800 
 24 H        7.6320    -4.2050    -1.4510 H     1 <1>   0.0800 
@<TRIPOS>BOND
  1   1   2  1   
  2   2   3  ar  
  3   2   4  ar  
  4   3   5  ar  
  5   3   6  1   
  6   4   7  ar  
  7   4  14  1   
  8   5   8  ar  
  9   6  15  1   
 10   6  16  1   
 11   6  17  1   
 12   7   8  ar  
 13   7  18  1   
 14   8   9  1   
 15   9  10  am  
 16   9  19  1   
 17  10  11  2   
 18  10  12  1   
 19  12  13  1   
 20  12  20  1   
 21  12  21  1   
 22  13  22  1   
 23  13  23  1   
 24  13  24  1   
@<TRIPOS>SUBSTRUCTURE
  1 ****   8 GROUP 4 **** **** 0

# MOE 2024.06 (io_trps.svl 2023.06)
