@<TRIPOS>MOLECULE
NONAME
30 30 1 0 0 
SMALL
USER_CHARGES


@<TRIPOS>ATOM
  1 S       -0.3220     0.5050     2.0000 S.2   1 <1>  -0.3800 
  2 C       -1.6530     0.9500     1.1740 C.2   1 <1>   0.5000 
  3 N       -1.9570     2.2620     1.1910 N.am  1 <1>  -0.5390 
  4 N       -2.4510     0.0690     0.4840 N.am  1 <1>  -0.4200 
  5 C       -3.0290     2.8110     0.5560 C.2   1 <1>  -0.0410 
  6 C       -3.5780     0.5920    -0.2030 C.2   1 <1>   0.6160 
  7 C       -2.1430    -1.4020     0.4560 C.3   1 <1>   0.2200 
  8 O       -3.1430     4.0280     0.6870 O.3   1 <1>  -0.8500 
  9 C       -3.8610     1.9610    -0.1580 C.2   1 <1>  -0.1240 
 10 O       -4.3020    -0.1930    -0.8440 O.2   1 <1>  -0.5700 
 11 C       -1.8070    -1.8810    -0.9710 C.3   1 <1>  -0.1600 
 12 C       -3.2540    -2.2150     1.1370 C.3   1 <1>  -0.2400 
 13 C       -5.0700     2.5440    -0.8800 C.3   1 <1>  -0.0220 
 14 C       -1.1260    -3.2580    -0.9970 C.3   1 <1>  -0.2400 
 15 C       -6.3260     2.4380    -0.0110 C.3   1 <1>  -0.2400 
 16 H       -1.3900     2.9400     1.6930 H     1 <1>   0.3700 
 17 H       -1.2610    -1.5870     1.0370 H     1 <1>   0.0800 
 18 H       -1.1420    -1.1650    -1.4220 H     1 <1>   0.0800 
 19 H       -2.6990    -1.9290    -1.5680 H     1 <1>   0.0800 
 20 H       -4.1400    -2.2530     0.5310 H     1 <1>   0.0800 
 21 H       -3.4950    -1.7750     2.0890 H     1 <1>   0.0800 
 22 H       -2.9230    -3.2220     1.3070 H     1 <1>   0.0800 
 23 H       -5.2230     2.0310    -1.8120 H     1 <1>   0.0800 
 24 H       -4.8800     3.5800    -1.1050 H     1 <1>   0.0800 
 25 H       -0.2300    -3.2460    -0.4020 H     1 <1>   0.0800 
 26 H       -0.8610    -3.5120    -2.0080 H     1 <1>   0.0800 
 27 H       -1.7870    -4.0180    -0.6220 H     1 <1>   0.0800 
 28 H       -6.5370     1.4070     0.2080 H     1 <1>   0.0800 
 29 H       -7.1660     2.8740    -0.5180 H     1 <1>   0.0800 
 30 H       -6.1600     2.9650     0.9130 H     1 <1>   0.0800 
@<TRIPOS>BOND
  1   1   2  2   
  2   2   3  am  
  3   2   4  am  
  4   3   5  1   
  5   3  16  1   
  6   4   6  am  
  7   4   7  1   
  8   5   8  1   
  9   5   9  2   
 10   6   9  1   
 11   6  10  2   
 12   7  11  1   
 13   7  12  1   
 14   7  17  1   
 15   9  13  1   
 16  11  14  1   
 17  11  18  1   
 18  11  19  1   
 19  12  20  1   
 20  12  21  1   
 21  12  22  1   
 22  13  15  1   
 23  13  23  1   
 24  13  24  1   
 25  14  25  1   
 26  14  26  1   
 27  14  27  1   
 28  15  28  1   
 29  15  29  1   
 30  15  30  1   
@<TRIPOS>SUBSTRUCTURE
  1 ****   4 GROUP 4 **** **** 0

# MOE 2024.06 (io_trps.svl 2023.06)
