@<TRIPOS>MOLECULE
NONAME
24 24 1 0 0 
SMALL
USER_CHARGES


@<TRIPOS>ATOM
  1 BR      -0.3320     0.4290     0.0740 Br    1 <1>  -0.1110 
  2 C       -2.0350    -0.4670    -0.0020 C.ar  1 <1>   0.1110 
  3 C       -3.1550     0.2660    -0.3370 C.ar  1 <1>  -0.1500 
  4 C       -2.0870    -1.8180     0.2840 C.ar  1 <1>  -0.1500 
  5 C       -4.3780    -0.3810    -0.3820 C.ar  1 <1>   0.0830 
  6 C       -3.3080    -2.4750     0.2210 C.ar  1 <1>  -0.1440 
  7 O       -5.4670     0.3700    -0.6750 O.3   1 <1>  -0.3620 
  8 C       -4.4540    -1.7590    -0.1270 C.ar  1 <1>   0.0830 
  9 C       -3.3780    -3.9630     0.5240 C.3   1 <1>   0.2640 
 10 C       -6.3820     0.5760     0.3790 C.3   1 <1>   0.0400 
 11 O       -5.6320    -2.4330    -0.1990 O.3   1 <1>  -0.3630 
 12 O       -4.1410    -4.1310     1.6600 O.3   1 <1>  -0.6800 
 13 C       -6.2230    -2.5320    -1.4780 C.3   1 <1>   0.0400 
 14 H       -3.0850     1.3160    -0.5500 H     1 <1>   0.1500 
 15 H       -1.1850    -2.3400     0.5510 H     1 <1>   0.1500 
 16 H       -2.4050    -4.3820     0.7100 H     1 <1>   0.0800 
 17 H       -3.8510    -4.4950    -0.2830 H     1 <1>   0.0800 
 18 H       -7.1470     1.2480     0.0340 H     1 <1>   0.0800 
 19 H       -5.8590     1.0100     1.2130 H     1 <1>   0.0800 
 20 H       -6.8190    -0.3650     0.6600 H     1 <1>   0.0800 
 21 H       -4.9520    -3.5910     1.5480 H     1 <1>   0.4000 
 22 H       -6.5590    -1.5610    -1.7940 H     1 <1>   0.0800 
 23 H       -7.0600    -3.2030    -1.4110 H     1 <1>   0.0800 
 24 H       -5.4950    -2.9180    -2.1690 H     1 <1>   0.0800 
@<TRIPOS>BOND
  1   1   2  1   
  2   2   3  ar  
  3   2   4  ar  
  4   3   5  ar  
  5   3  14  1   
  6   4   6  ar  
  7   4  15  1   
  8   5   7  1   
  9   5   8  ar  
 10   6   8  ar  
 11   6   9  1   
 12   7  10  1   
 13   8  11  1   
 14   9  12  1   
 15   9  16  1   
 16   9  17  1   
 17  10  18  1   
 18  10  19  1   
 19  10  20  1   
 20  11  13  1   
 21  12  21  1   
 22  13  22  1   
 23  13  23  1   
 24  13  24  1   
@<TRIPOS>SUBSTRUCTURE
  1 ****   8 GROUP 4 **** **** 0

# MOE 2024.06 (io_trps.svl 2023.06)
