@<TRIPOS>MOLECULE
NONAME
54 55 1 0 0 
SMALL
USER_CHARGES


@<TRIPOS>ATOM
  1 O       -0.1720     0.4890    -0.3230 O.2   1 <1>  -0.5700 
  2 C       -1.2350     1.0580    -0.2300 C.2   1 <1>   0.4950 
  3 C       -1.4520     2.3990    -0.6870 C.2   1 <1>   0.0290 
  4 C       -2.3430     0.3060     0.4920 C.3   1 <1>   0.0420 
  5 C       -2.5750     3.1070    -0.3090 C.2   1 <1>  -0.0380 
  6 C       -0.4690     3.0040    -1.5430 C.2   1 <1>   0.4950 
  7 C       -2.3260    -1.1500     0.0590 C.2   1 <1>   0.6590 
  8 C       -3.7450     0.9670     0.3750 C.3   1 <1>   0.0000 
  9 N       -2.8380     4.3740    -0.7430 N.pl3 1 <1>  -0.6000 
 10 C       -3.5910     2.4740     0.6390 C.3   1 <1>  -0.0220 
 11 O       -0.7810     3.6600    -2.5140 O.2   1 <1>  -0.5700 
 12 C        1.0260     2.9230    -1.2320 C.3   1 <1>  -0.0990 
 13 O       -2.3530    -1.4910    -1.0970 O.2   1 <1>  -0.5700 
 14 O       -2.3010    -2.0400     1.0470 O.3   1 <1>  -0.4300 
 15 C       -4.7040     0.3740     1.4250 C.3   1 <1>  -0.2400 
 16 C       -4.3900     0.7700    -1.0150 C.3   1 <1>  -0.2400 
 17 C       -3.8670     5.2670    -0.3860 C.ar  1 <1>   0.1000 
 18 C        1.7620     4.2620    -1.4190 C.3   1 <1>  -0.1600 
 19 C       -2.2700    -3.4290     0.7910 C.3   1 <1>   0.0400 
 20 C       -4.0870     5.7150     0.9260 C.ar  1 <1>   0.0830 
 21 C       -4.7100     5.7250    -1.3890 C.ar  1 <1>  -0.1500 
 22 C        3.2420     4.1440    -1.0400 C.3   1 <1>  -0.2400 
 23 O       -3.2940     5.3430     1.9620 O.3   1 <1>  -0.3620 
 24 C       -5.1440     6.5640     1.2090 C.ar  1 <1>  -0.1500 
 25 C       -5.7570     6.5840    -1.1050 C.ar  1 <1>  -0.1500 
 26 C       -1.9980     5.8970     1.9840 C.3   1 <1>   0.0400 
 27 C       -5.9790     7.0010     0.1960 C.ar  1 <1>  -0.1500 
 28 H       -2.0620     0.3220     1.5280 H     1 <1>   0.0800 
 29 H       -2.2340     4.7130    -1.5130 H     1 <1>   0.4000 
 30 H       -4.5550     2.9400     0.5240 H     1 <1>   0.0800 
 31 H       -3.2730     2.6510     1.6520 H     1 <1>   0.0800 
 32 H        1.4630     2.1790    -1.8730 H     1 <1>   0.0800 
 33 H        1.1630     2.6070    -0.2140 H     1 <1>   0.0800 
 34 H       -5.6640     0.8580     1.3740 H     1 <1>   0.0800 
 35 H       -4.8530    -0.6780     1.2590 H     1 <1>   0.0800 
 36 H       -4.3160     0.5080     2.4200 H     1 <1>   0.0800 
 37 H       -3.7290     1.0800    -1.8060 H     1 <1>   0.0800 
 38 H       -5.2950     1.3470    -1.0970 H     1 <1>   0.0800 
 39 H       -4.6480    -0.2600    -1.1840 H     1 <1>   0.0800 
 40 H        1.2960     5.0180    -0.8100 H     1 <1>   0.0800 
 41 H        1.6850     4.5730    -2.4480 H     1 <1>   0.0800 
 42 H       -3.1520    -3.7000     0.2360 H     1 <1>   0.0800 
 43 H       -2.2470    -3.9490     1.7310 H     1 <1>   0.0800 
 44 H       -1.3870    -3.6560     0.2190 H     1 <1>   0.0800 
 45 H       -4.5480     5.3960    -2.3990 H     1 <1>   0.1500 
 46 H        3.3470     3.8590    -0.0070 H     1 <1>   0.0800 
 47 H        3.7360     5.0880    -1.1860 H     1 <1>   0.0800 
 48 H        3.7290     3.4060    -1.6540 H     1 <1>   0.0800 
 49 H       -5.3060     6.8820     2.2230 H     1 <1>   0.1500 
 50 H       -6.4030     6.9250    -1.8960 H     1 <1>   0.1500 
 51 H       -2.0790     6.9690     1.9420 H     1 <1>   0.0800 
 52 H       -1.4410     5.5310     1.1410 H     1 <1>   0.0800 
 53 H       -1.5200     5.5980     2.8980 H     1 <1>   0.0800 
 54 H       -6.7970     7.6640     0.4200 H     1 <1>   0.1500 
@<TRIPOS>BOND
  1   1   2  2   
  2   2   3  1   
  3   2   4  1   
  4   3   5  2   
  5   3   6  1   
  6   4   7  1   
  7   4   8  1   
  8   4  28  1   
  9   5   9  1   
 10   5  10  1   
 11   6  11  2   
 12   6  12  1   
 13   7  13  2   
 14   7  14  1   
 15   8  10  1   
 16   8  15  1   
 17   8  16  1   
 18   9  17  1   
 19   9  29  1   
 20  10  30  1   
 21  10  31  1   
 22  12  18  1   
 23  12  32  1   
 24  12  33  1   
 25  14  19  1   
 26  15  34  1   
 27  15  35  1   
 28  15  36  1   
 29  16  37  1   
 30  16  38  1   
 31  16  39  1   
 32  17  20  ar  
 33  17  21  ar  
 34  18  22  1   
 35  18  40  1   
 36  18  41  1   
 37  19  42  1   
 38  19  43  1   
 39  19  44  1   
 40  20  23  1   
 41  20  24  ar  
 42  21  25  ar  
 43  21  45  1   
 44  22  46  1   
 45  22  47  1   
 46  22  48  1   
 47  23  26  1   
 48  24  27  ar  
 49  24  49  1   
 50  25  27  ar  
 51  25  50  1   
 52  26  51  1   
 53  26  52  1   
 54  26  53  1   
 55  27  54  1   
@<TRIPOS>SUBSTRUCTURE
  1 ****   5 GROUP 4 **** **** 0

# MOE 2024.06 (io_trps.svl 2023.06)
