@<TRIPOS>MOLECULE
NONAME
38 39 1 0 0 
SMALL
USER_CHARGES


@<TRIPOS>ATOM
  1 S       -0.0150     0.2790    -0.3220 S.3   1 <1>  -0.2860 
  2 C       -0.5400    -0.7930     1.0220 C.2   1 <1>   0.2420 
  3 C       -1.1400     1.7540    -0.2020 C.3   1 <1>   0.2110 
  4 N       -1.3790    -0.4680     1.9260 N.2   1 <1>  -0.3380 
  5 N       -0.1070    -2.0280     1.1800 N.pl3 1 <1>   0.3140 
  6 C       -2.5160     1.3930    -0.7860 C.2   1 <1>   0.5690 
  7 C       -0.4160     2.9160    -0.8980 C.3   1 <1>  -0.2400 
  8 N       -1.4830    -1.5570     2.6840 N.2   1 <1>   0.0000 
  9 N       -0.7250    -2.5030     2.2430 N.2   1 <1>  -0.4180 
 10 C        0.8480    -2.7980     0.3700 C.3   1 <1>   0.0160 
 11 O       -2.8300     1.8220    -1.8720 O.2   1 <1>  -0.5700 
 12 N       -3.3320     0.5870    -0.0370 N.am  1 <1>  -0.5470 
 13 C       -4.6070     0.0510    -0.2740 C.ar  1 <1>   0.1170 
 14 C       -5.4860     0.5480    -1.2320 C.ar  1 <1>  -0.1500 
 15 C       -5.0160    -1.0280     0.5010 C.ar  1 <1>  -0.1500 
 16 C       -6.7330    -0.0220    -1.4090 C.ar  1 <1>  -0.1500 
 17 C       -6.2630    -1.6020     0.3280 C.ar  1 <1>  -0.1500 
 18 C       -7.1330    -1.0980    -0.6350 C.ar  1 <1>   0.0820 
 19 O       -8.3740    -1.5980    -0.8740 O.3   1 <1>  -0.3630 
 20 C       -8.8650    -2.6990    -0.1460 C.3   1 <1>   0.1200 
 21 C      -10.2680    -3.0130    -0.6550 C.3   1 <1>  -0.2400 
 22 H       -1.2460     1.9780     0.8440 H     1 <1>   0.0800 
 23 H       -0.2450     2.6800    -1.9340 H     1 <1>   0.0800 
 24 H        0.5270     3.1100    -0.4200 H     1 <1>   0.0800 
 25 H       -1.0200     3.8050    -0.8480 H     1 <1>   0.0800 
 26 H        1.7870    -2.2760     0.3360 H     1 <1>   0.0800 
 27 H        0.4590    -2.9100    -0.6250 H     1 <1>   0.0800 
 28 H        0.9910    -3.7670     0.8120 H     1 <1>   0.0800 
 29 H       -2.9020     0.2390     0.8250 H     1 <1>   0.3700 
 30 H       -5.2040     1.3850    -1.8430 H     1 <1>   0.1500 
 31 H       -4.3520    -1.4260     1.2470 H     1 <1>   0.1500 
 32 H       -7.4060     0.3660    -2.1520 H     1 <1>   0.1500 
 33 H       -6.5370    -2.4340     0.9480 H     1 <1>   0.1500 
 34 H       -8.8890    -2.4360     0.8970 H     1 <1>   0.0800 
 35 H       -8.2060    -3.5350    -0.3070 H     1 <1>   0.0800 
 36 H      -10.9130    -2.1660    -0.5050 H     1 <1>   0.0800 
 37 H      -10.6720    -3.8520    -0.1180 H     1 <1>   0.0800 
 38 H      -10.2350    -3.2580    -1.7010 H     1 <1>   0.0800 
@<TRIPOS>BOND
  1   1   2  1   
  2   1   3  1   
  3   2   4  2   
  4   2   5  1   
  5   3   6  1   
  6   3   7  1   
  7   3  22  1   
  8   4   8  1   
  9   5   9  1   
 10   5  10  1   
 11   6  11  2   
 12   6  12  am  
 13   7  23  1   
 14   7  24  1   
 15   7  25  1   
 16   8   9  2   
 17  10  26  1   
 18  10  27  1   
 19  10  28  1   
 20  12  13  1   
 21  12  29  1   
 22  13  14  ar  
 23  13  15  ar  
 24  14  16  ar  
 25  14  30  1   
 26  15  17  ar  
 27  15  31  1   
 28  16  18  ar  
 29  16  32  1   
 30  17  18  ar  
 31  17  33  1   
 32  18  19  1   
 33  19  20  1   
 34  20  21  1   
 35  20  34  1   
 36  20  35  1   
 37  21  36  1   
 38  21  37  1   
 39  21  38  1   
@<TRIPOS>SUBSTRUCTURE
  1 ****  13 GROUP 4 **** **** 0

# MOE 2024.06 (io_trps.svl 2023.06)
