@<TRIPOS>MOLECULE
NONAME
42 43 1 0 0 
SMALL
USER_CHARGES


@<TRIPOS>ATOM
  1 S       -0.1830     0.1460     0.1980 S.o2  1 <1>   1.4970 
  2 O       -0.7220     0.7010    -1.0280 O.2   1 <1>  -0.6500 
  3 O       -0.6000     0.7330     1.4560 O.2   1 <1>  -0.6500 
  4 N       -0.6070    -1.4750     0.2390 N.2   1 <1>  -0.6380 
  5 C        1.6420     0.1740     0.1080 C.ar  1 <1>  -0.0090 
  6 C       -1.8510    -1.7920     0.3040 C.2   1 <1>   0.4210 
  7 C        2.3530     1.3750     0.0580 C.ar  1 <1>  -0.1440 
  8 C        2.3810    -1.0070     0.0880 C.ar  1 <1>  -0.1500 
  9 C       -2.1740    -3.1850     0.3370 C.2   1 <1>  -0.1360 
 10 C       -2.9980    -0.9230     0.3490 C.2   1 <1>  -0.1360 
 11 C        3.7360     1.3710    -0.0100 C.ar  1 <1>  -0.1500 
 12 C        1.6320     2.7190     0.0750 C.3   1 <1>  -0.0960 
 13 C        3.7670    -1.0300     0.0200 C.ar  1 <1>  -0.1430 
 14 C       -3.4480    -3.6430     0.4060 C.2   1 <1>  -0.0500 
 15 C       -4.2650    -1.4020     0.4170 C.2   1 <1>  -0.0500 
 16 C        4.4540     0.1800    -0.0290 C.ar  1 <1>   0.0830 
 17 C        4.5010    -2.3780     0.0020 C.3   1 <1>   0.0630 
 18 N       -4.5020    -2.7580     0.4460 N.pl3 1 <1>  -0.6000 
 19 O        5.8110     0.1540    -0.0950 O.3   1 <1>  -0.3630 
 20 C        4.1080    -3.2000    -1.2310 C.3   1 <1>  -0.2400 
 21 C        4.2310    -3.1670     1.2890 C.3   1 <1>  -0.2400 
 22 C        6.5890     1.3290    -0.1490 C.3   1 <1>   0.0400 
 23 H        1.8600    -1.9450     0.1250 H     1 <1>   0.1500 
 24 H       -1.3450    -3.8660     0.3050 H     1 <1>   0.1500 
 25 H       -2.8530     0.1390     0.3290 H     1 <1>   0.1500 
 26 H        4.2500     2.3120    -0.0470 H     1 <1>   0.1500 
 27 H        1.0580     2.8240     0.9790 H     1 <1>   0.0800 
 28 H        0.9730     2.8010    -0.7710 H     1 <1>   0.0800 
 29 H        2.3290     3.5360     0.0310 H     1 <1>   0.0800 
 30 H       -3.6810    -4.6960     0.4300 H     1 <1>   0.1500 
 31 H       -5.1220    -0.7470     0.4510 H     1 <1>   0.1500 
 32 H        5.5630    -2.2180    -0.0520 H     1 <1>   0.0800 
 33 H       -5.4680    -3.1090     0.4980 H     1 <1>   0.4000 
 34 H        3.0670    -3.4630    -1.2070 H     1 <1>   0.0800 
 35 H        4.6900    -4.1030    -1.2750 H     1 <1>   0.0800 
 36 H        4.2980    -2.6280    -2.1220 H     1 <1>   0.0800 
 37 H        3.1930    -3.4300     1.3730 H     1 <1>   0.0800 
 38 H        4.5060    -2.5720     2.1420 H     1 <1>   0.0800 
 39 H        4.8160    -4.0690     1.2990 H     1 <1>   0.0800 
 40 H        7.6240     1.0420    -0.1950 H     1 <1>   0.0800 
 41 H        6.4100     1.9060     0.7410 H     1 <1>   0.0800 
 42 H        6.3230     1.8830    -1.0310 H     1 <1>   0.0800 
@<TRIPOS>BOND
  1   1   2  2   
  2   1   3  2   
  3   1   4  1   
  4   1   5  1   
  5   4   6  2   
  6   5   7  ar  
  7   5   8  ar  
  8   6   9  1   
  9   6  10  1   
 10   7  11  ar  
 11   7  12  1   
 12   8  13  ar  
 13   8  23  1   
 14   9  14  2   
 15   9  24  1   
 16  10  15  2   
 17  10  25  1   
 18  11  16  ar  
 19  11  26  1   
 20  12  27  1   
 21  12  28  1   
 22  12  29  1   
 23  13  16  ar  
 24  13  17  1   
 25  14  18  1   
 26  14  30  1   
 27  15  18  1   
 28  15  31  1   
 29  16  19  1   
 30  17  20  1   
 31  17  21  1   
 32  17  32  1   
 33  18  33  1   
 34  19  22  1   
 35  20  34  1   
 36  20  35  1   
 37  20  36  1   
 38  21  37  1   
 39  21  38  1   
 40  21  39  1   
 41  22  40  1   
 42  22  41  1   
 43  22  42  1   
@<TRIPOS>SUBSTRUCTURE
  1 ****   5 GROUP 4 **** **** 0

# MOE 2024.06 (io_trps.svl 2023.06)
