@<TRIPOS>MOLECULE
NONAME
33 33 1 0 0 
SMALL
USER_CHARGES


@<TRIPOS>ATOM
  1 CL      -0.4880    -0.2600     1.3180 Cl    1 <1>  -0.1770 
  2 C       -2.0230    -1.0110     0.9780 C.ar  1 <1>   0.1770 
  3 C       -3.0980    -0.2260     0.6080 C.ar  1 <1>  -0.1500 
  4 C       -2.1480    -2.3820     1.0850 C.ar  1 <1>  -0.1500 
  5 C       -4.3150    -0.8260     0.3370 C.ar  1 <1>  -0.1500 
  6 C       -3.3700    -2.9730     0.8110 C.ar  1 <1>  -0.1500 
  7 C       -4.4770    -2.2130     0.4220 C.ar  1 <1>   0.0860 
  8 C       -5.7450    -2.8490     0.1230 C.2   1 <1>   0.5440 
  9 O       -6.1110    -3.8310     0.7490 O.2   1 <1>  -0.5700 
 10 N       -6.5370    -2.3730    -0.8830 N.am  1 <1>  -0.4300 
 11 N       -7.9620    -2.6990    -1.0570 N.am  1 <1>  -0.4300 
 12 C       -9.0040    -1.9720    -0.5820 C.2   1 <1>   0.7800 
 13 O       -8.8650    -0.8460    -0.1360 O.2   1 <1>  -0.5700 
 14 O      -10.2000    -2.5600    -0.6550 O.3   1 <1>  -0.4300 
 15 C      -11.4320    -2.0340    -0.2090 C.3   1 <1>   0.2800 
 16 C      -12.4630    -3.1230    -0.5090 C.3   1 <1>  -0.2400 
 17 C      -11.7890    -0.7700    -1.0010 C.3   1 <1>  -0.2400 
 18 C      -11.3870    -1.7850     1.3030 C.3   1 <1>  -0.2400 
 19 H       -2.9780     0.8410     0.5400 H     1 <1>   0.1500 
 20 H       -1.3010    -2.9750     1.3820 H     1 <1>   0.1500 
 21 H       -5.1550    -0.2080     0.0670 H     1 <1>   0.1500 
 22 H       -3.4780    -4.0410     0.8990 H     1 <1>   0.1500 
 23 H       -6.1770    -1.6290    -1.4890 H     1 <1>   0.3700 
 24 H       -8.1770    -3.6490    -1.3690 H     1 <1>   0.3700 
 25 H      -12.4930    -3.3290    -1.5630 H     1 <1>   0.0800 
 26 H      -13.4430    -2.8060    -0.1980 H     1 <1>   0.0800 
 27 H      -12.2160    -4.0260     0.0190 H     1 <1>   0.0800 
 28 H      -11.7420    -0.9630    -2.0570 H     1 <1>   0.0800 
 29 H      -11.1260     0.0410    -0.7590 H     1 <1>   0.0800 
 30 H      -12.7870    -0.4540    -0.7560 H     1 <1>   0.0800 
 31 H      -11.0630    -2.6710     1.8190 H     1 <1>   0.0800 
 32 H      -12.3650    -1.5210     1.6610 H     1 <1>   0.0800 
 33 H      -10.7250    -0.9740     1.5450 H     1 <1>   0.0800 
@<TRIPOS>BOND
  1   1   2  1   
  2   2   3  ar  
  3   2   4  ar  
  4   3   5  ar  
  5   3  19  1   
  6   4   6  ar  
  7   4  20  1   
  8   5   7  ar  
  9   5  21  1   
 10   6   7  ar  
 11   6  22  1   
 12   7   8  1   
 13   8   9  2   
 14   8  10  am  
 15  10  11  1   
 16  10  23  1   
 17  11  12  am  
 18  11  24  1   
 19  12  13  2   
 20  12  14  1   
 21  14  15  1   
 22  15  16  1   
 23  15  17  1   
 24  15  18  1   
 25  16  25  1   
 26  16  26  1   
 27  16  27  1   
 28  17  28  1   
 29  17  29  1   
 30  17  30  1   
 31  18  31  1   
 32  18  32  1   
 33  18  33  1   
@<TRIPOS>SUBSTRUCTURE
  1 ****  10 GROUP 4 **** **** 0

# MOE 2024.06 (io_trps.svl 2023.06)
