@<TRIPOS>MOLECULE
NONAME
41 44 1 0 0 
SMALL
USER_CHARGES


@<TRIPOS>ATOM
  1 O        0.5370    -1.1790     2.4930 O.2   1 <1>  -0.5700 
  2 C       -0.0990    -1.7120     1.6140 C.2   1 <1>   0.5690 
  3 N        0.4770    -2.1790     0.4450 N.am  1 <1>  -0.4770 
  4 C       -1.5920    -1.9040     1.8760 C.3   1 <1>   0.1810 
  5 C        1.8280    -2.1710     0.0660 C.ar  1 <1>   0.1170 
  6 C       -0.3160    -2.7970    -0.6570 C.3   1 <1>   0.1400 
  7 O       -2.3880    -1.3020     0.8670 O.3   1 <1>  -0.3630 
  8 C        2.0140    -2.7810    -1.1570 C.ar  1 <1>  -0.1440 
  9 C        2.9300    -1.6530     0.7360 C.ar  1 <1>  -0.1500 
 10 C        0.7000    -3.2690    -1.7070 C.3   1 <1>  -0.0160 
 11 C       -3.7300    -1.4920     0.8270 C.ar  1 <1>   0.0820 
 12 C        3.2650    -2.8920    -1.7320 C.ar  1 <1>  -0.1500 
 13 C        4.1910    -1.7560     0.1720 C.ar  1 <1>  -0.1500 
 14 C       -4.3930    -0.9970    -0.2870 C.ar  1 <1>  -0.1500 
 15 C       -4.4500    -2.1470     1.8280 C.ar  1 <1>  -0.1500 
 16 C        4.3600    -2.3730    -1.0590 C.ar  1 <1>  -0.1500 
 17 C       -5.7590    -1.1690    -0.3960 C.ar  1 <1>  -0.1430 
 18 C       -5.8210    -2.3130     1.7070 C.ar  1 <1>  -0.1500 
 19 C       -6.4630    -1.8190     0.5870 C.ar  1 <1>  -0.1430 
 20 C       -6.6670    -0.7150    -1.5120 C.3   1 <1>  -0.0170 
 21 C       -7.9330    -1.8860     0.2550 C.3   1 <1>  -0.0170 
 22 C       -7.9870    -1.4490    -1.2200 C.3   1 <1>  -0.1600 
 23 H       -1.8500    -1.4510     2.8150 H     1 <1>   0.0800 
 24 H       -1.8120    -2.9540     1.9060 H     1 <1>   0.0800 
 25 H       -0.9700    -2.0580    -1.0870 H     1 <1>   0.0800 
 26 H       -0.8940    -3.6250    -0.2860 H     1 <1>   0.0800 
 27 H        2.8100    -1.1710     1.6890 H     1 <1>   0.1500 
 28 H        0.4930    -2.8310    -2.6670 H     1 <1>   0.0800 
 29 H        0.6960    -4.3410    -1.7870 H     1 <1>   0.0800 
 30 H        3.3910    -3.3710    -2.6870 H     1 <1>   0.1500 
 31 H        5.0420    -1.3540     0.6920 H     1 <1>   0.1500 
 32 H       -3.8410    -0.4860    -1.0540 H     1 <1>   0.1500 
 33 H       -3.9680    -2.5290     2.7070 H     1 <1>   0.1500 
 34 H        5.3430    -2.4500    -1.4910 H     1 <1>   0.1500 
 35 H       -6.3820    -2.8170     2.4750 H     1 <1>   0.1500 
 36 H       -6.2710    -0.9800    -2.4760 H     1 <1>   0.0800 
 37 H       -6.8020     0.3510    -1.4500 H     1 <1>   0.0800 
 38 H       -8.4720    -1.1930     0.8770 H     1 <1>   0.0800 
 39 H       -8.3250    -2.8790     0.3870 H     1 <1>   0.0800 
 40 H       -8.0380    -2.3280    -1.8390 H     1 <1>   0.0800 
 41 H       -8.8420    -0.8290    -1.4220 H     1 <1>   0.0800 
@<TRIPOS>BOND
  1   1   2  2   
  2   2   3  am  
  3   2   4  1   
  4   3   5  1   
  5   3   6  1   
  6   4   7  1   
  7   4  23  1   
  8   4  24  1   
  9   5   8  ar  
 10   5   9  ar  
 11   6  10  1   
 12   6  25  1   
 13   6  26  1   
 14   7  11  1   
 15   8  10  1   
 16   8  12  ar  
 17   9  13  ar  
 18   9  27  1   
 19  10  28  1   
 20  10  29  1   
 21  11  14  ar  
 22  11  15  ar  
 23  12  16  ar  
 24  12  30  1   
 25  13  16  ar  
 26  13  31  1   
 27  14  17  ar  
 28  14  32  1   
 29  15  18  ar  
 30  15  33  1   
 31  16  34  1   
 32  17  19  ar  
 33  17  20  1   
 34  18  19  ar  
 35  18  35  1   
 36  19  21  1   
 37  20  22  1   
 38  20  36  1   
 39  20  37  1   
 40  21  22  1   
 41  21  38  1   
 42  21  39  1   
 43  22  40  1   
 44  22  41  1   
@<TRIPOS>SUBSTRUCTURE
  1 ****   7 GROUP 4 **** **** 0

# MOE 2024.06 (io_trps.svl 2023.06)
