@<TRIPOS>MOLECULE
NONAME
39 40 1 0 0 
SMALL
USER_CHARGES


@<TRIPOS>ATOM
  1 CL       0.2400     0.6010    -0.3700 Cl    1 <1>  -0.1860 
  2 C        1.6490    -0.4180    -0.2620 C.ar  1 <1>   0.1680 
  3 C        2.8550     0.1400     0.1090 C.ar  1 <1>  -0.1190 
  4 C        1.5200    -1.7760    -0.5550 C.ar  1 <1>  -0.1600 
  5 C        3.9550    -0.7050     0.1840 C.ar  1 <1>   0.3010 
  6 C        2.6210    -2.6100    -0.4780 C.ar  1 <1>  -0.1190 
  7 N        5.2820    -0.4840     0.5170 N.pl3 1 <1>  -0.7050 
  8 C        3.8410    -2.0550    -0.1050 C.ar  1 <1>   0.3010 
  9 C        5.9350    -1.6360     0.4360 C.cat 1 <1>   1.0680 
 10 N        5.1040    -2.6010     0.0640 N.pl3 1 <1>  -0.7050 
 11 N        7.2360    -1.7740     0.7000 N.pl3 1 <1>  -0.7190 
 12 C        8.0680    -3.0220     0.6820 C.3   1 <1>   0.1580 
 13 C        9.3820    -2.8480    -0.1200 C.3   1 <1>   0.3350 
 14 N       10.3320    -4.0020     0.0170 N.4   1 <1>  -0.9620 
 15 C       11.6540    -3.6340    -0.5590 C.3   1 <1>   0.3350 
 16 C        9.8340    -5.2610    -0.6020 C.3   1 <1>   0.3350 
 17 C       12.7290    -4.5330     0.0370 C.3   1 <1>  -0.2490 
 18 C        9.3930    -6.2050     0.5070 C.3   1 <1>  -0.2490 
 19 H        2.9320     1.1890     0.3300 H     1 <1>   0.1400 
 20 H        0.5530    -2.1600    -0.8400 H     1 <1>   0.1400 
 21 H        2.5360    -3.6600    -0.7000 H     1 <1>   0.1400 
 22 H        5.6560     0.4280     0.7790 H     1 <1>   0.4430 
 23 H        5.3200    -3.5880    -0.0510 H     1 <1>   0.4430 
 24 H        7.7130    -0.9440     1.0620 H     1 <1>   0.4430 
 25 H        7.5000    -3.8300     0.2550 H     1 <1>   0.0700 
 26 H        8.3130    -3.2790     1.7000 H     1 <1>   0.0700 
 27 H        9.8800    -1.9600     0.2350 H     1 <1>   0.0700 
 28 H        9.1490    -2.7070    -1.1620 H     1 <1>   0.0700 
 29 H       10.5120    -4.2030     1.0110 H     1 <1>   0.4430 
 30 H       11.8890    -2.6100    -0.3140 H     1 <1>   0.0700 
 31 H       11.6370    -3.7310    -1.6330 H     1 <1>   0.0700 
 32 H       10.6230    -5.7340    -1.1670 H     1 <1>   0.0700 
 33 H        9.0180    -5.0570    -1.2750 H     1 <1>   0.0700 
 34 H       12.7600    -4.4380     1.1080 H     1 <1>   0.0700 
 35 H       13.6890    -4.2350    -0.3470 H     1 <1>   0.0700 
 36 H       12.5780    -5.5640    -0.2300 H     1 <1>   0.0700 
 37 H       10.2210    -6.4450     1.1510 H     1 <1>   0.0700 
 38 H        9.0450    -7.1230     0.0680 H     1 <1>   0.0700 
 39 H        8.5900    -5.7930     1.0900 H     1 <1>   0.0700 
@<TRIPOS>BOND
  1   1   2  1   
  2   2   3  ar  
  3   2   4  ar  
  4   3   5  ar  
  5   3  19  1   
  6   4   6  ar  
  7   4  20  1   
  8   5   7  1   
  9   5   8  ar  
 10   6   8  ar  
 11   6  21  1   
 12   7   9  ar  
 13   7  22  1   
 14   8  10  1   
 15   9  10  ar  
 16   9  11  ar  
 17  10  23  1   
 18  11  12  1   
 19  11  24  1   
 20  12  13  1   
 21  12  25  1   
 22  12  26  1   
 23  13  14  1   
 24  13  27  1   
 25  13  28  1   
 26  14  15  1   
 27  14  16  1   
 28  14  29  1   
 29  15  17  1   
 30  15  30  1   
 31  15  31  1   
 32  16  18  1   
 33  16  32  1   
 34  16  33  1   
 35  17  34  1   
 36  17  35  1   
 37  17  36  1   
 38  18  37  1   
 39  18  38  1   
 40  18  39  1   
@<TRIPOS>SUBSTRUCTURE
  1 ****   9 GROUP 4 **** **** 0

# MOE 2024.06 (io_trps.svl 2023.06)
