@<TRIPOS>MOLECULE
NONAME
35 37 1 0 0 
SMALL
USER_CHARGES


@<TRIPOS>ATOM
  1 CL       0.7840     0.1630     2.6130 Cl    1 <1>  -0.1240 
  2 C        1.7540     0.4050     1.1860 C.2   1 <1>   0.1640 
  3 S        3.2820     1.2260     1.4050 S.3   1 <1>  -0.0800 
  4 C        1.5430     0.0680    -0.0960 C.2   1 <1>  -0.1500 
  5 C        3.6420     1.0940    -0.3210 C.2   1 <1>  -0.0220 
  6 C        2.6220     0.4660    -0.9500 C.2   1 <1>  -0.1500 
  7 S        5.1980     1.7950    -0.9240 S.o2  1 <1>   1.5000 
  8 O        5.5600     1.1420    -2.1630 O.2   1 <1>  -0.6500 
  9 O        5.1140     3.2390    -0.8890 O.2   1 <1>  -0.6500 
 10 N        6.3350     1.3280     0.2410 N.am  1 <1>  -0.8490 
 11 C        6.6400    -0.1160     0.1890 C.3   1 <1>   0.1960 
 12 C        7.5950     2.0800     0.0950 C.3   1 <1>   0.1960 
 13 C        7.6190    -0.5430     1.3030 C.3   1 <1>   0.2090 
 14 C        8.6050     1.7420     1.2090 C.3   1 <1>   0.2090 
 15 N        8.8720     0.2750     1.2950 N.pl3 1 <1>  -0.8380 
 16 C        9.9600    -0.1980     0.5880 C.ar  1 <1>   0.4100 
 17 N        9.7200    -0.7770    -0.5830 N.ar  1 <1>  -0.6200 
 18 C       11.2380    -0.0370     1.1150 C.ar  1 <1>  -0.1500 
 19 C       10.7840    -1.2040    -1.2420 C.ar  1 <1>   0.1600 
 20 C       12.3360    -0.4860     0.4180 C.ar  1 <1>  -0.1500 
 21 C       12.0900    -1.0870    -0.7990 C.ar  1 <1>  -0.1500 
 22 H        0.6750    -0.4430    -0.4740 H     1 <1>   0.1500 
 23 H        2.5890     0.2650    -2.0080 H     1 <1>   0.1500 
 24 H        7.0740    -0.3690    -0.7650 H     1 <1>   0.0800 
 25 H        5.7330    -0.6830     0.2970 H     1 <1>   0.0800 
 26 H        7.3930     3.1370     0.1330 H     1 <1>   0.0800 
 27 H        8.0430     1.8620    -0.8610 H     1 <1>   0.0800 
 28 H        7.8680    -1.5820     1.1770 H     1 <1>   0.0800 
 29 H        7.1360    -0.4330     2.2570 H     1 <1>   0.0800 
 30 H        8.2170     2.0840     2.1530 H     1 <1>   0.0800 
 31 H        9.5250     2.2670     1.0200 H     1 <1>   0.0800 
 32 H       11.3440     0.4370     2.0710 H     1 <1>   0.1500 
 33 H       10.6050    -1.6750    -2.1940 H     1 <1>   0.1500 
 34 H       13.3350    -0.3760     0.8020 H     1 <1>   0.1500 
 35 H       12.9010    -1.4610    -1.3970 H     1 <1>   0.1500 
@<TRIPOS>BOND
  1   1   2  1   
  2   2   3  1   
  3   2   4  2   
  4   3   5  1   
  5   4   6  1   
  6   4  22  1   
  7   5   6  2   
  8   5   7  1   
  9   6  23  1   
 10   7   8  2   
 11   7   9  2   
 12   7  10  am  
 13  10  11  1   
 14  10  12  1   
 15  11  13  1   
 16  11  24  1   
 17  11  25  1   
 18  12  14  1   
 19  12  26  1   
 20  12  27  1   
 21  13  15  1   
 22  13  28  1   
 23  13  29  1   
 24  14  15  1   
 25  14  30  1   
 26  14  31  1   
 27  15  16  1   
 28  16  17  ar  
 29  16  18  ar  
 30  17  19  ar  
 31  18  20  ar  
 32  18  32  1   
 33  19  21  ar  
 34  19  33  1   
 35  20  21  ar  
 36  20  34  1   
 37  21  35  1   
@<TRIPOS>SUBSTRUCTURE
  1 ****  11 GROUP 4 **** **** 0

# MOE 2024.06 (io_trps.svl 2023.06)
