@<TRIPOS>MOLECULE
NONAME
52 54 1 0 0 
SMALL
USER_CHARGES


@<TRIPOS>ATOM
  1 O       -2.1570    -0.1100    -1.4590 O.3   1 <1>  -0.3630 
  2 C       -2.5440     0.7720    -0.5060 C.ar  1 <1>   0.0820 
  3 C       -0.9450     0.0490    -2.1630 C.3   1 <1>   0.0400 
  4 C       -1.8420     1.9280    -0.1830 C.ar  1 <1>  -0.1500 
  5 C       -3.7190     0.4700     0.1620 C.ar  1 <1>  -0.1500 
  6 C       -2.3250     2.7730     0.8100 C.ar  1 <1>   0.0820 
  7 C       -4.2100     1.3130     1.1470 C.ar  1 <1>  -0.1430 
  8 O       -1.7150     3.9210     1.1920 O.3   1 <1>  -0.3630 
  9 C       -3.5010     2.4590     1.4700 C.ar  1 <1>  -0.1500 
 10 C       -5.5120     0.9930     1.8490 C.3   1 <1>   0.4860 
 11 C       -0.4710     4.3110     0.6520 C.3   1 <1>   0.0400 
 12 N       -6.6260     1.2650     0.9030 N.4   1 <1>  -0.9590 
 13 C       -6.7100     2.7140     0.5540 C.3   1 <1>   0.3430 
 14 C       -7.9190     0.7310     1.4110 C.3   1 <1>   0.3430 
 15 C       -7.7720     2.9230    -0.5260 C.3   1 <1>  -0.1600 
 16 C       -8.9990     0.9040     0.3450 C.3   1 <1>  -0.1600 
 17 C       -9.1410     2.3730    -0.0940 C.3   1 <1>  -0.0800 
 18 C      -10.1790     2.5400    -1.2210 C.3   1 <1>  -0.0170 
 19 C      -11.5480     2.0290    -0.7970 C.ar  1 <1>  -0.1430 
 20 C      -12.3260     2.7660     0.0820 C.ar  1 <1>  -0.1500 
 21 C      -12.0280     0.8200    -1.2790 C.ar  1 <1>  -0.1500 
 22 C      -13.5640     2.2970     0.4840 C.ar  1 <1>  -0.1500 
 23 C      -13.2670     0.3500    -0.8780 C.ar  1 <1>  -0.1500 
 24 C      -14.0340     1.0870     0.0060 C.ar  1 <1>  -0.1500 
 25 H       -0.8400    -0.7800    -2.8400 H     1 <1>   0.0800 
 26 H       -0.1290     0.0520    -1.4620 H     1 <1>   0.0800 
 27 H       -0.9800     0.9690    -2.7190 H     1 <1>   0.0800 
 28 H       -0.9340     2.1670    -0.6980 H     1 <1>   0.1500 
 29 H       -4.2300    -0.4370    -0.1080 H     1 <1>   0.1500 
 30 H       -3.8420     3.1330     2.2370 H     1 <1>   0.1500 
 31 H       -5.6150     1.5960     2.7360 H     1 <1>   0.0800 
 32 H       -5.5130    -0.0460     2.1370 H     1 <1>   0.0800 
 33 H       -0.1730     5.2290     1.1270 H     1 <1>   0.0800 
 34 H       -0.5810     4.4690    -0.4060 H     1 <1>   0.0800 
 35 H        0.2560     3.5440     0.8550 H     1 <1>   0.0800 
 36 H       -6.3920     0.7700     0.0330 H     1 <1>   0.4500 
 37 H       -5.7580     3.0650     0.1860 H     1 <1>   0.0800 
 38 H       -6.9680     3.2880     1.4290 H     1 <1>   0.0800 
 39 H       -8.2090     1.2620     2.3030 H     1 <1>   0.0800 
 40 H       -7.8210    -0.3150     1.6530 H     1 <1>   0.0800 
 41 H       -7.4480     2.4480    -1.4360 H     1 <1>   0.0800 
 42 H       -7.8560     3.9780    -0.7270 H     1 <1>   0.0800 
 43 H       -9.9310     0.5570     0.7560 H     1 <1>   0.0800 
 44 H       -8.7700     0.2810    -0.5030 H     1 <1>   0.0800 
 45 H       -9.4820     2.9460     0.7540 H     1 <1>   0.0800 
 46 H       -9.8540     2.0150    -2.1020 H     1 <1>   0.0800 
 47 H      -10.2670     3.5800    -1.4820 H     1 <1>   0.0800 
 48 H      -11.9750     3.7110     0.4590 H     1 <1>   0.1500 
 49 H      -11.4450     0.2370    -1.9700 H     1 <1>   0.1500 
 50 H      -14.1640     2.8730     1.1670 H     1 <1>   0.1500 
 51 H      -13.6350    -0.5880    -1.2550 H     1 <1>   0.1500 
 52 H      -14.9970     0.7220     0.3170 H     1 <1>   0.1500 
@<TRIPOS>BOND
  1   1   2  1   
  2   1   3  1   
  3   2   4  ar  
  4   2   5  ar  
  5   3  25  1   
  6   3  26  1   
  7   3  27  1   
  8   4   6  ar  
  9   4  28  1   
 10   5   7  ar  
 11   5  29  1   
 12   6   8  1   
 13   6   9  ar  
 14   7   9  ar  
 15   7  10  1   
 16   8  11  1   
 17   9  30  1   
 18  10  12  1   
 19  10  31  1   
 20  10  32  1   
 21  11  33  1   
 22  11  34  1   
 23  11  35  1   
 24  12  13  1   
 25  12  14  1   
 26  12  36  1   
 27  13  15  1   
 28  13  37  1   
 29  13  38  1   
 30  14  16  1   
 31  14  39  1   
 32  14  40  1   
 33  15  17  1   
 34  15  41  1   
 35  15  42  1   
 36  16  17  1   
 37  16  43  1   
 38  16  44  1   
 39  17  18  1   
 40  17  45  1   
 41  18  19  1   
 42  18  46  1   
 43  18  47  1   
 44  19  20  ar  
 45  19  21  ar  
 46  20  22  ar  
 47  20  48  1   
 48  21  23  ar  
 49  21  49  1   
 50  22  24  ar  
 51  22  50  1   
 52  23  24  ar  
 53  23  51  1   
 54  24  52  1   
@<TRIPOS>SUBSTRUCTURE
  1 ****  12 GROUP 4 **** **** 0

# MOE 2024.06 (io_trps.svl 2023.06)
