@<TRIPOS>MOLECULE
NONAME
46 47 1 0 0 
SMALL
USER_CHARGES


@<TRIPOS>ATOM
  1 O        0.4840     0.3650     0.5770 O.2   1 <1>  -0.5700 
  2 C        0.2410     1.4800     0.1970 C.2   1 <1>   0.6590 
  3 O       -0.9830     1.9820     0.1880 O.3   1 <1>  -0.4300 
  4 C        1.3380     2.3990    -0.3130 C.3   1 <1>  -0.0190 
  5 C       -2.0920     1.2370     0.6380 C.3   1 <1>   0.1200 
  6 C        2.6110     1.5760    -0.5840 C.3   1 <1>   0.3430 
  7 C        1.6100     3.5700     0.6530 C.3   1 <1>  -0.1600 
  8 C       -3.3340     2.1100     0.5000 C.3   1 <1>  -0.2400 
  9 N        3.8740     2.3670    -0.3940 N.4   1 <1>  -0.9590 
 10 C        2.7200     4.4920     0.1080 C.3   1 <1>  -0.1600 
 11 C        3.7350     3.7920    -0.8070 C.3   1 <1>   0.3430 
 12 C        5.0420     1.6980    -1.0290 C.3   1 <1>   0.4860 
 13 C        6.3030     2.4020    -0.5730 C.ar  1 <1>  -0.1440 
 14 C        6.9890     3.2390    -1.4410 C.ar  1 <1>  -0.1500 
 15 C        6.7790     2.2210     0.7170 C.ar  1 <1>  -0.1500 
 16 C        8.1280     3.8990    -1.0160 C.ar  1 <1>  -0.1500 
 17 C        7.9190     2.8840     1.1370 C.ar  1 <1>  -0.1500 
 18 C        8.5970     3.7290     0.2750 C.ar  1 <1>  -0.1440 
 19 C        9.8510     4.4540     0.7390 C.3   1 <1>  -0.0170 
 20 C       11.0940     3.6070     0.4630 C.3   1 <1>  -0.2400 
 21 H        0.9940     2.8000    -1.2490 H     1 <1>   0.0800 
 22 H       -1.9260     0.9620     1.6670 H     1 <1>   0.0800 
 23 H       -2.1760     0.3480     0.0350 H     1 <1>   0.0800 
 24 H        2.5610     1.1910    -1.5890 H     1 <1>   0.0800 
 25 H        2.6380     0.7290     0.0840 H     1 <1>   0.0800 
 26 H        1.9100     3.1730     1.6090 H     1 <1>   0.0800 
 27 H        0.7100     4.1410     0.8120 H     1 <1>   0.0800 
 28 H       -3.2350     2.9970     1.1000 H     1 <1>   0.0800 
 29 H       -4.1980     1.5660     0.8380 H     1 <1>   0.0800 
 30 H       -3.4850     2.3850    -0.5280 H     1 <1>   0.0800 
 31 H        4.0830     2.3960     0.6130 H     1 <1>   0.4500 
 32 H        3.2410     4.9450     0.9340 H     1 <1>   0.0800 
 33 H        2.2740     5.2960    -0.4520 H     1 <1>   0.0800 
 34 H        3.3940     3.8380    -1.8290 H     1 <1>   0.0800 
 35 H        4.6830     4.3040    -0.7440 H     1 <1>   0.0800 
 36 H        4.9610     1.7420    -2.1030 H     1 <1>   0.0800 
 37 H        5.0870     0.6630    -0.7300 H     1 <1>   0.0800 
 38 H        6.6530     3.3880    -2.4530 H     1 <1>   0.1500 
 39 H        6.2810     1.5650     1.4100 H     1 <1>   0.1500 
 40 H        8.6570     4.5460    -1.6960 H     1 <1>   0.1500 
 41 H        8.2840     2.7380     2.1400 H     1 <1>   0.1500 
 42 H        9.7830     4.6610     1.7930 H     1 <1>   0.0800 
 43 H        9.9370     5.3970     0.2280 H     1 <1>   0.0800 
 44 H       11.0290     2.6690     0.9850 H     1 <1>   0.0800 
 45 H       11.9770     4.1250     0.7930 H     1 <1>   0.0800 
 46 H       11.1830     3.4090    -0.5910 H     1 <1>   0.0800 
@<TRIPOS>BOND
  1   1   2  2   
  2   2   3  1   
  3   2   4  1   
  4   3   5  1   
  5   4   6  1   
  6   4   7  1   
  7   4  21  1   
  8   5   8  1   
  9   5  22  1   
 10   5  23  1   
 11   6   9  1   
 12   6  24  1   
 13   6  25  1   
 14   7  10  1   
 15   7  26  1   
 16   7  27  1   
 17   8  28  1   
 18   8  29  1   
 19   8  30  1   
 20   9  11  1   
 21   9  12  1   
 22   9  31  1   
 23  10  11  1   
 24  10  32  1   
 25  10  33  1   
 26  11  34  1   
 27  11  35  1   
 28  12  13  1   
 29  12  36  1   
 30  12  37  1   
 31  13  14  ar  
 32  13  15  ar  
 33  14  16  ar  
 34  14  38  1   
 35  15  17  ar  
 36  15  39  1   
 37  16  18  ar  
 38  16  40  1   
 39  17  18  ar  
 40  17  41  1   
 41  18  19  1   
 42  19  20  1   
 43  19  42  1   
 44  19  43  1   
 45  20  44  1   
 46  20  45  1   
 47  20  46  1   
@<TRIPOS>SUBSTRUCTURE
  1 ****   9 GROUP 4 **** **** 0

# MOE 2024.06 (io_trps.svl 2023.06)
