@<TRIPOS>MOLECULE
NONAME
50 52 1 0 0 
SMALL
USER_CHARGES


@<TRIPOS>ATOM
  1 O       -1.3490     0.7810    -0.1110 O.2   1 <1>  -0.5700 
  2 C       -1.1850     1.5970    -0.9970 C.2   1 <1>   0.6900 
  3 N       -2.2330     1.8840    -1.8210 N.am  1 <1>  -0.6600 
  4 N       -0.0240     2.2780    -1.1880 N.am  1 <1>  -0.5470 
  5 C       -3.1130     0.7510    -2.2310 C.3   1 <1>   0.1400 
  6 C       -2.9940     3.1280    -1.5210 C.3   1 <1>   0.1400 
  7 C        1.1760     2.3170    -0.4620 C.ar  1 <1>   0.1170 
  8 C       -4.1640     0.4610    -1.1400 C.3   1 <1>   0.3430 
  9 C       -4.0400     2.8510    -0.4200 C.3   1 <1>   0.3430 
 10 C        1.2860     1.8890     0.8580 C.ar  1 <1>  -0.1500 
 11 C        2.3100     2.8240    -1.0850 C.ar  1 <1>  -0.1500 
 12 N       -4.9470     1.6920    -0.7630 N.4   1 <1>  -0.9590 
 13 C        2.4900     1.9590     1.5380 C.ar  1 <1>  -0.1440 
 14 C        3.5170     2.9010    -0.4140 C.ar  1 <1>  -0.1500 
 15 C       -5.8840     1.4040     0.3560 C.3   1 <1>   0.4860 
 16 C        3.6070     2.4690     0.8970 C.ar  1 <1>  -0.1500 
 17 C        2.5870     1.4830     2.9770 C.3   1 <1>  -0.0970 
 18 C       -6.7640     2.6190     0.5660 C.ar  1 <1>  -0.1440 
 19 C       -7.7900     2.9060    -0.3220 C.ar  1 <1>  -0.1500 
 20 C       -6.5440     3.4620     1.6460 C.ar  1 <1>  -0.1500 
 21 C       -8.5740     4.0310    -0.1400 C.ar  1 <1>  -0.1500 
 22 C       -7.3300     4.5860     1.8250 C.ar  1 <1>  -0.1500 
 23 C       -8.3460     4.8780     0.9310 C.ar  1 <1>  -0.1440 
 24 C       -9.2110     6.1110     1.1300 C.3   1 <1>  -0.0970 
 25 H        0.0010     2.7640    -2.0800 H     1 <1>   0.3700 
 26 H       -2.5110    -0.1300    -2.3840 H     1 <1>   0.0800 
 27 H       -3.5960     0.9850    -3.1640 H     1 <1>   0.0800 
 28 H       -3.4780     3.4840    -2.4140 H     1 <1>   0.0800 
 29 H       -2.3190     3.8960    -1.1820 H     1 <1>   0.0800 
 30 H       -3.6450     0.0840    -0.2720 H     1 <1>   0.0800 
 31 H       -4.8310    -0.3110    -1.4860 H     1 <1>   0.0800 
 32 H       -4.6270     3.7420    -0.2600 H     1 <1>   0.0800 
 33 H       -3.5130     2.6350     0.4950 H     1 <1>   0.0800 
 34 H        0.4260     1.4980     1.3670 H     1 <1>   0.1500 
 35 H        2.2570     3.1610    -2.1030 H     1 <1>   0.1500 
 36 H       -5.5230     1.9850    -1.5610 H     1 <1>   0.4500 
 37 H        4.3870     3.2950    -0.9080 H     1 <1>   0.1500 
 38 H       -5.3340     1.1850     1.2570 H     1 <1>   0.0800 
 39 H       -6.5020     0.5540     0.1170 H     1 <1>   0.0800 
 40 H        4.5480     2.5310     1.4150 H     1 <1>   0.1500 
 41 H        2.3870     2.3010     3.6450 H     1 <1>   0.0800 
 42 H        3.5710     1.0990     3.1800 H     1 <1>   0.0800 
 43 H        1.8740     0.7000     3.1620 H     1 <1>   0.0800 
 44 H       -8.0000     2.2630    -1.1600 H     1 <1>   0.1500 
 45 H       -5.7650     3.2570     2.3620 H     1 <1>   0.1500 
 46 H       -9.3710     4.2470    -0.8320 H     1 <1>   0.1500 
 47 H       -7.1540     5.2340     2.6670 H     1 <1>   0.1500 
 48 H      -10.0680     5.8610     1.7290 H     1 <1>   0.0800 
 49 H       -9.5490     6.4920     0.1830 H     1 <1>   0.0800 
 50 H       -8.6560     6.8860     1.6270 H     1 <1>   0.0800 
@<TRIPOS>BOND
  1   1   2  2   
  2   2   3  am  
  3   2   4  am  
  4   3   5  1   
  5   3   6  1   
  6   4   7  1   
  7   4  25  1   
  8   5   8  1   
  9   5  26  1   
 10   5  27  1   
 11   6   9  1   
 12   6  28  1   
 13   6  29  1   
 14   7  10  ar  
 15   7  11  ar  
 16   8  12  1   
 17   8  30  1   
 18   8  31  1   
 19   9  12  1   
 20   9  32  1   
 21   9  33  1   
 22  10  13  ar  
 23  10  34  1   
 24  11  14  ar  
 25  11  35  1   
 26  12  15  1   
 27  12  36  1   
 28  13  16  ar  
 29  13  17  1   
 30  14  16  ar  
 31  14  37  1   
 32  15  18  1   
 33  15  38  1   
 34  15  39  1   
 35  16  40  1   
 36  17  41  1   
 37  17  42  1   
 38  17  43  1   
 39  18  19  ar  
 40  18  20  ar  
 41  19  21  ar  
 42  19  44  1   
 43  20  22  ar  
 44  20  45  1   
 45  21  23  ar  
 46  21  46  1   
 47  22  23  ar  
 48  22  47  1   
 49  23  24  1   
 50  24  48  1   
 51  24  49  1   
 52  24  50  1   
@<TRIPOS>SUBSTRUCTURE
  1 ****   9 GROUP 4 **** **** 0

# MOE 2024.06 (io_trps.svl 2023.06)
