@<TRIPOS>MOLECULE
NONAME
43 44 1 0 0 
SMALL
USER_CHARGES


@<TRIPOS>ATOM
  1 O       -0.3700    -0.4120     0.6390 O.2   1 <1>  -0.5700 
  2 C       -0.0470    -1.4950     0.2160 C.2   1 <1>   0.5690 
  3 N        1.2510    -1.9000     0.0840 N.am  1 <1>  -0.5470 
  4 C       -1.1260    -2.4990    -0.1970 C.3   1 <1>  -0.0190 
  5 C        2.4910    -1.2950     0.3570 C.ar  1 <1>   0.1170 
  6 C       -2.4640    -1.8260    -0.5700 C.3   1 <1>  -0.1600 
  7 C       -1.3570    -3.5460     0.9090 C.3   1 <1>  -0.1600 
  8 C        3.6470    -2.0550     0.1430 C.ar  1 <1>   0.0820 
  9 C        2.6240     0.0090     0.8220 C.ar  1 <1>  -0.1500 
 10 C       -3.5260    -2.8580    -0.9560 C.3   1 <1>   0.1400 
 11 C       -2.4340    -4.5600     0.5130 C.3   1 <1>   0.1400 
 12 O        3.4730    -3.3320    -0.3150 O.3   1 <1>  -0.3630 
 13 C        4.9010    -1.5060     0.3960 C.ar  1 <1>  -0.1500 
 14 C        3.8720     0.5500     1.0720 C.ar  1 <1>  -0.1500 
 15 N       -3.6870    -3.8430     0.1500 N.am  1 <1>  -0.6600 
 16 C        4.5720    -4.1840    -0.5400 C.3   1 <1>   0.1200 
 17 C        5.0100    -0.2060     0.8590 C.ar  1 <1>  -0.1500 
 18 C       -4.8560    -4.0860     0.8260 C.2   1 <1>   0.5690 
 19 C        4.0360    -5.5260    -1.0290 C.3   1 <1>  -0.2400 
 20 O       -4.9380    -4.9200     1.6950 O.2   1 <1>  -0.5700 
 21 C       -6.1110    -3.3070     0.5030 C.3   1 <1>  -0.1790 
 22 H        1.3850    -2.8510    -0.2630 H     1 <1>   0.3700 
 23 H       -0.7680    -3.0100    -1.0730 H     1 <1>   0.0800 
 24 H       -2.3100    -1.1470    -1.3890 H     1 <1>   0.0800 
 25 H       -2.8290    -1.2510     0.2650 H     1 <1>   0.0800 
 26 H       -1.6640    -3.0530     1.8160 H     1 <1>   0.0800 
 27 H       -0.4420    -4.0700     1.1180 H     1 <1>   0.0800 
 28 H        1.7540     0.6150     0.9940 H     1 <1>   0.1500 
 29 H       -3.2200    -3.3810    -1.8460 H     1 <1>   0.0800 
 30 H       -4.4500    -2.3530    -1.1720 H     1 <1>   0.0800 
 31 H       -2.6050    -5.2370     1.3330 H     1 <1>   0.0800 
 32 H       -2.1050    -5.1410    -0.3320 H     1 <1>   0.0800 
 33 H        5.8030    -2.0650     0.2400 H     1 <1>   0.1500 
 34 H        3.9550     1.5610     1.4320 H     1 <1>   0.1500 
 35 H        5.1080    -4.3040     0.3860 H     1 <1>   0.0800 
 36 H        5.2070    -3.7350    -1.2850 H     1 <1>   0.0800 
 37 H        5.9800     0.2180     1.0550 H     1 <1>   0.1500 
 38 H        3.3910    -5.9610    -0.2860 H     1 <1>   0.0800 
 39 H        4.8540    -6.2000    -1.2090 H     1 <1>   0.0800 
 40 H        3.4920    -5.3950    -1.9480 H     1 <1>   0.0800 
 41 H       -6.4050    -3.4930    -0.5120 H     1 <1>   0.0800 
 42 H       -5.9360    -2.2580     0.6510 H     1 <1>   0.0800 
 43 H       -6.9060    -3.6180     1.1550 H     1 <1>   0.0800 
@<TRIPOS>BOND
  1   1   2  2   
  2   2   3  am  
  3   2   4  1   
  4   3   5  1   
  5   3  22  1   
  6   4   6  1   
  7   4   7  1   
  8   4  23  1   
  9   5   8  ar  
 10   5   9  ar  
 11   6  10  1   
 12   6  24  1   
 13   6  25  1   
 14   7  11  1   
 15   7  26  1   
 16   7  27  1   
 17   8  12  1   
 18   8  13  ar  
 19   9  14  ar  
 20   9  28  1   
 21  10  15  1   
 22  10  29  1   
 23  10  30  1   
 24  11  15  1   
 25  11  31  1   
 26  11  32  1   
 27  12  16  1   
 28  13  17  ar  
 29  13  33  1   
 30  14  17  ar  
 31  14  34  1   
 32  15  18  am  
 33  16  19  1   
 34  16  35  1   
 35  16  36  1   
 36  17  37  1   
 37  18  20  2   
 38  18  21  1   
 39  19  38  1   
 40  19  39  1   
 41  19  40  1   
 42  21  41  1   
 43  21  42  1   
 44  21  43  1   
@<TRIPOS>SUBSTRUCTURE
  1 ****   2 GROUP 4 **** **** 0

# MOE 2024.06 (io_trps.svl 2023.06)
