@<TRIPOS>MOLECULE
NONAME
29 30 1 0 0 
SMALL
USER_CHARGES


@<TRIPOS>ATOM
  1 S       -0.1000    -0.3040    -0.4160 S.3   1 <1>  -0.4600 
  2 C        1.4670     0.5500    -0.7290 C.3   1 <1>   0.0700 
  3 C        0.3710    -2.0500    -0.5230 C.3   1 <1>   0.0700 
  4 C        2.5340     0.0040     0.2290 C.3   1 <1>   0.3430 
  5 C        1.5590    -2.3040     0.4150 C.3   1 <1>   0.3430 
  6 N        2.7640    -1.4770     0.0610 N.4   1 <1>  -0.9590 
  7 C        3.9550    -1.9190     0.8370 C.3   1 <1>   0.4860 
  8 C        5.1820    -1.2410     0.2620 C.ar  1 <1>  -0.1440 
  9 C        5.8000    -0.2100     0.9570 C.ar  1 <1>  -0.1500 
 10 C        5.6940    -1.6400    -0.9650 C.ar  1 <1>  -0.1500 
 11 C        6.9070     0.4250     0.4220 C.ar  1 <1>  -0.1500 
 12 C        6.8010    -1.0030    -1.4980 C.ar  1 <1>  -0.1500 
 13 C        7.4060     0.0300    -0.8050 C.ar  1 <1>  -0.1500 
 14 H        1.2930     1.5980    -0.5600 H     1 <1>   0.0800 
 15 H        1.7320     0.3920    -1.7590 H     1 <1>   0.0800 
 16 H        0.6110    -2.2660    -1.5480 H     1 <1>   0.0800 
 17 H       -0.4890    -2.6240    -0.2250 H     1 <1>   0.0800 
 18 H        2.2310     0.2140     1.2410 H     1 <1>   0.0800 
 19 H        3.4530     0.5370     0.0420 H     1 <1>   0.0800 
 20 H        1.8130    -3.3510     0.3640 H     1 <1>   0.0800 
 21 H        1.2530    -2.0860     1.4260 H     1 <1>   0.0800 
 22 H        2.9970    -1.6310    -0.9280 H     1 <1>   0.4500 
 23 H        4.0760    -2.9880     0.7610 H     1 <1>   0.0800 
 24 H        3.8430    -1.6610     1.8780 H     1 <1>   0.0800 
 25 H        5.4350     0.1120     1.9180 H     1 <1>   0.1500 
 26 H        5.2500    -2.4480    -1.5210 H     1 <1>   0.1500 
 27 H        7.3870     1.2250     0.9610 H     1 <1>   0.1500 
 28 H        7.2000    -1.3120    -2.4500 H     1 <1>   0.1500 
 29 H        8.2690     0.5240    -1.2200 H     1 <1>   0.1500 
@<TRIPOS>BOND
  1   1   2  1   
  2   1   3  1   
  3   2   4  1   
  4   2  14  1   
  5   2  15  1   
  6   3   5  1   
  7   3  16  1   
  8   3  17  1   
  9   4   6  1   
 10   4  18  1   
 11   4  19  1   
 12   5   6  1   
 13   5  20  1   
 14   5  21  1   
 15   6   7  1   
 16   6  22  1   
 17   7   8  1   
 18   7  23  1   
 19   7  24  1   
 20   8   9  ar  
 21   8  10  ar  
 22   9  11  ar  
 23   9  25  1   
 24  10  12  ar  
 25  10  26  1   
 26  11  13  ar  
 27  11  27  1   
 28  12  13  ar  
 29  12  28  1   
 30  13  29  1   
@<TRIPOS>SUBSTRUCTURE
  1 ****   6 GROUP 4 **** **** 0

# MOE 2024.06 (io_trps.svl 2023.06)
