@<TRIPOS>MOLECULE
NONAME
38 39 1 0 0 
SMALL
USER_CHARGES


@<TRIPOS>ATOM
  1 S        0.4750     0.1780     0.2920 S.3   1 <1>  -0.2860 
  2 C       -1.2830     0.5020     0.4550 C.2   1 <1>   0.2420 
  3 C        1.0100     1.4570    -0.9500 C.3   1 <1>   0.1310 
  4 N       -1.8970     1.4500    -0.1600 N.2   1 <1>  -0.3380 
  5 N       -2.0760    -0.2280     1.2360 N.pl3 1 <1>   0.0480 
  6 C        2.5100     1.4120    -1.1950 C.2   1 <1>   0.5690 
  7 N       -3.1760     1.3610     0.2220 N.2   1 <1>  -0.3380 
  8 C       -3.2580     0.3670     1.0430 C.2   1 <1>   0.0360 
  9 C       -1.7400    -1.3860     2.0840 C.3   1 <1>   0.0160 
 10 O        2.9390     1.8860    -2.2190 O.2   1 <1>  -0.5700 
 11 N        3.3280     0.8560    -0.2620 N.am  1 <1>  -0.7300 
 12 C        4.7920     0.7360    -0.3590 C.3   1 <1>   0.2200 
 13 C        5.1420    -0.7580    -0.3650 C.3   1 <1>  -0.1600 
 14 C        5.3990     1.5380     0.7980 C.3   1 <1>  -0.1600 
 15 C        6.5970    -1.0170    -0.7840 C.3   1 <1>  -0.1600 
 16 C        6.9300     1.4580     0.9150 C.3   1 <1>  -0.1600 
 17 C        7.6190    -0.9770     0.3630 C.3   1 <1>  -0.1600 
 18 C        7.4070     0.0970     1.4420 C.3   1 <1>  -0.1600 
 19 H        0.7240     2.4180    -0.5650 H     1 <1>   0.0800 
 20 H        0.4760     1.2580    -1.8610 H     1 <1>   0.0800 
 21 H       -4.1650     0.0440     1.5230 H     1 <1>   0.1500 
 22 H       -1.0090    -1.0910     2.8150 H     1 <1>   0.0800 
 23 H       -1.3360    -2.1700     1.4700 H     1 <1>   0.0800 
 24 H       -2.6240    -1.7400     2.5830 H     1 <1>   0.0800 
 25 H        2.9080     0.4310     0.5660 H     1 <1>   0.3700 
 26 H        5.1170     1.1720    -1.2900 H     1 <1>   0.0800 
 27 H        4.5100    -1.2360    -1.0940 H     1 <1>   0.0800 
 28 H        4.9390    -1.2040     0.5930 H     1 <1>   0.0800 
 29 H        4.9590     1.2210     1.7270 H     1 <1>   0.0800 
 30 H        5.1330     2.5700     0.6480 H     1 <1>   0.0800 
 31 H        6.8810    -0.3060    -1.5410 H     1 <1>   0.0800 
 32 H        6.6560    -1.9910    -1.2400 H     1 <1>   0.0800 
 33 H        7.2400     2.2110     1.6190 H     1 <1>   0.0800 
 34 H        7.3990     1.6900    -0.0260 H     1 <1>   0.0800 
 35 H        8.5950    -0.8420    -0.0710 H     1 <1>   0.0800 
 36 H        7.6270    -1.9370     0.8520 H     1 <1>   0.0800 
 37 H        6.7100    -0.2670     2.1770 H     1 <1>   0.0800 
 38 H        8.3450     0.2360     1.9520 H     1 <1>   0.0800 
@<TRIPOS>BOND
  1   1   2  1   
  2   1   3  1   
  3   2   4  2   
  4   2   5  1   
  5   3   6  1   
  6   3  19  1   
  7   3  20  1   
  8   4   7  1   
  9   5   8  1   
 10   5   9  1   
 11   6  10  2   
 12   6  11  am  
 13   7   8  2   
 14   8  21  1   
 15   9  22  1   
 16   9  23  1   
 17   9  24  1   
 18  11  12  1   
 19  11  25  1   
 20  12  13  1   
 21  12  14  1   
 22  12  26  1   
 23  13  15  1   
 24  13  27  1   
 25  13  28  1   
 26  14  16  1   
 27  14  29  1   
 28  14  30  1   
 29  15  17  1   
 30  15  31  1   
 31  15  32  1   
 32  16  18  1   
 33  16  33  1   
 34  16  34  1   
 35  17  18  1   
 36  17  35  1   
 37  17  36  1   
 38  18  37  1   
 39  18  38  1   
@<TRIPOS>SUBSTRUCTURE
  1 ****  11 GROUP 4 **** **** 0

# MOE 2024.06 (io_trps.svl 2023.06)
