@<TRIPOS>MOLECULE
NONAME
48 49 1 0 0 
SMALL
USER_CHARGES


@<TRIPOS>ATOM
  1 O        0.0890    -0.5220    -1.1890 O.2   1 <1>  -0.5700 
  2 C        0.4890    -1.5780    -0.7360 C.2   1 <1>   0.8060 
  3 O        1.8040    -1.8190    -0.7620 O.3   1 <1>  -0.4300 
  4 C       -0.3950    -2.5750    -0.1650 C.2   1 <1>  -0.0860 
  5 C        2.7170    -0.8840    -1.2890 C.3   1 <1>   0.1200 
  6 C       -0.2080    -3.8710     0.2770 C.2   1 <1>  -0.3320 
  7 C       -1.7600    -2.3150     0.0620 C.2   1 <1>  -0.1500 
  8 C        4.1200    -1.4710    -1.1630 C.3   1 <1>  -0.2400 
  9 N       -1.3780    -4.3770     0.7530 N.pl3 1 <1>   0.0480 
 10 C        1.0840    -4.6840     0.2760 C.3   1 <1>  -0.0600 
 11 C       -2.3270    -3.4100     0.6190 C.2   1 <1>  -0.3320 
 12 C       -1.6100    -5.7370     1.2860 C.3   1 <1>   0.0960 
 13 C       -3.7790    -3.5440     1.0470 C.3   1 <1>  -0.0600 
 14 C       -2.0580    -6.6660     0.1480 C.3   1 <1>  -0.1600 
 15 C       -2.3450    -8.0730     0.6680 C.3   1 <1>   0.3430 
 16 N       -2.6930    -8.9840    -0.4590 N.4   1 <1>  -0.9590 
 17 C       -4.0380    -8.6700    -1.0690 C.3   1 <1>   0.3430 
 18 C       -2.6540   -10.4240    -0.0170 C.3   1 <1>   0.3430 
 19 C       -4.4310    -9.7030    -2.1420 C.3   1 <1>   0.1200 
 20 C       -3.1100   -11.3770    -1.1390 C.3   1 <1>   0.1200 
 21 O       -4.3670   -10.9960    -1.6150 O.3   1 <1>  -0.5600 
 22 H        2.6290     0.0320    -0.7290 H     1 <1>   0.0800 
 23 H        2.4640    -0.7040    -2.3210 H     1 <1>   0.0800 
 24 H       -2.2360    -1.3770    -0.1760 H     1 <1>   0.1500 
 25 H        4.3510    -1.6580    -0.1300 H     1 <1>   0.0800 
 26 H        4.8400    -0.7750    -1.5540 H     1 <1>   0.0800 
 27 H        4.1900    -2.3870    -1.7210 H     1 <1>   0.0800 
 28 H        1.8690    -4.1860    -0.2590 H     1 <1>   0.0800 
 29 H        0.9290    -5.6360    -0.1950 H     1 <1>   0.0800 
 30 H        1.4180    -4.8400     1.2860 H     1 <1>   0.0800 
 31 H       -2.3630    -5.6790     2.0520 H     1 <1>   0.0800 
 32 H       -0.7010    -6.0930     1.7370 H     1 <1>   0.0800 
 33 H       -4.3050    -2.6290     0.8430 H     1 <1>   0.0800 
 34 H       -3.8400    -3.7380     2.1030 H     1 <1>   0.0800 
 35 H       -4.2620    -4.3380     0.5080 H     1 <1>   0.0800 
 36 H       -1.2760    -6.7050    -0.5900 H     1 <1>   0.0800 
 37 H       -2.9420    -6.2490    -0.2990 H     1 <1>   0.0800 
 38 H       -3.1520    -8.0450     1.3830 H     1 <1>   0.0800 
 39 H       -1.4650    -8.4440     1.1710 H     1 <1>   0.0800 
 40 H       -1.9870    -8.8710    -1.1980 H     1 <1>   0.4500 
 41 H       -4.0230    -7.6890    -1.5150 H     1 <1>   0.0800 
 42 H       -4.7960    -8.6750    -0.3030 H     1 <1>   0.0800 
 43 H       -3.3090   -10.5640     0.8280 H     1 <1>   0.0800 
 44 H       -1.6560   -10.6900     0.2900 H     1 <1>   0.0800 
 45 H       -3.7820    -9.6440    -2.9990 H     1 <1>   0.0800 
 46 H       -5.4430    -9.5330    -2.4670 H     1 <1>   0.0800 
 47 H       -3.1950   -12.3810    -0.7610 H     1 <1>   0.0800 
 48 H       -2.4130   -11.3790    -1.9590 H     1 <1>   0.0800 
@<TRIPOS>BOND
  1   1   2  2   
  2   2   3  1   
  3   2   4  1   
  4   3   5  1   
  5   4   6  2   
  6   4   7  1   
  7   5   8  1   
  8   5  22  1   
  9   5  23  1   
 10   6   9  1   
 11   6  10  1   
 12   7  11  2   
 13   7  24  1   
 14   8  25  1   
 15   8  26  1   
 16   8  27  1   
 17   9  11  1   
 18   9  12  1   
 19  10  28  1   
 20  10  29  1   
 21  10  30  1   
 22  11  13  1   
 23  12  14  1   
 24  12  31  1   
 25  12  32  1   
 26  13  33  1   
 27  13  34  1   
 28  13  35  1   
 29  14  15  1   
 30  14  36  1   
 31  14  37  1   
 32  15  16  1   
 33  15  38  1   
 34  15  39  1   
 35  16  17  1   
 36  16  18  1   
 37  16  40  1   
 38  17  19  1   
 39  17  41  1   
 40  17  42  1   
 41  18  20  1   
 42  18  43  1   
 43  18  44  1   
 44  19  21  1   
 45  19  45  1   
 46  19  46  1   
 47  20  21  1   
 48  20  47  1   
 49  20  48  1   
@<TRIPOS>SUBSTRUCTURE
  1 ****   9 GROUP 4 **** **** 0

# MOE 2024.06 (io_trps.svl 2023.06)
