@<TRIPOS>MOLECULE
NONAME
41 42 1 0 0 
SMALL
USER_CHARGES


@<TRIPOS>ATOM
  1 S       -0.1970    -0.0560    -1.3710 S.o2  1 <1>   1.4470 
  2 O       -1.0260     0.9390    -2.0160 O.2   1 <1>  -0.6500 
  3 O        0.4160    -1.0920    -2.1760 O.2   1 <1>  -0.6500 
  4 N        1.0740     0.7680    -0.6050 N.am  1 <1>  -0.8490 
  5 C       -1.1110    -0.7930     0.0130 C.ar  1 <1>  -0.0090 
  6 C        1.7080     1.7270    -1.5130 C.3   1 <1>   0.1960 
  7 C        2.0550    -0.1560    -0.0260 C.3   1 <1>   0.1960 
  8 C       -1.4860    -0.0260     1.1100 C.ar  1 <1>  -0.1500 
  9 C       -1.4630    -2.1390     0.0110 C.ar  1 <1>  -0.1500 
 10 C        2.7550     2.5580    -0.7660 C.3   1 <1>  -0.1600 
 11 C        3.1020     0.6160     0.7790 C.3   1 <1>  -0.1600 
 12 C       -2.1800    -0.5800     2.1720 C.ar  1 <1>  -0.1500 
 13 C       -2.1570    -2.7010     1.0680 C.ar  1 <1>  -0.1500 
 14 C        3.8100     1.6650    -0.0940 C.3   1 <1>  -0.0190 
 15 C       -2.5160    -1.9210     2.1510 C.ar  1 <1>  -0.1500 
 16 C        4.8150     2.4870     0.7100 C.2   1 <1>   0.5690 
 17 O        4.4410     3.1210     1.6670 O.2   1 <1>  -0.5700 
 18 N        6.1150     2.4890     0.3240 N.am  1 <1>  -0.7300 
 19 C        7.1880     3.2160     1.0150 C.3   1 <1>   0.2780 
 20 C        8.4490     2.3900     0.8790 C.2   1 <1>  -0.2880 
 21 C        9.5490     2.7570     0.2140 C.2   1 <1>  -0.3000 
 22 H        0.9630     2.3960    -1.9130 H     1 <1>   0.0800 
 23 H        2.1640     1.2040    -2.3380 H     1 <1>   0.0800 
 24 H        2.5380    -0.7200    -0.8090 H     1 <1>   0.0800 
 25 H        1.5570    -0.8520     0.6290 H     1 <1>   0.0800 
 26 H       -1.2270     1.0200     1.1310 H     1 <1>   0.1500 
 27 H       -1.1890    -2.7550    -0.8300 H     1 <1>   0.1500 
 28 H        2.2550     3.1540    -0.0210 H     1 <1>   0.0800 
 29 H        3.2330     3.2320    -1.4540 H     1 <1>   0.0800 
 30 H        3.8250    -0.0710     1.1790 H     1 <1>   0.0800 
 31 H        2.6140     1.1000     1.6090 H     1 <1>   0.0800 
 32 H       -2.4590     0.0330     3.0120 H     1 <1>   0.1500 
 33 H       -2.4190    -3.7460     1.0470 H     1 <1>   0.1500 
 34 H        4.3460     1.1440    -0.8680 H     1 <1>   0.0800 
 35 H       -3.0560    -2.3550     2.9750 H     1 <1>   0.1500 
 36 H        6.4260     1.9640    -0.4920 H     1 <1>   0.3700 
 37 H        6.9400     3.3560     2.0540 H     1 <1>   0.0800 
 38 H        7.3170     4.1820     0.5570 H     1 <1>   0.0800 
 39 H        8.3690     1.4460     1.3910 H     1 <1>   0.1500 
 40 H       10.4340     2.1480     0.1360 H     1 <1>   0.1500 
 41 H        9.6620     3.6930    -0.3070 H     1 <1>   0.1500 
@<TRIPOS>BOND
  1   1   2  2   
  2   1   3  2   
  3   1   4  am  
  4   1   5  1   
  5   4   6  1   
  6   4   7  1   
  7   5   8  ar  
  8   5   9  ar  
  9   6  10  1   
 10   6  22  1   
 11   6  23  1   
 12   7  11  1   
 13   7  24  1   
 14   7  25  1   
 15   8  12  ar  
 16   8  26  1   
 17   9  13  ar  
 18   9  27  1   
 19  10  14  1   
 20  10  28  1   
 21  10  29  1   
 22  11  14  1   
 23  11  30  1   
 24  11  31  1   
 25  12  15  ar  
 26  12  32  1   
 27  13  15  ar  
 28  13  33  1   
 29  14  16  1   
 30  14  34  1   
 31  15  35  1   
 32  16  17  2   
 33  16  18  am  
 34  18  19  1   
 35  18  36  1   
 36  19  20  1   
 37  19  37  1   
 38  19  38  1   
 39  20  21  2   
 40  20  39  1   
 41  21  40  1   
 42  21  41  1   
@<TRIPOS>SUBSTRUCTURE
  1 ****   7 GROUP 4 **** **** 0

# MOE 2024.06 (io_trps.svl 2023.06)
