@<TRIPOS>MOLECULE
NONAME
45 47 1 0 0 
SMALL
USER_CHARGES


@<TRIPOS>ATOM
  1 O       -0.7940     2.6250    -2.2010 O.2   1 <1>  -0.5700 
  2 C       -0.0470     2.3190    -1.3030 C.2   1 <1>   0.5690 
  3 N       -0.4180     1.6460    -0.1740 N.am  1 <1>  -0.5470 
  4 C        1.4340     2.6930    -1.4060 C.3   1 <1>   0.1710 
  5 C       -1.6360     1.1280     0.2870 C.ar  1 <1>   0.1170 
  6 N        2.3250     1.8550    -0.5480 N.3   1 <1>  -0.8100 
  7 C       -1.6250     0.3180     1.4160 C.ar  1 <1>  -0.1500 
  8 C       -2.8580     1.3840    -0.3260 C.ar  1 <1>  -0.1500 
  9 C        3.6480     2.4950    -0.3720 C.3   1 <1>   0.1100 
 10 C        2.5100     0.5010    -1.1350 C.3   1 <1>   0.1100 
 11 C       -2.7950    -0.2220     1.9180 C.ar  1 <1>  -0.1500 
 12 C       -4.0300     0.8450     0.1740 C.ar  1 <1>  -0.1500 
 13 C        4.5940     1.6480     0.5020 C.3   1 <1>   0.2090 
 14 C        3.4330    -0.3850    -0.2780 C.3   1 <1>   0.2090 
 15 C       -4.0060     0.0370     1.2980 C.ar  1 <1>  -0.1430 
 16 N        4.7540     0.2760    -0.0540 N.pl3 1 <1>  -0.8380 
 17 C       -5.2930    -0.5520     1.8460 C.3   1 <1>  -0.0970 
 18 C        5.7690    -0.4850     0.4890 C.ar  1 <1>   0.4100 
 19 N        5.4310    -1.4210     1.3700 N.ar  1 <1>  -0.6200 
 20 C        7.0850    -0.2370     0.1070 C.ar  1 <1>  -0.1500 
 21 C        6.4310    -2.1200     1.8810 C.ar  1 <1>   0.1600 
 22 C        8.1150    -0.9710     0.6470 C.ar  1 <1>  -0.1500 
 23 C        7.7660    -1.9420     1.5630 C.ar  1 <1>  -0.1500 
 24 H        0.4020     1.4490     0.4090 H     1 <1>   0.3700 
 25 H        1.5160     3.7220    -1.1050 H     1 <1>   0.0800 
 26 H        1.7400     2.6260    -2.4350 H     1 <1>   0.0800 
 27 H       -0.6940     0.1070     1.9090 H     1 <1>   0.1500 
 28 H       -2.9030     2.0100    -1.1980 H     1 <1>   0.1500 
 29 H        3.5200     3.4560     0.0940 H     1 <1>   0.0800 
 30 H        4.1120     2.6470    -1.3320 H     1 <1>   0.0800 
 31 H        2.9380     0.5840    -2.1200 H     1 <1>   0.0800 
 32 H        1.5570     0.0090    -1.2300 H     1 <1>   0.0800 
 33 H       -2.7600    -0.8450     2.7950 H     1 <1>   0.1500 
 34 H       -4.9620     1.0600    -0.3190 H     1 <1>   0.1500 
 35 H        4.1940     1.5810     1.4990 H     1 <1>   0.0800 
 36 H        5.5550     2.1280     0.5590 H     1 <1>   0.0800 
 37 H        3.5890    -1.3290    -0.7710 H     1 <1>   0.0800 
 38 H        2.9630    -0.5780     0.6710 H     1 <1>   0.0800 
 39 H       -5.7400     0.1350     2.5410 H     1 <1>   0.0800 
 40 H       -5.0980    -1.4810     2.3500 H     1 <1>   0.0800 
 41 H       -5.9890    -0.7400     1.0470 H     1 <1>   0.0800 
 42 H        7.2730     0.5320    -0.6170 H     1 <1>   0.1500 
 43 H        6.1710    -2.8810     2.5960 H     1 <1>   0.1500 
 44 H        9.1400    -0.7990     0.3680 H     1 <1>   0.1500 
 45 H        8.5190    -2.5530     2.0250 H     1 <1>   0.1500 
@<TRIPOS>BOND
  1   1   2  2   
  2   2   3  am  
  3   2   4  1   
  4   3   5  1   
  5   3  24  1   
  6   4   6  1   
  7   4  25  1   
  8   4  26  1   
  9   5   7  ar  
 10   5   8  ar  
 11   6   9  1   
 12   6  10  1   
 13   7  11  ar  
 14   7  27  1   
 15   8  12  ar  
 16   8  28  1   
 17   9  13  1   
 18   9  29  1   
 19   9  30  1   
 20  10  14  1   
 21  10  31  1   
 22  10  32  1   
 23  11  15  ar  
 24  11  33  1   
 25  12  15  ar  
 26  12  34  1   
 27  13  16  1   
 28  13  35  1   
 29  13  36  1   
 30  14  16  1   
 31  14  37  1   
 32  14  38  1   
 33  15  17  1   
 34  16  18  1   
 35  17  39  1   
 36  17  40  1   
 37  17  41  1   
 38  18  19  ar  
 39  18  20  ar  
 40  19  21  ar  
 41  20  22  ar  
 42  20  42  1   
 43  21  23  ar  
 44  21  43  1   
 45  22  23  ar  
 46  22  44  1   
 47  23  45  1   
@<TRIPOS>SUBSTRUCTURE
  1 ****  10 GROUP 4 **** **** 0

# MOE 2024.06 (io_trps.svl 2023.06)
