@<TRIPOS>MOLECULE
NONAME
35 36 1 0 0 
SMALL
USER_CHARGES


@<TRIPOS>ATOM
  1 CL       0.0730     0.1980     0.7910 Cl    1 <1>  -0.1770 
  2 C        0.7390    -1.3490     0.3260 C.ar  1 <1>   0.1770 
  3 C       -0.0720    -2.4810     0.3100 C.ar  1 <1>   0.0860 
  4 C        2.0790    -1.3930    -0.0210 C.ar  1 <1>  -0.1500 
  5 C        0.5460    -3.6620    -0.0910 C.ar  1 <1>   0.1900 
  6 C       -1.4610    -2.4360     0.6860 C.2   1 <1>   0.5440 
  7 C        2.6570    -2.5920    -0.4050 C.ar  1 <1>  -0.1500 
  8 F       -0.1580    -4.7580    -0.1630 F     1 <1>  -0.1900 
  9 C        1.8820    -3.7390    -0.4420 C.ar  1 <1>  -0.1500 
 10 O       -1.8620    -3.0380     1.6610 O.2   1 <1>  -0.5700 
 11 N       -2.3640    -1.7110    -0.0420 N.am  1 <1>  -0.7300 
 12 C       -3.7690    -1.5440     0.3470 C.3   1 <1>   0.2200 
 13 C       -4.5910    -2.6820    -0.2510 C.3   1 <1>  -0.1600 
 14 C       -4.2820    -0.1900    -0.1310 C.3   1 <1>  -0.1600 
 15 C       -6.0650    -2.5040     0.0950 C.3   1 <1>   0.3430 
 16 C       -5.7640    -0.0440     0.2100 C.3   1 <1>   0.3430 
 17 N       -6.5410    -1.1720    -0.3890 N.4   1 <1>  -0.9590 
 18 C       -8.0030    -1.0090    -0.1250 C.3   1 <1>   0.2630 
 19 H        2.6680    -0.4920     0.0120 H     1 <1>   0.1500 
 20 H        3.7000    -2.6320    -0.6740 H     1 <1>   0.1500 
 21 H        2.3060    -4.6830    -0.7410 H     1 <1>   0.1500 
 22 H       -2.0350    -1.1680    -0.8430 H     1 <1>   0.3700 
 23 H       -3.8390    -1.5870     1.4240 H     1 <1>   0.0800 
 24 H       -4.2490    -3.6170     0.1600 H     1 <1>   0.0800 
 25 H       -4.4680    -2.7210    -1.3190 H     1 <1>   0.0800 
 26 H       -4.1450    -0.0830    -1.1920 H     1 <1>   0.0800 
 27 H       -3.7330     0.5920     0.3640 H     1 <1>   0.0800 
 28 H       -6.1900    -2.5720     1.1640 H     1 <1>   0.0800 
 29 H       -6.6380    -3.2940    -0.3640 H     1 <1>   0.0800 
 30 H       -6.1280     0.8980    -0.1700 H     1 <1>   0.0800 
 31 H       -5.8870    -0.0460     1.2810 H     1 <1>   0.0800 
 32 H       -6.3900    -1.1470    -1.4080 H     1 <1>   0.4500 
 33 H       -8.1980    -1.0340     0.9350 H     1 <1>   0.0800 
 34 H       -8.5600    -1.8020    -0.5980 H     1 <1>   0.0800 
 35 H       -8.3510    -0.0670    -0.5170 H     1 <1>   0.0800 
@<TRIPOS>BOND
  1   1   2  1   
  2   2   3  ar  
  3   2   4  ar  
  4   3   5  ar  
  5   3   6  1   
  6   4   7  ar  
  7   4  19  1   
  8   5   8  1   
  9   5   9  ar  
 10   6  10  2   
 11   6  11  am  
 12   7   9  ar  
 13   7  20  1   
 14   9  21  1   
 15  11  12  1   
 16  11  22  1   
 17  12  13  1   
 18  12  14  1   
 19  12  23  1   
 20  13  15  1   
 21  13  24  1   
 22  13  25  1   
 23  14  16  1   
 24  14  26  1   
 25  14  27  1   
 26  15  17  1   
 27  15  28  1   
 28  15  29  1   
 29  16  17  1   
 30  16  30  1   
 31  16  31  1   
 32  17  18  1   
 33  17  32  1   
 34  18  33  1   
 35  18  34  1   
 36  18  35  1   
@<TRIPOS>SUBSTRUCTURE
  1 ****  11 GROUP 4 **** **** 0

# MOE 2024.06 (io_trps.svl 2023.06)
