@<TRIPOS>MOLECULE
NONAME
40 41 1 0 0 
SMALL
USER_CHARGES


@<TRIPOS>ATOM
  1 O       -0.3510    -0.0610     0.1270 O.3   1 <1>  -0.3630 
  2 C        0.8970     0.4750     0.0890 C.ar  1 <1>   0.0830 
  3 C       -1.4770     0.6970    -0.2590 C.3   1 <1>   0.1200 
  4 C        1.9400    -0.3470     0.4870 C.ar  1 <1>  -0.1500 
  5 C        1.1710     1.7770    -0.3220 C.ar  1 <1>  -0.1500 
  6 C       -2.7190    -0.1740    -0.1050 C.3   1 <1>   0.1200 
  7 C        3.2450     0.1140     0.4800 C.ar  1 <1>  -0.1500 
  8 C        2.4760     2.2380    -0.3280 C.ar  1 <1>  -0.1500 
  9 O       -3.8440     0.5850    -0.4910 O.3   1 <1>  -0.3620 
 10 C        3.5190     1.4170     0.0700 C.ar  1 <1>   0.0830 
 11 C       -5.0940     0.0570    -0.4500 C.ar  1 <1>   0.0830 
 12 O        4.7670     1.9520     0.0310 O.3   1 <1>  -0.3630 
 13 C       -6.1340     0.8840    -0.8420 C.ar  1 <1>  -0.1500 
 14 C       -5.3740    -1.2440    -0.0430 C.ar  1 <1>  -0.1500 
 15 C        5.8940     1.1980     0.4170 C.3   1 <1>   0.0400 
 16 C       -7.4390     0.4250    -0.8300 C.ar  1 <1>  -0.1500 
 17 C       -6.6810    -1.7000    -0.0320 C.ar  1 <1>  -0.1500 
 18 C       -7.7200    -0.8710    -0.4260 C.ar  1 <1>  -0.1430 
 19 C       -9.1540    -1.3770    -0.4120 C.3   1 <1>  -0.0170 
 20 C       -9.8050    -1.1070     0.9470 C.3   1 <1>  -0.2400 
 21 H       -1.3520     0.9910    -1.2860 H     1 <1>   0.0800 
 22 H       -1.5430     1.5570     0.3840 H     1 <1>   0.0800 
 23 H        1.7210    -1.3510     0.8020 H     1 <1>   0.1500 
 24 H        0.3910     2.4430    -0.6370 H     1 <1>   0.1500 
 25 H       -2.8440    -0.4680     0.9210 H     1 <1>   0.0800 
 26 H       -2.6540    -1.0340    -0.7480 H     1 <1>   0.0800 
 27 H        4.0270    -0.5490     0.7940 H     1 <1>   0.1500 
 28 H        2.6970     3.2420    -0.6430 H     1 <1>   0.1500 
 29 H       -5.9150     1.8880    -1.1560 H     1 <1>   0.1500 
 30 H       -4.5950    -1.9130     0.2690 H     1 <1>   0.1500 
 31 H        6.7650     1.8180     0.3060 H     1 <1>   0.0800 
 32 H        5.9740     0.3380    -0.2250 H     1 <1>   0.0800 
 33 H        5.7830     0.9040     1.4450 H     1 <1>   0.0800 
 34 H       -8.2350     1.0800    -1.1350 H     1 <1>   0.1500 
 35 H       -6.8890    -2.7060     0.2870 H     1 <1>   0.1500 
 36 H       -9.1680    -2.4330    -0.6160 H     1 <1>   0.0800 
 37 H       -9.7180    -0.8880    -1.1860 H     1 <1>   0.0800 
 38 H       -9.2560    -1.6060     1.7260 H     1 <1>   0.0800 
 39 H      -10.8180    -1.4670     0.9500 H     1 <1>   0.0800 
 40 H       -9.8100    -0.0510     1.1520 H     1 <1>   0.0800 
@<TRIPOS>BOND
  1   1   2  1   
  2   1   3  1   
  3   2   4  ar  
  4   2   5  ar  
  5   3   6  1   
  6   3  21  1   
  7   3  22  1   
  8   4   7  ar  
  9   4  23  1   
 10   5   8  ar  
 11   5  24  1   
 12   6   9  1   
 13   6  25  1   
 14   6  26  1   
 15   7  10  ar  
 16   7  27  1   
 17   8  10  ar  
 18   8  28  1   
 19   9  11  1   
 20  10  12  1   
 21  11  13  ar  
 22  11  14  ar  
 23  12  15  1   
 24  13  16  ar  
 25  13  29  1   
 26  14  17  ar  
 27  14  30  1   
 28  15  31  1   
 29  15  32  1   
 30  15  33  1   
 31  16  18  ar  
 32  16  34  1   
 33  17  18  ar  
 34  17  35  1   
 35  18  19  1   
 36  19  20  1   
 37  19  36  1   
 38  19  37  1   
 39  20  38  1   
 40  20  39  1   
 41  20  40  1   
@<TRIPOS>SUBSTRUCTURE
  1 ****   6 GROUP 4 **** **** 0

# MOE 2024.06 (io_trps.svl 2023.06)
