@<TRIPOS>MOLECULE
NONAME
45 46 1 0 0 
SMALL
USER_CHARGES


@<TRIPOS>ATOM
  1 O        1.8300    -3.3280    -1.4700 O.2   1 <1>  -0.5700 
  2 C        0.9440    -2.9210    -0.7580 C.2   1 <1>   0.5690 
  3 N        0.9910    -2.7950     0.5970 N.am  1 <1>  -0.6600 
  4 C       -0.3720    -2.4560    -1.3170 C.3   1 <1>  -0.0990 
  5 C       -0.2880    -2.2660     1.1260 C.3   1 <1>   0.1400 
  6 C        1.9650    -3.3220     1.5980 C.3   1 <1>   0.1400 
  7 C       -1.2510    -2.2570    -0.0730 C.3   1 <1>   0.0630 
  8 C        3.3420    -3.6710     1.0230 C.3   1 <1>  -0.1600 
  9 C       -2.2980    -3.3620     0.0580 C.ar  1 <1>  -0.1430 
 10 C        4.0030    -2.4550     0.3690 C.3   1 <1>   0.3430 
 11 C       -1.9280    -4.6990     0.1480 C.ar  1 <1>  -0.1500 
 12 C       -3.6460    -3.0350     0.0900 C.ar  1 <1>  -0.1500 
 13 N        5.2020    -2.8660    -0.4190 N.4   1 <1>  -0.9590 
 14 C       -2.8860    -5.6910     0.2700 C.ar  1 <1>  -0.1500 
 15 C       -4.6050    -4.0250     0.2130 C.ar  1 <1>  -0.1500 
 16 C        6.0800    -1.6900    -0.6900 C.3   1 <1>   0.2630 
 17 C        4.7810    -3.5010    -1.7110 C.3   1 <1>   0.2630 
 18 C       -4.2360    -5.3560     0.3040 C.ar  1 <1>   0.0820 
 19 O       -5.2380    -6.2630     0.4220 O.3   1 <1>  -0.3630 
 20 C       -4.9690    -7.6450     0.5030 C.3   1 <1>   0.0400 
 21 H       -0.7790    -3.1860    -1.9920 H     1 <1>   0.0800 
 22 H       -0.2240    -1.5280    -1.8350 H     1 <1>   0.0800 
 23 H       -0.1380    -1.2670     1.4970 H     1 <1>   0.0800 
 24 H       -0.6640    -2.8900     1.9200 H     1 <1>   0.0800 
 25 H        1.5420    -4.2050     2.0480 H     1 <1>   0.0800 
 26 H        2.0860    -2.5880     2.3770 H     1 <1>   0.0800 
 27 H       -1.7460    -1.3030    -0.1240 H     1 <1>   0.0800 
 28 H        3.2160    -4.4790     0.3260 H     1 <1>   0.0800 
 29 H        3.9660    -4.0220     1.8250 H     1 <1>   0.0800 
 30 H        4.2870    -1.7570     1.1390 H     1 <1>   0.0800 
 31 H        3.2990    -1.9620    -0.2820 H     1 <1>   0.0800 
 32 H       -0.8900    -4.9790     0.1230 H     1 <1>   0.1500 
 33 H       -3.9650    -2.0100     0.0200 H     1 <1>   0.1500 
 34 H        5.7270    -3.5590     0.1330 H     1 <1>   0.4500 
 35 H       -2.5630    -6.7120     0.3360 H     1 <1>   0.1500 
 36 H       -5.6490    -3.7720     0.2390 H     1 <1>   0.1500 
 37 H        5.5460    -0.9510    -1.2660 H     1 <1>   0.0800 
 38 H        6.9520    -1.9950    -1.2450 H     1 <1>   0.0800 
 39 H        6.4010    -1.2400     0.2350 H     1 <1>   0.0800 
 40 H        4.1920    -2.8100    -2.2920 H     1 <1>   0.0800 
 41 H        4.1760    -4.3740    -1.5250 H     1 <1>   0.0800 
 42 H        5.6430    -3.7950    -2.2870 H     1 <1>   0.0800 
 43 H       -5.9070    -8.1630     0.5840 H     1 <1>   0.0800 
 44 H       -4.3700    -7.8330     1.3760 H     1 <1>   0.0800 
 45 H       -4.4570    -7.9530    -0.3920 H     1 <1>   0.0800 
@<TRIPOS>BOND
  1   1   2  2   
  2   2   3  am  
  3   2   4  1   
  4   3   5  1   
  5   3   6  1   
  6   4   7  1   
  7   4  21  1   
  8   4  22  1   
  9   5   7  1   
 10   5  23  1   
 11   5  24  1   
 12   6   8  1   
 13   6  25  1   
 14   6  26  1   
 15   7   9  1   
 16   7  27  1   
 17   8  10  1   
 18   8  28  1   
 19   8  29  1   
 20   9  11  ar  
 21   9  12  ar  
 22  10  13  1   
 23  10  30  1   
 24  10  31  1   
 25  11  14  ar  
 26  11  32  1   
 27  12  15  ar  
 28  12  33  1   
 29  13  16  1   
 30  13  17  1   
 31  13  34  1   
 32  14  18  ar  
 33  14  35  1   
 34  15  18  ar  
 35  15  36  1   
 36  16  37  1   
 37  16  38  1   
 38  16  39  1   
 39  17  40  1   
 40  17  41  1   
 41  17  42  1   
 42  18  19  1   
 43  19  20  1   
 44  20  43  1   
 45  20  44  1   
 46  20  45  1   
@<TRIPOS>SUBSTRUCTURE
  1 ****   2 GROUP 4 **** **** 0

# MOE 2024.06 (io_trps.svl 2023.06)
