@<TRIPOS>MOLECULE
NONAME
45 46 1 0 0 
SMALL
USER_CHARGES


@<TRIPOS>ATOM
  1 O        0.9560    -0.9540     0.0270 O.2   1 <1>  -0.5700 
  2 C        0.6140    -1.9280     0.6560 C.2   1 <1>   0.5690 
  3 N        1.1880    -2.2320     1.8470 N.am  1 <1>  -0.7300 
  4 C       -0.4530    -2.8660     0.0960 C.3   1 <1>  -0.0190 
  5 C        2.2340    -1.4170     2.5420 C.3   1 <1>   0.2010 
  6 C        0.1210    -3.7340    -1.0400 C.3   1 <1>  -0.1600 
  7 C       -1.7000    -2.0980    -0.3870 C.3   1 <1>  -0.1600 
  8 C        3.6480    -2.0020     2.3970 C.2   1 <1>   0.5690 
  9 C       -0.9390    -4.6830    -1.6170 C.3   1 <1>  -0.1600 
 10 C       -2.7600    -3.0480    -0.9620 C.3   1 <1>  -0.1600 
 11 O        4.0860    -2.6130     3.3430 O.2   1 <1>  -0.5700 
 12 N        4.3920    -1.8670     1.2440 N.am  1 <1>  -0.6600 
 13 C       -2.1770    -3.9090    -2.0890 C.3   1 <1>  -0.1600 
 14 C        3.9490    -1.0740     0.0510 C.3   1 <1>   0.1400 
 15 C        5.6300    -2.6920     1.0530 C.3   1 <1>   0.1400 
 16 C        5.1150    -0.3560    -0.6550 C.3   1 <1>   0.3430 
 17 C        6.7510    -1.9040     0.3540 C.3   1 <1>   0.3430 
 18 N        6.2770    -1.2720    -0.9250 N.4   1 <1>  -0.9590 
 19 C        7.3860    -0.5470    -1.6160 C.3   1 <1>   0.2630 
 20 H        0.9310    -3.0990     2.3240 H     1 <1>   0.3700 
 21 H       -0.7650    -3.5220     0.8890 H     1 <1>   0.0800 
 22 H        1.9940    -1.3790     3.5900 H     1 <1>   0.0800 
 23 H        2.2150    -0.4070     2.1790 H     1 <1>   0.0800 
 24 H        0.9520    -4.3100    -0.6720 H     1 <1>   0.0800 
 25 H        0.4840    -3.0930    -1.8250 H     1 <1>   0.0800 
 26 H       -1.4120    -1.3910    -1.1470 H     1 <1>   0.0800 
 27 H       -2.1210    -1.5420     0.4330 H     1 <1>   0.0800 
 28 H       -1.2310    -5.3960    -0.8640 H     1 <1>   0.0800 
 29 H       -0.5220    -5.2310    -2.4440 H     1 <1>   0.0800 
 30 H       -3.5890    -2.4740    -1.3400 H     1 <1>   0.0800 
 31 H       -3.1320    -3.6870    -0.1800 H     1 <1>   0.0800 
 32 H       -2.9240    -4.6020    -2.4380 H     1 <1>   0.0800 
 33 H       -1.9050    -3.2750    -2.9160 H     1 <1>   0.0800 
 34 H        3.2500    -0.3150     0.3490 H     1 <1>   0.0800 
 35 H        3.4480    -1.7270    -0.6430 H     1 <1>   0.0800 
 36 H        5.3830    -3.5620     0.4710 H     1 <1>   0.0800 
 37 H        6.0010    -3.0380     2.0030 H     1 <1>   0.0800 
 38 H        5.4380     0.4590    -0.0290 H     1 <1>   0.0800 
 39 H        4.7540     0.0640    -1.5800 H     1 <1>   0.0800 
 40 H        7.5730    -2.5720     0.1520 H     1 <1>   0.0800 
 41 H        7.1040    -1.1420     1.0290 H     1 <1>   0.0800 
 42 H        5.9360    -2.0270    -1.5390 H     1 <1>   0.4500 
 43 H        7.7580     0.2500    -0.9930 H     1 <1>   0.0800 
 44 H        7.0370    -0.1250    -2.5450 H     1 <1>   0.0800 
 45 H        8.1980    -1.2230    -1.8320 H     1 <1>   0.0800 
@<TRIPOS>BOND
  1   1   2  2   
  2   2   3  am  
  3   2   4  1   
  4   3   5  1   
  5   3  20  1   
  6   4   6  1   
  7   4   7  1   
  8   4  21  1   
  9   5   8  1   
 10   5  22  1   
 11   5  23  1   
 12   6   9  1   
 13   6  24  1   
 14   6  25  1   
 15   7  10  1   
 16   7  26  1   
 17   7  27  1   
 18   8  11  2   
 19   8  12  am  
 20   9  13  1   
 21   9  28  1   
 22   9  29  1   
 23  10  13  1   
 24  10  30  1   
 25  10  31  1   
 26  12  14  1   
 27  12  15  1   
 28  13  32  1   
 29  13  33  1   
 30  14  16  1   
 31  14  34  1   
 32  14  35  1   
 33  15  17  1   
 34  15  36  1   
 35  15  37  1   
 36  16  18  1   
 37  16  38  1   
 38  16  39  1   
 39  17  18  1   
 40  17  40  1   
 41  17  41  1   
 42  18  19  1   
 43  18  42  1   
 44  19  43  1   
 45  19  44  1   
 46  19  45  1   
@<TRIPOS>SUBSTRUCTURE
  1 ****   2 GROUP 4 **** **** 0

# MOE 2024.06 (io_trps.svl 2023.06)
