@<TRIPOS>MOLECULE
NONAME
48 50 1 0 0 
SMALL
USER_CHARGES


@<TRIPOS>ATOM
  1 S       -0.2230     0.3180     0.8210 S.o2  1 <1>   1.4470 
  2 O       -0.8550     0.7830     2.0390 O.2   1 <1>  -0.6500 
  3 O       -0.2210    -1.0980     0.5240 O.2   1 <1>  -0.6500 
  4 N       -1.0110     1.0830    -0.4680 N.am  1 <1>  -0.8490 
  5 C        1.4670     0.9670     0.7130 C.ar  1 <1>  -0.0090 
  6 C       -1.2640     2.5010    -0.2740 C.3   1 <1>   0.1960 
  7 C       -2.3030     0.4950    -0.7680 C.3   1 <1>   0.1960 
  8 C        2.1150     1.4910     1.8250 C.ar  1 <1>  -0.1500 
  9 C        2.1640     0.9550    -0.4900 C.ar  1 <1>  -0.1500 
 10 C       -2.2840     2.8470    -1.3500 C.3   1 <1>  -0.1600 
 11 C       -3.0030     1.5290    -1.6440 C.3   1 <1>  -0.1600 
 12 C        3.4040     1.9880     1.7390 C.ar  1 <1>  -0.1500 
 13 C        3.4510     1.4540    -0.5810 C.ar  1 <1>  -0.1500 
 14 C        4.0950     1.9780     0.5340 C.ar  1 <1>   0.1170 
 15 N        5.3900     2.5120     0.4930 N.am  1 <1>  -0.5470 
 16 C        6.4340     2.2980    -0.3790 C.2   1 <1>   0.5440 
 17 O        6.3640     1.4220    -1.2170 O.2   1 <1>  -0.5700 
 18 C        7.6300     3.1100    -0.2610 C.ar  1 <1>   0.0860 
 19 C        8.8930     2.5610    -0.4750 C.ar  1 <1>  -0.1500 
 20 C        7.5670     4.4650     0.0720 C.ar  1 <1>  -0.1500 
 21 C       10.0470     3.3130    -0.3480 C.ar  1 <1>   0.0820 
 22 C        8.7120     5.2290     0.2020 C.ar  1 <1>  -0.1500 
 23 O       11.2210     2.6720    -0.5710 O.3   1 <1>  -0.3620 
 24 C        9.9550     4.6590    -0.0040 C.ar  1 <1>  -0.1500 
 25 C       12.4540     3.3500    -0.5140 C.3   1 <1>   0.1200 
 26 C       13.5580     2.3470    -0.8380 C.3   1 <1>  -0.2400 
 27 H       -0.3590     3.0760    -0.3770 H     1 <1>   0.0800 
 28 H       -1.6970     2.6770     0.6980 H     1 <1>   0.0800 
 29 H       -2.8600     0.3510     0.1450 H     1 <1>   0.0800 
 30 H       -2.1880    -0.4510    -1.2700 H     1 <1>   0.0800 
 31 H        1.6020     1.5080     2.7730 H     1 <1>   0.1500 
 32 H        1.6880     0.5500    -1.3670 H     1 <1>   0.1500 
 33 H       -1.7730     3.1950    -2.2310 H     1 <1>   0.0800 
 34 H       -2.9590     3.6120    -1.0090 H     1 <1>   0.0800 
 35 H       -4.0510     1.5780    -1.4070 H     1 <1>   0.0800 
 36 H       -2.8890     1.2640    -2.6800 H     1 <1>   0.0800 
 37 H        3.8750     2.3830     2.6200 H     1 <1>   0.1500 
 38 H        3.9550     1.4320    -1.5310 H     1 <1>   0.1500 
 39 H        5.6330     3.0980     1.2880 H     1 <1>   0.3700 
 40 H        8.9770     1.5240    -0.7460 H     1 <1>   0.1500 
 41 H        6.6090     4.9330     0.2210 H     1 <1>   0.1500 
 42 H        8.6380     6.2720     0.4600 H     1 <1>   0.1500 
 43 H       10.8300     5.2710     0.1030 H     1 <1>   0.1500 
 44 H       12.5800     3.7460     0.4780 H     1 <1>   0.0800 
 45 H       12.4400     4.1460    -1.2380 H     1 <1>   0.0800 
 46 H       13.5520     1.5470    -0.1190 H     1 <1>   0.0800 
 47 H       14.5150     2.8340    -0.8030 H     1 <1>   0.0800 
 48 H       13.4120     1.9440    -1.8240 H     1 <1>   0.0800 
@<TRIPOS>BOND
  1   1   2  2   
  2   1   3  2   
  3   1   4  am  
  4   1   5  1   
  5   4   6  1   
  6   4   7  1   
  7   5   8  ar  
  8   5   9  ar  
  9   6  10  1   
 10   6  27  1   
 11   6  28  1   
 12   7  11  1   
 13   7  29  1   
 14   7  30  1   
 15   8  12  ar  
 16   8  31  1   
 17   9  13  ar  
 18   9  32  1   
 19  10  11  1   
 20  10  33  1   
 21  10  34  1   
 22  11  35  1   
 23  11  36  1   
 24  12  14  ar  
 25  12  37  1   
 26  13  14  ar  
 27  13  38  1   
 28  14  15  1   
 29  15  16  am  
 30  15  39  1   
 31  16  17  2   
 32  16  18  1   
 33  18  19  ar  
 34  18  20  ar  
 35  19  21  ar  
 36  19  40  1   
 37  20  22  ar  
 38  20  41  1   
 39  21  23  1   
 40  21  24  ar  
 41  22  24  ar  
 42  22  42  1   
 43  23  25  1   
 44  24  43  1   
 45  25  26  1   
 46  25  44  1   
 47  25  45  1   
 48  26  46  1   
 49  26  47  1   
 50  26  48  1   
@<TRIPOS>SUBSTRUCTURE
  1 ****  14 GROUP 4 **** **** 0

# MOE 2024.06 (io_trps.svl 2023.06)
