@<TRIPOS>MOLECULE
NONAME
40 41 1 0 0 
SMALL
USER_CHARGES


@<TRIPOS>ATOM
  1 F       -0.6470     0.0910     1.1760 F     1 <1>  -0.3400 
  2 C       -0.3110    -1.1730     0.9560 C.3   1 <1>   1.1640 
  3 F        0.1110    -1.6570     2.1170 F     1 <1>  -0.3400 
  4 F        0.7480    -1.1460     0.1570 F     1 <1>  -0.3400 
  5 C       -1.4820    -1.9770     0.3620 C.ar  1 <1>  -0.1440 
  6 C       -1.7060    -1.9930    -1.0110 C.ar  1 <1>  -0.1500 
  7 C       -2.3460    -2.6980     1.1800 C.ar  1 <1>  -0.1500 
  8 C       -2.7600    -2.7080    -1.5510 C.ar  1 <1>  -0.1500 
  9 C       -3.4000    -3.4150     0.6420 C.ar  1 <1>  -0.1500 
 10 C       -3.6170    -3.4200    -0.7270 C.ar  1 <1>  -0.1430 
 11 C       -4.7860    -4.1900    -1.3130 C.3   1 <1>   0.4870 
 12 N       -6.0330    -3.4510    -0.9870 N.4   1 <1>  -0.9590 
 13 C       -7.2570    -4.2630    -1.1460 C.3   1 <1>   0.3430 
 14 C       -6.1380    -2.1400    -1.6610 C.3   1 <1>   0.3430 
 15 C       -7.7070    -4.7090     0.2430 C.3   1 <1>  -0.1600 
 16 C       -6.4010    -1.0720    -0.6000 C.3   1 <1>  -0.1600 
 17 C       -8.4060    -3.6140     1.0730 C.3   1 <1>  -0.1600 
 18 C       -7.6860    -1.2630     0.2310 C.3   1 <1>  -0.1600 
 19 C       -7.6120    -2.3220     1.3540 C.3   1 <1>  -0.1600 
 20 H       -1.0520    -1.4440    -1.6720 H     1 <1>   0.1500 
 21 H       -2.1980    -2.7070     2.2490 H     1 <1>   0.1500 
 22 H       -2.8960    -2.7020    -2.6200 H     1 <1>   0.1500 
 23 H       -4.0400    -3.9690     1.3080 H     1 <1>   0.1500 
 24 H       -4.8130    -5.1750    -0.8760 H     1 <1>   0.0800 
 25 H       -4.6750    -4.2890    -2.3800 H     1 <1>   0.0800 
 26 H       -5.9800    -3.2160     0.0120 H     1 <1>   0.4500 
 27 H       -7.0580    -5.1220    -1.7670 H     1 <1>   0.0800 
 28 H       -8.0430    -3.6840    -1.6040 H     1 <1>   0.0800 
 29 H       -6.9370    -2.1490    -2.3850 H     1 <1>   0.0800 
 30 H       -5.2180    -1.9050    -2.1730 H     1 <1>   0.0800 
 31 H       -6.8770    -5.1200     0.7910 H     1 <1>   0.0800 
 32 H       -8.4150    -5.5090     0.1110 H     1 <1>   0.0800 
 33 H       -6.4830    -0.1320    -1.1170 H     1 <1>   0.0800 
 34 H       -5.5470    -0.9860     0.0500 H     1 <1>   0.0800 
 35 H       -8.6530    -4.0540     2.0250 H     1 <1>   0.0800 
 36 H       -9.3470    -3.3600     0.6120 H     1 <1>   0.0800 
 37 H       -8.5270    -1.4450    -0.4170 H     1 <1>   0.0800 
 38 H       -7.8830    -0.3160     0.7090 H     1 <1>   0.0800 
 39 H       -6.5980    -2.5360     1.6430 H     1 <1>   0.0800 
 40 H       -8.0700    -1.8750     2.2220 H     1 <1>   0.0800 
@<TRIPOS>BOND
  1   1   2  1   
  2   2   3  1   
  3   2   4  1   
  4   2   5  1   
  5   5   6  ar  
  6   5   7  ar  
  7   6   8  ar  
  8   6  20  1   
  9   7   9  ar  
 10   7  21  1   
 11   8  10  ar  
 12   8  22  1   
 13   9  10  ar  
 14   9  23  1   
 15  10  11  1   
 16  11  12  1   
 17  11  24  1   
 18  11  25  1   
 19  12  13  1   
 20  12  14  1   
 21  12  26  1   
 22  13  15  1   
 23  13  27  1   
 24  13  28  1   
 25  14  16  1   
 26  14  29  1   
 27  14  30  1   
 28  15  17  1   
 29  15  31  1   
 30  15  32  1   
 31  16  18  1   
 32  16  33  1   
 33  16  34  1   
 34  17  19  1   
 35  17  35  1   
 36  17  36  1   
 37  18  19  1   
 38  18  37  1   
 39  18  38  1   
 40  19  39  1   
 41  19  40  1   
@<TRIPOS>SUBSTRUCTURE
  1 ****  10 GROUP 4 **** **** 0

# MOE 2024.06 (io_trps.svl 2023.06)
