@<TRIPOS>MOLECULE
NONAME
42 43 1 0 0 
SMALL
USER_CHARGES


@<TRIPOS>ATOM
  1 S        0.3080    -0.3160    -2.5070 S.2   1 <1>  -0.3800 
  2 C        0.2150    -1.5300    -1.4390 C.2   1 <1>   0.5810 
  3 S        1.6910    -2.3530    -0.9800 S.3   1 <1>  -0.3710 
  4 N       -0.8740    -2.0000    -0.8270 N.am  1 <1>  -0.3510 
  5 C        0.8520    -3.6230     0.0450 C.3   1 <1>   0.2300 
  6 N       -2.2380    -1.4590    -0.9910 N.3   1 <1>  -0.7290 
  7 C       -0.6200    -3.1030     0.1760 C.3   1 <1>   0.5200 
  8 C        1.5910    -3.6640     1.3890 C.3   1 <1>  -0.2400 
  9 C        1.0380    -4.9460    -0.7190 C.3   1 <1>  -0.2400 
 10 N       -1.6340    -4.1920     0.0640 N.am  1 <1>  -0.3250 
 11 O       -2.1700    -4.4070    -1.2310 O.3   1 <1>  -0.4360 
 12 C       -2.1000    -4.8160     1.1950 C.2   1 <1>   0.6900 
 13 O       -1.6980    -4.4690     2.2920 O.2   1 <1>  -0.5700 
 14 N       -2.9950    -5.8360     1.1780 N.am  1 <1>  -0.7300 
 15 C       -3.0100    -6.9460     0.2140 C.3   1 <1>   0.2200 
 16 C       -4.3800    -6.9960    -0.4680 C.3   1 <1>  -0.1600 
 17 C       -2.7150    -8.2510     0.9600 C.3   1 <1>  -0.1600 
 18 C       -4.4860    -8.2020    -1.4130 C.3   1 <1>  -0.1600 
 19 C       -2.8120    -9.4600     0.0170 C.3   1 <1>  -0.1600 
 20 C       -4.1810    -9.5130    -0.6760 C.3   1 <1>  -0.1600 
 21 H       -2.3460    -1.2050    -1.9860 H     1 <1>   0.3600 
 22 H       -2.2830    -0.5610    -0.4880 H     1 <1>   0.3600 
 23 H       -0.7240    -2.6550     1.1490 H     1 <1>   0.0800 
 24 H        1.5510    -2.7030     1.8710 H     1 <1>   0.0800 
 25 H        2.6220    -3.9320     1.2430 H     1 <1>   0.0800 
 26 H        1.1360    -4.3910     2.0390 H     1 <1>   0.0800 
 27 H        0.5620    -4.8920    -1.6820 H     1 <1>   0.0800 
 28 H        0.6040    -5.7620    -0.1690 H     1 <1>   0.0800 
 29 H        2.0830    -5.1520    -0.8640 H     1 <1>   0.0800 
 30 H       -2.7790    -3.6660    -1.4440 H     1 <1>   0.4000 
 31 H       -3.3090    -6.1030     2.1090 H     1 <1>   0.3700 
 32 H       -2.2470    -6.7980    -0.5320 H     1 <1>   0.0800 
 33 H       -4.5310    -6.0910    -1.0290 H     1 <1>   0.0800 
 34 H       -5.1510    -7.0660     0.2800 H     1 <1>   0.0800 
 35 H       -3.4220    -8.3770     1.7610 H     1 <1>   0.0800 
 36 H       -1.7250    -8.2080     1.3800 H     1 <1>   0.0800 
 37 H       -3.7890    -8.0790    -2.2250 H     1 <1>   0.0800 
 38 H       -5.4760    -8.2460    -1.8330 H     1 <1>   0.0800 
 39 H       -2.6560   -10.3670     0.5760 H     1 <1>   0.0800 
 40 H       -2.0380    -9.3950    -0.7290 H     1 <1>   0.0800 
 41 H       -4.2000   -10.3320    -1.3740 H     1 <1>   0.0800 
 42 H       -4.9460    -9.6920     0.0610 H     1 <1>   0.0800 
@<TRIPOS>BOND
  1   1   2  2   
  2   2   3  1   
  3   2   4  am  
  4   3   5  1   
  5   4   6  1   
  6   4   7  1   
  7   5   7  1   
  8   5   8  1   
  9   5   9  1   
 10   6  21  1   
 11   6  22  1   
 12   7  10  1   
 13   7  23  1   
 14   8  24  1   
 15   8  25  1   
 16   8  26  1   
 17   9  27  1   
 18   9  28  1   
 19   9  29  1   
 20  10  11  1   
 21  10  12  am  
 22  11  30  1   
 23  12  13  2   
 24  12  14  am  
 25  14  15  1   
 26  14  31  1   
 27  15  16  1   
 28  15  17  1   
 29  15  32  1   
 30  16  18  1   
 31  16  33  1   
 32  16  34  1   
 33  17  19  1   
 34  17  35  1   
 35  17  36  1   
 36  18  20  1   
 37  18  37  1   
 38  18  38  1   
 39  19  20  1   
 40  19  39  1   
 41  19  40  1   
 42  20  41  1   
 43  20  42  1   
@<TRIPOS>SUBSTRUCTURE
  1 ****  10 GROUP 4 **** **** 0

# MOE 2024.06 (io_trps.svl 2023.06)
