@<TRIPOS>MOLECULE
NONAME
38 40 1 0 0 
SMALL
USER_CHARGES


@<TRIPOS>ATOM
  1 F       -0.7680     0.2230    -1.4870 F     1 <1>  -0.1900 
  2 C       -1.9600    -0.1420    -1.0980 C.ar  1 <1>   0.1900 
  3 C       -2.9420     0.8200    -0.9770 C.ar  1 <1>  -0.1500 
  4 C       -2.1890    -1.4770    -0.8240 C.ar  1 <1>  -0.1500 
  5 C       -4.2140     0.4400    -0.5650 C.ar  1 <1>   0.1170 
  6 C       -3.4550    -1.8580    -0.4130 C.ar  1 <1>  -0.1500 
  7 N       -5.2480     1.3950    -0.4320 N.am  1 <1>  -0.2370 
  8 C       -4.4550    -0.9050    -0.2870 C.ar  1 <1>  -0.1500 
  9 C       -5.1510     2.4050     0.5210 C.2   1 <1>   0.5690 
 10 C       -6.3390     1.3510    -1.2890 C.2   1 <1>   0.5690 
 11 O       -4.1810     2.5230     1.2320 O.2   1 <1>  -0.5700 
 12 C       -6.3380     3.3940     0.6900 C.3   1 <1>   0.0610 
 13 O       -6.4380     0.5650    -2.1990 O.2   1 <1>  -0.5700 
 14 C       -7.4850     2.3360    -1.0570 C.3   1 <1>  -0.0190 
 15 C       -6.9190     3.7260    -0.7130 C.3   1 <1>   0.0000 
 16 C       -7.4820     2.6060     1.3680 C.3   1 <1>  -0.1600 
 17 C       -5.9580     4.6400     1.5230 C.3   1 <1>  -0.2400 
 18 C       -8.2310     1.9060     0.2210 C.3   1 <1>  -0.1600 
 19 C       -8.0570     4.7790    -0.6920 C.3   1 <1>  -0.2400 
 20 C       -5.8800     4.2480    -1.7360 C.3   1 <1>  -0.2400 
 21 H       -2.7180     1.8470    -1.1940 H     1 <1>   0.1500 
 22 H       -1.3950    -2.1940    -0.9310 H     1 <1>   0.1500 
 23 H       -3.6630    -2.8910    -0.1950 H     1 <1>   0.1500 
 24 H       -5.4380    -1.2100     0.0260 H     1 <1>   0.1500 
 25 H       -8.1330     2.3530    -1.9160 H     1 <1>   0.0800 
 26 H       -8.1540     3.2710     1.8830 H     1 <1>   0.0800 
 27 H       -7.1000     1.8970     2.0850 H     1 <1>   0.0800 
 28 H       -5.5920     4.3400     2.4890 H     1 <1>   0.0800 
 29 H       -6.8020     5.2870     1.6780 H     1 <1>   0.0800 
 30 H       -5.1810     5.1950     1.0300 H     1 <1>   0.0800 
 31 H       -8.2330     0.8350     0.3400 H     1 <1>   0.0800 
 32 H       -9.2520     2.2440     0.1870 H     1 <1>   0.0800 
 33 H       -8.5310     4.8290    -1.6570 H     1 <1>   0.0800 
 34 H       -7.6660     5.7560    -0.4710 H     1 <1>   0.0800 
 35 H       -8.8170     4.5610     0.0340 H     1 <1>   0.0800 
 36 H       -5.0220     3.6130    -1.8500 H     1 <1>   0.0800 
 37 H       -5.5210     5.2180    -1.4380 H     1 <1>   0.0800 
 38 H       -6.3370     4.3500    -2.7050 H     1 <1>   0.0800 
@<TRIPOS>BOND
  1   1   2  1   
  2   2   3  ar  
  3   2   4  ar  
  4   3   5  ar  
  5   3  21  1   
  6   4   6  ar  
  7   4  22  1   
  8   5   7  1   
  9   5   8  ar  
 10   6   8  ar  
 11   6  23  1   
 12   7   9  am  
 13   7  10  am  
 14   8  24  1   
 15   9  11  2   
 16   9  12  1   
 17  10  13  2   
 18  10  14  1   
 19  12  15  1   
 20  12  16  1   
 21  12  17  1   
 22  14  15  1   
 23  14  18  1   
 24  14  25  1   
 25  15  19  1   
 26  15  20  1   
 27  16  18  1   
 28  16  26  1   
 29  16  27  1   
 30  17  28  1   
 31  17  29  1   
 32  17  30  1   
 33  18  31  1   
 34  18  32  1   
 35  19  33  1   
 36  19  34  1   
 37  19  35  1   
 38  20  36  1   
 39  20  37  1   
 40  20  38  1   
@<TRIPOS>SUBSTRUCTURE
  1 ****   7 GROUP 4 **** **** 0

# MOE 2024.06 (io_trps.svl 2023.06)
