@<TRIPOS>MOLECULE
NONAME
41 42 1 0 0 
SMALL
USER_CHARGES


@<TRIPOS>ATOM
  1 O        0.2590     0.0490    -0.3680 O.2   1 <1>  -0.5700 
  2 C        0.7870     1.1310    -0.2050 C.2   1 <1>   0.6340 
  3 O        0.0100     2.2030    -0.0190 O.3   1 <1>  -0.4300 
  4 C        2.2240     1.3210    -0.2020 C.ar  1 <1>   0.0860 
  5 C       -1.3970     2.1030    -0.0070 C.3   1 <1>   0.1200 
  6 C        3.0950     0.2460    -0.3900 C.ar  1 <1>  -0.1500 
  7 C        2.8130     2.5750    -0.0140 C.ar  1 <1>  -0.1500 
  8 C       -1.9680     3.4980     0.2260 C.3   1 <1>  -0.2400 
  9 C        4.4670     0.4100    -0.3880 C.ar  1 <1>  -0.1500 
 10 C        4.1840     2.7430    -0.0130 C.ar  1 <1>  -0.1500 
 11 C        5.0420     1.6610    -0.1970 C.ar  1 <1>   0.1170 
 12 N        6.4380     1.7660    -0.2150 N.am  1 <1>  -0.5470 
 13 C        7.2650     2.7490     0.2740 C.2   1 <1>   0.5690 
 14 O        6.8670     3.7270     0.8610 O.2   1 <1>  -0.5700 
 15 C        8.7890     2.6270     0.0840 C.3   1 <1>   0.4040 
 16 N        9.5260     3.9330     0.2740 N.4   1 <1>  -0.9590 
 17 C        9.2470     4.9370    -0.7810 C.3   1 <1>   0.3430 
 18 C       10.9980     3.8260     0.3870 C.3   1 <1>   0.3430 
 19 C       10.3640     5.9590    -0.6240 C.3   1 <1>  -0.1600 
 20 C       11.4990     5.2380     0.1120 C.3   1 <1>  -0.1600 
 21 H       -1.6840     1.4290     0.7840 H     1 <1>   0.0800 
 22 H       -1.7180     1.7060    -0.9550 H     1 <1>   0.0800 
 23 H        2.6790    -0.7370    -0.5380 H     1 <1>   0.1500 
 24 H        2.1830     3.4360     0.1350 H     1 <1>   0.1500 
 25 H       -1.6290     3.8840     1.1710 H     1 <1>   0.0800 
 26 H       -3.0420     3.4520     0.2410 H     1 <1>   0.0800 
 27 H       -1.6640     4.1590    -0.5640 H     1 <1>   0.0800 
 28 H        5.0910    -0.4530    -0.5350 H     1 <1>   0.1500 
 29 H        4.5770     3.7320     0.1300 H     1 <1>   0.1500 
 30 H        6.8870     0.9420    -0.6160 H     1 <1>   0.3700 
 31 H        8.9880     2.2420    -0.9010 H     1 <1>   0.0800 
 32 H        9.1490     1.9120     0.8030 H     1 <1>   0.0800 
 33 H        9.1540     4.3490     1.1460 H     1 <1>   0.4500 
 34 H        8.2730     5.3860    -0.6550 H     1 <1>   0.0800 
 35 H        9.3110     4.4790    -1.7540 H     1 <1>   0.0800 
 36 H       11.3770     3.1570    -0.3700 H     1 <1>   0.0800 
 37 H       11.3010     3.4780     1.3620 H     1 <1>   0.0800 
 38 H       10.0110     6.7930    -0.0420 H     1 <1>   0.0800 
 39 H       10.6780     6.3250    -1.5870 H     1 <1>   0.0800 
 40 H       12.4000     5.2070    -0.4770 H     1 <1>   0.0800 
 41 H       11.7180     5.7350     1.0410 H     1 <1>   0.0800 
@<TRIPOS>BOND
  1   1   2  2   
  2   2   3  1   
  3   2   4  1   
  4   3   5  1   
  5   4   6  ar  
  6   4   7  ar  
  7   5   8  1   
  8   5  21  1   
  9   5  22  1   
 10   6   9  ar  
 11   6  23  1   
 12   7  10  ar  
 13   7  24  1   
 14   8  25  1   
 15   8  26  1   
 16   8  27  1   
 17   9  11  ar  
 18   9  28  1   
 19  10  11  ar  
 20  10  29  1   
 21  11  12  1   
 22  12  13  am  
 23  12  30  1   
 24  13  14  2   
 25  13  15  1   
 26  15  16  1   
 27  15  31  1   
 28  15  32  1   
 29  16  17  1   
 30  16  18  1   
 31  16  33  1   
 32  17  19  1   
 33  17  34  1   
 34  17  35  1   
 35  18  20  1   
 36  18  36  1   
 37  18  37  1   
 38  19  20  1   
 39  19  38  1   
 40  19  39  1   
 41  20  40  1   
 42  20  41  1   
@<TRIPOS>SUBSTRUCTURE
  1 ****  10 GROUP 4 **** **** 0

# MOE 2024.06 (io_trps.svl 2023.06)
