@<TRIPOS>MOLECULE
NONAME
51 54 1 0 0 
SMALL
USER_CHARGES


@<TRIPOS>ATOM
  1 F        0.4470     0.6290     0.1680 F     1 <1>  -0.1900 
  2 C        1.6140     1.2090     0.1280 C.ar  1 <1>   0.1900 
  3 C        2.6870     0.6010     0.7490 C.ar  1 <1>  -0.1500 
  4 C        1.7400     2.4130    -0.5370 C.ar  1 <1>  -0.1500 
  5 C        3.9200     1.2270     0.7030 C.ar  1 <1>  -0.1500 
  6 C        2.9800     3.0250    -0.5750 C.ar  1 <1>  -0.1500 
  7 C        4.0940     2.4520     0.0510 C.ar  1 <1>   0.0860 
  8 C        5.3930     3.0950     0.0290 C.2   1 <1>   0.3490 
  9 N        6.4660     2.3870    -0.1840 N.2   1 <1>  -0.5760 
 10 C        5.4860     4.5060     0.2540 C.2   1 <1>  -0.1360 
 11 C        7.6710     3.0440    -0.2000 C.2   1 <1>  -0.0260 
 12 C        6.6870     5.1490     0.2360 C.2   1 <1>  -0.1690 
 13 N        7.8120     4.3960    -0.0010 N.pl3 1 <1>   0.6010 
 14 C        8.9200     2.5620    -0.4010 C.2   1 <1>  -0.1500 
 15 C        6.9230     6.6260     0.4560 C.3   1 <1>   1.1580 
 16 N        9.1030     4.7690    -0.0700 N.2   1 <1>  -0.7070 
 17 C        9.7790     3.6530    -0.3130 C.2   1 <1>   0.2030 
 18 F        5.7810     7.2680     0.6700 F     1 <1>  -0.3400 
 19 F        7.6840     6.8820     1.5120 F     1 <1>  -0.3400 
 20 F        7.4830     7.2260    -0.5860 F     1 <1>  -0.3400 
 21 C       11.2250     3.5910    -0.4670 C.2   1 <1>   0.7160 
 22 O       11.8190     2.5530    -0.7030 O.2   1 <1>  -0.5700 
 23 N       11.9620     4.7380    -0.3430 N.am  1 <1>  -0.7300 
 24 C       13.3960     4.9130    -0.6840 C.3   1 <1>   0.1400 
 25 C       14.2830     3.8900     0.0560 C.3   1 <1>   0.3430 
 26 N       15.7400     4.0560    -0.2480 N.4   1 <1>  -0.9590 
 27 C       16.5380     2.8600     0.1880 C.3   1 <1>   0.3430 
 28 C       16.3530     5.3170     0.2990 C.3   1 <1>   0.3430 
 29 C       18.0340     3.0220    -0.1720 C.3   1 <1>   0.1200 
 30 C       17.8790     5.3610     0.0530 C.3   1 <1>   0.1200 
 31 O       18.2920     4.2810    -0.7380 O.3   1 <1>  -0.5600 
 32 H        2.5550    -0.3400     1.2530 H     1 <1>   0.1500 
 33 H        0.8820     2.8530    -1.0160 H     1 <1>   0.1500 
 34 H        4.7680     0.7630     1.1770 H     1 <1>   0.1500 
 35 H        3.0840     3.9550    -1.1050 H     1 <1>   0.1500 
 36 H        4.5670     5.0340     0.4460 H     1 <1>   0.1500 
 37 H        9.2010     1.5420    -0.5910 H     1 <1>   0.1500 
 38 H       11.3920     5.5870    -0.2270 H     1 <1>   0.3700 
 39 H       13.6870     5.9130    -0.4160 H     1 <1>   0.0800 
 40 H       13.5110     4.7880    -1.7480 H     1 <1>   0.0800 
 41 H       13.9780     2.9010    -0.2430 H     1 <1>   0.0800 
 42 H       14.1190     3.9840     1.1170 H     1 <1>   0.0800 
 43 H       15.8820     4.0970    -1.2690 H     1 <1>   0.4500 
 44 H       16.1580     1.9680    -0.2820 H     1 <1>   0.0800 
 45 H       16.4480     2.7270     1.2540 H     1 <1>   0.0800 
 46 H       16.1690     5.3890     1.3590 H     1 <1>   0.0800 
 47 H       15.9020     6.1780    -0.1670 H     1 <1>   0.0800 
 48 H       18.3240     2.2760    -0.8920 H     1 <1>   0.0800 
 49 H       18.6520     2.9020     0.7010 H     1 <1>   0.0800 
 50 H       18.4180     5.3320     0.9850 H     1 <1>   0.0800 
 51 H       18.1470     6.2680    -0.4610 H     1 <1>   0.0800 
@<TRIPOS>BOND
  1   1   2  1   
  2   2   3  ar  
  3   2   4  ar  
  4   3   5  ar  
  5   3  32  1   
  6   4   6  ar  
  7   4  33  1   
  8   5   7  ar  
  9   5  34  1   
 10   6   7  ar  
 11   6  35  1   
 12   7   8  1   
 13   8   9  2   
 14   8  10  1   
 15   9  11  1   
 16  10  12  2   
 17  10  36  1   
 18  11  13  1   
 19  11  14  2   
 20  12  13  1   
 21  12  15  1   
 22  13  16  1   
 23  14  17  1   
 24  14  37  1   
 25  15  18  1   
 26  15  19  1   
 27  15  20  1   
 28  16  17  2   
 29  17  21  1   
 30  21  22  2   
 31  21  23  am  
 32  23  24  1   
 33  23  38  1   
 34  24  25  1   
 35  24  39  1   
 36  24  40  1   
 37  25  26  1   
 38  25  41  1   
 39  25  42  1   
 40  26  27  1   
 41  26  28  1   
 42  26  43  1   
 43  27  29  1   
 44  27  44  1   
 45  27  45  1   
 46  28  30  1   
 47  28  46  1   
 48  28  47  1   
 49  29  31  1   
 50  29  48  1   
 51  29  49  1   
 52  30  31  1   
 53  30  50  1   
 54  30  51  1   
@<TRIPOS>SUBSTRUCTURE
  1 ****  17 GROUP 4 **** **** 0

# MOE 2024.06 (io_trps.svl 2023.06)
