@<TRIPOS>MOLECULE
NONAME
44 47 1 0 0 
SMALL
USER_CHARGES


@<TRIPOS>ATOM
  1 CL      -0.6140     0.0030    -1.2650 Cl    1 <1>  -0.1770 
  2 C       -1.6860     1.2750    -0.7370 C.ar  1 <1>   0.1770 
  3 C       -2.9720     1.3300    -1.2380 C.ar  1 <1>  -0.1500 
  4 C       -1.2350     2.2080     0.1760 C.ar  1 <1>  -0.1500 
  5 C       -3.8200     2.3410    -0.8190 C.ar  1 <1>  -0.1500 
  6 C       -2.0880     3.2160     0.5910 C.ar  1 <1>  -0.1500 
  7 C       -3.3910     3.3020     0.0980 C.ar  1 <1>  -0.0230 
  8 N       -4.2560     4.3500     0.5340 N.pl3 1 <1>   0.5930 
  9 N       -4.2130     4.8520     1.8100 N.2   1 <1>  -0.7070 
 10 C       -5.2130     5.0210    -0.1960 C.ar  1 <1>   0.1050 
 11 C       -5.1050     5.7820     1.8530 C.2   1 <1>   0.1390 
 12 N       -5.6020     4.8920    -1.4780 N.ar  1 <1>  -0.5670 
 13 C       -5.7740     5.9440     0.6360 C.ar  1 <1>   0.0000 
 14 C       -6.5520     5.7110    -1.8540 C.ar  1 <1>   0.4700 
 15 C       -6.7860     6.7590     0.1200 C.ar  1 <1>   0.4100 
 16 N       -7.1830     6.6470    -1.1240 N.ar  1 <1>  -0.6200 
 17 N       -7.4120     7.6960     0.9020 N.pl3 1 <1>  -0.8380 
 18 C       -7.3250     9.1200     0.4580 C.3   1 <1>   0.2090 
 19 C       -8.7380     7.3140     1.4680 C.3   1 <1>   0.2090 
 20 C       -8.4910     9.4820    -0.4910 C.3   1 <1>   0.3430 
 21 C       -9.8830     7.6920     0.5010 C.3   1 <1>   0.3430 
 22 N       -9.8450     9.1470     0.0890 N.4   1 <1>  -0.9590 
 23 C      -10.9180     9.4810    -0.8810 C.3   1 <1>   0.3430 
 24 C      -12.2670     9.4910    -0.1720 C.3   1 <1>  -0.2400 
 25 H       -3.3010     0.5920    -1.9470 H     1 <1>   0.1500 
 26 H       -0.2310     2.1430     0.5560 H     1 <1>   0.1500 
 27 H       -4.8220     2.3760    -1.2120 H     1 <1>   0.1500 
 28 H       -1.7410     3.9430     1.3070 H     1 <1>   0.1500 
 29 H       -5.3190     6.3760     2.7260 H     1 <1>   0.1500 
 30 H       -6.8760     5.6280    -2.8790 H     1 <1>   0.1500 
 31 H       -6.3920     9.2780    -0.0560 H     1 <1>   0.0800 
 32 H       -7.3360     9.7650     1.3190 H     1 <1>   0.0800 
 33 H       -8.8790     7.8030     2.4160 H     1 <1>   0.0800 
 34 H       -8.7610     6.2510     1.6430 H     1 <1>   0.0800 
 35 H       -8.3500     8.9350    -1.4080 H     1 <1>   0.0800 
 36 H       -8.4400    10.5330    -0.7230 H     1 <1>   0.0800 
 37 H      -10.8240     7.4650     0.9710 H     1 <1>   0.0800 
 38 H       -9.7930     7.0710    -0.3750 H     1 <1>   0.0800 
 39 H       -9.9780     9.7200     0.9310 H     1 <1>   0.4500 
 40 H      -10.9270     8.7660    -1.6890 H     1 <1>   0.0800 
 41 H      -10.7380    10.4590    -1.2990 H     1 <1>   0.0800 
 42 H      -12.5370     8.5120     0.1800 H     1 <1>   0.0800 
 43 H      -13.0250     9.8040    -0.8680 H     1 <1>   0.0800 
 44 H      -12.2660    10.1870     0.6480 H     1 <1>   0.0800 
@<TRIPOS>BOND
  1   1   2  1   
  2   2   3  ar  
  3   2   4  ar  
  4   3   5  ar  
  5   3  25  1   
  6   4   6  ar  
  7   4  26  1   
  8   5   7  ar  
  9   5  27  1   
 10   6   7  ar  
 11   6  28  1   
 12   7   8  1   
 13   8   9  1   
 14   8  10  1   
 15   9  11  2   
 16  10  12  ar  
 17  10  13  ar  
 18  11  13  1   
 19  11  29  1   
 20  12  14  ar  
 21  13  15  ar  
 22  14  16  ar  
 23  14  30  1   
 24  15  16  ar  
 25  15  17  1   
 26  17  18  1   
 27  17  19  1   
 28  18  20  1   
 29  18  31  1   
 30  18  32  1   
 31  19  21  1   
 32  19  33  1   
 33  19  34  1   
 34  20  22  1   
 35  20  35  1   
 36  20  36  1   
 37  21  22  1   
 38  21  37  1   
 39  21  38  1   
 40  22  23  1   
 41  22  39  1   
 42  23  24  1   
 43  23  40  1   
 44  23  41  1   
 45  24  42  1   
 46  24  43  1   
 47  24  44  1   
@<TRIPOS>SUBSTRUCTURE
  1 ****  13 GROUP 4 **** **** 0

# MOE 2024.06 (io_trps.svl 2023.06)
