@<TRIPOS>MOLECULE
NONAME
30 30 1 0 0 
SMALL
USER_CHARGES


@<TRIPOS>ATOM
  1 BR      -0.6580     1.1340     0.9880 Br    1 <1>  -0.1110 
  2 C        1.1620     1.5860     0.5640 C.ar  1 <1>   0.1110 
  3 C        2.1550     1.2800     1.4720 C.ar  1 <1>  -0.1500 
  4 C        1.4330     2.2070    -0.6390 C.ar  1 <1>  -0.1500 
  5 C        3.4630     1.6090     1.1560 C.ar  1 <1>  -0.1500 
  6 C        2.7470     2.5280    -0.9360 C.ar  1 <1>  -0.1500 
  7 C        3.7820     2.2330    -0.0490 C.ar  1 <1>  -0.0090 
  8 S        5.5020     2.6590    -0.4450 S.o2  1 <1>   1.4470 
  9 O        5.6640     2.8470    -1.8690 O.2   1 <1>  -0.6500 
 10 O        5.9490     3.6970     0.4590 O.2   1 <1>  -0.6500 
 11 N        6.3600     1.2510    -0.0540 N.am  1 <1>  -0.8490 
 12 C        7.8260     1.5120     0.0400 C.3   1 <1>   0.2570 
 13 C        6.0700     0.1490    -0.9720 C.3   1 <1>   0.1960 
 14 C        8.3490     1.7330     1.4690 C.2   1 <1>   0.5690 
 15 C        6.3480    -1.1820    -0.2780 C.3   1 <1>  -0.2400 
 16 O        9.1860     0.9900     1.9160 O.2   1 <1>  -0.5700 
 17 N        7.8950     2.7570     2.2180 N.am  1 <1>  -0.8000 
 18 H        1.9100     0.7980     2.4020 H     1 <1>   0.1500 
 19 H        0.6340     2.4340    -1.3240 H     1 <1>   0.1500 
 20 H        4.2520     1.3780     1.8540 H     1 <1>   0.1500 
 21 H        2.9740     3.0140    -1.8710 H     1 <1>   0.1500 
 22 H        8.0910     2.3680    -0.5560 H     1 <1>   0.0800 
 23 H        8.3780     0.6800    -0.3600 H     1 <1>   0.0800 
 24 H        6.6520     0.2440    -1.8760 H     1 <1>   0.0800 
 25 H        5.0280     0.1650    -1.2500 H     1 <1>   0.0800 
 26 H        7.3870    -1.2890    -0.0290 H     1 <1>   0.0800 
 27 H        6.0750    -1.9920    -0.9300 H     1 <1>   0.0800 
 28 H        5.7610    -1.2580     0.6200 H     1 <1>   0.0800 
 29 H        8.2360     2.9020     3.1670 H     1 <1>   0.3700 
 30 H        7.1660     3.3980     1.8710 H     1 <1>   0.3700 
@<TRIPOS>BOND
  1   1   2  1   
  2   2   3  ar  
  3   2   4  ar  
  4   3   5  ar  
  5   3  18  1   
  6   4   6  ar  
  7   4  19  1   
  8   5   7  ar  
  9   5  20  1   
 10   6   7  ar  
 11   6  21  1   
 12   7   8  1   
 13   8   9  2   
 14   8  10  2   
 15   8  11  am  
 16  11  12  1   
 17  11  13  1   
 18  12  14  1   
 19  12  22  1   
 20  12  23  1   
 21  13  15  1   
 22  13  24  1   
 23  13  25  1   
 24  14  16  2   
 25  14  17  am  
 26  15  26  1   
 27  15  27  1   
 28  15  28  1   
 29  17  29  1   
 30  17  30  1   
@<TRIPOS>SUBSTRUCTURE
  1 ****   7 GROUP 4 **** **** 0

# MOE 2024.06 (io_trps.svl 2023.06)
