@<TRIPOS>MOLECULE
NONAME
43 44 1 0 0 
SMALL
USER_CHARGES


@<TRIPOS>ATOM
  1 O       -0.7790     0.6730     0.8920 O.3   1 <1>  -0.3630 
  2 C        0.4590     1.0330     0.4480 C.ar  1 <1>   0.0830 
  3 C       -1.9410     1.1690     0.2600 C.3   1 <1>   0.1200 
  4 C        0.8070     2.3040    -0.0400 C.ar  1 <1>   0.0830 
  5 C        1.4180     0.0350     0.5090 C.ar  1 <1>  -0.1500 
  6 C       -3.0860     0.2040     0.5440 C.3   1 <1>   0.1200 
  7 O       -0.1250     3.3020    -0.0580 O.3   1 <1>  -0.3630 
  8 C        2.1120     2.5200    -0.4800 C.ar  1 <1>  -0.1500 
  9 C        2.7110     0.2660     0.0750 C.ar  1 <1>  -0.1500 
 10 O       -4.2490     0.6840    -0.0950 O.3   1 <1>  -0.3630 
 11 C        0.2060     4.6310    -0.3950 C.3   1 <1>   0.0400 
 12 C        3.0550     1.5080    -0.4230 C.ar  1 <1>  -0.1500 
 13 C       -5.4230     0.0090    -0.0120 C.ar  1 <1>   0.0830 
 14 C       -6.5050     0.5520    -0.6830 C.ar  1 <1>  -0.1500 
 15 C       -5.5900    -1.1770     0.6980 C.ar  1 <1>  -0.1500 
 16 C       -7.7390    -0.0730    -0.6500 C.ar  1 <1>  -0.1500 
 17 C       -6.8260    -1.7990     0.7280 C.ar  1 <1>  -0.1500 
 18 C       -7.9120    -1.2560     0.0560 C.ar  1 <1>  -0.1430 
 19 C       -9.2670    -1.9600     0.1030 C.3   1 <1>   0.0630 
 20 C       -9.7100    -2.3870    -1.3000 C.3   1 <1>  -0.2400 
 21 C      -10.3240    -1.0680     0.7600 C.3   1 <1>  -0.2400 
 22 H       -1.7550     1.2340    -0.7980 H     1 <1>   0.0800 
 23 H       -2.1600     2.1380     0.6690 H     1 <1>   0.0800 
 24 H        1.1440    -0.9290     0.8970 H     1 <1>   0.1500 
 25 H       -3.2760     0.1550     1.6020 H     1 <1>   0.0800 
 26 H       -2.8590    -0.7690     0.1470 H     1 <1>   0.0800 
 27 H        2.4210     3.4700    -0.8710 H     1 <1>   0.1500 
 28 H        3.4440    -0.5200     0.1250 H     1 <1>   0.1500 
 29 H       -0.6760     5.2340    -0.2760 H     1 <1>   0.0800 
 30 H        0.5330     4.6620    -1.4190 H     1 <1>   0.0800 
 31 H        0.9780     4.9780     0.2700 H     1 <1>   0.0800 
 32 H        4.0600     1.6890    -0.7650 H     1 <1>   0.1500 
 33 H       -6.3750     1.4680    -1.2300 H     1 <1>   0.1500 
 34 H       -4.7750    -1.6280     1.2300 H     1 <1>   0.1500 
 35 H       -8.5640     0.3680    -1.1790 H     1 <1>   0.1500 
 36 H       -6.9370    -2.7150     1.2810 H     1 <1>   0.1500 
 37 H       -9.1730    -2.8510     0.7010 H     1 <1>   0.0800 
 38 H       -9.8680    -1.5300    -1.9300 H     1 <1>   0.0800 
 39 H      -10.6250    -2.9490    -1.2470 H     1 <1>   0.0800 
 40 H       -8.9530    -3.0060    -1.7490 H     1 <1>   0.0800 
 41 H      -10.4960    -0.1830     0.1750 H     1 <1>   0.0800 
 42 H       -9.9940    -0.7720     1.7400 H     1 <1>   0.0800 
 43 H      -11.2530    -1.6010     0.8580 H     1 <1>   0.0800 
@<TRIPOS>BOND
  1   1   2  1   
  2   1   3  1   
  3   2   4  ar  
  4   2   5  ar  
  5   3   6  1   
  6   3  22  1   
  7   3  23  1   
  8   4   7  1   
  9   4   8  ar  
 10   5   9  ar  
 11   5  24  1   
 12   6  10  1   
 13   6  25  1   
 14   6  26  1   
 15   7  11  1   
 16   8  12  ar  
 17   8  27  1   
 18   9  12  ar  
 19   9  28  1   
 20  10  13  1   
 21  11  29  1   
 22  11  30  1   
 23  11  31  1   
 24  12  32  1   
 25  13  14  ar  
 26  13  15  ar  
 27  14  16  ar  
 28  14  33  1   
 29  15  17  ar  
 30  15  34  1   
 31  16  18  ar  
 32  16  35  1   
 33  17  18  ar  
 34  17  36  1   
 35  18  19  1   
 36  19  20  1   
 37  19  21  1   
 38  19  37  1   
 39  20  38  1   
 40  20  39  1   
 41  20  40  1   
 42  21  41  1   
 43  21  42  1   
 44  21  43  1   
@<TRIPOS>SUBSTRUCTURE
  1 ****   6 GROUP 4 **** **** 0

# MOE 2024.06 (io_trps.svl 2023.06)
