@<TRIPOS>MOLECULE
NONAME
40 42 1 0 0 
SMALL
USER_CHARGES


@<TRIPOS>ATOM
  1 CL      -0.6390    -0.4510    -1.0350 Cl    1 <1>  -0.1770 
  2 C       -2.1270    -1.1740    -0.4680 C.ar  1 <1>   0.1770 
  3 C       -2.5150    -2.4050    -0.9630 C.ar  1 <1>  -0.1500 
  4 C       -2.8940    -0.5040     0.4660 C.ar  1 <1>  -0.1500 
  5 C       -3.6940    -2.9730    -0.5130 C.ar  1 <1>  -0.1500 
  6 C       -4.0700    -1.0820     0.9110 C.ar  1 <1>  -0.1500 
  7 C       -4.4850    -2.3200     0.4300 C.ar  1 <1>   0.1000 
  8 N       -5.6760    -2.8670     0.9010 N.pl3 1 <1>  -0.8380 
  9 C       -5.7910    -4.3220     1.2260 C.3   1 <1>   0.2090 
 10 C       -6.9660    -2.2310     0.4990 C.3   1 <1>   0.2090 
 11 C       -6.5950    -5.0940     0.1590 C.3   1 <1>   0.1100 
 12 C       -7.7100    -3.0740    -0.5540 C.3   1 <1>   0.1100 
 13 N       -7.9120    -4.4780    -0.1140 N.3   1 <1>  -0.8100 
 14 C       -8.6590    -5.2570    -1.1470 C.3   1 <1>   0.1710 
 15 C      -10.1460    -4.9050    -1.2420 C.2   1 <1>   0.5690 
 16 O      -10.7350    -5.0910    -2.2820 O.2   1 <1>  -0.5700 
 17 N      -10.7420    -4.3910    -0.1350 N.am  1 <1>  -0.5790 
 18 C      -12.1400    -3.9690     0.0010 C.3   1 <1>   0.0490 
 19 C      -12.4270    -2.7500     0.8130 C.3   1 <1>  -0.2000 
 20 C      -12.7870    -4.1080     1.3380 C.3   1 <1>  -0.2000 
 21 H       -1.9000    -2.9050    -1.6900 H     1 <1>   0.1500 
 22 H       -2.5720     0.4520     0.8380 H     1 <1>   0.1500 
 23 H       -4.0060    -3.9240    -0.8970 H     1 <1>   0.1500 
 24 H       -4.6780    -0.5830     1.6420 H     1 <1>   0.1500 
 25 H       -6.2850    -4.4240     2.1760 H     1 <1>   0.0800 
 26 H       -4.8090    -4.7500     1.3220 H     1 <1>   0.0800 
 27 H       -6.7770    -1.2500     0.0990 H     1 <1>   0.0800 
 28 H       -7.5880    -2.1210     1.3690 H     1 <1>   0.0800 
 29 H       -6.7380    -6.1020     0.5050 H     1 <1>   0.0800 
 30 H       -6.0180    -5.1340    -0.7490 H     1 <1>   0.0800 
 31 H       -7.1420    -3.0560    -1.4690 H     1 <1>   0.0800 
 32 H       -8.6620    -2.6120    -0.7480 H     1 <1>   0.0800 
 33 H       -8.6040    -6.3040    -0.9090 H     1 <1>   0.0800 
 34 H       -8.2080    -5.1150    -2.1130 H     1 <1>   0.0800 
 35 H      -10.1270    -4.2330     0.6680 H     1 <1>   0.3700 
 36 H      -12.7290    -4.1550    -0.8840 H     1 <1>   0.1000 
 37 H      -13.2240    -2.0990     0.4990 H     1 <1>   0.1000 
 38 H      -11.6060    -2.2170     1.2590 H     1 <1>   0.1000 
 39 H      -12.2170    -4.5260     2.1480 H     1 <1>   0.1000 
 40 H      -13.8280    -4.3780     1.3790 H     1 <1>   0.1000 
@<TRIPOS>BOND
  1   1   2  1   
  2   2   3  ar  
  3   2   4  ar  
  4   3   5  ar  
  5   3  21  1   
  6   4   6  ar  
  7   4  22  1   
  8   5   7  ar  
  9   5  23  1   
 10   6   7  ar  
 11   6  24  1   
 12   7   8  1   
 13   8   9  1   
 14   8  10  1   
 15   9  11  1   
 16   9  25  1   
 17   9  26  1   
 18  10  12  1   
 19  10  27  1   
 20  10  28  1   
 21  11  13  1   
 22  11  29  1   
 23  11  30  1   
 24  12  13  1   
 25  12  31  1   
 26  12  32  1   
 27  13  14  1   
 28  14  15  1   
 29  14  33  1   
 30  14  34  1   
 31  15  16  2   
 32  15  17  am  
 33  17  18  1   
 34  17  35  1   
 35  18  19  1   
 36  18  20  1   
 37  18  36  1   
 38  19  20  1   
 39  19  37  1   
 40  19  38  1   
 41  20  39  1   
 42  20  40  1   
@<TRIPOS>SUBSTRUCTURE
  1 ****  12 GROUP 4 **** **** 0

# MOE 2024.06 (io_trps.svl 2023.06)
