@<TRIPOS>MOLECULE
NONAME
43 44 1 0 0 
SMALL
USER_CHARGES


@<TRIPOS>ATOM
  1 S        0.3960     0.0930    -0.4950 S.3   1 <1>  -0.2860 
  2 C       -1.1960     0.7100    -1.0510 C.2   1 <1>   0.2420 
  3 C        1.1640    -0.5260    -2.0730 C.3   1 <1>   0.1310 
  4 N       -1.5670     0.7070    -2.2810 N.2   1 <1>  -0.3380 
  5 N       -2.1060     1.2170    -0.2190 N.pl3 1 <1>   0.0480 
  6 C        2.5790    -1.0340    -1.8500 C.2   1 <1>   0.5690 
  7 N       -2.7940     1.2380    -2.2900 N.2   1 <1>  -0.3380 
  8 C       -3.0960     1.5320    -1.0690 C.2   1 <1>   0.0060 
  9 C       -2.0300     1.3810     1.2490 C.3   1 <1>   0.0960 
 10 O        3.0170    -1.8380    -2.6360 O.2   1 <1>  -0.5700 
 11 N        3.2880    -0.5500    -0.7850 N.am  1 <1>  -0.5470 
 12 C       -4.4140     2.1570    -0.6550 C.3   1 <1>  -0.0600 
 13 C       -2.5410     0.1240     1.9610 C.3   1 <1>  -0.2400 
 14 C        4.5930    -0.7660    -0.3020 C.ar  1 <1>   0.1170 
 15 C        4.9520    -0.1640     0.9100 C.ar  1 <1>   0.0830 
 16 C        5.5360    -1.5380    -0.9700 C.ar  1 <1>  -0.1500 
 17 O        3.9980     0.5940     1.5370 O.3   1 <1>  -0.3630 
 18 C        6.2300    -0.3460     1.4280 C.ar  1 <1>  -0.1500 
 19 C        6.8090    -1.7200    -0.4570 C.ar  1 <1>   0.0830 
 20 C        4.2660     1.2290     2.7680 C.3   1 <1>   0.0400 
 21 C        7.1550    -1.1200     0.7490 C.ar  1 <1>  -0.1500 
 22 O        7.6580    -2.4920    -1.1860 O.3   1 <1>  -0.3630 
 23 C        8.9710    -2.7520    -0.7450 C.3   1 <1>   0.0400 
 24 H        1.1670     0.2910    -2.7700 H     1 <1>   0.0800 
 25 H        0.5360    -1.3150    -2.4420 H     1 <1>   0.0800 
 26 H       -2.6180     2.2330     1.5370 H     1 <1>   0.0800 
 27 H       -1.0070     1.5700     1.5260 H     1 <1>   0.0800 
 28 H        2.7580     0.0700    -0.1660 H     1 <1>   0.3700 
 29 H       -4.9210     1.5240     0.0490 H     1 <1>   0.0800 
 30 H       -5.0440     2.2820    -1.5190 H     1 <1>   0.0800 
 31 H       -4.2450     3.1220    -0.2140 H     1 <1>   0.0800 
 32 H       -3.5660    -0.0690     1.6980 H     1 <1>   0.0800 
 33 H       -2.4810     0.2590     3.0260 H     1 <1>   0.0800 
 34 H       -1.9400    -0.7270     1.6930 H     1 <1>   0.0800 
 35 H        5.2960    -2.0110    -1.9030 H     1 <1>   0.1500 
 36 H        6.5300     0.1030     2.3550 H     1 <1>   0.1500 
 37 H        3.3810     1.7580     3.0720 H     1 <1>   0.0800 
 38 H        5.0780     1.9220     2.6350 H     1 <1>   0.0800 
 39 H        4.5120     0.4810     3.5020 H     1 <1>   0.0800 
 40 H        8.1340    -1.2430     1.1720 H     1 <1>   0.1500 
 41 H        9.4480    -3.3830    -1.4730 H     1 <1>   0.0800 
 42 H        8.9280    -3.2570     0.2040 H     1 <1>   0.0800 
 43 H        9.5040    -1.8210    -0.6640 H     1 <1>   0.0800 
@<TRIPOS>BOND
  1   1   2  1   
  2   1   3  1   
  3   2   4  2   
  4   2   5  1   
  5   3   6  1   
  6   3  24  1   
  7   3  25  1   
  8   4   7  1   
  9   5   8  1   
 10   5   9  1   
 11   6  10  2   
 12   6  11  am  
 13   7   8  2   
 14   8  12  1   
 15   9  13  1   
 16   9  26  1   
 17   9  27  1   
 18  11  14  1   
 19  11  28  1   
 20  12  29  1   
 21  12  30  1   
 22  12  31  1   
 23  13  32  1   
 24  13  33  1   
 25  13  34  1   
 26  14  15  ar  
 27  14  16  ar  
 28  15  17  1   
 29  15  18  ar  
 30  16  19  ar  
 31  16  35  1   
 32  17  20  1   
 33  18  21  ar  
 34  18  36  1   
 35  19  21  ar  
 36  19  22  1   
 37  20  37  1   
 38  20  38  1   
 39  20  39  1   
 40  21  40  1   
 41  22  23  1   
 42  23  41  1   
 43  23  42  1   
 44  23  43  1   
@<TRIPOS>SUBSTRUCTURE
  1 ****  11 GROUP 4 **** **** 0

# MOE 2024.06 (io_trps.svl 2023.06)
