@<TRIPOS>MOLECULE
NONAME
24 25 1 0 0 
SMALL
USER_CHARGES


@<TRIPOS>ATOM
  1 O       -0.1290     5.2140    -0.4330 O.co2 1 <1>  -0.9000 
  2 C       -0.4480     4.1540     0.0890 C.2   1 <1>   0.9060 
  3 O        0.3140     3.1810     0.1570 O.co2 1 <1>  -0.9000 
  4 C       -1.8750     3.9410     0.5090 C.3   1 <1>  -0.1860 
  5 C       -2.2830     2.4720     0.3930 C.3   1 <1>   0.5660 
  6 C       -2.9280     4.7440    -0.2830 C.3   1 <1>  -0.0170 
  7 N       -1.6990     1.8370    -0.7880 N.4   1 <1>  -0.8530 
  8 C       -3.7650     2.5490     0.1320 C.ar  1 <1>  -0.1440 
  9 C       -4.1210     3.8160    -0.2660 C.ar  1 <1>  -0.1440 
 10 C       -4.7160     1.5470     0.2350 C.ar  1 <1>  -0.1500 
 11 C       -5.4320     4.1160    -0.5820 C.ar  1 <1>  -0.1500 
 12 C       -6.0340     1.8410    -0.0790 C.ar  1 <1>  -0.1500 
 13 C       -6.3890     3.1180    -0.4880 C.ar  1 <1>  -0.1500 
 14 H       -1.9530     4.2240     1.5410 H     1 <1>   0.0800 
 15 H       -2.0390     1.9280     1.2920 H     1 <1>   0.0800 
 16 H       -2.6090     4.9180    -1.2970 H     1 <1>   0.0800 
 17 H       -3.1370     5.6870     0.1920 H     1 <1>   0.0800 
 18 H       -2.0420     2.3160    -1.6200 H     1 <1>   0.4500 
 19 H       -1.8630     0.8360    -0.8210 H     1 <1>   0.4500 
 20 H       -0.6750     2.0470    -0.6960 H     1 <1>   0.4500 
 21 H       -4.4520     0.5540     0.5560 H     1 <1>   0.1500 
 22 H       -5.7070     5.1090    -0.8940 H     1 <1>   0.1500 
 23 H       -6.7890     1.0760    -0.0050 H     1 <1>   0.1500 
 24 H       -7.4150     3.3370    -0.7300 H     1 <1>   0.1500 
@<TRIPOS>BOND
  1   1   2  ar  
  2   2   3  ar  
  3   2   4  1   
  4   4   5  1   
  5   4   6  1   
  6   4  14  1   
  7   5   7  1   
  8   5   8  1   
  9   5  15  1   
 10   6   9  1   
 11   6  16  1   
 12   6  17  1   
 13   7  18  1   
 14   7  19  1   
 15   7  20  1   
 16   8   9  ar  
 17   8  10  ar  
 18   9  11  ar  
 19  10  12  ar  
 20  10  21  1   
 21  11  13  ar  
 22  11  22  1   
 23  12  13  ar  
 24  12  23  1   
 25  13  24  1   
@<TRIPOS>SUBSTRUCTURE
  1 ****   8 GROUP 4 **** **** 0

# MOE 2024.06 (io_trps.svl 2023.06)
