@<TRIPOS>MOLECULE
NONAME
23 25 1 0 0 
SMALL
USER_CHARGES


@<TRIPOS>ATOM
  1 S       -0.1110    -0.1280    -0.6740 S.3   1 <1>  -0.0800 
  2 C       -1.6830     0.5540    -0.2380 C.2   1 <1>   0.0400 
  3 C        0.7000     1.4120    -0.4830 C.2   1 <1>  -0.1100 
  4 C       -2.8240    -0.3240    -0.2250 C.2   1 <1>   0.1860 
  5 C       -1.5160     1.8770     0.0240 C.2   1 <1>  -0.1500 
  6 C       -0.1800     2.3590    -0.1140 C.2   1 <1>  -0.1500 
  7 N       -2.8040    -1.6190    -0.4380 N.2   1 <1>  -0.3380 
  8 N       -4.0890     0.0710     0.0160 N.pl3 1 <1>   0.0480 
  9 N       -4.0540    -2.0840    -0.3320 N.2   1 <1>  -0.3380 
 10 C       -4.7610    -1.0500    -0.0650 C.2   1 <1>   0.2420 
 11 C       -4.8250     1.3080     0.3640 C.3   1 <1>   0.0960 
 12 S       -6.4900    -0.8290     0.2170 S.3   1 <1>  -0.2860 
 13 C       -6.3470     1.0050     0.3520 C.3   1 <1>   0.1500 
 14 C       -7.0740     1.6010    -0.8550 C.3   1 <1>  -0.2400 
 15 H        1.7590     1.4430    -0.6700 H     1 <1>   0.1500 
 16 H       -2.2930     2.5550     0.3190 H     1 <1>   0.1500 
 17 H        0.0630     3.3920     0.0690 H     1 <1>   0.1500 
 18 H       -4.5820     2.0800    -0.3430 H     1 <1>   0.0800 
 19 H       -4.5230     1.6200     1.3470 H     1 <1>   0.0800 
 20 H       -6.8170     1.3020     1.2730 H     1 <1>   0.0800 
 21 H       -6.6330     1.2530    -1.7730 H     1 <1>   0.0800 
 22 H       -7.0240     2.6750    -0.8310 H     1 <1>   0.0800 
 23 H       -8.1100     1.3090    -0.8390 H     1 <1>   0.0800 
@<TRIPOS>BOND
  1   1   2  1   
  2   1   3  1   
  3   2   4  1   
  4   2   5  2   
  5   3   6  2   
  6   3  15  1   
  7   4   7  2   
  8   4   8  1   
  9   5   6  1   
 10   5  16  1   
 11   6  17  1   
 12   7   9  1   
 13   8  10  1   
 14   8  11  1   
 15   9  10  2   
 16  10  12  1   
 17  11  13  1   
 18  11  18  1   
 19  11  19  1   
 20  12  13  1   
 21  13  14  1   
 22  13  20  1   
 23  14  21  1   
 24  14  22  1   
 25  14  23  1   
@<TRIPOS>SUBSTRUCTURE
  1 ****   4 GROUP 4 **** **** 0

# MOE 2024.06 (io_trps.svl 2023.06)
