@<TRIPOS>MOLECULE
NONAME
47 49 1 0 0 
SMALL
USER_CHARGES


@<TRIPOS>ATOM
  1 O        0.0920     2.4380    -2.4250 O.2   1 <1>  -0.5700 
  2 C       -0.2410     2.5350    -1.2660 C.2   1 <1>   0.5690 
  3 N        0.5260     1.9740    -0.2920 N.am  1 <1>  -0.7300 
  4 C       -1.5410     3.2910    -0.8640 C.3   1 <1>   0.2040 
  5 C        1.8780     1.4240    -0.4820 C.3   1 <1>   0.2840 
  6 C       -2.6370     2.3030    -0.3880 C.ar  1 <1>  -0.1440 
  7 C       -1.1850     4.3130     0.2490 C.3   1 <1>  -0.1600 
  8 C       -2.1040     4.1060    -2.0520 C.3   1 <1>  -0.1600 
  9 C        2.8100     2.1840     0.4430 C.ar  1 <1>  -0.1440 
 10 C       -3.7790     2.7630     0.2630 C.ar  1 <1>  -0.1500 
 11 C       -2.5330     0.9310    -0.6130 C.ar  1 <1>  -0.1500 
 12 C       -0.2550     5.4030    -0.2920 C.3   1 <1>   0.1200 
 13 C       -1.1670     5.2530    -2.4550 C.3   1 <1>   0.1200 
 14 C        3.3190     3.4130     0.0520 C.ar  1 <1>  -0.1500 
 15 C        3.1510     1.6690     1.6850 C.ar  1 <1>  -0.1500 
 16 C       -4.7630     1.8940     0.7010 C.ar  1 <1>  -0.1500 
 17 C       -3.5140     0.0580    -0.1770 C.ar  1 <1>  -0.1500 
 18 O       -0.9010     6.0510    -1.3420 O.3   1 <1>  -0.5600 
 19 C        4.1600     4.1210     0.8920 C.ar  1 <1>  -0.1500 
 20 C        3.9930     2.3760     2.5260 C.ar  1 <1>  -0.1500 
 21 C       -4.6320     0.5270     0.4880 C.ar  1 <1>   0.0820 
 22 C        4.4970     3.6030     2.1300 C.ar  1 <1>  -0.1500 
 23 O       -5.5420    -0.3950     0.8870 O.3   1 <1>  -0.3620 
 24 C       -6.7260    -0.0150     1.5510 C.3   1 <1>   0.0400 
 25 H        0.2340     2.0430     0.6830 H     1 <1>   0.3700 
 26 H        2.1950     1.5400    -1.5050 H     1 <1>   0.0800 
 27 H        1.8780     0.3750    -0.2430 H     1 <1>   0.0800 
 28 H       -0.7240     3.8250     1.0870 H     1 <1>   0.0800 
 29 H       -2.0600     4.8120     0.6180 H     1 <1>   0.0800 
 30 H       -3.0570     4.5300    -1.7920 H     1 <1>   0.0800 
 31 H       -2.2620     3.4580    -2.8960 H     1 <1>   0.0800 
 32 H       -3.9320     3.8120     0.4340 H     1 <1>   0.1500 
 33 H       -1.6960     0.5060    -1.1370 H     1 <1>   0.1500 
 34 H        0.6800     5.0040    -0.6490 H     1 <1>   0.0800 
 35 H       -0.0520     6.1370     0.4690 H     1 <1>   0.0800 
 36 H       -1.6340     5.8740    -3.1990 H     1 <1>   0.0800 
 37 H       -0.2320     4.8910    -2.8490 H     1 <1>   0.0800 
 38 H        3.0580     3.8220    -0.9100 H     1 <1>   0.1500 
 39 H        2.7640     0.7170     2.0040 H     1 <1>   0.1500 
 40 H       -5.6220     2.2980     1.2020 H     1 <1>   0.1500 
 41 H       -3.4180    -0.9980    -0.3530 H     1 <1>   0.1500 
 42 H        4.5520     5.0740     0.5820 H     1 <1>   0.1500 
 43 H        4.2560     1.9730     3.4880 H     1 <1>   0.1500 
 44 H        5.1520     4.1520     2.7830 H     1 <1>   0.1500 
 45 H       -7.2900    -0.9050     1.7630 H     1 <1>   0.0800 
 46 H       -7.2940     0.6330     0.9080 H     1 <1>   0.0800 
 47 H       -6.4670     0.4810     2.4700 H     1 <1>   0.0800 
@<TRIPOS>BOND
  1   1   2  2   
  2   2   3  am  
  3   2   4  1   
  4   3   5  1   
  5   3  25  1   
  6   4   6  1   
  7   4   7  1   
  8   4   8  1   
  9   5   9  1   
 10   5  26  1   
 11   5  27  1   
 12   6  10  ar  
 13   6  11  ar  
 14   7  12  1   
 15   7  28  1   
 16   7  29  1   
 17   8  13  1   
 18   8  30  1   
 19   8  31  1   
 20   9  14  ar  
 21   9  15  ar  
 22  10  16  ar  
 23  10  32  1   
 24  11  17  ar  
 25  11  33  1   
 26  12  18  1   
 27  12  34  1   
 28  12  35  1   
 29  13  18  1   
 30  13  36  1   
 31  13  37  1   
 32  14  19  ar  
 33  14  38  1   
 34  15  20  ar  
 35  15  39  1   
 36  16  21  ar  
 37  16  40  1   
 38  17  21  ar  
 39  17  41  1   
 40  19  22  ar  
 41  19  42  1   
 42  20  22  ar  
 43  20  43  1   
 44  21  23  1   
 45  22  44  1   
 46  23  24  1   
 47  24  45  1   
 48  24  46  1   
 49  24  47  1   
@<TRIPOS>SUBSTRUCTURE
  1 ****   2 GROUP 4 **** **** 0

# MOE 2024.06 (io_trps.svl 2023.06)
