@<TRIPOS>MOLECULE
NONAME
54 57 1 0 0 
SMALL
USER_CHARGES


@<TRIPOS>ATOM
  1 O        0.7890     0.5910    -2.1320 O.2   1 <1>  -0.5700 
  2 C        0.5860    -0.4010    -1.4720 C.2   1 <1>   0.4950 
  3 C        1.5770    -1.0680    -0.6980 C.2   1 <1>  -0.1240 
  4 C       -0.8090    -1.0040    -1.5300 C.3   1 <1>  -0.0990 
  5 C        1.3580    -2.2400    -0.0560 C.2   1 <1>  -0.0380 
  6 C        2.9450    -0.3940    -0.5950 C.3   1 <1>   0.3400 
  7 C       -1.1460    -1.8740    -0.2990 C.3   1 <1>   0.0000 
  8 N        2.3660    -2.9020     0.6010 N.pl3 1 <1>  -0.6000 
  9 C       -0.0140    -2.8980    -0.0520 C.3   1 <1>  -0.0220 
 10 C        4.0440    -1.3200    -0.0460 C.2   1 <1>  -0.1240 
 11 C        2.8060     0.8310     0.3140 C.ar  1 <1>  -0.1440 
 12 C       -2.4690    -2.6170    -0.5460 C.3   1 <1>  -0.2400 
 13 C       -1.3250    -0.9760     0.9410 C.3   1 <1>  -0.2400 
 14 C        3.6830    -2.4930     0.5440 C.2   1 <1>  -0.0380 
 15 C        5.3850    -0.8400    -0.2390 C.2   1 <1>   0.6160 
 16 C        2.6090     0.6750     1.6790 C.ar  1 <1>  -0.1500 
 17 C        2.8910     2.1120    -0.2130 C.ar  1 <1>  -0.1500 
 18 C        4.6450    -3.4780     1.1900 C.3   1 <1>  -0.1020 
 19 O        6.2600    -1.6050    -0.5990 O.2   1 <1>  -0.5700 
 20 N        5.6960     0.4790    -0.0280 N.am  1 <1>  -0.5470 
 21 C        2.5140     1.7800     2.5070 C.ar  1 <1>  -0.1500 
 22 C        2.7980     3.2180     0.6140 C.ar  1 <1>  -0.1500 
 23 C        6.8410     1.2310    -0.1810 C.ar  1 <1>   0.4270 
 24 C        2.6120     3.0520     1.9740 C.ar  1 <1>  -0.1500 
 25 N        6.7110     2.4560     0.3080 N.ar  1 <1>  -0.6200 
 26 C        8.0120     0.7790    -0.7900 C.ar  1 <1>  -0.1500 
 27 C        7.7660     3.2460     0.2010 C.ar  1 <1>   0.1600 
 28 C        9.1040     1.6110    -0.8950 C.ar  1 <1>  -0.1500 
 29 C        8.9680     2.8820    -0.3800 C.ar  1 <1>  -0.1500 
 30 H       -0.8630    -1.5990    -2.4230 H     1 <1>   0.0800 
 31 H       -1.5260    -0.2080    -1.6250 H     1 <1>   0.0800 
 32 H        3.2410    -0.0870    -1.5830 H     1 <1>   0.0800 
 33 H        2.1560    -3.7920     1.0690 H     1 <1>   0.4000 
 34 H       -0.1800    -3.3870     0.8920 H     1 <1>   0.0800 
 35 H       -0.0260    -3.6530    -0.8190 H     1 <1>   0.0800 
 36 H       -2.3940    -3.2570    -1.4070 H     1 <1>   0.0800 
 37 H       -3.2700    -1.9170    -0.7160 H     1 <1>   0.0800 
 38 H       -2.7270    -3.2240     0.3040 H     1 <1>   0.0800 
 39 H       -0.4250    -0.4320     1.1680 H     1 <1>   0.0800 
 40 H       -1.5810    -1.5670     1.8030 H     1 <1>   0.0800 
 41 H       -2.1130    -0.2610     0.7800 H     1 <1>   0.0800 
 42 H        2.5290    -0.3120     2.1040 H     1 <1>   0.1500 
 43 H        3.0270     2.2590    -1.2720 H     1 <1>   0.1500 
 44 H        5.6230    -3.0550     1.3240 H     1 <1>   0.0800 
 45 H        4.7350    -4.3540     0.5730 H     1 <1>   0.0800 
 46 H        4.2810    -3.7680     2.1590 H     1 <1>   0.0800 
 47 H        4.9550     1.0390     0.3980 H     1 <1>   0.3700 
 48 H        2.3650     1.6490     3.5640 H     1 <1>   0.1500 
 49 H        2.8710     4.2060     0.1960 H     1 <1>   0.1500 
 50 H        2.5410     3.9130     2.6160 H     1 <1>   0.1500 
 51 H        8.0740    -0.2170    -1.1820 H     1 <1>   0.1500 
 52 H        7.6680     4.2410     0.6000 H     1 <1>   0.1500 
 53 H       10.0190     1.2830    -1.3580 H     1 <1>   0.1500 
 54 H        9.7820     3.5820    -0.4280 H     1 <1>   0.1500 
@<TRIPOS>BOND
  1   1   2  2   
  2   2   3  1   
  3   2   4  1   
  4   3   5  2   
  5   3   6  1   
  6   4   7  1   
  7   4  30  1   
  8   4  31  1   
  9   5   8  1   
 10   5   9  1   
 11   6  10  1   
 12   6  11  1   
 13   6  32  1   
 14   7   9  1   
 15   7  12  1   
 16   7  13  1   
 17   8  14  1   
 18   8  33  1   
 19   9  34  1   
 20   9  35  1   
 21  10  14  2   
 22  10  15  1   
 23  11  16  ar  
 24  11  17  ar  
 25  12  36  1   
 26  12  37  1   
 27  12  38  1   
 28  13  39  1   
 29  13  40  1   
 30  13  41  1   
 31  14  18  1   
 32  15  19  2   
 33  15  20  am  
 34  16  21  ar  
 35  16  42  1   
 36  17  22  ar  
 37  17  43  1   
 38  18  44  1   
 39  18  45  1   
 40  18  46  1   
 41  20  23  1   
 42  20  47  1   
 43  21  24  ar  
 44  21  48  1   
 45  22  24  ar  
 46  22  49  1   
 47  23  25  ar  
 48  23  26  ar  
 49  24  50  1   
 50  25  27  ar  
 51  26  28  ar  
 52  26  51  1   
 53  27  29  ar  
 54  27  52  1   
 55  28  29  ar  
 56  28  53  1   
 57  29  54  1   
@<TRIPOS>SUBSTRUCTURE
  1 ****   6 GROUP 4 **** **** 0

# MOE 2024.06 (io_trps.svl 2023.06)
