@<TRIPOS>MOLECULE
NONAME
37 39 1 0 0 
SMALL
USER_CHARGES


@<TRIPOS>ATOM
  1 S        0.3610    -0.8370    -0.0850 S.3   1 <1>  -0.0800 
  2 C        1.6440     0.3680     0.0400 C.2   1 <1>   0.1040 
  3 C       -0.8710     0.4090    -0.0370 C.2   1 <1>  -0.1400 
  4 N        2.9890    -0.0090     0.0600 N.am  1 <1>  -0.4940 
  5 C        1.1110     1.6150     0.1080 C.2   1 <1>  -0.1810 
  6 C       -0.3240     1.6290     0.0770 C.2   1 <1>  -0.1810 
  7 C       -2.3340     0.0360    -0.1130 C.3   1 <1>   0.0200 
  8 C        3.6500    -1.2160     0.0440 C.2   1 <1>   0.5440 
  9 C        1.9090     2.9060     0.2320 C.3   1 <1>   0.3010 
 10 C       -1.2010     2.8710     0.1570 C.3   1 <1>   0.0210 
 11 C       -3.1640     1.3070    -0.3680 C.3   1 <1>  -0.1600 
 12 O        3.0350    -2.2590    -0.0570 O.2   1 <1>  -0.5700 
 13 C        5.1010    -1.2290     0.1270 C.ar  1 <1>   0.0860 
 14 O        3.0930     2.7900    -0.4800 O.3   1 <1>  -0.6800 
 15 C       -2.6650     2.4990     0.4740 C.3   1 <1>  -0.1600 
 16 C        5.8230    -0.2010     0.7420 C.ar  1 <1>  -0.1500 
 17 C        5.8360    -2.2850    -0.4150 C.ar  1 <1>  -0.1500 
 18 C        7.2050    -0.2210     0.7980 C.ar  1 <1>  -0.1500 
 19 C        7.2180    -2.3120    -0.3610 C.ar  1 <1>  -0.1500 
 20 C        7.9060    -1.2770     0.2450 C.ar  1 <1>  -0.1500 
 21 H        3.6050     0.8070     0.0560 H     1 <1>   0.3700 
 22 H       -2.6240    -0.4180     0.8190 H     1 <1>   0.0800 
 23 H       -2.4940    -0.6740    -0.9050 H     1 <1>   0.0800 
 24 H        2.1480     3.1080     1.2620 H     1 <1>   0.0800 
 25 H        1.3660     3.7390    -0.1780 H     1 <1>   0.0800 
 26 H       -1.1580     3.3860    -0.7870 H     1 <1>   0.0800 
 27 H       -0.8370     3.5320     0.9230 H     1 <1>   0.0800 
 28 H       -4.1990     1.1080    -0.1490 H     1 <1>   0.0800 
 29 H       -3.0910     1.5650    -1.4100 H     1 <1>   0.0800 
 30 H        2.8710     2.5600    -1.4050 H     1 <1>   0.4000 
 31 H       -3.2950     3.3540     0.3040 H     1 <1>   0.0800 
 32 H       -2.7380     2.2390     1.5160 H     1 <1>   0.0800 
 33 H        5.3040     0.6260     1.1920 H     1 <1>   0.1500 
 34 H        5.3080    -3.0970    -0.8860 H     1 <1>   0.1500 
 35 H        7.7380     0.5830     1.2750 H     1 <1>   0.1500 
 36 H        7.7570    -3.1400    -0.7890 H     1 <1>   0.1500 
 37 H        8.9820    -1.2950     0.2880 H     1 <1>   0.1500 
@<TRIPOS>BOND
  1   1   2  1   
  2   1   3  1   
  3   2   4  1   
  4   2   5  2   
  5   3   6  2   
  6   3   7  1   
  7   4   8  am  
  8   4  21  1   
  9   5   6  1   
 10   5   9  1   
 11   6  10  1   
 12   7  11  1   
 13   7  22  1   
 14   7  23  1   
 15   8  12  2   
 16   8  13  1   
 17   9  14  1   
 18   9  24  1   
 19   9  25  1   
 20  10  15  1   
 21  10  26  1   
 22  10  27  1   
 23  11  15  1   
 24  11  28  1   
 25  11  29  1   
 26  13  16  ar  
 27  13  17  ar  
 28  14  30  1   
 29  15  31  1   
 30  15  32  1   
 31  16  18  ar  
 32  16  33  1   
 33  17  19  ar  
 34  17  34  1   
 35  18  20  ar  
 36  18  35  1   
 37  19  20  ar  
 38  19  36  1   
 39  20  37  1   
@<TRIPOS>SUBSTRUCTURE
  1 ****   2 GROUP 4 **** **** 0

# MOE 2024.06 (io_trps.svl 2023.06)
