@<TRIPOS>MOLECULE
NONAME
37 37 1 0 0 
SMALL
USER_CHARGES


@<TRIPOS>ATOM
  1 CL      -0.2030     1.0450    -1.2240 Cl    1 <1>  -0.1770 
  2 C        0.7170     2.3410    -0.4950 C.ar  1 <1>   0.1770 
  3 C        0.1430     3.5900    -0.3000 C.ar  1 <1>   0.0820 
  4 C        2.0260     2.0840    -0.1230 C.ar  1 <1>  -0.1500 
  5 O       -1.1240     3.8440    -0.7000 O.3   1 <1>  -0.3630 
  6 C        0.9200     4.5800     0.2850 C.ar  1 <1>   0.1770 
  7 C        2.7970     3.0860     0.4560 C.ar  1 <1>  -0.1440 
  8 C       -2.1430     3.6070     0.2430 C.3   1 <1>   0.1200 
  9 CL       0.2630     6.1760     0.5640 Cl    1 <1>  -0.1770 
 10 C        2.2300     4.3390     0.6630 C.ar  1 <1>  -0.1500 
 11 C        4.2360     2.8180     0.8500 C.3   1 <1>   0.4870 
 12 C       -3.4830     3.9550    -0.4040 C.3   1 <1>  -0.1600 
 13 N        5.0760     3.1500    -0.3210 N.4   1 <1>  -0.9060 
 14 C       -4.6460     3.7210     0.5680 C.3   1 <1>  -0.1600 
 15 C        6.5200     2.9390    -0.0910 C.3   1 <1>   0.3430 
 16 C       -5.9860     4.0710    -0.0850 C.3   1 <1>  -0.2400 
 17 C        7.2600     3.3150    -1.3650 C.3   1 <1>  -0.2400 
 18 H        2.4170     1.0950    -0.2930 H     1 <1>   0.1500 
 19 H       -1.9620     4.2280     1.1040 H     1 <1>   0.0800 
 20 H       -2.1130     2.5690     0.5250 H     1 <1>   0.0800 
 21 H        2.7840     5.1430     1.1180 H     1 <1>   0.1500 
 22 H        4.3580     1.7810     1.1200 H     1 <1>   0.0800 
 23 H        4.5070     3.4310     1.6950 H     1 <1>   0.0800 
 24 H       -3.6180     3.3430    -1.2790 H     1 <1>   0.0800 
 25 H       -3.4690     4.9890    -0.7050 H     1 <1>   0.0800 
 26 H        4.9020     4.1280    -0.5830 H     1 <1>   0.4500 
 27 H        4.7620     2.5860    -1.1200 H     1 <1>   0.4500 
 28 H       -4.5120     4.3300     1.4470 H     1 <1>   0.0800 
 29 H       -4.6610     2.6890     0.8740 H     1 <1>   0.0800 
 30 H        6.7140     1.9050     0.1500 H     1 <1>   0.0800 
 31 H        6.8640     3.5550     0.7250 H     1 <1>   0.0800 
 32 H       -6.0020     5.1060    -0.3810 H     1 <1>   0.0800 
 33 H       -6.7900     3.9020     0.6090 H     1 <1>   0.0800 
 34 H       -6.1510     3.4600    -0.9550 H     1 <1>   0.0800 
 35 H        6.9530     2.6950    -2.1890 H     1 <1>   0.0800 
 36 H        8.3160     3.1680    -1.2190 H     1 <1>   0.0800 
 37 H        7.1030     4.3510    -1.6120 H     1 <1>   0.0800 
@<TRIPOS>BOND
  1   1   2  1   
  2   2   3  ar  
  3   2   4  ar  
  4   3   5  1   
  5   3   6  ar  
  6   4   7  ar  
  7   4  18  1   
  8   5   8  1   
  9   6   9  1   
 10   6  10  ar  
 11   7  10  ar  
 12   7  11  1   
 13   8  12  1   
 14   8  19  1   
 15   8  20  1   
 16  10  21  1   
 17  11  13  1   
 18  11  22  1   
 19  11  23  1   
 20  12  14  1   
 21  12  24  1   
 22  12  25  1   
 23  13  15  1   
 24  13  26  1   
 25  13  27  1   
 26  14  16  1   
 27  14  28  1   
 28  14  29  1   
 29  15  17  1   
 30  15  30  1   
 31  15  31  1   
 32  16  32  1   
 33  16  33  1   
 34  16  34  1   
 35  17  35  1   
 36  17  36  1   
 37  17  37  1   
@<TRIPOS>SUBSTRUCTURE
  1 ****   3 GROUP 4 **** **** 0

# MOE 2024.06 (io_trps.svl 2023.06)
