@<TRIPOS>MOLECULE
NONAME
46 48 1 0 0 
SMALL
USER_CHARGES


@<TRIPOS>ATOM
  1 F       -0.5670    -2.3520    -2.1090 F     1 <1>  -0.1900 
  2 C       -1.4290    -2.0910    -1.1540 C.ar  1 <1>   0.1900 
  3 C       -1.1390    -2.4770     0.1610 C.ar  1 <1>   0.1000 
  4 C       -2.5950    -1.4400    -1.5040 C.ar  1 <1>  -0.1500 
  5 N        0.0320    -3.1390     0.5560 N.pl3 1 <1>  -0.8380 
  6 C       -2.0890    -2.1730     1.1280 C.ar  1 <1>  -0.1500 
  7 C       -3.5220    -1.1530    -0.5160 C.ar  1 <1>  -0.1500 
  8 C        1.2810    -2.3220     0.4580 C.3   1 <1>   0.2090 
  9 C        0.1770    -4.5320     0.0360 C.3   1 <1>   0.2090 
 10 C       -3.2660    -1.5200     0.7960 C.ar  1 <1>  -0.1500 
 11 C        2.4770    -3.0520     1.1020 C.3   1 <1>   0.3430 
 12 C        1.3810    -5.2470     0.6850 C.3   1 <1>   0.3430 
 13 N        2.6540    -4.4520     0.5630 N.4   1 <1>  -0.9590 
 14 C        3.8130    -5.1420     1.1890 C.3   1 <1>   0.4860 
 15 C        5.0690    -4.3680     0.8390 C.ar  1 <1>  -0.1430 
 16 C        5.6440    -4.4290    -0.4290 C.ar  1 <1>  -0.1430 
 17 C        5.6460    -3.5700     1.8160 C.ar  1 <1>  -0.1500 
 18 C        6.7710    -3.6670    -0.6960 C.ar  1 <1>  -0.1500 
 19 C        5.0940    -5.3080    -1.5470 C.3   1 <1>  -0.0970 
 20 C        6.7720    -2.8190     1.5360 C.ar  1 <1>  -0.1500 
 21 C        7.3370    -2.8600     0.2750 C.ar  1 <1>  -0.1430 
 22 C        8.5740    -2.0380    -0.0410 C.3   1 <1>  -0.0970 
 23 H       -2.7750    -1.1630    -2.5270 H     1 <1>   0.1500 
 24 H       -1.9010    -2.4530     2.1480 H     1 <1>   0.1500 
 25 H       -4.4390    -0.6450    -0.7660 H     1 <1>   0.1500 
 26 H        1.1270    -1.3810     0.9600 H     1 <1>   0.0800 
 27 H        1.5000    -2.1100    -0.5740 H     1 <1>   0.0800 
 28 H        0.3020    -4.5120    -1.0330 H     1 <1>   0.0800 
 29 H       -0.7230    -5.0820     0.2520 H     1 <1>   0.0800 
 30 H       -3.9880    -1.2960     1.5630 H     1 <1>   0.1500 
 31 H        2.3130    -3.0920     2.1650 H     1 <1>   0.0800 
 32 H        3.3710    -2.4750     0.9260 H     1 <1>   0.0800 
 33 H        1.5030    -6.2130     0.2250 H     1 <1>   0.0800 
 34 H        1.1520    -5.4020     1.7270 H     1 <1>   0.0800 
 35 H        2.8880    -4.3470    -0.4310 H     1 <1>   0.4500 
 36 H        3.8970    -6.1490     0.8160 H     1 <1>   0.0800 
 37 H        3.6910    -5.1820     2.2590 H     1 <1>   0.0800 
 38 H        5.2320    -3.5200     2.8090 H     1 <1>   0.1500 
 39 H        7.2250    -3.7000    -1.6720 H     1 <1>   0.1500 
 40 H        4.2550    -4.8330    -2.0210 H     1 <1>   0.0800 
 41 H        4.8030    -6.2730    -1.1750 H     1 <1>   0.0800 
 42 H        5.8480    -5.4710    -2.2980 H     1 <1>   0.0800 
 43 H        7.2120    -2.2040     2.3030 H     1 <1>   0.1500 
 44 H        9.4540    -2.6430     0.0850 H     1 <1>   0.0800 
 45 H        8.6430    -1.1880     0.6130 H     1 <1>   0.0800 
 46 H        8.5400    -1.6830    -1.0550 H     1 <1>   0.0800 
@<TRIPOS>BOND
  1   1   2  1   
  2   2   3  ar  
  3   2   4  ar  
  4   3   5  1   
  5   3   6  ar  
  6   4   7  ar  
  7   4  23  1   
  8   5   8  1   
  9   5   9  1   
 10   6  10  ar  
 11   6  24  1   
 12   7  10  ar  
 13   7  25  1   
 14   8  11  1   
 15   8  26  1   
 16   8  27  1   
 17   9  12  1   
 18   9  28  1   
 19   9  29  1   
 20  10  30  1   
 21  11  13  1   
 22  11  31  1   
 23  11  32  1   
 24  12  13  1   
 25  12  33  1   
 26  12  34  1   
 27  13  14  1   
 28  13  35  1   
 29  14  15  1   
 30  14  36  1   
 31  14  37  1   
 32  15  16  ar  
 33  15  17  ar  
 34  16  18  ar  
 35  16  19  1   
 36  17  20  ar  
 37  17  38  1   
 38  18  21  ar  
 39  18  39  1   
 40  19  40  1   
 41  19  41  1   
 42  19  42  1   
 43  20  21  ar  
 44  20  43  1   
 45  21  22  1   
 46  22  44  1   
 47  22  45  1   
 48  22  46  1   
@<TRIPOS>SUBSTRUCTURE
  1 ****  11 GROUP 4 **** **** 0

# MOE 2024.06 (io_trps.svl 2023.06)
