@<TRIPOS>MOLECULE
NONAME
50 52 1 0 0 
SMALL
USER_CHARGES


@<TRIPOS>ATOM
  1 CL       0.2890    -0.3770     1.4340 Cl    1 <1>  -0.1770 
  2 C        1.7720    -1.1470     0.9220 C.ar  1 <1>   0.1770 
  3 C        2.0360    -1.2810    -0.4280 C.ar  1 <1>  -0.1500 
  4 C        2.6600    -1.6100     1.8760 C.ar  1 <1>  -0.1500 
  5 C        3.2120    -1.8920    -0.8280 C.ar  1 <1>  -0.1500 
  6 C        3.8330    -2.2200     1.4670 C.ar  1 <1>  -0.1500 
  7 C        4.1200    -2.3660     0.1120 C.ar  1 <1>   0.1000 
  8 N        5.2920    -2.9760    -0.3200 N.pl3 1 <1>  -0.8380 
  9 C        5.3790    -4.4520    -0.1270 C.3   1 <1>   0.2090 
 10 C        6.5630    -2.2410    -0.0530 C.3   1 <1>   0.2090 
 11 C        6.5460    -5.0420    -0.9480 C.3   1 <1>   0.3430 
 12 C        7.7250    -2.8440    -0.8710 C.3   1 <1>   0.3430 
 13 N        7.8540    -4.3390    -0.6840 N.4   1 <1>  -0.9590 
 14 C        8.9670    -4.8970    -1.4980 C.3   1 <1>   0.4860 
 15 C       10.2640    -4.2910    -0.9950 C.ar  1 <1>  -0.1430 
 16 C       10.8420    -4.6470     0.2250 C.ar  1 <1>  -0.1430 
 17 C       10.8670    -3.3320    -1.7950 C.ar  1 <1>  -0.1500 
 18 C       12.0030    -3.9960     0.6490 C.ar  1 <1>  -0.1430 
 19 C       10.2380    -5.7480     1.1010 C.3   1 <1>  -0.0970 
 20 C       12.0270    -2.7090    -1.3880 C.ar  1 <1>  -0.1500 
 21 C       12.6010    -3.0330    -0.1650 C.ar  1 <1>   0.0830 
 22 C       12.6480    -4.3330     1.9990 C.3   1 <1>  -0.0970 
 23 O       13.7470    -2.4420     0.2670 O.3   1 <1>  -0.3620 
 24 C       14.5030    -1.5690    -0.5440 C.3   1 <1>   0.0400 
 25 H        1.3290    -0.9120    -1.1500 H     1 <1>   0.1500 
 26 H        2.4280    -1.4920     2.9190 H     1 <1>   0.1500 
 27 H        3.4340    -2.0040    -1.8730 H     1 <1>   0.1500 
 28 H        4.5270    -2.5830     2.2020 H     1 <1>   0.1500 
 29 H        4.4540    -4.9050    -0.4430 H     1 <1>   0.0800 
 30 H        5.5160    -4.6740     0.9180 H     1 <1>   0.0800 
 31 H        6.7950    -2.2830     0.9970 H     1 <1>   0.0800 
 32 H        6.4370    -1.2060    -0.3220 H     1 <1>   0.0800 
 33 H        6.2940    -4.9500    -1.9910 H     1 <1>   0.0800 
 34 H        6.6390    -6.0910    -0.7210 H     1 <1>   0.0800 
 35 H        8.6430    -2.3570    -0.5820 H     1 <1>   0.0800 
 36 H        7.5480    -2.6240    -1.9100 H     1 <1>   0.0800 
 37 H        8.1240    -4.4840     0.2960 H     1 <1>   0.4500 
 38 H        8.8250    -4.6580    -2.5390 H     1 <1>   0.0800 
 39 H        9.0080    -5.9690    -1.3990 H     1 <1>   0.0800 
 40 H       10.4450    -3.0570    -2.7470 H     1 <1>   0.1500 
 41 H        9.5430    -6.3730     0.5760 H     1 <1>   0.0800 
 42 H        9.7440    -5.3140     1.9520 H     1 <1>   0.0800 
 43 H       11.0170    -6.3980     1.4600 H     1 <1>   0.0800 
 44 H       12.4690    -1.9740    -2.0330 H     1 <1>   0.1500 
 45 H       11.9090    -4.5230     2.7530 H     1 <1>   0.0800 
 46 H       13.2550    -3.5240     2.3640 H     1 <1>   0.0800 
 47 H       13.2750    -5.2000     1.8930 H     1 <1>   0.0800 
 48 H       15.3850    -1.2870     0.0040 H     1 <1>   0.0800 
 49 H       13.9160    -0.6960    -0.7620 H     1 <1>   0.0800 
 50 H       14.7840    -2.0850    -1.4450 H     1 <1>   0.0800 
@<TRIPOS>BOND
  1   1   2  1   
  2   2   3  ar  
  3   2   4  ar  
  4   3   5  ar  
  5   3  25  1   
  6   4   6  ar  
  7   4  26  1   
  8   5   7  ar  
  9   5  27  1   
 10   6   7  ar  
 11   6  28  1   
 12   7   8  1   
 13   8   9  1   
 14   8  10  1   
 15   9  11  1   
 16   9  29  1   
 17   9  30  1   
 18  10  12  1   
 19  10  31  1   
 20  10  32  1   
 21  11  13  1   
 22  11  33  1   
 23  11  34  1   
 24  12  13  1   
 25  12  35  1   
 26  12  36  1   
 27  13  14  1   
 28  13  37  1   
 29  14  15  1   
 30  14  38  1   
 31  14  39  1   
 32  15  16  ar  
 33  15  17  ar  
 34  16  18  ar  
 35  16  19  1   
 36  17  20  ar  
 37  17  40  1   
 38  18  21  ar  
 39  18  22  1   
 40  19  41  1   
 41  19  42  1   
 42  19  43  1   
 43  20  21  ar  
 44  20  44  1   
 45  21  23  1   
 46  22  45  1   
 47  22  46  1   
 48  22  47  1   
 49  23  24  1   
 50  24  48  1   
 51  24  49  1   
 52  24  50  1   
@<TRIPOS>SUBSTRUCTURE
  1 ****  12 GROUP 4 **** **** 0

# MOE 2024.06 (io_trps.svl 2023.06)
