@<TRIPOS>MOLECULE
NONAME
42 43 1 0 0 
SMALL
USER_CHARGES


@<TRIPOS>ATOM
  1 CL       1.7040     1.2570    -2.2000 Cl    1 <1>  -0.1770 
  2 C        1.6760     2.2050    -0.7310 C.ar  1 <1>   0.1770 
  3 C        2.7660     2.2380     0.1460 C.ar  1 <1>   0.0860 
  4 C        0.5120     2.9110    -0.4870 C.ar  1 <1>  -0.1500 
  5 C        4.0210     1.5350    -0.0720 C.2   1 <1>   0.5440 
  6 C        2.6060     3.0140     1.2980 C.ar  1 <1>  -0.1500 
  7 C        0.3890     3.6780     0.6570 C.ar  1 <1>  -0.1440 
  8 O        4.7340     1.2360     0.8670 O.2   1 <1>  -0.5700 
  9 N        4.5100     1.2560    -1.3170 N.am  1 <1>  -0.7300 
 10 C        1.4450     3.7220     1.5490 C.ar  1 <1>  -0.1500 
 11 C       -0.8820     4.4600     0.9380 C.3   1 <1>  -0.0970 
 12 C        5.4660     0.1650    -1.6400 C.3   1 <1>   0.1400 
 13 C        6.8140     0.7260    -2.1170 C.3   1 <1>  -0.1600 
 14 C        7.7940     1.0660    -0.9860 C.3   1 <1>   0.3430 
 15 N        7.2220     2.0640    -0.0560 N.4   1 <1>  -0.9590 
 16 C        7.0800     3.4360    -0.6440 C.3   1 <1>   0.3430 
 17 C        7.9340     2.1130     1.2610 C.3   1 <1>   0.3430 
 18 C        6.4850     4.4210     0.3810 C.3   1 <1>   0.1200 
 19 C        7.2920     3.1560     2.1950 C.3   1 <1>   0.1200 
 20 O        7.2310     4.4040     1.5640 O.3   1 <1>  -0.5600 
 21 H       -0.2960     2.8550    -1.1950 H     1 <1>   0.1500 
 22 H        3.4050     3.0640     2.0190 H     1 <1>   0.1500 
 23 H        3.8850     1.4790    -2.1020 H     1 <1>   0.3700 
 24 H        1.3630     4.3110     2.4490 H     1 <1>   0.1500 
 25 H       -1.1390     4.3920     1.9800 H     1 <1>   0.0800 
 26 H       -1.7040     4.0740     0.3610 H     1 <1>   0.0800 
 27 H       -0.7390     5.4950     0.6830 H     1 <1>   0.0800 
 28 H        5.0340    -0.4320    -2.4270 H     1 <1>   0.0800 
 29 H        5.6030    -0.4800    -0.7860 H     1 <1>   0.0800 
 30 H        6.6640     1.5670    -2.7700 H     1 <1>   0.0800 
 31 H        7.2860    -0.0380    -2.7090 H     1 <1>   0.0800 
 32 H        8.7180     1.4370    -1.4000 H     1 <1>   0.0800 
 33 H        8.0130     0.1610    -0.4420 H     1 <1>   0.0800 
 34 H        6.2570     1.7360     0.1620 H     1 <1>   0.4500 
 35 H        6.4380     3.3990    -1.5090 H     1 <1>   0.0800 
 36 H        8.0430     3.8040    -0.9560 H     1 <1>   0.0800 
 37 H        8.9680     2.3750     1.1110 H     1 <1>   0.0800 
 38 H        7.8960     1.1460     1.7340 H     1 <1>   0.0800 
 39 H        5.4650     4.1680     0.6110 H     1 <1>   0.0800 
 40 H        6.5110     5.4230    -0.0090 H     1 <1>   0.0800 
 41 H        7.8810     3.2680     3.0880 H     1 <1>   0.0800 
 42 H        6.2960     2.8580     2.4770 H     1 <1>   0.0800 
@<TRIPOS>BOND
  1   1   2  1   
  2   2   3  ar  
  3   2   4  ar  
  4   3   5  1   
  5   3   6  ar  
  6   4   7  ar  
  7   4  21  1   
  8   5   8  2   
  9   5   9  am  
 10   6  10  ar  
 11   6  22  1   
 12   7  10  ar  
 13   7  11  1   
 14   9  12  1   
 15   9  23  1   
 16  10  24  1   
 17  11  25  1   
 18  11  26  1   
 19  11  27  1   
 20  12  13  1   
 21  12  28  1   
 22  12  29  1   
 23  13  14  1   
 24  13  30  1   
 25  13  31  1   
 26  14  15  1   
 27  14  32  1   
 28  14  33  1   
 29  15  16  1   
 30  15  17  1   
 31  15  34  1   
 32  16  18  1   
 33  16  35  1   
 34  16  36  1   
 35  17  19  1   
 36  17  37  1   
 37  17  38  1   
 38  18  20  1   
 39  18  39  1   
 40  18  40  1   
 41  19  20  1   
 42  19  41  1   
 43  19  42  1   
@<TRIPOS>SUBSTRUCTURE
  1 ****   5 GROUP 4 **** **** 0

# MOE 2024.06 (io_trps.svl 2023.06)
