@<TRIPOS>MOLECULE
NONAME
37 38 1 0 0 
SMALL
USER_CHARGES


@<TRIPOS>ATOM
  1 CL       2.7240     1.6780    -2.4960 Cl    1 <1>  -0.1770 
  2 C        2.8010     0.6970    -1.0530 C.ar  1 <1>   0.1770 
  3 C        1.6460     0.2930    -0.4060 C.ar  1 <1>   0.1770 
  4 C        4.0410     0.3260    -0.5660 C.ar  1 <1>  -0.1500 
  5 CL       0.0710     0.7510    -1.0100 Cl    1 <1>  -0.1770 
  6 C        1.7260    -0.4840     0.7340 C.ar  1 <1>  -0.1500 
  7 C        4.1470    -0.4580     0.5790 C.ar  1 <1>  -0.0090 
  8 C        2.9730    -0.8520     1.2180 C.ar  1 <1>  -0.1500 
  9 S        5.7770    -0.9390     1.2170 S.o2  1 <1>   1.4470 
 10 O        5.6510    -2.0270     2.1610 O.2   1 <1>  -0.6500 
 11 O        6.4970     0.2530     1.6080 O.2   1 <1>  -0.6500 
 12 N        6.5510    -1.5570    -0.1530 N.am  1 <1>  -0.8490 
 13 C        8.0190    -1.7050     0.0250 C.3   1 <1>   0.3370 
 14 C        6.0090    -2.8230    -0.6370 C.3   1 <1>   0.1960 
 15 C        8.8240    -0.5320    -0.6060 C.2   1 <1>   0.5690 
 16 C        8.3590    -3.0930    -0.5480 C.3   1 <1>  -0.1600 
 17 C        7.1530    -3.4690    -1.3920 C.3   1 <1>  -0.1600 
 18 O        9.5880    -0.7280    -1.5260 O.2   1 <1>  -0.5700 
 19 N        8.6620     0.7210    -0.0990 N.am  1 <1>  -0.7300 
 20 C        9.3460     1.9400    -0.5610 C.3   1 <1>   0.1400 
 21 C        9.7920     2.7340     0.6610 C.3   1 <1>  -0.2400 
 22 H        4.9300     0.6500    -1.0820 H     1 <1>   0.1500 
 23 H        0.8250    -0.7930     1.2350 H     1 <1>   0.1500 
 24 H        3.0340    -1.4580     2.1090 H     1 <1>   0.1500 
 25 H        8.2620    -1.7200     1.0740 H     1 <1>   0.0800 
 26 H        5.1530    -2.6610    -1.2710 H     1 <1>   0.0800 
 27 H        5.7310    -3.4610     0.1860 H     1 <1>   0.0800 
 28 H        8.4590    -3.7840     0.2700 H     1 <1>   0.0800 
 29 H        9.2730    -3.1160    -1.1150 H     1 <1>   0.0800 
 30 H        7.2320    -3.0280    -2.3710 H     1 <1>   0.0800 
 31 H        7.0290    -4.5330    -1.4860 H     1 <1>   0.0800 
 32 H        7.9570     0.8580     0.6420 H     1 <1>   0.3700 
 33 H        8.6660     2.5250    -1.1570 H     1 <1>   0.0800 
 34 H       10.1980     1.6790    -1.1660 H     1 <1>   0.0800 
 35 H        8.9440     3.0110     1.2600 H     1 <1>   0.0800 
 36 H       10.2950     3.6290     0.3450 H     1 <1>   0.0800 
 37 H       10.4750     2.1490     1.2520 H     1 <1>   0.0800 
@<TRIPOS>BOND
  1   1   2  1   
  2   2   3  ar  
  3   2   4  ar  
  4   3   5  1   
  5   3   6  ar  
  6   4   7  ar  
  7   4  22  1   
  8   6   8  ar  
  9   6  23  1   
 10   7   8  ar  
 11   7   9  1   
 12   8  24  1   
 13   9  10  2   
 14   9  11  2   
 15   9  12  am  
 16  12  13  1   
 17  12  14  1   
 18  13  15  1   
 19  13  16  1   
 20  13  25  1   
 21  14  17  1   
 22  14  26  1   
 23  14  27  1   
 24  15  18  2   
 25  15  19  am  
 26  16  17  1   
 27  16  28  1   
 28  16  29  1   
 29  17  30  1   
 30  17  31  1   
 31  19  20  1   
 32  19  32  1   
 33  20  21  1   
 34  20  33  1   
 35  20  34  1   
 36  21  35  1   
 37  21  36  1   
 38  21  37  1   
@<TRIPOS>SUBSTRUCTURE
  1 ****  12 GROUP 4 **** **** 0

# MOE 2024.06 (io_trps.svl 2023.06)
