@<TRIPOS>MOLECULE
NONAME
40 42 1 0 0 
SMALL
USER_CHARGES


@<TRIPOS>ATOM
  1 S       -0.5920    -1.1340     1.4060 S.3   1 <1>  -0.4600 
  2 C       -1.0680    -2.8100     0.8770 C.3   1 <1>   0.0700 
  3 C       -2.1200    -0.1880     1.1130 C.3   1 <1>   0.0700 
  4 C       -1.6840    -2.7460    -0.5260 C.3   1 <1>   0.2090 
  5 C       -2.6130    -0.4380    -0.3170 C.3   1 <1>   0.2090 
  6 N       -2.9120    -1.8900    -0.5200 N.pl3 1 <1>  -0.8380 
  7 C       -4.1730    -2.4180    -0.3320 C.ar  1 <1>   0.7200 
  8 N       -5.1750    -1.5740    -0.2600 N.ar  1 <1>  -0.6200 
  9 N       -4.2780    -3.7190    -0.2280 N.ar  1 <1>  -0.6200 
 10 C       -6.3380    -2.1430    -0.0770 C.ar  1 <1>   0.7030 
 11 C       -5.4900    -4.1440    -0.0380 C.ar  1 <1>   0.7200 
 12 O       -7.4280    -1.3610    -0.0010 O.3   1 <1>  -0.3630 
 13 N       -6.5710    -3.4170     0.0430 N.ar  1 <1>  -0.6200 
 14 N       -5.6150    -5.4810     0.0830 N.pl3 1 <1>  -0.8690 
 15 C       -7.3570     0.0470    -0.1230 C.3   1 <1>   0.0400 
 16 C       -6.8920    -6.2040    -0.0230 C.3   1 <1>   0.3530 
 17 C       -6.6090    -7.6940    -0.0510 C.ar  1 <1>  -0.1430 
 18 C       -6.8220    -8.4320    -1.2060 C.ar  1 <1>   0.1600 
 19 C       -6.1390    -8.3430     1.0740 C.ar  1 <1>  -0.1500 
 20 N       -6.6130    -9.7340    -1.3240 N.ar  1 <1>  -0.6200 
 21 C       -5.9150    -9.6990     0.9690 C.ar  1 <1>  -0.1500 
 22 C       -6.1660   -10.3360    -0.2340 C.ar  1 <1>   0.1600 
 23 H       -1.7760    -3.1920     1.5900 H     1 <1>   0.0800 
 24 H       -0.1780    -3.4110     0.8850 H     1 <1>   0.0800 
 25 H       -1.8860     0.8490     1.2700 H     1 <1>   0.0800 
 26 H       -2.8500    -0.5130     1.8330 H     1 <1>   0.0800 
 27 H       -1.9130    -3.7420    -0.8640 H     1 <1>   0.0800 
 28 H       -0.9660    -2.3340    -1.2130 H     1 <1>   0.0800 
 29 H       -1.8530    -0.1310    -1.0150 H     1 <1>   0.0800 
 30 H       -3.4830     0.1650    -0.5070 H     1 <1>   0.0800 
 31 H       -4.7830    -6.0150    -0.1610 H     1 <1>   0.4000 
 32 H       -8.3520     0.4430    -0.0330 H     1 <1>   0.0800 
 33 H       -6.9470     0.2930    -1.0870 H     1 <1>   0.0800 
 34 H       -6.7330     0.4340     0.6630 H     1 <1>   0.0800 
 35 H       -7.4070    -5.8960    -0.9180 H     1 <1>   0.0800 
 36 H       -7.5110    -5.9610     0.8250 H     1 <1>   0.0800 
 37 H       -7.1840    -7.9270    -2.0860 H     1 <1>   0.1500 
 38 H       -5.9540    -7.8110     1.9930 H     1 <1>   0.1500 
 39 H       -5.5500   -10.2600     1.8100 H     1 <1>   0.1500 
 40 H       -5.9880   -11.3960    -0.3040 H     1 <1>   0.1500 
@<TRIPOS>BOND
  1   1   2  1   
  2   1   3  1   
  3   2   4  1   
  4   2  23  1   
  5   2  24  1   
  6   3   5  1   
  7   3  25  1   
  8   3  26  1   
  9   4   6  1   
 10   4  27  1   
 11   4  28  1   
 12   5   6  1   
 13   5  29  1   
 14   5  30  1   
 15   6   7  1   
 16   7   8  ar  
 17   7   9  ar  
 18   8  10  ar  
 19   9  11  ar  
 20  10  12  1   
 21  10  13  ar  
 22  11  13  ar  
 23  11  14  1   
 24  12  15  1   
 25  14  16  1   
 26  14  31  1   
 27  15  32  1   
 28  15  33  1   
 29  15  34  1   
 30  16  17  1   
 31  16  35  1   
 32  16  36  1   
 33  17  18  ar  
 34  17  19  ar  
 35  18  20  ar  
 36  18  37  1   
 37  19  21  ar  
 38  19  38  1   
 39  20  22  ar  
 40  21  22  ar  
 41  21  39  1   
 42  22  40  1   
@<TRIPOS>SUBSTRUCTURE
  1 ****  11 GROUP 4 **** **** 0

# MOE 2024.06 (io_trps.svl 2023.06)
