@<TRIPOS>MOLECULE
NONAME
29 31 1 0 0 
SMALL
USER_CHARGES


@<TRIPOS>ATOM
  1 O       -0.9020    -0.6840     1.7470 O.2   1 <1>  -0.5700 
  2 C       -1.7690    -1.1340     1.0530 C.2   1 <1>   0.4480 
  3 C       -1.6140    -2.2590     0.0120 C.3   1 <1>   0.1220 
  4 C       -3.1930    -0.5950     1.1480 C.3   1 <1>  -0.0190 
  5 C       -0.1890    -2.8350    -0.1190 C.2   1 <1>   0.5690 
  6 C       -2.5970    -3.3930     0.4110 C.3   1 <1>  -0.1600 
  7 C       -2.0680    -1.6840    -1.3570 C.3   1 <1>  -0.1600 
  8 C       -4.1340    -1.7500     1.5400 C.3   1 <1>  -0.1600 
  9 C       -3.6050    -0.0400    -0.2290 C.3   1 <1>  -0.1600 
 10 O        0.0130    -3.7200    -0.9140 O.2   1 <1>  -0.5700 
 11 N        0.8490    -2.3960     0.6160 N.am  1 <1>  -0.8000 
 12 C       -4.0460    -2.8720     0.4890 C.3   1 <1>  -0.0800 
 13 C       -3.5150    -1.1550    -1.2870 C.3   1 <1>  -0.0800 
 14 C       -4.4520    -2.3100    -0.8860 C.3   1 <1>  -0.1600 
 15 H       -3.2350     0.1840     1.8890 H     1 <1>   0.0800 
 16 H       -2.3050    -3.8010     1.3630 H     1 <1>   0.0800 
 17 H       -2.5420    -4.1900    -0.3110 H     1 <1>   0.0800 
 18 H       -2.0040    -2.4500    -2.1110 H     1 <1>   0.0800 
 19 H       -1.4040    -0.8890    -1.6500 H     1 <1>   0.0800 
 20 H       -5.1460    -1.3900     1.6090 H     1 <1>   0.0800 
 21 H       -3.8560    -2.1320     2.5080 H     1 <1>   0.0800 
 22 H       -2.9560     0.7760    -0.5000 H     1 <1>   0.0800 
 23 H       -4.6100     0.3430    -0.1830 H     1 <1>   0.0800 
 24 H        1.7790    -2.7980     0.5060 H     1 <1>   0.3700 
 25 H        0.7280    -1.6430     1.3070 H     1 <1>   0.3700 
 26 H       -4.7070    -3.6780     0.7610 H     1 <1>   0.0800 
 27 H       -3.8070    -0.7690    -2.2490 H     1 <1>   0.0800 
 28 H       -5.4690    -1.9580    -0.8500 H     1 <1>   0.0800 
 29 H       -4.4060    -3.0900    -1.6270 H     1 <1>   0.0800 
@<TRIPOS>BOND
  1   1   2  2   
  2   2   3  1   
  3   2   4  1   
  4   3   5  1   
  5   3   6  1   
  6   3   7  1   
  7   4   8  1   
  8   4   9  1   
  9   4  15  1   
 10   5  10  2   
 11   5  11  am  
 12   6  12  1   
 13   6  16  1   
 14   6  17  1   
 15   7  13  1   
 16   7  18  1   
 17   7  19  1   
 18   8  12  1   
 19   8  20  1   
 20   8  21  1   
 21   9  13  1   
 22   9  22  1   
 23   9  23  1   
 24  11  24  1   
 25  11  25  1   
 26  12  14  1   
 27  12  26  1   
 28  13  14  1   
 29  13  27  1   
 30  14  28  1   
 31  14  29  1   
@<TRIPOS>SUBSTRUCTURE
  1 ****   3 GROUP 4 **** **** 0

# MOE 2024.06 (io_trps.svl 2023.06)
