@<TRIPOS>MOLECULE
NONAME
37 39 1 0 0 
SMALL
USER_CHARGES


@<TRIPOS>ATOM
  1 CL       0.8220     0.4330     2.5320 Cl    1 <1>  -0.1770 
  2 C        1.9400     0.8820     1.2690 C.ar  1 <1>   0.1770 
  3 C        3.1580     0.2410     1.1850 C.ar  1 <1>  -0.1500 
  4 C        1.5840     1.8750     0.3740 C.ar  1 <1>  -0.1500 
  5 C        4.0540     0.5900     0.1850 C.ar  1 <1>   0.1000 
  6 C        2.4740     2.2290    -0.6270 C.ar  1 <1>  -0.1500 
  7 N        5.2800    -0.0600     0.1060 N.pl3 1 <1>  -0.8380 
  8 C        3.6990     1.5900    -0.7180 C.ar  1 <1>  -0.1500 
  9 C        6.4860     0.7490     0.4430 C.3   1 <1>   0.2090 
 10 C        5.4620    -0.9950    -1.0400 C.3   1 <1>   0.2090 
 11 C        7.7080    -0.1670     0.6650 C.3   1 <1>   0.3430 
 12 C        6.6890    -1.9030    -0.8080 C.3   1 <1>   0.3430 
 13 N        7.9410    -1.1210    -0.4860 N.4   1 <1>  -0.9590 
 14 C        9.0980    -2.0200    -0.2350 C.3   1 <1>   0.5240 
 15 C       10.3480    -1.1740    -0.1540 C.2   1 <1>  -0.1810 
 16 C       11.1250    -0.7230    -1.1640 C.2   1 <1>  -0.0100 
 17 C       10.9470    -0.6940     1.0230 C.2   1 <1>  -0.1500 
 18 O       12.1230    -0.0050    -0.6950 O.3   1 <1>  -0.2800 
 19 C       12.0240     0.0110     0.6180 C.2   1 <1>  -0.0100 
 20 H        3.4120    -0.5260     1.8920 H     1 <1>   0.1500 
 21 H        0.6280     2.3580     0.4620 H     1 <1>   0.1500 
 22 H        2.2100     3.0000    -1.3310 H     1 <1>   0.1500 
 23 H        4.3840     1.8690    -1.4960 H     1 <1>   0.1500 
 24 H        6.2950     1.3130     1.3410 H     1 <1>   0.0800 
 25 H        6.6900     1.4480    -0.3490 H     1 <1>   0.0800 
 26 H        5.5840    -0.4350    -1.9510 H     1 <1>   0.0800 
 27 H        4.5800    -1.6050    -1.1420 H     1 <1>   0.0800 
 28 H        7.5420    -0.7270     1.5700 H     1 <1>   0.0800 
 29 H        8.5800     0.4490     0.8140 H     1 <1>   0.0800 
 30 H        6.8470    -2.5070    -1.6870 H     1 <1>   0.0800 
 31 H        6.4580    -2.5640     0.0100 H     1 <1>   0.0800 
 32 H        8.1850    -0.5460    -1.3020 H     1 <1>   0.4500 
 33 H        9.2010    -2.7220    -1.0470 H     1 <1>   0.0800 
 34 H        8.9610    -2.5710     0.6810 H     1 <1>   0.0800 
 35 H       11.0560    -0.8540    -2.2310 H     1 <1>   0.1500 
 36 H       10.6180    -0.8650     2.0340 H     1 <1>   0.1500 
 37 H       12.7680     0.5470     1.1850 H     1 <1>   0.1500 
@<TRIPOS>BOND
  1   1   2  1   
  2   2   3  ar  
  3   2   4  ar  
  4   3   5  ar  
  5   3  20  1   
  6   4   6  ar  
  7   4  21  1   
  8   5   7  1   
  9   5   8  ar  
 10   6   8  ar  
 11   6  22  1   
 12   7   9  1   
 13   7  10  1   
 14   8  23  1   
 15   9  11  1   
 16   9  24  1   
 17   9  25  1   
 18  10  12  1   
 19  10  26  1   
 20  10  27  1   
 21  11  13  1   
 22  11  28  1   
 23  11  29  1   
 24  12  13  1   
 25  12  30  1   
 26  12  31  1   
 27  13  14  1   
 28  13  32  1   
 29  14  15  1   
 30  14  33  1   
 31  14  34  1   
 32  15  16  2   
 33  15  17  1   
 34  16  18  1   
 35  16  35  1   
 36  17  19  2   
 37  17  36  1   
 38  18  19  1   
 39  19  37  1   
@<TRIPOS>SUBSTRUCTURE
  1 ****   9 GROUP 4 **** **** 0

# MOE 2024.06 (io_trps.svl 2023.06)
