@<TRIPOS>MOLECULE
NONAME
37 37 1 0 0 
SMALL
USER_CHARGES


@<TRIPOS>ATOM
  1 CL       0.8500    -0.5720     0.3930 Cl    1 <1>  -0.1770 
  2 C       -0.3490     0.6560     0.0220 C.ar  1 <1>   0.1770 
  3 C       -0.0420     1.9940    -0.2680 C.ar  1 <1>   0.0820 
  4 C       -1.6620     0.2170     0.0320 C.ar  1 <1>  -0.1500 
  5 O        1.1900     2.5790    -0.3170 O.3   1 <1>  -0.3630 
  6 C       -1.0940     2.8560    -0.5450 C.ar  1 <1>  -0.1500 
  7 C       -2.6980     1.0930    -0.2450 C.ar  1 <1>  -0.1430 
  8 C        2.3920     1.9020    -0.0630 C.3   1 <1>   0.1200 
  9 C       -2.4050     2.4150    -0.5350 C.ar  1 <1>  -0.1500 
 10 C       -4.1380     0.6110    -0.2360 C.3   1 <1>  -0.0960 
 11 C        3.5320     2.9090    -0.2100 C.3   1 <1>   0.3430 
 12 N        4.8620     2.2680     0.0460 N.4   1 <1>  -0.9060 
 13 C        6.0370     3.1360    -0.0650 C.3   1 <1>   0.5030 
 14 C        7.2460     2.2580     0.2370 C.3   1 <1>  -0.2400 
 15 C        5.9460     4.2650     0.9600 C.3   1 <1>  -0.2400 
 16 C        6.1390     3.6900    -1.4860 C.3   1 <1>  -0.2400 
 17 H       -1.8690    -0.8140     0.2560 H     1 <1>   0.1500 
 18 H       -0.8840     3.8860    -0.7720 H     1 <1>   0.1500 
 19 H        2.4880     1.1120    -0.7860 H     1 <1>   0.0800 
 20 H        2.3520     1.5180     0.9420 H     1 <1>   0.0800 
 21 H       -3.2000     3.1070    -0.7550 H     1 <1>   0.1500 
 22 H       -4.2490    -0.2400     0.4110 H     1 <1>   0.0800 
 23 H       -4.4350     0.3320    -1.2310 H     1 <1>   0.0800 
 24 H       -4.7920     1.3900     0.1150 H     1 <1>   0.0800 
 25 H        3.3730     3.7120     0.4910 H     1 <1>   0.0800 
 26 H        3.5070     3.3130    -1.2090 H     1 <1>   0.0800 
 27 H        4.9990     1.4910    -0.6080 H     1 <1>   0.4500 
 28 H        4.8730     1.8670     0.9890 H     1 <1>   0.4500 
 29 H        7.1960     1.8520     1.2320 H     1 <1>   0.0800 
 30 H        8.1480     2.8420     0.1700 H     1 <1>   0.0800 
 31 H        7.3300     1.4520    -0.4710 H     1 <1>   0.0800 
 32 H        5.8230     3.8770     1.9560 H     1 <1>   0.0800 
 33 H        5.1400     4.9400     0.7390 H     1 <1>   0.0800 
 34 H        6.8550     4.8420     0.9450 H     1 <1>   0.0800 
 35 H        6.1520     2.8970    -2.2130 H     1 <1>   0.0800 
 36 H        7.0550     4.2450    -1.5920 H     1 <1>   0.0800 
 37 H        5.3330     4.3650    -1.7090 H     1 <1>   0.0800 
@<TRIPOS>BOND
  1   1   2  1   
  2   2   3  ar  
  3   2   4  ar  
  4   3   5  1   
  5   3   6  ar  
  6   4   7  ar  
  7   4  17  1   
  8   5   8  1   
  9   6   9  ar  
 10   6  18  1   
 11   7   9  ar  
 12   7  10  1   
 13   8  11  1   
 14   8  19  1   
 15   8  20  1   
 16   9  21  1   
 17  10  22  1   
 18  10  23  1   
 19  10  24  1   
 20  11  12  1   
 21  11  25  1   
 22  11  26  1   
 23  12  13  1   
 24  12  27  1   
 25  12  28  1   
 26  13  14  1   
 27  13  15  1   
 28  13  16  1   
 29  14  29  1   
 30  14  30  1   
 31  14  31  1   
 32  15  32  1   
 33  15  33  1   
 34  15  34  1   
 35  16  35  1   
 36  16  36  1   
 37  16  37  1   
@<TRIPOS>SUBSTRUCTURE
  1 ****   5 GROUP 4 **** **** 0

# MOE 2024.06 (io_trps.svl 2023.06)
