@<TRIPOS>MOLECULE
NONAME
58 61 1 0 0 
SMALL
USER_CHARGES


@<TRIPOS>ATOM
  1 O       -0.5670     1.4810    -2.3330 O.2   1 <1>  -0.5700 
  2 C       -0.8610     2.0060    -1.2850 C.2   1 <1>   0.4950 
  3 C        0.1030     2.6110    -0.4160 C.2   1 <1>   0.0290 
  4 C       -2.3380     1.9770    -0.9380 C.3   1 <1>  -0.0990 
  5 C       -0.3530     3.1880     0.8200 C.2   1 <1>   0.4950 
  6 C        1.4330     2.6180    -0.7900 C.2   1 <1>  -0.0500 
  7 C       -2.7270     3.1440    -0.0330 C.3   1 <1>   0.0630 
  8 O        0.3710     3.7160     1.6370 O.2   1 <1>  -0.5700 
  9 C       -1.8230     3.1630     1.1990 C.3   1 <1>  -0.0990 
 10 N        2.4570     3.1480    -0.0800 N.pl3 1 <1>  -0.8690 
 11 C       -4.2010     3.0800     0.3580 C.ar  1 <1>  -0.1430 
 12 C        3.8710     3.1610    -0.4520 C.3   1 <1>   0.2890 
 13 C       -5.0550     4.1100    -0.0120 C.ar  1 <1>  -0.1500 
 14 C       -4.7160     2.0090     1.0780 C.ar  1 <1>  -0.1500 
 15 C        4.6510     2.3860     0.6050 C.3   1 <1>  -0.1600 
 16 C        4.3380     4.6100    -0.5290 C.3   1 <1>  -0.1600 
 17 C       -6.3950     4.0730     0.3310 C.ar  1 <1>  -0.1500 
 18 C       -6.0560     1.9700     1.4220 C.ar  1 <1>  -0.1500 
 19 C        6.1500     2.4800     0.3440 C.3   1 <1>   0.3430 
 20 C        5.8410     4.6790    -0.7740 C.3   1 <1>   0.3430 
 21 C       -6.8970     3.0020     1.0480 C.ar  1 <1>  -0.1500 
 22 N        6.5640     3.9110     0.2860 N.4   1 <1>  -0.9590 
 23 C        8.0410     4.0440     0.1500 C.3   1 <1>   0.4860 
 24 C        8.4170     5.5000     0.3390 C.ar  1 <1>  -0.1430 
 25 C        8.3860     6.0740     1.6030 C.ar  1 <1>  -0.1500 
 26 C        8.7900     6.2720    -0.7520 C.ar  1 <1>  -0.1500 
 27 C        8.7120     7.4080     1.7690 C.ar  1 <1>  -0.1500 
 28 C        9.1160     7.6060    -0.5830 C.ar  1 <1>  -0.1500 
 29 C        9.0750     8.1750     0.6770 C.ar  1 <1>  -0.1500 
 30 H       -2.5550     1.0370    -0.4650 H     1 <1>   0.0800 
 31 H       -2.9140     2.0280    -1.8450 H     1 <1>   0.0800 
 32 H        1.6950     2.1600    -1.7340 H     1 <1>   0.1500 
 33 H       -2.5570     4.0570    -0.5800 H     1 <1>   0.0800 
 34 H       -2.0510     4.0350     1.7870 H     1 <1>   0.0800 
 35 H       -1.9980     2.3000     1.8150 H     1 <1>   0.0800 
 36 H        2.2230     3.5930     0.8290 H     1 <1>   0.4000 
 37 H        3.9900     2.6870    -1.4140 H     1 <1>   0.0800 
 38 H       -4.6860     4.9530    -0.5700 H     1 <1>   0.1500 
 39 H       -4.0830     1.1940     1.3800 H     1 <1>   0.1500 
 40 H        4.3510     1.3540     0.5750 H     1 <1>   0.0800 
 41 H        4.4320     2.7690     1.5860 H     1 <1>   0.0800 
 42 H        4.1000     5.1300     0.3820 H     1 <1>   0.0800 
 43 H        3.8270     5.1020    -1.3370 H     1 <1>   0.0800 
 44 H       -7.0480     4.8770     0.0400 H     1 <1>   0.1500 
 45 H       -6.4460     1.1370     1.9800 H     1 <1>   0.1500 
 46 H        6.3820     1.9940    -0.5900 H     1 <1>   0.0800 
 47 H        6.6810     1.9710     1.1330 H     1 <1>   0.0800 
 48 H        6.1540     5.7120    -0.7630 H     1 <1>   0.0800 
 49 H        6.0680     4.2670    -1.7440 H     1 <1>   0.0800 
 50 H       -7.9390     2.9730     1.3150 H     1 <1>   0.1500 
 51 H        6.3210     4.3570     1.1810 H     1 <1>   0.4500 
 52 H        8.3610     3.7040    -0.8220 H     1 <1>   0.0800 
 53 H        8.5390     3.4520     0.9010 H     1 <1>   0.0800 
 54 H        8.1160     5.4980     2.4710 H     1 <1>   0.1500 
 55 H        8.8370     5.8520    -1.7430 H     1 <1>   0.1500 
 56 H        8.6890     7.8550     2.7500 H     1 <1>   0.1500 
 57 H        9.4060     8.2060    -1.4300 H     1 <1>   0.1500 
 58 H        9.3300     9.2130     0.8080 H     1 <1>   0.1500 
@<TRIPOS>BOND
  1   1   2  2   
  2   2   3  1   
  3   2   4  1   
  4   3   5  1   
  5   3   6  2   
  6   4   7  1   
  7   4  30  1   
  8   4  31  1   
  9   5   8  2   
 10   5   9  1   
 11   6  10  1   
 12   6  32  1   
 13   7   9  1   
 14   7  11  1   
 15   7  33  1   
 16   9  34  1   
 17   9  35  1   
 18  10  12  1   
 19  10  36  1   
 20  11  13  ar  
 21  11  14  ar  
 22  12  15  1   
 23  12  16  1   
 24  12  37  1   
 25  13  17  ar  
 26  13  38  1   
 27  14  18  ar  
 28  14  39  1   
 29  15  19  1   
 30  15  40  1   
 31  15  41  1   
 32  16  20  1   
 33  16  42  1   
 34  16  43  1   
 35  17  21  ar  
 36  17  44  1   
 37  18  21  ar  
 38  18  45  1   
 39  19  22  1   
 40  19  46  1   
 41  19  47  1   
 42  20  22  1   
 43  20  48  1   
 44  20  49  1   
 45  21  50  1   
 46  22  23  1   
 47  22  51  1   
 48  23  24  1   
 49  23  52  1   
 50  23  53  1   
 51  24  25  ar  
 52  24  26  ar  
 53  25  27  ar  
 54  25  54  1   
 55  26  28  ar  
 56  26  55  1   
 57  27  29  ar  
 58  27  56  1   
 59  28  29  ar  
 60  28  57  1   
 61  29  58  1   
@<TRIPOS>SUBSTRUCTURE
  1 ****  10 GROUP 4 **** **** 0

# MOE 2024.06 (io_trps.svl 2023.06)
