@<TRIPOS>MOLECULE
NONAME
49 51 1 0 0 
SMALL
USER_CHARGES


@<TRIPOS>ATOM
  1 F       -0.4520     3.1320     0.9610 F     1 <1>  -0.3400 
  2 C       -1.6850     2.7480     0.6550 C.3   1 <1>   1.1640 
  3 F       -2.4870     3.3980     1.4960 F     1 <1>  -0.3400 
  4 F       -1.7670     1.4670     0.9900 F     1 <1>  -0.3400 
  5 C       -2.0610     2.9940    -0.8110 C.ar  1 <1>  -0.1440 
  6 C       -3.3780     2.8050    -1.2440 C.ar  1 <1>   0.1170 
  7 C       -1.0920     3.3940    -1.7280 C.ar  1 <1>  -0.1500 
  8 N       -4.3980     2.4220    -0.3530 N.am  1 <1>  -0.5470 
  9 C       -3.6810     3.0230    -2.5850 C.ar  1 <1>  -0.1500 
 10 C       -1.4130     3.6070    -3.0560 C.ar  1 <1>  -0.1500 
 11 C       -5.4500     1.5680    -0.5490 C.2   1 <1>   0.5690 
 12 C       -2.7120     3.4200    -3.4850 C.ar  1 <1>  -0.1500 
 13 O       -5.6420     0.9910    -1.5910 O.2   1 <1>  -0.5700 
 14 C       -6.4120     1.3500     0.6190 C.3   1 <1>  -0.0190 
 15 C       -6.6830    -0.1470     0.8720 C.3   1 <1>  -0.1600 
 16 C       -7.7370     2.1020     0.3900 C.3   1 <1>  -0.1600 
 17 C       -7.6890    -0.3580     2.0070 C.3   1 <1>   0.1400 
 18 C       -8.7320     1.8550     1.5280 C.3   1 <1>   0.1400 
 19 N       -8.9380     0.3900     1.6970 N.am  1 <1>  -0.6600 
 20 C      -10.1210    -0.2750     1.4630 C.2   1 <1>   0.5690 
 21 O      -10.2210    -1.4670     1.6440 O.2   1 <1>  -0.5700 
 22 C      -11.3710     0.4480     0.9710 C.3   1 <1>   0.0440 
 23 C      -11.2070     1.1070    -0.3980 C.ar  1 <1>  -0.1430 
 24 C      -11.7250     2.3720    -0.6320 C.ar  1 <1>  -0.1500 
 25 C      -10.5350     0.4510    -1.4200 C.ar  1 <1>  -0.1500 
 26 C      -11.5620     2.9790    -1.8650 C.ar  1 <1>  -0.1500 
 27 C      -10.3680     1.0580    -2.6520 C.ar  1 <1>  -0.1500 
 28 C      -10.8810     2.3240    -2.8750 C.ar  1 <1>  -0.1500 
 29 H       -0.0690     3.5440    -1.4240 H     1 <1>   0.1500 
 30 H       -4.3320     2.8150     0.5860 H     1 <1>   0.3700 
 31 H       -4.6890     2.8810    -2.9330 H     1 <1>   0.1500 
 32 H       -0.6550     3.9160    -3.7550 H     1 <1>   0.1500 
 33 H       -2.9700     3.5800    -4.5180 H     1 <1>   0.1500 
 34 H       -5.9570     1.7480     1.5080 H     1 <1>   0.0800 
 35 H       -5.7630    -0.6480     1.1140 H     1 <1>   0.0800 
 36 H       -7.0760    -0.6030    -0.0210 H     1 <1>   0.0800 
 37 H       -8.1800     1.7780    -0.5370 H     1 <1>   0.0800 
 38 H       -7.5490     3.1570     0.3050 H     1 <1>   0.0800 
 39 H       -7.2840     0.0010     2.9370 H     1 <1>   0.0800 
 40 H       -7.8890    -1.4110     2.1170 H     1 <1>   0.0800 
 41 H       -9.6550     2.3620     1.3170 H     1 <1>   0.0800 
 42 H       -8.3410     2.2580     2.4470 H     1 <1>   0.0800 
 43 H      -11.6490     1.1760     1.7080 H     1 <1>   0.0800 
 44 H      -12.1730    -0.2640     0.9070 H     1 <1>   0.0800 
 45 H      -12.2580     2.8940     0.1430 H     1 <1>   0.1500 
 46 H      -10.1290    -0.5340    -1.2610 H     1 <1>   0.1500 
 47 H      -11.9650     3.9610    -2.0400 H     1 <1>   0.1500 
 48 H       -9.8370     0.5450    -3.4350 H     1 <1>   0.1500 
 49 H      -10.7510     2.7940    -3.8340 H     1 <1>   0.1500 
@<TRIPOS>BOND
  1   1   2  1   
  2   2   3  1   
  3   2   4  1   
  4   2   5  1   
  5   5   6  ar  
  6   5   7  ar  
  7   6   8  1   
  8   6   9  ar  
  9   7  10  ar  
 10   7  29  1   
 11   8  11  am  
 12   8  30  1   
 13   9  12  ar  
 14   9  31  1   
 15  10  12  ar  
 16  10  32  1   
 17  11  13  2   
 18  11  14  1   
 19  12  33  1   
 20  14  15  1   
 21  14  16  1   
 22  14  34  1   
 23  15  17  1   
 24  15  35  1   
 25  15  36  1   
 26  16  18  1   
 27  16  37  1   
 28  16  38  1   
 29  17  19  1   
 30  17  39  1   
 31  17  40  1   
 32  18  19  1   
 33  18  41  1   
 34  18  42  1   
 35  19  20  am  
 36  20  21  2   
 37  20  22  1   
 38  22  23  1   
 39  22  43  1   
 40  22  44  1   
 41  23  24  ar  
 42  23  25  ar  
 43  24  26  ar  
 44  24  45  1   
 45  25  27  ar  
 46  25  46  1   
 47  26  28  ar  
 48  26  47  1   
 49  27  28  ar  
 50  27  48  1   
 51  28  49  1   
@<TRIPOS>SUBSTRUCTURE
  1 ****  11 GROUP 4 **** **** 0

# MOE 2024.06 (io_trps.svl 2023.06)
