@<TRIPOS>MOLECULE
NONAME
43 43 1 0 0 
SMALL
USER_CHARGES


@<TRIPOS>ATOM
  1 O        4.5720    -7.4630    -0.1170 O.3   1 <1>  -0.3630 
  2 C        5.8270    -6.9470    -0.0260 C.ar  1 <1>   0.0830 
  3 C        3.4300    -6.6540    -0.0170 C.3   1 <1>   0.1200 
  4 C        6.8950    -7.8310    -0.1500 C.ar  1 <1>  -0.1440 
  5 C        6.0760    -5.5910     0.1820 C.ar  1 <1>  -0.1500 
  6 C        2.2180    -7.5720    -0.1740 C.3   1 <1>  -0.1600 
  7 C        8.1920    -7.3510    -0.0650 C.ar  1 <1>  -0.1500 
  8 C        6.6560    -9.3170    -0.3760 C.3   1 <1>  -0.0970 
  9 C        7.3740    -5.1180     0.2670 C.ar  1 <1>  -0.1430 
 10 C        0.9190    -6.7810    -0.0830 C.3   1 <1>   0.3430 
 11 C        8.4310    -6.0040     0.1410 C.ar  1 <1>  -0.1500 
 12 C        7.6430    -3.6400     0.4910 C.3   1 <1>  -0.0970 
 13 N       -0.2200    -7.7170    -0.2470 N.4   1 <1>  -0.9060 
 14 C       -1.5450    -7.0810    -0.1440 C.3   1 <1>   0.4230 
 15 C       -2.5800    -8.1960     0.0660 C.3   1 <1>  -0.1600 
 16 C       -1.8050    -6.2800    -1.4200 C.3   1 <1>  -0.2400 
 17 C       -3.9900    -7.6680     0.3700 C.3   1 <1>  -0.2400 
 18 H        3.4710    -5.9190    -0.8030 H     1 <1>   0.0800 
 19 H        3.4410    -6.1770     0.9480 H     1 <1>   0.0800 
 20 H        5.2740    -4.8870     0.2790 H     1 <1>   0.1500 
 21 H        2.2520    -8.3120     0.6070 H     1 <1>   0.0800 
 22 H        2.2840    -8.0570    -1.1330 H     1 <1>   0.0800 
 23 H        9.0260    -8.0220    -0.1600 H     1 <1>   0.1500 
 24 H        6.1050    -9.4610    -1.2880 H     1 <1>   0.0800 
 25 H        6.0890    -9.7220     0.4410 H     1 <1>   0.0800 
 26 H        7.5850    -9.8530    -0.4490 H     1 <1>   0.0800 
 27 H        0.8990    -6.0300    -0.8560 H     1 <1>   0.0800 
 28 H        0.8590    -6.2900     0.8760 H     1 <1>   0.0800 
 29 H        9.4450    -5.6500     0.2010 H     1 <1>   0.1500 
 30 H        6.8580    -3.1990     1.0780 H     1 <1>   0.0800 
 31 H        7.6980    -3.1330    -0.4550 H     1 <1>   0.0800 
 32 H        8.5730    -3.5020     1.0130 H     1 <1>   0.0800 
 33 H       -0.1550    -8.4510     0.4680 H     1 <1>   0.4500 
 34 H       -0.1560    -8.1880    -1.1560 H     1 <1>   0.4500 
 35 H       -1.5670    -6.4220     0.7110 H     1 <1>   0.0800 
 36 H       -2.2800    -8.8040     0.9030 H     1 <1>   0.0800 
 37 H       -2.6300    -8.8260    -0.8060 H     1 <1>   0.0800 
 38 H       -1.8250    -6.9210    -2.2840 H     1 <1>   0.0800 
 39 H       -1.0670    -5.5120    -1.5600 H     1 <1>   0.0800 
 40 H       -2.7580    -5.7860    -1.3540 H     1 <1>   0.0800 
 41 H       -3.9790    -7.0030     1.2170 H     1 <1>   0.0800 
 42 H       -4.6460    -8.4900     0.6000 H     1 <1>   0.0800 
 43 H       -4.4060    -7.1470    -0.4750 H     1 <1>   0.0800 
@<TRIPOS>BOND
  1   1   2  1   
  2   1   3  1   
  3   2   4  ar  
  4   2   5  ar  
  5   3   6  1   
  6   3  18  1   
  7   3  19  1   
  8   4   7  ar  
  9   4   8  1   
 10   5   9  ar  
 11   5  20  1   
 12   6  10  1   
 13   6  21  1   
 14   6  22  1   
 15   7  11  ar  
 16   7  23  1   
 17   8  24  1   
 18   8  25  1   
 19   8  26  1   
 20   9  11  ar  
 21   9  12  1   
 22  10  13  1   
 23  10  27  1   
 24  10  28  1   
 25  11  29  1   
 26  12  30  1   
 27  12  31  1   
 28  12  32  1   
 29  13  14  1   
 30  13  33  1   
 31  13  34  1   
 32  14  15  1   
 33  14  16  1   
 34  14  35  1   
 35  15  17  1   
 36  15  36  1   
 37  15  37  1   
 38  16  38  1   
 39  16  39  1   
 40  16  40  1   
 41  17  41  1   
 42  17  42  1   
 43  17  43  1   
@<TRIPOS>SUBSTRUCTURE
  1 ****   3 GROUP 4 **** **** 0

# MOE 2024.06 (io_trps.svl 2023.06)
