@<TRIPOS>MOLECULE
NONAME
49 51 1 0 0 
SMALL
USER_CHARGES


@<TRIPOS>ATOM
  1 CL       2.8270     2.5820     2.2550 Cl    1 <1>  -0.1770 
  2 C        1.4140     2.7810     1.2510 C.ar  1 <1>   0.1770 
  3 C        1.4390     2.3750    -0.0840 C.ar  1 <1>   0.0860 
  4 C        0.2910     3.3450     1.8270 C.ar  1 <1>  -0.1500 
  5 C        2.6190     1.7960    -0.6810 C.2   1 <1>   0.5440 
  6 C        0.2710     2.5420    -0.8320 C.ar  1 <1>  -0.1500 
  7 C       -0.8420     3.5030     1.0530 C.ar  1 <1>   0.1770 
  8 O        2.6280     0.6020    -0.9080 O.2   1 <1>  -0.5700 
  9 N        3.7120     2.5620    -1.0350 N.am  1 <1>  -0.6600 
 10 C       -0.8630     3.1050    -0.2710 C.ar  1 <1>  -0.1500 
 11 CL      -2.2670     4.2140     1.7580 Cl    1 <1>  -0.1770 
 12 C        3.7100     4.0520    -1.0560 C.3   1 <1>   0.1400 
 13 C        4.9930     1.9340    -1.4620 C.3   1 <1>   0.1400 
 14 C        4.8580     4.5900    -0.1980 C.3   1 <1>  -0.1600 
 15 C        6.1420     2.4600    -0.5970 C.3   1 <1>  -0.1600 
 16 C        6.2160     3.9980    -0.6260 C.3   1 <1>  -0.0190 
 17 C        7.3830     4.5070     0.2220 C.2   1 <1>   0.5690 
 18 O        7.1870     4.9260     1.3370 O.2   1 <1>  -0.5700 
 19 N        8.6270     4.4660    -0.3210 N.am  1 <1>  -0.7300 
 20 C        9.8610     4.8920     0.3580 C.3   1 <1>   0.2200 
 21 C       10.5290     5.9910    -0.4740 C.3   1 <1>  -0.1600 
 22 C       10.7800     3.6780     0.5190 C.3   1 <1>  -0.1600 
 23 C       11.8800     6.4000     0.1300 C.3   1 <1>  -0.1600 
 24 C       12.1320     4.0820     1.1250 C.3   1 <1>  -0.1600 
 25 C       12.8040     5.1860     0.2960 C.3   1 <1>  -0.1600 
 26 H        0.2990     3.6520     2.8560 H     1 <1>   0.1500 
 27 H        0.2630     2.2210    -1.8600 H     1 <1>   0.1500 
 28 H       -1.7610     3.2330    -0.8510 H     1 <1>   0.1500 
 29 H        2.7780     4.4450    -0.6920 H     1 <1>   0.0800 
 30 H        3.8340     4.3830    -2.0730 H     1 <1>   0.0800 
 31 H        5.1690     2.1670    -2.4970 H     1 <1>   0.0800 
 32 H        4.9420     0.8620    -1.3670 H     1 <1>   0.0800 
 33 H        4.6650     4.3480     0.8330 H     1 <1>   0.0800 
 34 H        4.8920     5.6620    -0.2770 H     1 <1>   0.0800 
 35 H        7.0670     2.0410    -0.9490 H     1 <1>   0.0800 
 36 H        5.9950     2.1250     0.4160 H     1 <1>   0.0800 
 37 H        6.4010     4.3070    -1.6390 H     1 <1>   0.0800 
 38 H        8.7610     4.0920    -1.2580 H     1 <1>   0.3700 
 39 H        9.6230     5.2850     1.3340 H     1 <1>   0.0800 
 40 H        9.8820     6.8510    -0.5100 H     1 <1>   0.0800 
 41 H       10.6880     5.6390    -1.4780 H     1 <1>   0.0800 
 42 H       10.9500     3.2220    -0.4400 H     1 <1>   0.0800 
 43 H       10.3050     2.9570     1.1620 H     1 <1>   0.0800 
 44 H       11.7160     6.8560     1.0920 H     1 <1>   0.0800 
 45 H       12.3540     7.1300    -0.5030 H     1 <1>   0.0800 
 46 H       12.7790     3.2230     1.1750 H     1 <1>   0.0800 
 47 H       11.9790     4.4370     2.1310 H     1 <1>   0.0800 
 48 H       13.7170     5.4920     0.7780 H     1 <1>   0.0800 
 49 H       13.0600     4.7970    -0.6750 H     1 <1>   0.0800 
@<TRIPOS>BOND
  1   1   2  1   
  2   2   3  ar  
  3   2   4  ar  
  4   3   5  1   
  5   3   6  ar  
  6   4   7  ar  
  7   4  26  1   
  8   5   8  2   
  9   5   9  am  
 10   6  10  ar  
 11   6  27  1   
 12   7  10  ar  
 13   7  11  1   
 14   9  12  1   
 15   9  13  1   
 16  10  28  1   
 17  12  14  1   
 18  12  29  1   
 19  12  30  1   
 20  13  15  1   
 21  13  31  1   
 22  13  32  1   
 23  14  16  1   
 24  14  33  1   
 25  14  34  1   
 26  15  16  1   
 27  15  35  1   
 28  15  36  1   
 29  16  17  1   
 30  16  37  1   
 31  17  18  2   
 32  17  19  am  
 33  19  20  1   
 34  19  38  1   
 35  20  21  1   
 36  20  22  1   
 37  20  39  1   
 38  21  23  1   
 39  21  40  1   
 40  21  41  1   
 41  22  24  1   
 42  22  42  1   
 43  22  43  1   
 44  23  25  1   
 45  23  44  1   
 46  23  45  1   
 47  24  25  1   
 48  24  46  1   
 49  24  47  1   
 50  25  48  1   
 51  25  49  1   
@<TRIPOS>SUBSTRUCTURE
  1 ****  14 GROUP 4 **** **** 0

# MOE 2024.06 (io_trps.svl 2023.06)
