@<TRIPOS>MOLECULE
NONAME
29 30 1 0 0 
SMALL
USER_CHARGES


@<TRIPOS>ATOM
  1 O       -0.7430     1.2840    -1.1320 O.2   1 <1>  -0.5700 
  2 C       -0.5460     1.7020    -0.0070 C.2   1 <1>   0.6900 
  3 N        0.6960     2.1610     0.3610 N.am  1 <1>  -0.6600 
  4 N       -1.5500     1.6940     0.9070 N.am  1 <1>  -0.4930 
  5 C        0.9800     2.9680     1.5830 C.3   1 <1>   0.1400 
  6 C        1.8710     2.0100    -0.5460 C.3   1 <1>   0.1400 
  7 C       -2.8900     1.3170     0.7790 C.2   1 <1>   0.3520 
  8 C        1.4780     4.3590     1.1770 C.3   1 <1>  -0.1600 
  9 C        2.3750     3.3920    -0.9730 C.3   1 <1>  -0.1600 
 10 N       -3.5220     0.8210     1.7660 N.2   1 <1>  -0.4100 
 11 C       -3.7750     1.4040    -0.2730 C.2   1 <1>   0.1080 
 12 C        2.6920     4.2780     0.2410 C.3   1 <1>  -0.1600 
 13 O       -4.7530     0.5750     1.3730 O.3   1 <1>   0.2420 
 14 N       -4.8910     0.9450     0.1250 N.2   1 <1>  -0.4100 
 15 C       -3.5570     1.9570    -1.6680 C.3   1 <1>  -0.0590 
 16 H       -1.2330     1.7140     1.8670 H     1 <1>   0.3700 
 17 H        1.7360     2.4670     2.1640 H     1 <1>   0.0800 
 18 H        0.1030     3.0750     2.1960 H     1 <1>   0.0800 
 19 H        1.6140     1.4340    -1.4180 H     1 <1>   0.0800 
 20 H        2.6500     1.4820    -0.0230 H     1 <1>   0.0800 
 21 H        1.7420     4.9150     2.0600 H     1 <1>   0.0800 
 22 H        0.6780     4.8850     0.6860 H     1 <1>   0.0800 
 23 H        1.6210     3.8610    -1.5810 H     1 <1>   0.0800 
 24 H        3.2570     3.2770    -1.5770 H     1 <1>   0.0800 
 25 H        3.5300     3.8640     0.7750 H     1 <1>   0.0800 
 26 H        2.9640     5.2650    -0.0910 H     1 <1>   0.0800 
 27 H       -3.1170     1.2010    -2.2920 H     1 <1>   0.0800 
 28 H       -2.9030     2.8090    -1.6330 H     1 <1>   0.0800 
 29 H       -4.4960     2.2580    -2.0970 H     1 <1>   0.0800 
@<TRIPOS>BOND
  1   1   2  2   
  2   2   3  am  
  3   2   4  am  
  4   3   5  1   
  5   3   6  1   
  6   4   7  1   
  7   4  16  1   
  8   5   8  1   
  9   5  17  1   
 10   5  18  1   
 11   6   9  1   
 12   6  19  1   
 13   6  20  1   
 14   7  10  2   
 15   7  11  1   
 16   8  12  1   
 17   8  21  1   
 18   8  22  1   
 19   9  12  1   
 20   9  23  1   
 21   9  24  1   
 22  10  13  1   
 23  11  14  2   
 24  11  15  1   
 25  12  25  1   
 26  12  26  1   
 27  13  14  1   
 28  15  27  1   
 29  15  28  1   
 30  15  29  1   
@<TRIPOS>SUBSTRUCTURE
  1 ****   2 GROUP 4 **** **** 0

# MOE 2024.06 (io_trps.svl 2023.06)
