@<TRIPOS>MOLECULE
Structure2320
23 24 1 0 0 
SMALL
USER_CHARGES


@<TRIPOS>ATOM
  1 F        0.7610     0.3860     1.6190 F     1 <1>  -0.1900 
  2 C        1.6550     0.9940     0.8840 C.ar  1 <1>   0.1900 
  3 C        1.3410     2.1720     0.2280 C.ar  1 <1>   0.1900 
  4 C        2.9160     0.4400     0.7780 C.ar  1 <1>  -0.1500 
  5 F        0.1450     2.6940     0.3350 F     1 <1>  -0.1900 
  6 C        2.2820     2.8190    -0.5530 C.ar  1 <1>  -0.1500 
  7 C        3.8730     1.0850     0.0040 C.ar  1 <1>   0.0830 
  8 C        3.5520     2.2700    -0.6660 C.ar  1 <1>  -0.1500 
  9 O        5.0960     0.5000    -0.0510 O.3   1 <1>  -0.3400 
 10 C        6.2300     1.2010    -0.5220 C.3   1 <1>   0.2580 
 11 C        7.5180     0.3730    -0.2950 C.3   1 <1>   0.4720 
 12 C        6.7900     2.1830     0.5360 C.3   1 <1>   0.4720 
 13 N        8.1530     1.5810     0.3380 N.4   1 <1>  -0.8440 
 14 H        3.1440    -0.4770     1.2910 H     1 <1>   0.1500 
 15 H        2.0160     3.7300    -1.0610 H     1 <1>   0.1500 
 16 H        4.2620     2.7810    -1.2900 H     1 <1>   0.1500 
 17 H        6.1090     1.5780    -1.5220 H     1 <1>   0.0000 
 18 H        8.0260     0.0890    -1.1980 H     1 <1>   0.0000 
 19 H        7.3950    -0.4170     0.4240 H     1 <1>   0.0000 
 20 H        6.4250     1.9900     1.5290 H     1 <1>   0.0000 
 21 H        6.7670     3.2150     0.2380 H     1 <1>   0.0000 
 22 H        8.7380     2.1130    -0.3150 H     1 <1>   0.4500 
 23 H        8.6320     1.3660     1.2200 H     1 <1>   0.4500 
@<TRIPOS>BOND
  1   1   2  1   
  2   2   3  ar  
  3   2   4  ar  
  4   3   5  1   
  5   3   6  ar  
  6   4   7  ar  
  7   4  14  1   
  8   6   8  ar  
  9   6  15  1   
 10   7   8  ar  
 11   7   9  1   
 12   8  16  1   
 13   9  10  1   
 14  10  11  1   
 15  10  12  1   
 16  10  17  1   
 17  11  13  1   
 18  11  18  1   
 19  11  19  1   
 20  12  13  1   
 21  12  20  1   
 22  12  21  1   
 23  13  22  1   
 24  13  23  1   
@<TRIPOS>SUBSTRUCTURE
  1 ****   7 GROUP 4 **** **** 0

# MOE 2024.06 (io_trps.svl 2023.06)
