@<TRIPOS>MOLECULE
NONAME
45 45 1 0 0 
SMALL
USER_CHARGES


@<TRIPOS>ATOM
  1 BR      -1.2700     0.3890    -1.7540 Br    1 <1>  -0.1110 
  2 C       -0.8450     1.9440    -0.6940 C.ar  1 <1>   0.1110 
  3 C       -1.6870     2.3070     0.3460 C.ar  1 <1>  -0.1440 
  4 C        0.2940     2.6560    -1.0160 C.ar  1 <1>  -0.1500 
  5 C       -1.3680     3.4440     1.0760 C.ar  1 <1>  -0.1500 
  6 C       -2.9190     1.4970     0.6720 C.3   1 <1>   0.4870 
  7 C        0.6130     3.7770    -0.2700 C.ar  1 <1>   0.0820 
  8 C       -0.2390     4.1870     0.7650 C.ar  1 <1>   0.0820 
  9 N       -3.9640     1.8840    -0.2960 N.4   1 <1>  -0.9060 
 10 O        1.7570     4.4300    -0.5900 O.3   1 <1>  -0.3620 
 11 O       -0.0200     5.3010     1.5060 O.3   1 <1>  -0.3620 
 12 C       -5.2660     1.2020    -0.2650 C.3   1 <1>   0.5030 
 13 C        2.7980     4.4480     0.3640 C.3   1 <1>   0.2000 
 14 C       -0.0480     6.5390     0.8270 C.3   1 <1>   0.0400 
 15 C       -6.2440     2.0670    -1.1050 C.3   1 <1>   0.1200 
 16 C       -5.7690     1.1090     1.1810 C.3   1 <1>  -0.2400 
 17 C       -5.1030    -0.1920    -0.8680 C.3   1 <1>  -0.2400 
 18 C        3.7620     5.5620    -0.0380 C.3   1 <1>  -0.2400 
 19 C        3.4930     3.0850     0.3650 C.3   1 <1>  -0.2400 
 20 O       -6.0120     3.4280    -0.8620 O.3   1 <1>  -0.6800 
 21 H        0.9330     2.3480    -1.8240 H     1 <1>   0.1500 
 22 H       -1.9840     3.7780     1.8940 H     1 <1>   0.1500 
 23 H       -3.2410     1.7060     1.6790 H     1 <1>   0.0800 
 24 H       -2.6990     0.4450     0.5890 H     1 <1>   0.0800 
 25 H       -3.5760     1.8170    -1.2400 H     1 <1>   0.4500 
 26 H       -4.2040     2.8820    -0.1840 H     1 <1>   0.4500 
 27 H        2.3830     4.6590     1.3350 H     1 <1>   0.0800 
 28 H        0.0470     7.3230     1.5560 H     1 <1>   0.0800 
 29 H       -0.9850     6.6310     0.3070 H     1 <1>   0.0800 
 30 H        0.7700     6.5880     0.1320 H     1 <1>   0.0800 
 31 H       -7.2670     1.8390    -0.8550 H     1 <1>   0.0800 
 32 H       -6.1020     1.8890    -2.1570 H     1 <1>   0.0800 
 33 H       -5.8140     2.0840     1.6340 H     1 <1>   0.0800 
 34 H       -5.1550     0.4610     1.7800 H     1 <1>   0.0800 
 35 H       -6.7640     0.6990     1.1920 H     1 <1>   0.0800 
 36 H       -6.0570    -0.6910    -0.8940 H     1 <1>   0.0800 
 37 H       -4.7320    -0.1370    -1.8760 H     1 <1>   0.0800 
 38 H       -4.4360    -0.7970    -0.2800 H     1 <1>   0.0800 
 39 H        4.1640     5.3750    -1.0170 H     1 <1>   0.0800 
 40 H        4.5740     5.6140     0.6640 H     1 <1>   0.0800 
 41 H        3.2520     6.5080    -0.0360 H     1 <1>   0.0800 
 42 H        3.8630     2.8530    -0.6180 H     1 <1>   0.0800 
 43 H        2.8110     2.3180     0.6830 H     1 <1>   0.0800 
 44 H        4.3210     3.0990     1.0490 H     1 <1>   0.0800 
 45 H       -6.6890     3.9870    -1.3080 H     1 <1>   0.4000 
@<TRIPOS>BOND
  1   1   2  1   
  2   2   3  ar  
  3   2   4  ar  
  4   3   5  ar  
  5   3   6  1   
  6   4   7  ar  
  7   4  21  1   
  8   5   8  ar  
  9   5  22  1   
 10   6   9  1   
 11   6  23  1   
 12   6  24  1   
 13   7   8  ar  
 14   7  10  1   
 15   8  11  1   
 16   9  12  1   
 17   9  25  1   
 18   9  26  1   
 19  10  13  1   
 20  11  14  1   
 21  12  15  1   
 22  12  16  1   
 23  12  17  1   
 24  13  18  1   
 25  13  19  1   
 26  13  27  1   
 27  14  28  1   
 28  14  29  1   
 29  14  30  1   
 30  15  20  1   
 31  15  31  1   
 32  15  32  1   
 33  16  33  1   
 34  16  34  1   
 35  16  35  1   
 36  17  36  1   
 37  17  37  1   
 38  17  38  1   
 39  18  39  1   
 40  18  40  1   
 41  18  41  1   
 42  19  42  1   
 43  19  43  1   
 44  19  44  1   
 45  20  45  1   
@<TRIPOS>SUBSTRUCTURE
  1 ****   3 GROUP 4 **** **** 0

# MOE 2024.06 (io_trps.svl 2023.06)
