@<TRIPOS>MOLECULE
NONAME
26 26 1 0 0 
SMALL
USER_CHARGES


@<TRIPOS>ATOM
  1 F        0.2730    -1.0620    -0.9270 F     1 <1>  -0.3400 
  2 C        1.0600    -2.0640    -0.5560 C.3   1 <1>   1.1640 
  3 F        1.2110    -2.8350    -1.6260 F     1 <1>  -0.3400 
  4 F        0.3680    -2.7780     0.3220 F     1 <1>  -0.3400 
  5 C        2.3970    -1.6030     0.0100 C.ar  1 <1>  -0.1440 
  6 C        3.3360    -2.5630     0.3500 C.ar  1 <1>   0.1600 
  7 C        2.7180    -0.2670     0.2080 C.ar  1 <1>  -0.1500 
  8 N        4.5350    -2.3140     0.8490 N.ar  1 <1>  -0.6200 
  9 C        3.9610     0.0050     0.7290 C.ar  1 <1>  -0.1500 
 10 C        4.8310    -1.0400     1.0260 C.ar  1 <1>   0.4100 
 11 N        6.0760    -0.8270     1.5340 N.pl3 1 <1>  -0.8690 
 12 C        7.0420     0.0670     0.8360 C.3   1 <1>   0.2090 
 13 C        8.1590    -0.7270     0.1290 C.3   1 <1>   0.2000 
 14 O        8.9910     0.1620    -0.5240 O.3   1 <1>  -0.6800 
 15 C        7.6580    -1.7160    -0.9240 C.3   1 <1>  -0.2400 
 16 H        3.0940    -3.6040     0.2050 H     1 <1>   0.1500 
 17 H        2.0320     0.5310    -0.0270 H     1 <1>   0.1500 
 18 H        4.2720     1.0140     0.9210 H     1 <1>   0.1500 
 19 H        6.4920    -1.7220     1.8040 H     1 <1>   0.4000 
 20 H        7.4870     0.7230     1.5640 H     1 <1>   0.0800 
 21 H        6.5200     0.6650     0.1090 H     1 <1>   0.0800 
 22 H        8.7560    -1.2350     0.8670 H     1 <1>   0.0800 
 23 H        8.5870     0.4390    -1.3680 H     1 <1>   0.4000 
 24 H        7.0280    -1.2250    -1.6440 H     1 <1>   0.0800 
 25 H        7.0810    -2.4900    -0.4520 H     1 <1>   0.0800 
 26 H        8.4890    -2.1820    -1.4230 H     1 <1>   0.0800 
@<TRIPOS>BOND
  1   1   2  1   
  2   2   3  1   
  3   2   4  1   
  4   2   5  1   
  5   5   6  ar  
  6   5   7  ar  
  7   6   8  ar  
  8   6  16  1   
  9   7   9  ar  
 10   7  17  1   
 11   8  10  ar  
 12   9  10  ar  
 13   9  18  1   
 14  10  11  1   
 15  11  12  1   
 16  11  19  1   
 17  12  13  1   
 18  12  20  1   
 19  12  21  1   
 20  13  14  1   
 21  13  15  1   
 22  13  22  1   
 23  14  23  1   
 24  15  24  1   
 25  15  25  1   
 26  15  26  1   
@<TRIPOS>SUBSTRUCTURE
  1 ****  10 GROUP 4 **** **** 0

# MOE 2024.06 (io_trps.svl 2023.06)
