@<TRIPOS>MOLECULE
NONAME
40 42 1 0 0 
SMALL
USER_CHARGES


@<TRIPOS>ATOM
  1 O        0.3710    -0.4460    -0.4030 O.3   1 <1>  -0.3630 
  2 C       -0.2610    -1.5620    -0.0290 C.ar  1 <1>   0.0830 
  3 C        1.6670    -0.8430    -0.8550 C.3   1 <1>   0.4000 
  4 C        0.5410    -2.6470    -0.2250 C.ar  1 <1>   0.0830 
  5 C       -1.5350    -1.6870     0.4870 C.ar  1 <1>  -0.1500 
  6 O        1.7160    -2.2640    -0.7310 O.3   1 <1>  -0.3630 
  7 C        0.1140    -3.9220     0.0860 C.ar  1 <1>  -0.1500 
  8 C       -1.9920    -2.9640     0.8020 C.ar  1 <1>  -0.1440 
  9 C       -1.1660    -4.0720     0.6040 C.ar  1 <1>  -0.1500 
 10 C       -3.3890    -3.1470     1.3450 C.3   1 <1>   0.4870 
 11 N       -4.2760    -3.2580     0.1710 N.4   1 <1>  -0.9060 
 12 C       -5.6920    -3.5380     0.4770 C.3   1 <1>   0.4230 
 13 C       -6.4180    -3.9600    -0.8180 C.3   1 <1>  -0.0800 
 14 C       -6.3430    -2.2970     1.1050 C.3   1 <1>  -0.1600 
 15 C       -7.9100    -4.2030    -0.5320 C.3   1 <1>  -0.1600 
 16 C       -5.8100    -5.2240    -1.4550 C.3   1 <1>  -0.2400 
 17 C       -7.8350    -2.5360     1.3780 C.3   1 <1>  -0.1600 
 18 C       -8.5680    -2.9720     0.1040 C.3   1 <1>  -0.1600 
 19 H        2.4200    -0.3990    -0.2290 H     1 <1>   0.0800 
 20 H        1.7910    -0.5650    -1.8870 H     1 <1>   0.0800 
 21 H       -2.1270    -0.7990     0.6300 H     1 <1>   0.1500 
 22 H        0.7680    -4.7610    -0.0740 H     1 <1>   0.1500 
 23 H       -1.5010    -5.0660     0.8520 H     1 <1>   0.1500 
 24 H       -3.6630    -2.2990     1.9530 H     1 <1>   0.0800 
 25 H       -3.4390    -4.0410     1.9450 H     1 <1>   0.0800 
 26 H       -3.9110    -4.0090    -0.4250 H     1 <1>   0.4500 
 27 H       -4.2010    -2.4010    -0.3840 H     1 <1>   0.4500 
 28 H       -5.7550    -4.3560     1.1770 H     1 <1>   0.0800 
 29 H       -6.3550    -3.1550    -1.5310 H     1 <1>   0.0800 
 30 H       -6.2490    -1.4560     0.4400 H     1 <1>   0.0800 
 31 H       -5.8690    -2.0520     2.0390 H     1 <1>   0.0800 
 32 H       -8.0280    -5.0470     0.1270 H     1 <1>   0.0800 
 33 H       -8.4250    -4.4350    -1.4500 H     1 <1>   0.0800 
 34 H       -5.8070    -6.0440    -0.7570 H     1 <1>   0.0800 
 35 H       -4.8060    -5.0560    -1.8020 H     1 <1>   0.0800 
 36 H       -6.3950    -5.5210    -2.3100 H     1 <1>   0.0800 
 37 H       -8.2840    -1.6330     1.7570 H     1 <1>   0.0800 
 38 H       -7.9510    -3.2970     2.1320 H     1 <1>   0.0800 
 39 H       -9.5950    -3.1970     0.3420 H     1 <1>   0.0800 
 40 H       -8.5730    -2.1590    -0.6040 H     1 <1>   0.0800 
@<TRIPOS>BOND
  1   1   2  1   
  2   1   3  1   
  3   2   4  ar  
  4   2   5  ar  
  5   3   6  1   
  6   3  19  1   
  7   3  20  1   
  8   4   6  1   
  9   4   7  ar  
 10   5   8  ar  
 11   5  21  1   
 12   7   9  ar  
 13   7  22  1   
 14   8   9  ar  
 15   8  10  1   
 16   9  23  1   
 17  10  11  1   
 18  10  24  1   
 19  10  25  1   
 20  11  12  1   
 21  11  26  1   
 22  11  27  1   
 23  12  13  1   
 24  12  14  1   
 25  12  28  1   
 26  13  15  1   
 27  13  16  1   
 28  13  29  1   
 29  14  17  1   
 30  14  30  1   
 31  14  31  1   
 32  15  18  1   
 33  15  32  1   
 34  15  33  1   
 35  16  34  1   
 36  16  35  1   
 37  16  36  1   
 38  17  18  1   
 39  17  37  1   
 40  17  38  1   
 41  18  39  1   
 42  18  40  1   
@<TRIPOS>SUBSTRUCTURE
  1 ****  11 GROUP 4 **** **** 0

# MOE 2024.06 (io_trps.svl 2023.06)
