@<TRIPOS>MOLECULE
NONAME
51 53 1 0 0 
SMALL
USER_CHARGES


@<TRIPOS>ATOM
  1 O        0.1550    -0.4100    -0.4860 O.2   1 <1>  -0.5700 
  2 C        0.0710    -1.6240    -0.4450 C.2   1 <1>   0.5440 
  3 N        1.2320    -2.3720    -0.4540 N.am  1 <1>  -0.6600 
  4 C       -1.2410    -2.2360    -0.3710 C.ar  1 <1>   0.0860 
  5 C        2.5450    -1.7700    -0.8380 C.3   1 <1>   0.1400 
  6 C        1.3310    -3.7440     0.1180 C.3   1 <1>   0.1400 
  7 C       -2.2030    -1.7520     0.5120 C.ar  1 <1>  -0.1500 
  8 C       -1.5900    -3.3170    -1.1780 C.ar  1 <1>  -0.1500 
  9 C        3.4950    -1.7380     0.3680 C.3   1 <1>   0.0640 
 10 C        2.2570    -3.7250     1.3400 C.3   1 <1>  -0.1600 
 11 C       -3.4660    -2.3240     0.6020 C.ar  1 <1>   0.0820 
 12 C       -2.8310    -3.9190    -1.1000 C.ar  1 <1>   0.0820 
 13 C        4.8600    -1.1750    -0.0260 C.ar  1 <1>  -0.1430 
 14 C        3.6350    -3.1330     1.0050 C.3   1 <1>  -0.1600 
 15 O       -4.4140    -1.8610     1.4690 O.3   1 <1>  -0.3630 
 16 C       -3.7910    -3.4110    -0.2150 C.ar  1 <1>   0.0820 
 17 O       -3.0150    -4.9860    -1.9270 O.3   1 <1>  -0.3630 
 18 C        5.6600    -1.8110    -0.9660 C.ar  1 <1>  -0.1500 
 19 C        5.3170    -0.0030     0.5600 C.ar  1 <1>  -0.1500 
 20 C       -4.1710    -0.7610     2.3190 C.3   1 <1>   0.0400 
 21 O       -5.0350    -3.9520    -0.1480 O.3   1 <1>  -0.3630 
 22 C       -3.7550    -6.1050    -1.4880 C.3   1 <1>   0.0400 
 23 C        6.8930    -1.2870    -1.3130 C.ar  1 <1>  -0.1500 
 24 C        6.5500     0.5230     0.2150 C.ar  1 <1>  -0.1500 
 25 C       -6.0510    -3.2420    -0.8190 C.3   1 <1>   0.0400 
 26 C        7.3390    -0.1180    -0.7220 C.ar  1 <1>  -0.1500 
 27 H        2.4110    -0.7690    -1.2120 H     1 <1>   0.0800 
 28 H        2.9750    -2.3580    -1.6290 H     1 <1>   0.0800 
 29 H        1.7250    -4.4090    -0.6320 H     1 <1>   0.0800 
 30 H        0.3650    -4.1090     0.4190 H     1 <1>   0.0800 
 31 H       -1.9250    -0.9120     1.1200 H     1 <1>   0.1500 
 32 H       -0.8730    -3.6990    -1.8820 H     1 <1>   0.1500 
 33 H        3.0510    -1.0820     1.0960 H     1 <1>   0.0800 
 34 H        2.3770    -4.7280     1.7100 H     1 <1>   0.0800 
 35 H        1.7930    -3.1430     2.1170 H     1 <1>   0.0800 
 36 H        4.2280    -3.0590     1.8990 H     1 <1>   0.0800 
 37 H        4.1430    -3.7940     0.3250 H     1 <1>   0.0800 
 38 H        5.3300    -2.7200    -1.4370 H     1 <1>   0.1500 
 39 H        4.7150     0.5100     1.2890 H     1 <1>   0.1500 
 40 H       -5.0600    -0.5840     2.8960 H     1 <1>   0.0800 
 41 H       -3.9470     0.1030     1.7190 H     1 <1>   0.0800 
 42 H       -3.3520    -1.0010     2.9750 H     1 <1>   0.0800 
 43 H       -3.4550    -6.9560    -2.0720 H     1 <1>   0.0800 
 44 H       -4.8010    -5.9120    -1.6420 H     1 <1>   0.0800 
 45 H       -3.5510    -6.2790    -0.4470 H     1 <1>   0.0800 
 46 H        7.5050    -1.7870    -2.0420 H     1 <1>   0.1500 
 47 H        6.8930     1.4330     0.6750 H     1 <1>   0.1500 
 48 H       -6.9680    -3.7940    -0.7220 H     1 <1>   0.0800 
 49 H       -5.7810    -3.1490    -1.8560 H     1 <1>   0.0800 
 50 H       -6.1580    -2.2710    -0.3700 H     1 <1>   0.0800 
 51 H        8.2980     0.2900    -0.9900 H     1 <1>   0.1500 
@<TRIPOS>BOND
  1   1   2  2   
  2   2   3  am  
  3   2   4  1   
  4   3   5  1   
  5   3   6  1   
  6   4   7  ar  
  7   4   8  ar  
  8   5   9  1   
  9   5  27  1   
 10   5  28  1   
 11   6  10  1   
 12   6  29  1   
 13   6  30  1   
 14   7  11  ar  
 15   7  31  1   
 16   8  12  ar  
 17   8  32  1   
 18   9  13  1   
 19   9  14  1   
 20   9  33  1   
 21  10  14  1   
 22  10  34  1   
 23  10  35  1   
 24  11  15  1   
 25  11  16  ar  
 26  12  16  ar  
 27  12  17  1   
 28  13  18  ar  
 29  13  19  ar  
 30  14  36  1   
 31  14  37  1   
 32  15  20  1   
 33  16  21  1   
 34  17  22  1   
 35  18  23  ar  
 36  18  38  1   
 37  19  24  ar  
 38  19  39  1   
 39  20  40  1   
 40  20  41  1   
 41  20  42  1   
 42  21  25  1   
 43  22  43  1   
 44  22  44  1   
 45  22  45  1   
 46  23  26  ar  
 47  23  46  1   
 48  24  26  ar  
 49  24  47  1   
 50  25  48  1   
 51  25  49  1   
 52  25  50  1   
 53  26  51  1   
@<TRIPOS>SUBSTRUCTURE
  1 ****   2 GROUP 4 **** **** 0

# MOE 2024.06 (io_trps.svl 2023.06)
