@<TRIPOS>MOLECULE
NONAME
37 38 1 0 0 
SMALL
USER_CHARGES


@<TRIPOS>ATOM
  1 CL       0.2670     0.5270    -0.4160 Cl    1 <1>  -0.1770 
  2 C        1.6240    -0.5680    -0.3710 C.ar  1 <1>   0.1770 
  3 C        1.3990    -1.9240    -0.5020 C.ar  1 <1>  -0.1500 
  4 C        2.8970    -0.0580    -0.2040 C.ar  1 <1>  -0.1500 
  5 C        2.4920    -2.7670    -0.4600 C.ar  1 <1>   0.1770 
  6 C        3.9960    -0.9100    -0.1660 C.ar  1 <1>   0.1170 
  7 CL       2.2440    -4.4860    -0.6160 Cl    1 <1>  -0.1770 
  8 C        3.7750    -2.2800    -0.2940 C.ar  1 <1>  -0.1500 
  9 N        5.2740    -0.3570     0.0160 N.am  1 <1>  -0.5470 
 10 C        6.5050    -0.8380    -0.3530 C.2   1 <1>   0.5690 
 11 O        6.6400    -1.8700    -0.9680 O.2   1 <1>  -0.5700 
 12 C        7.7450    -0.0060     0.0380 C.3   1 <1>   0.1710 
 13 N        9.0640    -0.6980    -0.0630 N.3   1 <1>  -0.8100 
 14 C       10.2260     0.2070     0.0860 C.3   1 <1>   0.1100 
 15 C        9.1860    -1.8700     0.8420 C.3   1 <1>   0.1100 
 16 C       11.5700    -0.5430    -0.1090 C.3   1 <1>   0.3430 
 17 C       10.4990    -2.6540     0.5970 C.3   1 <1>   0.3430 
 18 N       11.3400    -1.9860    -0.4520 N.4   1 <1>  -0.9590 
 19 C       12.5830    -2.7360    -0.7870 C.3   1 <1>   0.2630 
 20 H        0.4060    -2.3120    -0.6320 H     1 <1>   0.1500 
 21 H        3.0230     1.0040    -0.1090 H     1 <1>   0.1500 
 22 H        4.5910    -2.9770    -0.2640 H     1 <1>   0.1500 
 23 H        5.2710     0.5720     0.4360 H     1 <1>   0.3700 
 24 H        7.6130     0.3480     1.0450 H     1 <1>   0.0800 
 25 H        7.7610     0.8500    -0.6130 H     1 <1>   0.0800 
 26 H       10.2130     0.6680     1.0590 H     1 <1>   0.0800 
 27 H       10.1610     0.9930    -0.6470 H     1 <1>   0.0800 
 28 H        8.3620    -2.5440     0.6900 H     1 <1>   0.0800 
 29 H        9.1510    -1.5460     1.8690 H     1 <1>   0.0800 
 30 H       12.1520    -0.4680     0.7950 H     1 <1>   0.0800 
 31 H       12.1260    -0.0620    -0.8970 H     1 <1>   0.0800 
 32 H       10.2480    -3.6540     0.2810 H     1 <1>   0.0800 
 33 H       11.0470    -2.7290     1.5210 H     1 <1>   0.0800 
 34 H       10.7020    -1.9450    -1.2680 H     1 <1>   0.4500 
 35 H       13.2360    -2.7800     0.0690 H     1 <1>   0.0800 
 36 H       13.1040    -2.2500    -1.5970 H     1 <1>   0.0800 
 37 H       12.3410    -3.7410    -1.0910 H     1 <1>   0.0800 
@<TRIPOS>BOND
  1   1   2  1   
  2   2   3  ar  
  3   2   4  ar  
  4   3   5  ar  
  5   3  20  1   
  6   4   6  ar  
  7   4  21  1   
  8   5   7  1   
  9   5   8  ar  
 10   6   8  ar  
 11   6   9  1   
 12   8  22  1   
 13   9  10  am  
 14   9  23  1   
 15  10  11  2   
 16  10  12  1   
 17  12  13  1   
 18  12  24  1   
 19  12  25  1   
 20  13  14  1   
 21  13  15  1   
 22  14  16  1   
 23  14  26  1   
 24  14  27  1   
 25  15  17  1   
 26  15  28  1   
 27  15  29  1   
 28  16  18  1   
 29  16  30  1   
 30  16  31  1   
 31  17  18  1   
 32  17  32  1   
 33  17  33  1   
 34  18  19  1   
 35  18  34  1   
 36  19  35  1   
 37  19  36  1   
 38  19  37  1   
@<TRIPOS>SUBSTRUCTURE
  1 ****  10 GROUP 4 **** **** 0

# MOE 2024.06 (io_trps.svl 2023.06)
