@<TRIPOS>MOLECULE
NONAME
55 58 1 0 0 
SMALL
USER_CHARGES


@<TRIPOS>ATOM
  1 O       -1.2720     0.9550     0.1900 O.2   1 <1>  -0.5700 
  2 C       -0.7900     1.9800     0.6430 C.2   1 <1>   0.4690 
  3 C        0.4980     2.4630     0.2160 C.ar  1 <1>   0.0860 
  4 C       -1.4660     2.7560     1.6380 C.2   1 <1>  -0.1240 
  5 C        1.0210     3.6170     0.8110 C.ar  1 <1>   0.0820 
  6 C        1.2640     1.8330    -0.7690 C.ar  1 <1>  -0.1500 
  7 C       -0.8770     3.8540     2.1620 C.2   1 <1>  -0.0730 
  8 C       -2.8440     2.2960     2.0760 C.3   1 <1>   0.2480 
  9 O        0.3280     4.2710     1.7690 O.3   1 <1>  -0.1590 
 10 C        2.2590     4.1150     0.4310 C.ar  1 <1>  -0.1500 
 11 C        2.4970     2.3280    -1.1520 C.ar  1 <1>  -0.1440 
 12 N       -3.8330     2.6460     1.0400 N.3   1 <1>  -0.8100 
 13 C        2.9930     3.4740    -0.5460 C.ar  1 <1>  -0.1500 
 14 C        3.3160     1.6330    -2.2250 C.3   1 <1>  -0.0970 
 15 C       -4.2170     4.0680     1.0280 C.3   1 <1>   0.1100 
 16 C       -4.9980     1.7460     1.0440 C.3   1 <1>   0.1100 
 17 C       -5.1220     4.3760    -0.1830 C.3   1 <1>   0.3430 
 18 C       -5.9070     2.0270    -0.1680 C.3   1 <1>   0.3430 
 19 N       -6.3250     3.4740    -0.2310 N.4   1 <1>  -0.9590 
 20 C       -7.1680     3.7610    -1.4100 C.3   1 <1>   0.4810 
 21 C       -8.5200     3.1470    -1.1450 C.2   1 <1>  -0.2880 
 22 C       -9.6160     3.8350    -0.7810 C.2   1 <1>  -0.1780 
 23 C      -10.9360     3.3120    -0.5070 C.ar  1 <1>   0.0280 
 24 C      -11.8530     4.0780     0.2090 C.ar  1 <1>  -0.1500 
 25 C      -11.3450     2.0500    -0.9360 C.ar  1 <1>  -0.1500 
 26 C      -13.1200     3.6040     0.4940 C.ar  1 <1>  -0.1500 
 27 C      -12.6110     1.5700    -0.6530 C.ar  1 <1>  -0.1500 
 28 C      -13.5010     2.3460     0.0650 C.ar  1 <1>  -0.1500 
 29 H        0.8720     0.9430    -1.2320 H     1 <1>   0.1500 
 30 H       -1.3180     4.4760     2.9210 H     1 <1>   0.1500 
 31 H       -3.1170     2.7470     3.0150 H     1 <1>   0.0800 
 32 H       -2.8160     1.2280     2.2170 H     1 <1>   0.0800 
 33 H        2.6410     5.0030     0.9030 H     1 <1>   0.1500 
 34 H        3.9530     3.8640    -0.8390 H     1 <1>   0.1500 
 35 H        3.4610     2.2940    -3.0600 H     1 <1>   0.0800 
 36 H        2.8200     0.7440    -2.5730 H     1 <1>   0.0800 
 37 H        4.2770     1.3550    -1.8300 H     1 <1>   0.0800 
 38 H       -4.7250     4.3240     1.9420 H     1 <1>   0.0800 
 39 H       -3.3320     4.6770     0.9550 H     1 <1>   0.0800 
 40 H       -4.6560     0.7260     0.9820 H     1 <1>   0.0800 
 41 H       -5.5540     1.8580     1.9590 H     1 <1>   0.0800 
 42 H       -4.5360     4.2440    -1.0780 H     1 <1>   0.0800 
 43 H       -5.4340     5.4060    -0.1380 H     1 <1>   0.0800 
 44 H       -6.7760     1.3930    -0.1090 H     1 <1>   0.0800 
 45 H       -5.3630     1.7670    -1.0610 H     1 <1>   0.0800 
 46 H       -6.9040     3.6610     0.5960 H     1 <1>   0.4500 
 47 H       -7.2820     4.8270    -1.5250 H     1 <1>   0.0800 
 48 H       -6.7300     3.3590    -2.3100 H     1 <1>   0.0800 
 49 H       -8.5290     2.0800    -1.2780 H     1 <1>   0.1500 
 50 H       -9.5610     4.9050    -0.6590 H     1 <1>   0.1500 
 51 H      -11.5770     5.0590     0.5520 H     1 <1>   0.1500 
 52 H      -10.6780     1.4310    -1.5050 H     1 <1>   0.1500 
 53 H      -13.8130     4.2120     1.0510 H     1 <1>   0.1500 
 54 H      -12.9080     0.5930    -0.9930 H     1 <1>   0.1500 
 55 H      -14.4870     1.9750     0.2870 H     1 <1>   0.1500 
@<TRIPOS>BOND
  1   1   2  2   
  2   2   3  1   
  3   2   4  1   
  4   3   5  ar  
  5   3   6  ar  
  6   4   7  2   
  7   4   8  1   
  8   5   9  1   
  9   5  10  ar  
 10   6  11  ar  
 11   6  29  1   
 12   7   9  1   
 13   7  30  1   
 14   8  12  1   
 15   8  31  1   
 16   8  32  1   
 17  10  13  ar  
 18  10  33  1   
 19  11  13  ar  
 20  11  14  1   
 21  12  15  1   
 22  12  16  1   
 23  13  34  1   
 24  14  35  1   
 25  14  36  1   
 26  14  37  1   
 27  15  17  1   
 28  15  38  1   
 29  15  39  1   
 30  16  18  1   
 31  16  40  1   
 32  16  41  1   
 33  17  19  1   
 34  17  42  1   
 35  17  43  1   
 36  18  19  1   
 37  18  44  1   
 38  18  45  1   
 39  19  20  1   
 40  19  46  1   
 41  20  21  1   
 42  20  47  1   
 43  20  48  1   
 44  21  22  2   
 45  21  49  1   
 46  22  23  1   
 47  22  50  1   
 48  23  24  ar  
 49  23  25  ar  
 50  24  26  ar  
 51  24  51  1   
 52  25  27  ar  
 53  25  52  1   
 54  26  28  ar  
 55  26  53  1   
 56  27  28  ar  
 57  27  54  1   
 58  28  55  1   
@<TRIPOS>SUBSTRUCTURE
  1 ****  12 GROUP 4 **** **** 0

# MOE 2024.06 (io_trps.svl 2023.06)
