@<TRIPOS>MOLECULE
NONAME
42 43 1 0 0 
SMALL
USER_CHARGES


@<TRIPOS>ATOM
  1 O       -0.1130     0.2420    -1.0740 O.2   1 <1>  -0.5700 
  2 C       -0.4470     1.3910    -1.2540 C.2   1 <1>   0.7200 
  3 N       -1.6910     1.8890    -1.0840 N.2   1 <1>  -0.6610 
  4 C        0.5930     2.3680    -1.7350 C.3   1 <1>  -0.1790 
  5 C       -2.6810     1.2200    -0.6000 C.2   1 <1>   0.5600 
  6 N       -3.9050     1.7970    -0.5500 N.pl3 1 <1>  -0.5500 
  7 N       -2.5990    -0.0810    -0.1940 N.am  1 <1>  -0.4900 
  8 C       -4.2890     3.0820    -0.3310 C.ar  1 <1>   0.7200 
  9 C       -3.3270    -0.8760     0.6380 C.2   1 <1>   0.5690 
 10 N       -5.4690     3.3860    -0.7650 N.ar  1 <1>  -0.6200 
 11 N       -3.4610     3.8900     0.3600 N.ar  1 <1>  -0.6200 
 12 O       -3.0560    -2.0410     0.7360 O.2   1 <1>  -0.5700 
 13 C       -4.4650    -0.3350     1.4760 C.3   1 <1>  -0.1790 
 14 C       -5.9030     4.6490    -0.5550 C.ar  1 <1>   0.3100 
 15 C       -3.8530     5.0950     0.5800 C.ar  1 <1>   0.1670 
 16 C       -5.1040     5.5730     0.1380 C.ar  1 <1>   0.0000 
 17 C       -7.1700     5.0530    -1.0290 C.ar  1 <1>  -0.1430 
 18 C       -2.9060     5.9970     1.3490 C.3   1 <1>  -0.0970 
 19 C       -5.5950     6.8800     0.3390 C.ar  1 <1>  -0.1500 
 20 C       -7.6150     6.3330    -0.8140 C.ar  1 <1>  -0.1500 
 21 C       -8.0520     4.0670    -1.7870 C.3   1 <1>  -0.0970 
 22 C       -6.8270     7.2580    -0.1260 C.ar  1 <1>  -0.1430 
 23 C       -7.3610     8.6630     0.0880 C.3   1 <1>  -0.0970 
 24 H        0.3750     2.6490    -2.7470 H     1 <1>   0.0800 
 25 H        1.5680     1.9190    -1.6920 H     1 <1>   0.0800 
 26 H        0.5780     3.2420    -1.1120 H     1 <1>   0.0800 
 27 H       -4.6870     1.2260    -0.8340 H     1 <1>   0.4000 
 28 H       -1.7230    -0.5250    -0.4890 H     1 <1>   0.3700 
 29 H       -5.3360    -0.1920     0.8670 H     1 <1>   0.0800 
 30 H       -4.1810     0.5950     1.9330 H     1 <1>   0.0800 
 31 H       -4.7020    -1.0380     2.2540 H     1 <1>   0.0800 
 32 H       -2.6390     6.8460     0.7470 H     1 <1>   0.0800 
 33 H       -2.0060     5.4650     1.6030 H     1 <1>   0.0800 
 34 H       -3.3720     6.3310     2.2570 H     1 <1>   0.0800 
 35 H       -4.9880     7.5910     0.8680 H     1 <1>   0.1500 
 36 H       -8.5800     6.6450    -1.1740 H     1 <1>   0.1500 
 37 H       -8.9770     4.5230    -2.0890 H     1 <1>   0.0800 
 38 H       -8.2750     3.2220    -1.1610 H     1 <1>   0.0800 
 39 H       -7.5380     3.7200    -2.6660 H     1 <1>   0.0800 
 40 H       -8.2780     8.6250     0.6480 H     1 <1>   0.0800 
 41 H       -7.5530     9.1300    -0.8620 H     1 <1>   0.0800 
 42 H       -6.6550     9.2670     0.6280 H     1 <1>   0.0800 
@<TRIPOS>BOND
  1   1   2  2   
  2   2   3  1   
  3   2   4  1   
  4   3   5  2   
  5   4  24  1   
  6   4  25  1   
  7   4  26  1   
  8   5   6  1   
  9   5   7  1   
 10   6   8  1   
 11   6  27  1   
 12   7   9  am  
 13   7  28  1   
 14   8  10  ar  
 15   8  11  ar  
 16   9  12  2   
 17   9  13  1   
 18  10  14  ar  
 19  11  15  ar  
 20  13  29  1   
 21  13  30  1   
 22  13  31  1   
 23  14  16  ar  
 24  14  17  ar  
 25  15  16  ar  
 26  15  18  1   
 27  16  19  ar  
 28  17  20  ar  
 29  17  21  1   
 30  18  32  1   
 31  18  33  1   
 32  18  34  1   
 33  19  22  ar  
 34  19  35  1   
 35  20  22  ar  
 36  20  36  1   
 37  21  37  1   
 38  21  38  1   
 39  21  39  1   
 40  22  23  1   
 41  23  40  1   
 42  23  41  1   
 43  23  42  1   
@<TRIPOS>SUBSTRUCTURE
  1 ****   8 GROUP 4 **** **** 0

# MOE 2024.06 (io_trps.svl 2023.06)
