@<TRIPOS>MOLECULE
ka-07011
38 41 1 0 0 
SMALL
USER_CHARGES


@<TRIPOS>ATOM
  1 O        2.5360     1.4400     1.1270 O.3   1 <1>  -0.6800 
  2 C        3.2280     0.7640     0.1340 C.3   1 <1>   0.1200 
  3 C        2.4700    -0.5220    -0.2450 C.3   1 <1>  -0.0800 
  4 C        2.3370    -1.4680     0.9830 C.3   1 <1>   0.2070 
  5 C        3.0750    -1.3160    -1.4740 C.3   1 <1>  -0.0800 
  6 C        1.4510    -2.6230     0.5150 C.ar  1 <1>  -0.1440 
  7 C        3.7230    -2.0710     1.2200 C.ar  1 <1>  -0.1440 
  8 C        3.3030    -2.8030    -1.0800 C.3   1 <1>   0.2070 
  9 C        4.3590    -0.7040    -2.0670 C.3   1 <1>   0.1200 
 10 C        1.9570    -3.3210    -0.5720 C.ar  1 <1>  -0.1440 
 11 C        0.2390    -2.9870     1.0760 C.ar  1 <1>  -0.1500 
 12 C        4.2290    -2.7780     0.1380 C.ar  1 <1>  -0.1440 
 13 C        4.4640    -1.9500     2.3820 C.ar  1 <1>  -0.1500 
 14 O        4.7390    -1.4280    -3.1860 O.3   1 <1>  -0.6800 
 15 C        1.2520    -4.3860    -1.1060 C.ar  1 <1>  -0.1500 
 16 C       -0.4660    -4.0520     0.5410 C.ar  1 <1>  -0.1500 
 17 C        5.4760    -3.3730     0.2140 C.ar  1 <1>  -0.1500 
 18 C        5.7130    -2.5450     2.4580 C.ar  1 <1>  -0.1500 
 19 C        0.0380    -4.7490    -0.5460 C.ar  1 <1>  -0.1500 
 20 C        6.2170    -3.2540     1.3780 C.ar  1 <1>  -0.1500 
 21 H        1.6720     1.7540     0.7960 H     1 <1>   0.4000 
 22 H        4.2100     0.5360     0.5140 H     1 <1>   0.0800 
 23 H        3.3160     1.4310    -0.7060 H     1 <1>   0.0800 
 24 H        1.4750    -0.2260    -0.5290 H     1 <1>   0.0800 
 25 H        1.9400    -0.9850     1.8580 H     1 <1>   0.0800 
 26 H        2.3360    -1.3020    -2.2560 H     1 <1>   0.0800 
 27 H        3.6890    -3.4040    -1.8850 H     1 <1>   0.0800 
 28 H        5.1680    -0.7340    -1.3550 H     1 <1>   0.0800 
 29 H        4.1920     0.3100    -2.3830 H     1 <1>   0.0800 
 30 H       -0.1530    -2.4490     1.9210 H     1 <1>   0.1500 
 31 H        4.0740    -1.3990     3.2200 H     1 <1>   0.1500 
 32 H        5.5750    -1.0800    -3.5550 H     1 <1>   0.4000 
 33 H        1.6440    -4.9290    -1.9480 H     1 <1>   0.1500 
 34 H       -1.4080    -4.3420     0.9720 H     1 <1>   0.1500 
 35 H        5.8660    -3.9220    -0.6250 H     1 <1>   0.1500 
 36 H        6.2940    -2.4560     3.3590 H     1 <1>   0.1500 
 37 H       -0.5140    -5.5760    -0.9560 H     1 <1>   0.1500 
 38 H        7.1860    -3.7150     1.4450 H     1 <1>   0.1500 
@<TRIPOS>BOND
  1   1   2  1   
  2   1  21  1   
  3   2   3  1   
  4   2  22  1   
  5   2  23  1   
  6   3   4  1   
  7   3   5  1   
  8   3  24  1   
  9   4   6  1   
 10   4   7  1   
 11   4  25  1   
 12   5   8  1   
 13   5   9  1   
 14   5  26  1   
 15   6  10  ar  
 16   6  11  ar  
 17   7  12  ar  
 18   7  13  ar  
 19   8  10  1   
 20   8  12  1   
 21   8  27  1   
 22   9  14  1   
 23   9  28  1   
 24   9  29  1   
 25  10  15  ar  
 26  11  16  ar  
 27  11  30  1   
 28  12  17  ar  
 29  13  18  ar  
 30  13  31  1   
 31  14  32  1   
 32  15  19  ar  
 33  15  33  1   
 34  16  19  ar  
 35  16  34  1   
 36  17  20  ar  
 37  17  35  1   
 38  18  20  ar  
 39  18  36  1   
 40  19  37  1   
 41  20  38  1   
@<TRIPOS>SUBSTRUCTURE
  1 ****   7 GROUP 4 **** **** 0

# MOE 2024.06 (io_trps.svl 2023.06)
