@<TRIPOS>MOLECULE
NONAME
49 52 1 0 0 
SMALL
USER_CHARGES


@<TRIPOS>ATOM
  1 F       -2.9050     3.0250     1.7540 F     1 <1>  -0.3400 
  2 C       -1.9260     2.5400     0.9910 C.3   1 <1>   1.1640 
  3 F       -1.2070     1.7630     1.7940 F     1 <1>  -0.3400 
  4 F       -2.4980     1.7060     0.1270 F     1 <1>  -0.3400 
  5 C       -1.0800     3.6570     0.3300 C.ar  1 <1>  -0.1440 
  6 C       -1.4540     4.3280    -0.8440 C.ar  1 <1>  -0.1440 
  7 C        0.1160     4.0280     0.9460 C.ar  1 <1>  -0.1500 
  8 C       -0.6320     5.3180    -1.3660 C.ar  1 <1>  -0.1500 
  9 C       -2.7500     4.0420    -1.6000 C.3   1 <1>   0.2540 
 10 C        0.9230     5.0180     0.4190 C.ar  1 <1>  -0.1500 
 11 C        0.5500     5.6640    -0.7410 C.ar  1 <1>  -0.1500 
 12 N       -3.8970     4.2260    -0.7000 N.3   1 <1>  -0.8100 
 13 C       -5.1440     3.6430    -1.2210 C.3   1 <1>   0.1100 
 14 C       -4.0830     5.6180    -0.2480 C.3   1 <1>   0.1100 
 15 C       -6.2430     3.6780    -0.1390 C.3   1 <1>   0.3430 
 16 C       -5.1600     5.6840     0.8520 C.3   1 <1>   0.3430 
 17 N       -6.4580     5.0680     0.4050 N.4   1 <1>  -0.9590 
 18 C       -7.4640     5.0740     1.4970 C.3   1 <1>   0.4860 
 19 C       -8.7910     4.6020     0.9340 C.ar  1 <1>  -0.1430 
 20 C       -9.5250     5.4370     0.0950 C.ar  1 <1>  -0.1500 
 21 C       -9.2720     3.3290     1.2480 C.ar  1 <1>  -0.1500 
 22 C      -10.7140     4.9610    -0.4170 C.ar  1 <1>   0.0830 
 23 C      -10.4750     2.8730     0.7240 C.ar  1 <1>  -0.1500 
 24 O      -11.5650     5.5820    -1.2390 O.3   1 <1>  -0.3620 
 25 C      -11.1770     3.7160    -0.1120 C.ar  1 <1>   0.0830 
 26 C      -12.6500     4.6800    -1.4610 C.3   1 <1>   0.4000 
 27 O      -12.3420     3.4950    -0.7280 O.3   1 <1>  -0.3620 
 28 H        0.4410     3.5480     1.8540 H     1 <1>   0.1500 
 29 H       -0.9030     5.8360    -2.2700 H     1 <1>   0.1500 
 30 H       -2.7230     3.0290    -1.9660 H     1 <1>   0.0800 
 31 H       -2.8490     4.6930    -2.4520 H     1 <1>   0.0800 
 32 H        1.8430     5.2850     0.9120 H     1 <1>   0.1500 
 33 H        1.1790     6.4330    -1.1560 H     1 <1>   0.1500 
 34 H       -4.9710     2.6170    -1.4980 H     1 <1>   0.0800 
 35 H       -5.4700     4.1770    -2.0980 H     1 <1>   0.0800 
 36 H       -4.3580     6.2460    -1.0780 H     1 <1>   0.0800 
 37 H       -3.1600     5.9950     0.1620 H     1 <1>   0.0800 
 38 H       -5.9450     3.0200     0.6600 H     1 <1>   0.0800 
 39 H       -7.1610     3.2990    -0.5570 H     1 <1>   0.0800 
 40 H       -5.3150     6.7120     1.1350 H     1 <1>   0.0800 
 41 H       -4.7860     5.1530     1.7130 H     1 <1>   0.0800 
 42 H       -6.8380     5.6310    -0.3640 H     1 <1>   0.4500 
 43 H       -7.5800     6.0700     1.8930 H     1 <1>   0.0800 
 44 H       -7.1500     4.4220     2.2970 H     1 <1>   0.0800 
 45 H       -9.2080     6.4310    -0.1660 H     1 <1>   0.1500 
 46 H       -8.7200     2.6780     1.9060 H     1 <1>   0.1500 
 47 H      -10.8640     1.8960     0.9550 H     1 <1>   0.1500 
 48 H      -12.7210     4.4490    -2.5090 H     1 <1>   0.0800 
 49 H      -13.5610     5.1110    -1.0850 H     1 <1>   0.0800 
@<TRIPOS>BOND
  1   1   2  1   
  2   2   3  1   
  3   2   4  1   
  4   2   5  1   
  5   5   6  ar  
  6   5   7  ar  
  7   6   8  ar  
  8   6   9  1   
  9   7  10  ar  
 10   7  28  1   
 11   8  11  ar  
 12   8  29  1   
 13   9  12  1   
 14   9  30  1   
 15   9  31  1   
 16  10  11  ar  
 17  10  32  1   
 18  11  33  1   
 19  12  13  1   
 20  12  14  1   
 21  13  15  1   
 22  13  34  1   
 23  13  35  1   
 24  14  16  1   
 25  14  36  1   
 26  14  37  1   
 27  15  17  1   
 28  15  38  1   
 29  15  39  1   
 30  16  17  1   
 31  16  40  1   
 32  16  41  1   
 33  17  18  1   
 34  17  42  1   
 35  18  19  1   
 36  18  43  1   
 37  18  44  1   
 38  19  20  ar  
 39  19  21  ar  
 40  20  22  ar  
 41  20  45  1   
 42  21  23  ar  
 43  21  46  1   
 44  22  24  1   
 45  22  25  ar  
 46  23  25  ar  
 47  23  47  1   
 48  24  26  1   
 49  25  27  1   
 50  26  27  1   
 51  26  48  1   
 52  26  49  1   
@<TRIPOS>SUBSTRUCTURE
  1 ****  15 GROUP 4 **** **** 0

# MOE 2024.06 (io_trps.svl 2023.06)
