@<TRIPOS>MOLECULE
NONAME
31 32 1 0 0 
SMALL
USER_CHARGES


@<TRIPOS>ATOM
  1 S        0.1920     0.2090    -0.7310 S.3   1 <1>  -0.3320 
  2 C       -1.3600    -0.6450    -0.4000 C.ar  1 <1>   0.1020 
  3 C        1.5460    -0.9360    -0.2140 C.3   1 <1>   0.0700 
  4 C       -1.4030    -1.9400     0.0910 C.ar  1 <1>  -0.1500 
  5 C       -2.5260     0.0520    -0.6600 C.ar  1 <1>  -0.1500 
  6 C        2.8870    -0.2260    -0.4160 C.3   1 <1>  -0.1600 
  7 C       -2.6310    -2.5350     0.3260 C.ar  1 <1>  -0.1500 
  8 C       -3.7490    -0.5500    -0.4220 C.ar  1 <1>  -0.1500 
  9 C        3.0230     1.0150     0.4790 C.3   1 <1>   0.0960 
 10 C       -3.8070    -1.8440     0.0730 C.ar  1 <1>  -0.1430 
 11 N        4.3460     1.6390     0.3040 N.pl3 1 <1>   0.3140 
 12 C       -5.1500    -2.5030     0.3310 C.3   1 <1>  -0.0960 
 13 N        5.4300     1.2230     0.9440 N.2   1 <1>  -0.7070 
 14 C        4.6830     2.6640    -0.4840 C.2   1 <1>   0.0360 
 15 C        6.3400     2.0260     0.4980 C.2   1 <1>   0.3660 
 16 N        5.9330     2.9410    -0.3910 N.2   1 <1>  -0.5650 
 17 H        1.4720    -1.8140    -0.8320 H     1 <1>   0.0800 
 18 H        1.3820    -1.1900     0.8190 H     1 <1>   0.0800 
 19 H       -0.5080    -2.4940     0.2930 H     1 <1>   0.1500 
 20 H       -2.4740     1.0540    -1.0430 H     1 <1>   0.1500 
 21 H        2.9830     0.0550    -1.4510 H     1 <1>   0.0800 
 22 H        3.6780    -0.9170    -0.1780 H     1 <1>   0.0800 
 23 H       -2.6700    -3.5410     0.7070 H     1 <1>   0.1500 
 24 H       -4.6560    -0.0070    -0.6260 H     1 <1>   0.1500 
 25 H        2.9180     0.7400     1.5130 H     1 <1>   0.0800 
 26 H        2.2700     1.7440     0.2410 H     1 <1>   0.0800 
 27 H       -5.0750    -3.2060     1.1410 H     1 <1>   0.0800 
 28 H       -5.4750    -3.0220    -0.5520 H     1 <1>   0.0800 
 29 H       -5.8870    -1.7650     0.5920 H     1 <1>   0.0800 
 30 H        3.9770     3.1780    -1.1110 H     1 <1>   0.1500 
 31 H        7.3720     1.9820     0.8090 H     1 <1>   0.1500 
@<TRIPOS>BOND
  1   1   2  1   
  2   1   3  1   
  3   2   4  ar  
  4   2   5  ar  
  5   3   6  1   
  6   3  17  1   
  7   3  18  1   
  8   4   7  ar  
  9   4  19  1   
 10   5   8  ar  
 11   5  20  1   
 12   6   9  1   
 13   6  21  1   
 14   6  22  1   
 15   7  10  ar  
 16   7  23  1   
 17   8  10  ar  
 18   8  24  1   
 19   9  11  1   
 20   9  25  1   
 21   9  26  1   
 22  10  12  1   
 23  11  13  1   
 24  11  14  1   
 25  12  27  1   
 26  12  28  1   
 27  12  29  1   
 28  13  15  2   
 29  14  16  2   
 30  14  30  1   
 31  15  16  1   
 32  15  31  1   
@<TRIPOS>SUBSTRUCTURE
  1 ****   1 GROUP 4 **** **** 0

# MOE 2024.06 (io_trps.svl 2023.06)
