@<TRIPOS>MOLECULE
NONAME
47 48 1 0 0 
SMALL
USER_CHARGES


@<TRIPOS>ATOM
  1 O        2.4870    -6.2420    -1.7220 O.2   1 <1>  -0.5700 
  2 C        2.5510    -6.1140    -0.5250 C.2   1 <1>   0.5690 
  3 N        3.6560    -6.4570     0.1850 N.am  1 <1>  -0.7300 
  4 C        1.3400    -5.5440     0.2090 C.3   1 <1>  -0.0190 
  5 C        4.9060    -6.9960    -0.4010 C.3   1 <1>   0.1400 
  6 C        0.1220    -6.4750     0.0500 C.3   1 <1>  -0.1600 
  7 C        1.0050    -4.1320    -0.3120 C.3   1 <1>  -0.1600 
  8 C        6.1130    -6.1440     0.0230 C.3   1 <1>  -0.0800 
  9 C       -1.1510    -5.8740     0.6420 C.3   1 <1>   0.3430 
 10 C       -0.2860    -3.5820     0.2890 C.3   1 <1>   0.3430 
 11 C        7.3860    -6.6740    -0.6480 C.3   1 <1>  -0.2400 
 12 C        6.3090    -6.1230     1.5480 C.3   1 <1>  -0.2400 
 13 N       -1.3980    -4.5360     0.0320 N.4   1 <1>  -0.9590 
 14 C       -2.7120    -3.9700     0.4450 C.3   1 <1>   0.4860 
 15 C       -3.8150    -4.8920    -0.0360 C.ar  1 <1>  -0.1440 
 16 C       -4.5070    -5.6840     0.8710 C.ar  1 <1>  -0.1500 
 17 C       -4.1390    -4.9570    -1.3840 C.ar  1 <1>  -0.1500 
 18 C       -5.5030    -6.5380     0.4320 C.ar  1 <1>  -0.1500 
 19 C       -5.1350    -5.8120    -1.8210 C.ar  1 <1>  -0.1500 
 20 C       -5.8150    -6.6040    -0.9140 C.ar  1 <1>  -0.1500 
 21 H        3.6890    -6.3390     1.1980 H     1 <1>   0.3700 
 22 H        1.5790    -5.4730     1.2550 H     1 <1>   0.0800 
 23 H        4.8300    -7.0020    -1.4770 H     1 <1>   0.0800 
 24 H        5.0400    -8.0130    -0.0730 H     1 <1>   0.0800 
 25 H        0.3260    -7.4150     0.5330 H     1 <1>   0.0800 
 26 H       -0.0450    -6.6860    -0.9930 H     1 <1>   0.0800 
 27 H        0.9110    -4.1500    -1.3850 H     1 <1>   0.0800 
 28 H        1.8170    -3.4660    -0.0770 H     1 <1>   0.0800 
 29 H        5.9520    -5.1370    -0.3240 H     1 <1>   0.0800 
 30 H       -1.0460    -5.7780     1.7110 H     1 <1>   0.0800 
 31 H       -1.9800    -6.5350     0.4400 H     1 <1>   0.0800 
 32 H       -0.5060    -2.6250    -0.1560 H     1 <1>   0.0800 
 33 H       -0.1600    -3.4430     1.3510 H     1 <1>   0.0800 
 34 H        7.5930    -7.6810    -0.3320 H     1 <1>   0.0800 
 35 H        8.2290    -6.0550    -0.3930 H     1 <1>   0.0800 
 36 H        7.2770    -6.6650    -1.7180 H     1 <1>   0.0800 
 37 H        6.4230    -7.1230     1.9290 H     1 <1>   0.0800 
 38 H        5.4730    -5.6580     2.0370 H     1 <1>   0.0800 
 39 H        7.1910    -5.5600     1.8000 H     1 <1>   0.0800 
 40 H       -1.4570    -4.6930    -0.9830 H     1 <1>   0.4500 
 41 H       -2.8520    -2.9960     0.0060 H     1 <1>   0.0800 
 42 H       -2.7570    -3.8720     1.5170 H     1 <1>   0.0800 
 43 H       -4.2860    -5.6470     1.9240 H     1 <1>   0.1500 
 44 H       -3.6310    -4.3450    -2.1100 H     1 <1>   0.1500 
 45 H       -6.0410    -7.1530     1.1350 H     1 <1>   0.1500 
 46 H       -5.3880    -5.8630    -2.8670 H     1 <1>   0.1500 
 47 H       -6.5910    -7.2690    -1.2550 H     1 <1>   0.1500 
@<TRIPOS>BOND
  1   1   2  2   
  2   2   3  am  
  3   2   4  1   
  4   3   5  1   
  5   3  21  1   
  6   4   6  1   
  7   4   7  1   
  8   4  22  1   
  9   5   8  1   
 10   5  23  1   
 11   5  24  1   
 12   6   9  1   
 13   6  25  1   
 14   6  26  1   
 15   7  10  1   
 16   7  27  1   
 17   7  28  1   
 18   8  11  1   
 19   8  12  1   
 20   8  29  1   
 21   9  13  1   
 22   9  30  1   
 23   9  31  1   
 24  10  13  1   
 25  10  32  1   
 26  10  33  1   
 27  11  34  1   
 28  11  35  1   
 29  11  36  1   
 30  12  37  1   
 31  12  38  1   
 32  12  39  1   
 33  13  14  1   
 34  13  40  1   
 35  14  15  1   
 36  14  41  1   
 37  14  42  1   
 38  15  16  ar  
 39  15  17  ar  
 40  16  18  ar  
 41  16  43  1   
 42  17  19  ar  
 43  17  44  1   
 44  18  20  ar  
 45  18  45  1   
 46  19  20  ar  
 47  19  46  1   
 48  20  47  1   
@<TRIPOS>SUBSTRUCTURE
  1 ****   6 GROUP 4 **** **** 0

# MOE 2024.06 (io_trps.svl 2023.06)
