@<TRIPOS>MOLECULE
NONAME
40 42 1 0 0 
SMALL
USER_CHARGES


@<TRIPOS>ATOM
  1 S        0.0940    -0.9870    -1.3200 S.3   1 <1>  -0.0800 
  2 C        1.6260    -1.3770    -0.6140 C.2   1 <1>   0.4420 
  3 C       -0.6480    -1.7090     0.0690 C.2   1 <1>   0.1980 
  4 N        1.5040    -1.9510     0.5280 N.2   1 <1>  -0.3380 
  5 N        2.7550    -1.0210    -1.3130 N.am  1 <1>  -0.4940 
  6 N        0.2050    -2.1450     0.9070 N.2   1 <1>  -0.3380 
  7 C       -2.1710    -1.7410     0.1140 C.3   1 <1>   0.1000 
  8 C        4.0390    -1.4250    -1.1370 C.2   1 <1>   0.6900 
  9 C       -2.7990    -0.3550     0.2590 C.3   1 <1>  -0.1600 
 10 C       -2.7530    -2.5140     1.2980 C.3   1 <1>  -0.1600 
 11 O        4.9220    -0.6280    -1.3580 O.2   1 <1>  -0.5700 
 12 N        4.3820    -2.6930    -0.7900 N.am  1 <1>  -0.5470 
 13 C       -4.2030    -0.5990     0.8230 C.3   1 <1>  -0.1600 
 14 C       -4.1910    -2.0090     1.4250 C.3   1 <1>  -0.1600 
 15 C        3.7020    -3.8680    -1.1180 C.ar  1 <1>   0.1170 
 16 C        2.9960    -4.5670    -0.1510 C.ar  1 <1>  -0.1500 
 17 C        3.7250    -4.3490    -2.4210 C.ar  1 <1>  -0.1500 
 18 C        2.2960    -5.7200    -0.4830 C.ar  1 <1>   0.0820 
 19 C        3.0490    -5.5090    -2.7540 C.ar  1 <1>  -0.1500 
 20 O        1.5490    -6.4210     0.4070 O.3   1 <1>  -0.3620 
 21 C        2.3350    -6.1920    -1.7850 C.ar  1 <1>  -0.1500 
 22 C        1.1350    -5.8160     1.6140 C.3   1 <1>   0.0400 
 23 H        2.6800    -0.2050    -1.9100 H     1 <1>   0.3700 
 24 H       -2.5330    -2.1930    -0.7940 H     1 <1>   0.0800 
 25 H       -2.8280     0.1730    -0.6780 H     1 <1>   0.0800 
 26 H       -2.2280     0.2190     0.9690 H     1 <1>   0.0800 
 27 H       -2.2120    -2.2630     2.1950 H     1 <1>   0.0800 
 28 H       -2.7050    -3.5780     1.1460 H     1 <1>   0.0800 
 29 H        5.3850    -2.7850    -0.6340 H     1 <1>   0.3700 
 30 H       -4.9350    -0.5460     0.0360 H     1 <1>   0.0800 
 31 H       -4.4430     0.1400     1.5690 H     1 <1>   0.0800 
 32 H       -4.5110    -2.0040     2.4540 H     1 <1>   0.0800 
 33 H       -4.8510    -2.6460     0.8610 H     1 <1>   0.0800 
 34 H        2.9980    -4.1860     0.8520 H     1 <1>   0.1500 
 35 H        4.2760    -3.8140    -3.1730 H     1 <1>   0.1500 
 36 H        3.0740    -5.8800    -3.7640 H     1 <1>   0.1500 
 37 H        1.7990    -7.0910    -2.0310 H     1 <1>   0.1500 
 38 H        0.4290    -6.4710     2.0920 H     1 <1>   0.0800 
 39 H        0.6670    -4.8720     1.3910 H     1 <1>   0.0800 
 40 H        1.9920    -5.6770     2.2480 H     1 <1>   0.0800 
@<TRIPOS>BOND
  1   1   2  1   
  2   1   3  1   
  3   2   4  2   
  4   2   5  1   
  5   3   6  2   
  6   3   7  1   
  7   4   6  1   
  8   5   8  am  
  9   5  23  1   
 10   7   9  1   
 11   7  10  1   
 12   7  24  1   
 13   8  11  2   
 14   8  12  am  
 15   9  13  1   
 16   9  25  1   
 17   9  26  1   
 18  10  14  1   
 19  10  27  1   
 20  10  28  1   
 21  12  15  1   
 22  12  29  1   
 23  13  14  1   
 24  13  30  1   
 25  13  31  1   
 26  14  32  1   
 27  14  33  1   
 28  15  16  ar  
 29  15  17  ar  
 30  16  18  ar  
 31  16  34  1   
 32  17  19  ar  
 33  17  35  1   
 34  18  20  1   
 35  18  21  ar  
 36  19  21  ar  
 37  19  36  1   
 38  20  22  1   
 39  21  37  1   
 40  22  38  1   
 41  22  39  1   
 42  22  40  1   
@<TRIPOS>SUBSTRUCTURE
  1 ****   4 GROUP 4 **** **** 0

# MOE 2024.06 (io_trps.svl 2023.06)
