@<TRIPOS>MOLECULE
NONAME
45 46 1 0 0 
SMALL
USER_CHARGES


@<TRIPOS>ATOM
  1 P       -0.1520    -0.2330    -0.5700 P.3   1 <1>   1.5070 
  2 O       -0.4740    -0.5270    -1.9630 O.2   1 <1>  -0.7000 
  3 O       -1.3130     0.6060     0.1530 O.3   1 <1>  -0.5510 
  4 N        1.2200     0.7000    -0.3130 N.3   1 <1>  -0.8080 
  5 N        0.0220    -1.6100     0.3780 N.3   1 <1>  -0.8080 
  6 C       -2.1040     1.5240    -0.5510 C.3   1 <1>   0.1200 
  7 C        1.7560     0.6600     1.0520 C.3   1 <1>   0.1100 
  8 C        2.2670     0.5690    -1.3300 C.3   1 <1>   0.1100 
  9 C        0.9650    -2.5820    -0.1910 C.3   1 <1>   0.1100 
 10 C       -1.2580    -2.2700     0.6710 C.3   1 <1>   0.1100 
 11 C       -1.4730     2.9160    -0.7920 C.3   1 <1>   0.6800 
 12 C        2.7810     1.7790     1.2640 C.3   1 <1>  -0.1600 
 13 C        3.2910     1.6990    -1.1870 C.3   1 <1>  -0.1600 
 14 C        1.2430    -3.7160     0.8010 C.3   1 <1>  -0.1600 
 15 C       -1.0690    -3.3940     1.6950 C.3   1 <1>  -0.1600 
 16 F       -2.3180     3.5970    -1.5660 F     1 <1>  -0.3400 
 17 F       -0.3870     2.8170    -1.5540 F     1 <1>  -0.3400 
 18 C       -1.1680     3.7660     0.4670 C.3   1 <1>   0.6000 
 19 C        3.9000     1.7210     0.2190 C.3   1 <1>  -0.1600 
 20 C       -0.0510    -4.4280     1.2060 C.3   1 <1>  -0.1600 
 21 F       -0.3930     3.1400     1.3490 F     1 <1>  -0.3400 
 22 F       -2.2830     4.0350     1.1490 F     1 <1>  -0.3400 
 23 H       -2.9940     1.6620     0.0360 H     1 <1>   0.0800 
 24 H       -2.3850     1.0840    -1.4910 H     1 <1>   0.0800 
 25 H        2.2170    -0.2970     1.2350 H     1 <1>   0.0800 
 26 H        0.9510     0.7820     1.7590 H     1 <1>   0.0800 
 27 H        1.8240     0.6270    -2.3120 H     1 <1>   0.0800 
 28 H        2.7620    -0.3800    -1.2380 H     1 <1>   0.0800 
 29 H        1.8970    -2.0980    -0.4150 H     1 <1>   0.0800 
 30 H        0.5650    -2.9820    -1.1100 H     1 <1>   0.0800 
 31 H       -1.6810    -2.6640    -0.2390 H     1 <1>   0.0800 
 32 H       -1.9530    -1.5580     1.0840 H     1 <1>   0.0800 
 33 H        3.2000     1.6960     2.2510 H     1 <1>   0.0800 
 34 H        2.2760     2.7260     1.2010 H     1 <1>   0.0800 
 35 H        2.8010     2.6360    -1.3880 H     1 <1>   0.0800 
 36 H        4.0690     1.5710    -1.9180 H     1 <1>   0.0800 
 37 H        1.7210    -3.3050     1.6720 H     1 <1>   0.0800 
 38 H        1.9200    -4.4240     0.3550 H     1 <1>   0.0800 
 39 H       -2.0140    -3.8750     1.8770 H     1 <1>   0.0800 
 40 H       -0.7350    -2.9640     2.6230 H     1 <1>   0.0800 
 41 H       -0.6980     4.7000     0.2220 H     1 <1>   0.0800 
 42 H        4.4850     0.8300     0.3700 H     1 <1>   0.0800 
 43 H        4.5490     2.5730     0.3260 H     1 <1>   0.0800 
 44 H        0.1490    -5.1470     1.9810 H     1 <1>   0.0800 
 45 H       -0.4530    -4.9510     0.3550 H     1 <1>   0.0800 
@<TRIPOS>BOND
  1   1   2  2   
  2   1   3  1   
  3   1   4  1   
  4   1   5  1   
  5   3   6  1   
  6   4   7  1   
  7   4   8  1   
  8   5   9  1   
  9   5  10  1   
 10   6  11  1   
 11   6  23  1   
 12   6  24  1   
 13   7  12  1   
 14   7  25  1   
 15   7  26  1   
 16   8  13  1   
 17   8  27  1   
 18   8  28  1   
 19   9  14  1   
 20   9  29  1   
 21   9  30  1   
 22  10  15  1   
 23  10  31  1   
 24  10  32  1   
 25  11  16  1   
 26  11  17  1   
 27  11  18  1   
 28  12  19  1   
 29  12  33  1   
 30  12  34  1   
 31  13  19  1   
 32  13  35  1   
 33  13  36  1   
 34  14  20  1   
 35  14  37  1   
 36  14  38  1   
 37  15  20  1   
 38  15  39  1   
 39  15  40  1   
 40  18  21  1   
 41  18  22  1   
 42  18  41  1   
 43  19  42  1   
 44  19  43  1   
 45  20  44  1   
 46  20  45  1   
@<TRIPOS>SUBSTRUCTURE
  1 ****   1 GROUP 4 **** **** 0

# MOE 2024.06 (io_trps.svl 2023.06)
