@<TRIPOS>MOLECULE
NONAME
40 42 1 0 0 
SMALL
USER_CHARGES


@<TRIPOS>ATOM
  1 S       -3.9760     0.4770     0.8440 S.3   1 <1>  -0.0800 
  2 C       -3.9020     2.1330     0.2300 C.2   1 <1>  -0.0450 
  3 C       -2.5030     0.0230     0.0210 C.2   1 <1>  -0.1100 
  4 C       -4.9420     3.0470     0.6070 C.2   1 <1>   0.5940 
  5 C       -2.7910     2.2530    -0.5470 C.2   1 <1>  -0.1500 
  6 C       -2.0070     1.0690    -0.6630 C.2   1 <1>  -0.1500 
  7 O       -5.8550     2.7770     1.3480 O.2   1 <1>  -0.5700 
  8 C       -4.9070     4.4590     0.0530 C.3   1 <1>  -0.0990 
  9 C       -6.2590     5.1400     0.2810 C.3   1 <1>   0.3430 
 10 N       -6.2680     6.5400    -0.2400 N.4   1 <1>  -0.9590 
 11 C       -5.4000     7.4920     0.5250 C.3   1 <1>   0.3430 
 12 C       -7.6280     7.1310    -0.2300 C.3   1 <1>   0.3430 
 13 C       -6.1280     8.8430     0.5600 C.3   1 <1>   0.0630 
 14 C       -7.3640     8.6220    -0.3200 C.3   1 <1>  -0.1600 
 15 C       -5.2110    10.0000     0.1540 C.ar  1 <1>  -0.1430 
 16 C       -3.9350    10.0770     0.7020 C.ar  1 <1>  -0.1500 
 17 C       -5.6120    10.9980    -0.7280 C.ar  1 <1>  -0.1500 
 18 C       -3.0730    11.1020     0.3540 C.ar  1 <1>  -0.1500 
 19 C       -4.7500    12.0220    -1.0770 C.ar  1 <1>  -0.1500 
 20 C       -3.4780    12.0740    -0.5400 C.ar  1 <1>  -0.1500 
 21 H       -2.1580    -0.9890     0.1380 H     1 <1>   0.1500 
 22 H       -2.4770     3.1470    -1.0560 H     1 <1>   0.1500 
 23 H       -1.1060     1.0490    -1.2530 H     1 <1>   0.1500 
 24 H       -4.6960     4.4120    -1.0000 H     1 <1>   0.0800 
 25 H       -4.1240     4.9910     0.5570 H     1 <1>   0.0800 
 26 H       -6.4860     5.1400     1.3360 H     1 <1>   0.0800 
 27 H       -7.0240     4.5630    -0.2140 H     1 <1>   0.0800 
 28 H       -5.9500     6.5490    -1.2200 H     1 <1>   0.4500 
 29 H       -4.4430     7.5960     0.0390 H     1 <1>   0.0800 
 30 H       -5.2470     7.1440     1.5330 H     1 <1>   0.0800 
 31 H       -8.1240     6.9040     0.7010 H     1 <1>   0.0800 
 32 H       -8.2270     6.7780    -1.0540 H     1 <1>   0.0800 
 33 H       -6.4480     9.0160     1.5730 H     1 <1>   0.0800 
 34 H       -8.2080     9.2000     0.0150 H     1 <1>   0.0800 
 35 H       -7.1590     8.8590    -1.3490 H     1 <1>   0.0800 
 36 H       -3.5870     9.3510     1.4150 H     1 <1>   0.1500 
 37 H       -6.5970    11.0120    -1.1580 H     1 <1>   0.1500 
 38 H       -2.0860    11.1500     0.7820 H     1 <1>   0.1500 
 39 H       -5.0700    12.7860    -1.7650 H     1 <1>   0.1500 
 40 H       -2.8080    12.8710    -0.8120 H     1 <1>   0.1500 
@<TRIPOS>BOND
  1   1   2  1   
  2   1   3  1   
  3   2   4  1   
  4   2   5  2   
  5   3   6  2   
  6   3  21  1   
  7   4   7  2   
  8   4   8  1   
  9   5   6  1   
 10   5  22  1   
 11   6  23  1   
 12   8   9  1   
 13   8  24  1   
 14   8  25  1   
 15   9  10  1   
 16   9  26  1   
 17   9  27  1   
 18  10  11  1   
 19  10  12  1   
 20  10  28  1   
 21  11  13  1   
 22  11  29  1   
 23  11  30  1   
 24  12  14  1   
 25  12  31  1   
 26  12  32  1   
 27  13  14  1   
 28  13  15  1   
 29  13  33  1   
 30  14  34  1   
 31  14  35  1   
 32  15  16  ar  
 33  15  17  ar  
 34  16  18  ar  
 35  16  36  1   
 36  17  19  ar  
 37  17  37  1   
 38  18  20  ar  
 39  18  38  1   
 40  19  20  ar  
 41  19  39  1   
 42  20  40  1   
@<TRIPOS>SUBSTRUCTURE
  1 ****  11 GROUP 4 **** **** 0

# MOE 2024.06 (io_trps.svl 2023.06)
