@<TRIPOS>MOLECULE
NONAME
45 47 1 0 0 
SMALL
USER_CHARGES


@<TRIPOS>ATOM
  1 S       -0.9210    -2.0280     1.6020 S.3   1 <1>  -0.2860 
  2 C        0.8390    -1.6650     1.8050 C.2   1 <1>   0.2420 
  3 C       -1.1860    -2.5340    -0.1710 C.3   1 <1>   0.1310 
  4 N        1.2430    -0.8440     2.7070 N.2   1 <1>  -0.3380 
  5 N        1.8360    -2.1980     1.0770 N.pl3 1 <1>   0.3260 
  6 C       -2.6460    -2.4000    -0.5720 C.2   1 <1>   0.5690 
  7 N        2.5740    -0.8000     2.5960 N.2   1 <1>  -0.3380 
  8 C        1.8280    -3.1920     0.0660 C.ar  1 <1>  -0.0230 
  9 C        2.9050    -1.6010     1.6410 C.2   1 <1>   0.0060 
 10 O       -3.0100    -3.0050    -1.5520 O.2   1 <1>  -0.5700 
 11 N       -3.4650    -1.6100     0.1790 N.am  1 <1>  -0.4930 
 12 C        2.0450    -2.8480    -1.2630 C.ar  1 <1>  -0.1500 
 13 C        1.5950    -4.5230     0.3930 C.ar  1 <1>  -0.1500 
 14 C        4.3380    -1.8550     1.2080 C.3   1 <1>  -0.0600 
 15 C       -4.8540    -1.3470     0.0690 C.2   1 <1>   0.0630 
 16 C        2.0180    -3.8170    -2.2500 C.ar  1 <1>  -0.1500 
 17 C        1.5680    -5.4910    -0.5950 C.ar  1 <1>  -0.1500 
 18 C       -5.6570    -1.1510    -1.0610 C.2   1 <1>   0.1080 
 19 C       -5.6960    -1.2010     1.1150 C.2   1 <1>  -0.3320 
 20 C        1.7780    -5.1380    -1.9160 C.ar  1 <1>  -0.1500 
 21 N       -6.8910    -0.9080    -0.7470 N.2   1 <1>  -0.7070 
 22 C       -5.2100    -1.1830    -2.5060 C.3   1 <1>  -0.0590 
 23 N       -6.9200    -0.9430     0.5930 N.pl3 1 <1>   0.3140 
 24 C       -5.4130    -1.3000     2.6080 C.3   1 <1>  -0.0600 
 25 C       -8.1720    -0.7200     1.3270 C.3   1 <1>   0.0160 
 26 H       -0.8750    -3.5570    -0.2700 H     1 <1>   0.0800 
 27 H       -0.5810    -1.8960    -0.7870 H     1 <1>   0.0800 
 28 H       -3.0470    -1.2370     1.0320 H     1 <1>   0.3700 
 29 H        2.2350    -1.8220    -1.5330 H     1 <1>   0.1500 
 30 H        1.4320    -4.8070     1.4200 H     1 <1>   0.1500 
 31 H        4.4800    -1.5390     0.1910 H     1 <1>   0.0800 
 32 H        4.5700    -2.9010     1.2900 H     1 <1>   0.0800 
 33 H        5.0130    -1.3020     1.8370 H     1 <1>   0.0800 
 34 H        2.1850    -3.5470    -3.2800 H     1 <1>   0.1500 
 35 H        1.3850    -6.5210    -0.3380 H     1 <1>   0.1500 
 36 H        1.7550    -5.8930    -2.6850 H     1 <1>   0.1500 
 37 H       -4.2180    -0.7830    -2.5970 H     1 <1>   0.0800 
 38 H       -5.8800    -0.5990    -3.1080 H     1 <1>   0.0800 
 39 H       -5.2170    -2.1980    -2.8590 H     1 <1>   0.0800 
 40 H       -4.3810    -1.5450     2.7860 H     1 <1>   0.0800 
 41 H       -6.0220    -2.0690     3.0490 H     1 <1>   0.0800 
 42 H       -5.6280    -0.3630     3.0890 H     1 <1>   0.0800 
 43 H       -8.4050    -1.5980     1.8990 H     1 <1>   0.0800 
 44 H       -8.9610    -0.5280     0.6230 H     1 <1>   0.0800 
 45 H       -8.0540     0.1260     1.9760 H     1 <1>   0.0800 
@<TRIPOS>BOND
  1   1   2  1   
  2   1   3  1   
  3   2   4  2   
  4   2   5  1   
  5   3   6  1   
  6   3  26  1   
  7   3  27  1   
  8   4   7  1   
  9   5   8  1   
 10   5   9  1   
 11   6  10  2   
 12   6  11  am  
 13   7   9  2   
 14   8  12  ar  
 15   8  13  ar  
 16   9  14  1   
 17  11  15  1   
 18  11  28  1   
 19  12  16  ar  
 20  12  29  1   
 21  13  17  ar  
 22  13  30  1   
 23  14  31  1   
 24  14  32  1   
 25  14  33  1   
 26  15  18  1   
 27  15  19  2   
 28  16  20  ar  
 29  16  34  1   
 30  17  20  ar  
 31  17  35  1   
 32  18  21  2   
 33  18  22  1   
 34  19  23  1   
 35  19  24  1   
 36  20  36  1   
 37  21  23  1   
 38  22  37  1   
 39  22  38  1   
 40  22  39  1   
 41  23  25  1   
 42  24  40  1   
 43  24  41  1   
 44  24  42  1   
 45  25  43  1   
 46  25  44  1   
 47  25  45  1   
@<TRIPOS>SUBSTRUCTURE
  1 ****   3 GROUP 4 **** **** 0

# MOE 2024.06 (io_trps.svl 2023.06)
