@<TRIPOS>MOLECULE
NONAME
37 37 1 0 0 
SMALL
USER_CHARGES


@<TRIPOS>ATOM
  1 O       -0.5840    -2.3930    -1.5960 O.2   1 <1>  -0.5700 
  2 C       -0.4380    -1.8990    -0.5060 C.2   1 <1>   0.5690 
  3 N       -1.4690    -1.4100     0.2390 N.am  1 <1>  -0.5470 
  4 C        0.9630    -1.8380     0.0780 C.3   1 <1>  -0.0990 
  5 C       -2.8450    -1.4520    -0.0390 C.ar  1 <1>   0.1170 
  6 C        1.7100    -0.5240    -0.2130 C.3   1 <1>  -0.1600 
  7 C       -3.5390    -0.2700    -0.3130 C.ar  1 <1>  -0.1430 
  8 C       -3.5420    -2.6640    -0.0090 C.ar  1 <1>  -0.1430 
  9 C        1.1640     0.6680     0.5860 C.3   1 <1>  -0.1600 
 10 C       -4.9050    -0.3100    -0.5390 C.ar  1 <1>  -0.1500 
 11 C       -2.8380     1.0830    -0.3930 C.3   1 <1>  -0.0170 
 12 C       -4.9060    -2.6820    -0.2440 C.ar  1 <1>  -0.1500 
 13 C       -2.8380    -3.9850     0.2790 C.3   1 <1>  -0.0970 
 14 C        1.9840     1.9310     0.3120 C.3   1 <1>  -0.2400 
 15 C       -5.5890    -1.5100    -0.5050 C.ar  1 <1>  -0.1500 
 16 C       -2.6940     1.7150     0.9940 C.3   1 <1>  -0.2400 
 17 H       -1.2150    -0.8740     1.0640 H     1 <1>   0.3700 
 18 H        1.5240    -2.6480    -0.3540 H     1 <1>   0.0800 
 19 H        0.9190    -2.0140     1.1370 H     1 <1>   0.0800 
 20 H        1.6540    -0.3130    -1.2680 H     1 <1>   0.0800 
 21 H        2.7480    -0.6610     0.0360 H     1 <1>   0.0800 
 22 H        1.1970     0.4490     1.6390 H     1 <1>   0.0800 
 23 H        0.1440     0.8580     0.3100 H     1 <1>   0.0800 
 24 H       -5.4480     0.5960    -0.7470 H     1 <1>   0.1500 
 25 H       -3.4060     1.7450    -1.0230 H     1 <1>   0.0800 
 26 H       -1.8740     0.9690    -0.8580 H     1 <1>   0.0800 
 27 H       -5.4490    -3.6110    -0.2270 H     1 <1>   0.1500 
 28 H       -2.2080    -3.8930     1.1440 H     1 <1>   0.0800 
 29 H       -2.2340    -4.2640    -0.5660 H     1 <1>   0.0800 
 30 H       -3.5490    -4.7700     0.4620 H     1 <1>   0.0800 
 31 H        3.0100     1.7850     0.6010 H     1 <1>   0.0800 
 32 H        1.5860     2.7580     0.8740 H     1 <1>   0.0800 
 33 H        1.9510     2.1820    -0.7340 H     1 <1>   0.0800 
 34 H       -6.6500    -1.5320    -0.6850 H     1 <1>   0.1500 
 35 H       -3.6650     1.8640     1.4320 H     1 <1>   0.0800 
 36 H       -2.2000     2.6660     0.9170 H     1 <1>   0.0800 
 37 H       -2.1210     1.0780     1.6430 H     1 <1>   0.0800 
@<TRIPOS>BOND
  1   1   2  2   
  2   2   3  am  
  3   2   4  1   
  4   3   5  1   
  5   3  17  1   
  6   4   6  1   
  7   4  18  1   
  8   4  19  1   
  9   5   7  ar  
 10   5   8  ar  
 11   6   9  1   
 12   6  20  1   
 13   6  21  1   
 14   7  10  ar  
 15   7  11  1   
 16   8  12  ar  
 17   8  13  1   
 18   9  14  1   
 19   9  22  1   
 20   9  23  1   
 21  10  15  ar  
 22  10  24  1   
 23  11  16  1   
 24  11  25  1   
 25  11  26  1   
 26  12  15  ar  
 27  12  27  1   
 28  13  28  1   
 29  13  29  1   
 30  13  30  1   
 31  14  31  1   
 32  14  32  1   
 33  14  33  1   
 34  15  34  1   
 35  16  35  1   
 36  16  36  1   
 37  16  37  1   
@<TRIPOS>SUBSTRUCTURE
  1 ****   3 GROUP 4 **** **** 0

# MOE 2024.06 (io_trps.svl 2023.06)
