@<TRIPOS>MOLECULE
NONAME
45 46 1 0 0 
SMALL
USER_CHARGES


@<TRIPOS>ATOM
  1 S       -0.1660    -0.7930    -1.1420 S.o2  1 <1>   1.4470 
  2 O        0.4430    -1.6570    -2.1300 O.2   1 <1>  -0.6500 
  3 O       -0.2910     0.6180    -1.4400 O.2   1 <1>  -0.6500 
  4 N        0.7830    -0.9010     0.2570 N.am  1 <1>  -0.8490 
  5 C       -1.7760    -1.4660    -0.6070 C.ar  1 <1>  -0.0090 
  6 C        0.3550     0.0410     1.3060 C.3   1 <1>   0.1960 
  7 C        2.2040    -0.6720    -0.0440 C.3   1 <1>   0.1960 
  8 C       -1.9930    -2.8200    -0.3350 C.ar  1 <1>  -0.1440 
  9 C       -2.8440    -0.5930    -0.4260 C.ar  1 <1>  -0.1500 
 10 C        1.2530    -0.0770     2.5510 C.3   1 <1>   0.1200 
 11 C        3.0630    -0.7620     1.2310 C.3   1 <1>   0.1200 
 12 C       -3.2390    -3.2530     0.0890 C.ar  1 <1>  -0.1500 
 13 C       -0.8870    -3.8580    -0.4890 C.3   1 <1>  -0.0960 
 14 C       -4.1040    -1.0030     0.0020 C.ar  1 <1>   0.0860 
 15 O        2.5950     0.1240     2.2090 O.3   1 <1>  -0.5600 
 16 C       -4.2780    -2.3600     0.2570 C.ar  1 <1>  -0.1500 
 17 C       -5.1780    -0.0430     0.1810 C.2   1 <1>   0.5440 
 18 O       -4.9410     1.0800     0.5770 O.2   1 <1>  -0.5700 
 19 N       -6.4730    -0.3830    -0.0960 N.am  1 <1>  -0.7300 
 20 C       -7.6260     0.5540    -0.0390 C.3   1 <1>   0.1400 
 21 C       -8.0450     0.8120     1.4090 C.3   1 <1>   0.1200 
 22 O       -9.2560     1.5020     1.4030 O.3   1 <1>  -0.5600 
 23 C       -9.6920     1.8770     2.6690 C.3   1 <1>   0.0400 
 24 H       -0.6620    -0.1670     1.5900 H     1 <1>   0.0800 
 25 H        0.4010     1.0550     0.9430 H     1 <1>   0.0800 
 26 H        2.3350     0.3000    -0.4920 H     1 <1>   0.0800 
 27 H        2.5480    -1.4110    -0.7470 H     1 <1>   0.0800 
 28 H       -2.7010     0.4570    -0.6230 H     1 <1>   0.1500 
 29 H        1.1530    -1.0500     2.9990 H     1 <1>   0.0800 
 30 H        0.9840     0.6700     3.2770 H     1 <1>   0.0800 
 31 H        4.0830    -0.5000     1.0110 H     1 <1>   0.0800 
 32 H        3.0390    -1.7600     1.6310 H     1 <1>   0.0800 
 33 H       -3.4080    -4.2960     0.2960 H     1 <1>   0.1500 
 34 H       -0.6400    -3.9840    -1.5280 H     1 <1>   0.0800 
 35 H       -1.1930    -4.8130    -0.1000 H     1 <1>   0.0800 
 36 H       -0.0040    -3.5530     0.0440 H     1 <1>   0.0800 
 37 H       -5.2310    -2.7190     0.6010 H     1 <1>   0.1500 
 38 H       -6.6660    -1.2870    -0.5290 H     1 <1>   0.3700 
 39 H       -8.4540     0.1300    -0.5800 H     1 <1>   0.0800 
 40 H       -7.3500     1.4880    -0.4970 H     1 <1>   0.0800 
 41 H       -7.3010     1.4110     1.9060 H     1 <1>   0.0800 
 42 H       -8.1880    -0.1180     1.9310 H     1 <1>   0.0800 
 43 H      -10.6290     2.3940     2.5610 H     1 <1>   0.0800 
 44 H       -8.9650     2.5340     3.1150 H     1 <1>   0.0800 
 45 H       -9.8300     0.9970     3.2740 H     1 <1>   0.0800 
@<TRIPOS>BOND
  1   1   2  2   
  2   1   3  2   
  3   1   4  am  
  4   1   5  1   
  5   4   6  1   
  6   4   7  1   
  7   5   8  ar  
  8   5   9  ar  
  9   6  10  1   
 10   6  24  1   
 11   6  25  1   
 12   7  11  1   
 13   7  26  1   
 14   7  27  1   
 15   8  12  ar  
 16   8  13  1   
 17   9  14  ar  
 18   9  28  1   
 19  10  15  1   
 20  10  29  1   
 21  10  30  1   
 22  11  15  1   
 23  11  31  1   
 24  11  32  1   
 25  12  16  ar  
 26  12  33  1   
 27  13  34  1   
 28  13  35  1   
 29  13  36  1   
 30  14  16  ar  
 31  14  17  1   
 32  16  37  1   
 33  17  18  2   
 34  17  19  am  
 35  19  20  1   
 36  19  38  1   
 37  20  21  1   
 38  20  39  1   
 39  20  40  1   
 40  21  22  1   
 41  21  41  1   
 42  21  42  1   
 43  22  23  1   
 44  23  43  1   
 45  23  44  1   
 46  23  45  1   
@<TRIPOS>SUBSTRUCTURE
  1 ****   9 GROUP 4 **** **** 0

# MOE 2024.06 (io_trps.svl 2023.06)
