@<TRIPOS>MOLECULE
NONAME
26 26 1 0 0 
SMALL
USER_CHARGES


@<TRIPOS>ATOM
  1 F        0.1310     0.1750     0.0040 F     1 <1>  -0.3400 
  2 C        1.2890     0.8240     0.0030 C.3   1 <1>   0.1800 
  3 C        2.4010    -0.2200     0.0070 C.3   1 <1>   0.1200 
  4 O        3.6430     0.4530     0.0060 O.3   1 <1>  -0.3630 
  5 C        4.8130    -0.2380     0.0090 C.ar  1 <1>   0.0830 
  6 C        5.9780     0.5120     0.0070 C.ar  1 <1>  -0.1500 
  7 C        4.8930    -1.6280     0.0130 C.ar  1 <1>  -0.1500 
  8 C        7.2160    -0.1070     0.0100 C.ar  1 <1>  -0.1500 
  9 C        6.1310    -2.2470     0.0150 C.ar  1 <1>  -0.1500 
 10 C        7.2970    -1.4970     0.0140 C.ar  1 <1>   0.0830 
 11 O        8.4670    -2.1880     0.0170 O.3   1 <1>  -0.3630 
 12 C        9.7080    -1.5160     0.0160 C.3   1 <1>   0.1200 
 13 C       10.8200    -2.5590     0.0200 C.3   1 <1>   0.1800 
 14 F       11.9780    -1.9100     0.0180 F     1 <1>  -0.3400 
 15 H        1.3040     1.4320     0.8890 H     1 <1>   0.0800 
 16 H        1.3050     1.4270    -0.8870 H     1 <1>   0.0800 
 17 H        2.3460    -0.8280    -0.8790 H     1 <1>   0.0800 
 18 H        2.3450    -0.8220     0.8960 H     1 <1>   0.0800 
 19 H        5.9080     1.5840     0.0040 H     1 <1>   0.1500 
 20 H        4.0130    -2.2430     0.0140 H     1 <1>   0.1500 
 21 H        8.0960     0.5080     0.0080 H     1 <1>   0.1500 
 22 H        6.2010    -3.3200     0.0190 H     1 <1>   0.1500 
 23 H        9.7630    -0.9080     0.9010 H     1 <1>   0.0800 
 24 H        9.7650    -0.9130    -0.8730 H     1 <1>   0.0800 
 25 H       10.8060    -3.1670    -0.8670 H     1 <1>   0.0800 
 26 H       10.8040    -3.1620     0.9100 H     1 <1>   0.0800 
@<TRIPOS>BOND
  1   1   2  1   
  2   2   3  1   
  3   2  15  1   
  4   2  16  1   
  5   3   4  1   
  6   3  17  1   
  7   3  18  1   
  8   4   5  1   
  9   5   6  ar  
 10   5   7  ar  
 11   6   8  ar  
 12   6  19  1   
 13   7   9  ar  
 14   7  20  1   
 15   8  10  ar  
 16   8  21  1   
 17   9  10  ar  
 18   9  22  1   
 19  10  11  1   
 20  11  12  1   
 21  12  13  1   
 22  12  23  1   
 23  12  24  1   
 24  13  14  1   
 25  13  25  1   
 26  13  26  1   
@<TRIPOS>SUBSTRUCTURE
  1 ****   9 GROUP 4 **** **** 0

# MOE 2024.06 (io_trps.svl 2023.06)
