@<TRIPOS>MOLECULE
NONAME
30 32 1 0 0 
SMALL
USER_CHARGES


@<TRIPOS>ATOM
  1 O       -2.0720     0.3790     2.5980 O.co2 1 <1>  -0.9000 
  2 C       -2.5530     0.2310     1.4620 C.2   1 <1>   1.0500 
  3 O       -2.3250    -0.8230     0.8450 O.co2 1 <1>  -0.9000 
  4 C       -3.3770     1.2570     0.8770 C.2   1 <1>  -0.1850 
  5 C       -2.6350     2.4690     0.7780 C.1   1 <1>   0.4920 
  6 C       -4.6650     1.1270     0.4600 C.2   1 <1>  -0.2760 
  7 N       -2.1150     3.4770     0.6350 N.1   1 <1>  -0.5570 
  8 C       -5.4650    -0.1750     0.5720 C.3   1 <1>   0.0580 
  9 C       -5.5070     2.2390    -0.1770 C.3   1 <1>   0.0580 
 10 C       -5.8940    -0.6090    -0.8400 C.3   1 <1>  -0.1600 
 11 C       -6.7120     0.0840     1.4350 C.3   1 <1>  -0.1600 
 12 C       -5.9360     1.7840    -1.5830 C.3   1 <1>  -0.1600 
 13 C       -6.7530     2.4760     0.6930 C.3   1 <1>  -0.1600 
 14 C       -6.7610     0.4860    -1.4920 C.3   1 <1>  -0.0800 
 15 C       -7.5830     1.1820     0.7960 C.3   1 <1>  -0.0800 
 16 C       -8.0060     0.7350    -0.6180 C.3   1 <1>  -0.1600 
 17 H       -4.8800    -0.9580     1.0210 H     1 <1>   0.0800 
 18 H       -4.9540     3.1580    -0.2580 H     1 <1>   0.0800 
 19 H       -5.0120    -0.7840    -1.4320 H     1 <1>   0.0800 
 20 H       -6.4420    -1.5320    -0.7840 H     1 <1>   0.0800 
 21 H       -6.3990     0.3880     2.4190 H     1 <1>   0.0800 
 22 H       -7.2770    -0.8250     1.5350 H     1 <1>   0.0800 
 23 H       -6.5170     2.5560    -2.0540 H     1 <1>   0.0800 
 24 H       -5.0580     1.6160    -2.1820 H     1 <1>   0.0800 
 25 H       -7.3500     3.2620     0.2670 H     1 <1>   0.0800 
 26 H       -6.4430     2.7890     1.6750 H     1 <1>   0.0800 
 27 H       -7.0590     0.1730    -2.4780 H     1 <1>   0.0800 
 28 H       -8.4540     1.3540     1.4030 H     1 <1>   0.0800 
 29 H       -8.5900    -0.1660    -0.5540 H     1 <1>   0.0800 
 30 H       -8.6210     1.4930    -1.0700 H     1 <1>   0.0800 
@<TRIPOS>BOND
  1   1   2  ar  
  2   2   3  ar  
  3   2   4  1   
  4   4   5  1   
  5   4   6  2   
  6   5   7  3   
  7   6   8  1   
  8   6   9  1   
  9   8  10  1   
 10   8  11  1   
 11   8  17  1   
 12   9  12  1   
 13   9  13  1   
 14   9  18  1   
 15  10  14  1   
 16  10  19  1   
 17  10  20  1   
 18  11  15  1   
 19  11  21  1   
 20  11  22  1   
 21  12  14  1   
 22  12  23  1   
 23  12  24  1   
 24  13  15  1   
 25  13  25  1   
 26  13  26  1   
 27  14  16  1   
 28  14  27  1   
 29  15  16  1   
 30  15  28  1   
 31  16  29  1   
 32  16  30  1   
@<TRIPOS>SUBSTRUCTURE
  1 ****   6 GROUP 4 **** **** 0

# MOE 2024.06 (io_trps.svl 2023.06)
