@<TRIPOS>MOLECULE
NONAME
44 45 1 0 0 
SMALL
USER_CHARGES


@<TRIPOS>ATOM
  1 CL       0.3880     0.3930     0.7750 Cl    1 <1>  -0.1770 
  2 C        1.7260    -0.6390     0.3380 C.ar  1 <1>   0.1770 
  3 C        3.0120    -0.1400     0.3930 C.ar  1 <1>  -0.1500 
  4 C        1.4750    -1.9400    -0.0560 C.ar  1 <1>  -0.1500 
  5 C        4.0770    -0.9570     0.0480 C.ar  1 <1>   0.0830 
  6 C        2.5370    -2.7580    -0.4030 C.ar  1 <1>  -0.1500 
  7 O        5.3150    -0.4070     0.1250 O.3   1 <1>  -0.3630 
  8 C        3.8340    -2.2710    -0.3530 C.ar  1 <1>  -0.1500 
  9 C        6.4710    -1.1510    -0.1720 C.3   1 <1>   0.1200 
 10 C        7.6720    -0.2180     0.0230 C.3   1 <1>   0.3430 
 11 N        8.9860    -0.8790    -0.2800 N.4   1 <1>  -0.9590 
 12 C        9.3290    -1.9410     0.7130 C.3   1 <1>   0.3430 
 13 C       10.0650     0.1480    -0.3660 C.3   1 <1>   0.3430 
 14 C       10.6060    -2.6550     0.2750 C.3   1 <1>  -0.1600 
 15 C       11.3620    -0.5110    -0.8320 C.3   1 <1>  -0.1600 
 16 C       11.7810    -1.6770     0.0830 C.3   1 <1>  -0.0190 
 17 C       13.0060    -2.3940    -0.4780 C.2   1 <1>   0.6590 
 18 O       12.9500    -2.9970    -1.5170 O.2   1 <1>  -0.5700 
 19 O       14.1130    -2.3030     0.2410 O.3   1 <1>  -0.4300 
 20 C       15.3110    -2.9190    -0.1730 C.3   1 <1>   0.1200 
 21 C       16.3820    -2.6210     0.8710 C.3   1 <1>  -0.2400 
 22 H        3.1810     0.8740     0.7030 H     1 <1>   0.1500 
 23 H        0.4630    -2.3020    -0.0900 H     1 <1>   0.1500 
 24 H        2.3510    -3.7730    -0.7130 H     1 <1>   0.1500 
 25 H        4.6310    -2.9330    -0.6300 H     1 <1>   0.1500 
 26 H        6.4020    -1.4810    -1.1930 H     1 <1>   0.0800 
 27 H        6.5070    -1.9860     0.5050 H     1 <1>   0.0800 
 28 H        7.6730     0.1410     1.0390 H     1 <1>   0.0800 
 29 H        7.5410     0.6290    -0.6320 H     1 <1>   0.0800 
 30 H        8.9260    -1.3230    -1.2080 H     1 <1>   0.4500 
 31 H        8.5290    -2.6600     0.7850 H     1 <1>   0.0800 
 32 H        9.4760    -1.5000     1.6860 H     1 <1>   0.0800 
 33 H       10.2170     0.6030     0.6000 H     1 <1>   0.0800 
 34 H        9.7870     0.9210    -1.0650 H     1 <1>   0.0800 
 35 H       10.4150    -3.1880    -0.6410 H     1 <1>   0.0800 
 36 H       10.8720    -3.3870     1.0180 H     1 <1>   0.0800 
 37 H       12.1450     0.2270    -0.8480 H     1 <1>   0.0800 
 38 H       11.2370    -0.8630    -1.8430 H     1 <1>   0.0800 
 39 H       12.0500    -1.2760     1.0450 H     1 <1>   0.0800 
 40 H       15.5870    -2.5190    -1.1350 H     1 <1>   0.0800 
 41 H       15.1390    -3.9790    -0.2600 H     1 <1>   0.0800 
 42 H       16.5380    -1.5610     0.9520 H     1 <1>   0.0800 
 43 H       17.3090    -3.0810     0.5790 H     1 <1>   0.0800 
 44 H       16.0910    -3.0180     1.8270 H     1 <1>   0.0800 
@<TRIPOS>BOND
  1   1   2  1   
  2   2   3  ar  
  3   2   4  ar  
  4   3   5  ar  
  5   3  22  1   
  6   4   6  ar  
  7   4  23  1   
  8   5   7  1   
  9   5   8  ar  
 10   6   8  ar  
 11   6  24  1   
 12   7   9  1   
 13   8  25  1   
 14   9  10  1   
 15   9  26  1   
 16   9  27  1   
 17  10  11  1   
 18  10  28  1   
 19  10  29  1   
 20  11  12  1   
 21  11  13  1   
 22  11  30  1   
 23  12  14  1   
 24  12  31  1   
 25  12  32  1   
 26  13  15  1   
 27  13  33  1   
 28  13  34  1   
 29  14  16  1   
 30  14  35  1   
 31  14  36  1   
 32  15  16  1   
 33  15  37  1   
 34  15  38  1   
 35  16  17  1   
 36  16  39  1   
 37  17  18  2   
 38  17  19  1   
 39  19  20  1   
 40  20  21  1   
 41  20  40  1   
 42  20  41  1   
 43  21  42  1   
 44  21  43  1   
 45  21  44  1   
@<TRIPOS>SUBSTRUCTURE
  1 ****  11 GROUP 4 **** **** 0

# MOE 2024.06 (io_trps.svl 2023.06)
