@<TRIPOS>MOLECULE
NONAME
37 38 1 0 0 
SMALL
USER_CHARGES


@<TRIPOS>ATOM
  1 F        4.7040     3.8600     0.3210 F     1 <1>  -0.1900 
  2 C        4.6460     2.5670     0.1660 C.ar  1 <1>   0.1900 
  3 C        3.4650     1.9800    -0.2900 C.ar  1 <1>   0.0860 
  4 C        5.7770     1.8410     0.4910 C.ar  1 <1>  -0.1500 
  5 C        2.2960     2.7540    -0.6350 C.2   1 <1>   0.6340 
  6 C        3.4710     0.5850    -0.3920 C.ar  1 <1>  -0.1500 
  7 C        5.7480     0.4640     0.3710 C.ar  1 <1>  -0.1500 
  8 O        2.3220     3.8040    -1.2400 O.2   1 <1>  -0.5700 
  9 O        1.1000     2.2700    -0.2740 O.3   1 <1>  -0.4300 
 10 C        4.5920    -0.1610    -0.0690 C.ar  1 <1>  -0.1500 
 11 C       -0.0810     2.9870    -0.5680 C.3   1 <1>   0.1200 
 12 C       -1.2710     2.2630     0.0730 C.3   1 <1>   0.3430 
 13 N       -2.5800     2.9340    -0.2220 N.4   1 <1>  -0.9590 
 14 C       -2.6780     4.2890     0.4050 C.3   1 <1>   0.3430 
 15 C       -3.7150     2.0600     0.1990 C.3   1 <1>   0.3430 
 16 C       -3.9810     4.9650    -0.0270 C.3   1 <1>  -0.1600 
 17 C       -5.0400     2.6870    -0.2400 C.3   1 <1>  -0.1600 
 18 C       -5.2070     4.1080     0.3140 C.3   1 <1>  -0.1600 
 19 H        6.6610     2.3480     0.8340 H     1 <1>   0.1500 
 20 H        2.5860     0.0780    -0.7360 H     1 <1>   0.1500 
 21 H        6.6190    -0.1200     0.6190 H     1 <1>   0.1500 
 22 H        4.5700    -1.2340    -0.1610 H     1 <1>   0.1500 
 23 H       -0.1830     3.0300    -1.6390 H     1 <1>   0.0800 
 24 H        0.0300     3.9790    -0.1670 H     1 <1>   0.0800 
 25 H       -1.1200     2.2180     1.1390 H     1 <1>   0.0800 
 26 H       -1.2940     1.2550    -0.3090 H     1 <1>   0.0800 
 27 H       -2.6650     3.0610    -1.2400 H     1 <1>   0.4500 
 28 H       -1.8460     4.9050     0.1030 H     1 <1>   0.0800 
 29 H       -2.6600     4.1970     1.4790 H     1 <1>   0.0800 
 30 H       -3.7100     1.9460     1.2710 H     1 <1>   0.0800 
 31 H       -3.6180     1.0830    -0.2480 H     1 <1>   0.0800 
 32 H       -3.9500     5.1580    -1.0860 H     1 <1>   0.0800 
 33 H       -4.0650     5.9170     0.4690 H     1 <1>   0.0800 
 34 H       -5.8520     2.0730     0.1100 H     1 <1>   0.0800 
 35 H       -5.0910     2.7030    -1.3150 H     1 <1>   0.0800 
 36 H       -6.0950     4.5590    -0.0960 H     1 <1>   0.0800 
 37 H       -5.3280     4.0640     1.3840 H     1 <1>   0.0800 
@<TRIPOS>BOND
  1   1   2  1   
  2   2   3  ar  
  3   2   4  ar  
  4   3   5  1   
  5   3   6  ar  
  6   4   7  ar  
  7   4  19  1   
  8   5   8  2   
  9   5   9  1   
 10   6  10  ar  
 11   6  20  1   
 12   7  10  ar  
 13   7  21  1   
 14   9  11  1   
 15  10  22  1   
 16  11  12  1   
 17  11  23  1   
 18  11  24  1   
 19  12  13  1   
 20  12  25  1   
 21  12  26  1   
 22  13  14  1   
 23  13  15  1   
 24  13  27  1   
 25  14  16  1   
 26  14  28  1   
 27  14  29  1   
 28  15  17  1   
 29  15  30  1   
 30  15  31  1   
 31  16  18  1   
 32  16  32  1   
 33  16  33  1   
 34  17  18  1   
 35  17  34  1   
 36  17  35  1   
 37  18  36  1   
 38  18  37  1   
@<TRIPOS>SUBSTRUCTURE
  1 ****   9 GROUP 4 **** **** 0

# MOE 2024.06 (io_trps.svl 2023.06)
