@<TRIPOS>MOLECULE
NONAME
40 41 1 0 0 
SMALL
USER_CHARGES


@<TRIPOS>ATOM
  1 O       -0.2770     0.3100     0.8670 O.2   1 <1>  -0.5700 
  2 C       -0.6200     1.2860     0.2430 C.2   1 <1>   0.5690 
  3 N        0.2750     2.1850    -0.2760 N.am  1 <1>  -0.5470 
  4 C       -2.1280     1.5540    -0.0080 C.3   1 <1>   0.0610 
  5 C        1.6760     2.2550    -0.2130 C.ar  1 <1>   0.1170 
  6 C       -3.0190     0.4740     0.6400 C.3   1 <1>  -0.2400 
  7 C       -2.5370     2.9170     0.5840 C.3   1 <1>  -0.2400 
  8 C       -2.4260     1.5630    -1.5200 C.3   1 <1>  -0.2400 
  9 C        2.3440     3.0290    -1.1540 C.ar  1 <1>  -0.1500 
 10 C        2.4320     1.6040     0.7560 C.ar  1 <1>  -0.1500 
 11 C        3.7220     3.1510    -1.1310 C.ar  1 <1>  -0.1500 
 12 C        3.8100     1.7230     0.7810 C.ar  1 <1>  -0.1500 
 13 C        4.4670     2.4990    -0.1610 C.ar  1 <1>  -0.1440 
 14 C        5.9850     2.6330    -0.1210 C.3   1 <1>   0.1270 
 15 C        6.7010     1.2960    -0.2810 C.ar  1 <1>  -0.1440 
 16 C        7.8520     1.0050     0.4240 C.ar  1 <1>  -0.1500 
 17 C        6.2520     0.3110    -1.1390 C.ar  1 <1>  -0.1500 
 18 C        8.4800    -0.2160     0.2410 C.ar  1 <1>   0.1600 
 19 C        6.9540    -0.8780    -1.2470 C.ar  1 <1>   0.1600 
 20 N        8.0600    -1.1650    -0.5790 N.ar  1 <1>  -0.6200 
 21 H       -0.1580     2.9200    -0.8280 H     1 <1>   0.3700 
 22 H       -2.8550     0.4440     1.7030 H     1 <1>   0.0800 
 23 H       -2.7800    -0.4960     0.2400 H     1 <1>   0.0800 
 24 H       -4.0610     0.6700     0.4610 H     1 <1>   0.0800 
 25 H       -2.3290     2.9360     1.6400 H     1 <1>   0.0800 
 26 H       -3.5890     3.0920     0.4430 H     1 <1>   0.0800 
 27 H       -1.9980     3.7220     0.1200 H     1 <1>   0.0800 
 28 H       -2.1380     0.6220    -1.9570 H     1 <1>   0.0800 
 29 H       -1.8870     2.3470    -2.0200 H     1 <1>   0.0800 
 30 H       -3.4770     1.7110    -1.6990 H     1 <1>   0.0800 
 31 H        1.7850     3.5410    -1.9150 H     1 <1>   0.1500 
 32 H        1.9480     1.0000     1.5010 H     1 <1>   0.1500 
 33 H        4.2100     3.7570    -1.8740 H     1 <1>   0.1500 
 34 H        4.3710     1.2040     1.5390 H     1 <1>   0.1500 
 35 H        6.2600     3.0800     0.8180 H     1 <1>   0.0800 
 36 H        6.3170     3.2940    -0.9010 H     1 <1>   0.0800 
 37 H        8.2710     1.7150     1.1130 H     1 <1>   0.1500 
 38 H        5.3600     0.4550    -1.7230 H     1 <1>   0.1500 
 39 H        9.3770    -0.4230     0.7990 H     1 <1>   0.1500 
 40 H        6.5840    -1.6330    -1.9190 H     1 <1>   0.1500 
@<TRIPOS>BOND
  1   1   2  2   
  2   2   3  am  
  3   2   4  1   
  4   3   5  1   
  5   3  21  1   
  6   4   6  1   
  7   4   7  1   
  8   4   8  1   
  9   5   9  ar  
 10   5  10  ar  
 11   6  22  1   
 12   6  23  1   
 13   6  24  1   
 14   7  25  1   
 15   7  26  1   
 16   7  27  1   
 17   8  28  1   
 18   8  29  1   
 19   8  30  1   
 20   9  11  ar  
 21   9  31  1   
 22  10  12  ar  
 23  10  32  1   
 24  11  13  ar  
 25  11  33  1   
 26  12  13  ar  
 27  12  34  1   
 28  13  14  1   
 29  14  15  1   
 30  14  35  1   
 31  14  36  1   
 32  15  16  ar  
 33  15  17  ar  
 34  16  18  ar  
 35  16  37  1   
 36  17  19  ar  
 37  17  38  1   
 38  18  20  ar  
 39  18  39  1   
 40  19  20  ar  
 41  19  40  1   
@<TRIPOS>SUBSTRUCTURE
  1 ****  10 GROUP 4 **** **** 0

# MOE 2024.06 (io_trps.svl 2023.06)
