@<TRIPOS>MOLECULE
NONAME
53 55 1 0 0 
SMALL
USER_CHARGES


@<TRIPOS>ATOM
  1 O       -0.3530    -0.7940    -1.2910 O.3   1 <1>  -0.3630 
  2 C       -1.3570    -1.1400    -0.4230 C.ar  1 <1>   0.0820 
  3 C       -0.4390     0.3770    -2.0760 C.3   1 <1>   0.0400 
  4 C       -1.1930    -2.2960     0.3630 C.ar  1 <1>   0.1000 
  5 C       -2.5210    -0.3860    -0.3000 C.ar  1 <1>  -0.1500 
  6 N       -0.0610    -3.1230     0.3140 N.pl3 1 <1>  -0.8380 
  7 C       -2.2020    -2.6530     1.2460 C.ar  1 <1>  -0.1500 
  8 C       -3.5140    -0.7640     0.5880 C.ar  1 <1>  -0.1500 
  9 C        1.1910    -2.4840     0.8180 C.3   1 <1>   0.2090 
 10 C        0.1110    -3.8530    -0.9760 C.3   1 <1>   0.2090 
 11 C       -3.3540    -1.8980     1.3620 C.ar  1 <1>  -0.1500 
 12 C        2.3430    -3.5050     0.8930 C.3   1 <1>   0.3430 
 13 C        1.2690    -4.8680    -0.8870 C.3   1 <1>   0.3430 
 14 N        2.5520    -4.2350    -0.4130 N.4   1 <1>  -0.9590 
 15 C        3.6620    -5.2180    -0.3240 C.3   1 <1>   0.4860 
 16 C        4.9410    -4.4660    -0.0190 C.ar  1 <1>  -0.1430 
 17 C        5.5630    -3.7100    -1.0020 C.ar  1 <1>  -0.1500 
 18 C        5.4980    -4.5180     1.2500 C.ar  1 <1>  -0.1500 
 19 C        6.7170    -3.0050    -0.7120 C.ar  1 <1>  -0.1500 
 20 C        6.6520    -3.8110     1.5340 C.ar  1 <1>  -0.1500 
 21 C        7.2720    -3.0460     0.5580 C.ar  1 <1>  -0.1430 
 22 C        8.5480    -2.2750     0.8910 C.3   1 <1>   0.0630 
 23 C        8.3400    -0.7670     0.7120 C.3   1 <1>  -0.2400 
 24 C        9.7220    -2.7660     0.0380 C.3   1 <1>  -0.2400 
 25 H        0.4600     0.4570    -2.6600 H     1 <1>   0.0800 
 26 H       -0.5260     1.2290    -1.4250 H     1 <1>   0.0800 
 27 H       -1.2910     0.3010    -2.7280 H     1 <1>   0.0800 
 28 H       -2.6850     0.5000    -0.8820 H     1 <1>   0.1500 
 29 H       -2.0780    -3.5340     1.8470 H     1 <1>   0.1500 
 30 H       -4.4110    -0.1750     0.6770 H     1 <1>   0.1500 
 31 H        1.0080    -2.0790     1.7990 H     1 <1>   0.0800 
 32 H        1.4750    -1.6690     0.1760 H     1 <1>   0.0800 
 33 H        0.3040    -3.1550    -1.7720 H     1 <1>   0.0800 
 34 H       -0.8030    -4.3720    -1.2090 H     1 <1>   0.0800 
 35 H       -4.1250    -2.1930     2.0530 H     1 <1>   0.1500 
 36 H        2.1100    -4.2130     1.6710 H     1 <1>   0.0800 
 37 H        3.2460    -2.9890     1.1750 H     1 <1>   0.0800 
 38 H        1.4140    -5.3160    -1.8560 H     1 <1>   0.0800 
 39 H        0.9750    -5.6450    -0.2020 H     1 <1>   0.0800 
 40 H        2.8330    -3.5220    -1.0960 H     1 <1>   0.4500 
 41 H        3.7730    -5.7430    -1.2590 H     1 <1>   0.0800 
 42 H        3.4640    -5.9380     0.4530 H     1 <1>   0.0800 
 43 H        5.1670    -3.6610    -2.0020 H     1 <1>   0.1500 
 44 H        5.0470    -5.1070     2.0310 H     1 <1>   0.1500 
 45 H        7.1890    -2.4230    -1.4850 H     1 <1>   0.1500 
 46 H        7.0730    -3.8620     2.5250 H     1 <1>   0.1500 
 47 H        8.8000    -2.4490     1.9230 H     1 <1>   0.0800 
 48 H        8.1330    -0.5260    -0.3140 H     1 <1>   0.0800 
 49 H        9.2210    -0.2320     1.0180 H     1 <1>   0.0800 
 50 H        7.5140    -0.4370     1.3170 H     1 <1>   0.0800 
 51 H        9.5510    -2.5670    -1.0040 H     1 <1>   0.0800 
 52 H        9.8520    -3.8250     0.1690 H     1 <1>   0.0800 
 53 H       10.6300    -2.2720     0.3360 H     1 <1>   0.0800 
@<TRIPOS>BOND
  1   1   2  1   
  2   1   3  1   
  3   2   4  ar  
  4   2   5  ar  
  5   3  25  1   
  6   3  26  1   
  7   3  27  1   
  8   4   6  1   
  9   4   7  ar  
 10   5   8  ar  
 11   5  28  1   
 12   6   9  1   
 13   6  10  1   
 14   7  11  ar  
 15   7  29  1   
 16   8  11  ar  
 17   8  30  1   
 18   9  12  1   
 19   9  31  1   
 20   9  32  1   
 21  10  13  1   
 22  10  33  1   
 23  10  34  1   
 24  11  35  1   
 25  12  14  1   
 26  12  36  1   
 27  12  37  1   
 28  13  14  1   
 29  13  38  1   
 30  13  39  1   
 31  14  15  1   
 32  14  40  1   
 33  15  16  1   
 34  15  41  1   
 35  15  42  1   
 36  16  17  ar  
 37  16  18  ar  
 38  17  19  ar  
 39  17  43  1   
 40  18  20  ar  
 41  18  44  1   
 42  19  21  ar  
 43  19  45  1   
 44  20  21  ar  
 45  20  46  1   
 46  21  22  1   
 47  22  23  1   
 48  22  24  1   
 49  22  47  1   
 50  23  48  1   
 51  23  49  1   
 52  23  50  1   
 53  24  51  1   
 54  24  52  1   
 55  24  53  1   
@<TRIPOS>SUBSTRUCTURE
  1 ****  12 GROUP 4 **** **** 0

# MOE 2024.06 (io_trps.svl 2023.06)
