@<TRIPOS>MOLECULE
NONAME
37 37 1 0 0 
SMALL
USER_CHARGES


@<TRIPOS>ATOM
  1 S        3.6050    -2.6040    -1.0460 S.3   1 <1>  -0.4600 
  2 C        3.5270    -3.9490     0.1610 C.3   1 <1>   0.1500 
  3 C        5.3870    -2.5870    -1.3430 C.3   1 <1>   0.0700 
  4 C        4.9100    -4.6240     0.0000 C.3   1 <1>   0.4230 
  5 C        2.2810    -4.8170    -0.1050 C.3   1 <1>  -0.1600 
  6 C        5.9420    -3.4410    -0.1950 C.3   1 <1>   0.4230 
  7 N        4.8710    -5.5900    -1.1660 N.4   1 <1>  -0.8530 
  8 C        0.9730    -4.0910     0.2450 C.3   1 <1>  -0.1600 
  9 N        6.1010    -2.5430     1.0100 N.4   1 <1>  -0.8530 
 10 C       -0.2310    -5.0130     0.0060 C.3   1 <1>  -0.1600 
 11 C       -1.5670    -4.3190     0.3320 C.3   1 <1>  -0.0990 
 12 C       -2.7830    -5.2060     0.1110 C.2   1 <1>   0.6590 
 13 O       -2.6910    -6.3430    -0.2770 O.2   1 <1>  -0.5700 
 14 O       -3.9530    -4.6410     0.3750 O.3   1 <1>  -0.4300 
 15 C       -5.1670    -5.3460     0.2160 C.3   1 <1>   0.0400 
 16 H        3.4460    -3.4850     1.1300 H     1 <1>   0.0800 
 17 H        5.7340    -1.5670    -1.3480 H     1 <1>   0.0800 
 18 H        5.5520    -3.0340    -2.3090 H     1 <1>   0.0800 
 19 H        5.1520    -5.1760     0.8950 H     1 <1>   0.0800 
 20 H        2.3350    -5.7090     0.4970 H     1 <1>   0.0800 
 21 H        2.2350    -5.1090    -1.1400 H     1 <1>   0.0800 
 22 H        6.9100    -3.8370    -0.4610 H     1 <1>   0.0800 
 23 H        4.4990    -5.1370    -2.0160 H     1 <1>   0.4500 
 24 H        4.2100    -6.3570    -0.9690 H     1 <1>   0.4500 
 25 H        5.7680    -6.0400    -1.3950 H     1 <1>   0.4500 
 26 H        0.8630    -3.2080    -0.3640 H     1 <1>   0.0800 
 27 H        0.9820    -3.7850     1.2780 H     1 <1>   0.0800 
 28 H        5.2460    -1.9920     1.1920 H     1 <1>   0.4500 
 29 H        6.8360    -1.8380     0.8410 H     1 <1>   0.4500 
 30 H        6.3720    -3.0240     1.8800 H     1 <1>   0.4500 
 31 H       -0.1420    -5.8960     0.6160 H     1 <1>   0.0800 
 32 H       -0.2500    -5.3260    -1.0250 H     1 <1>   0.0800 
 33 H       -1.6810    -3.4450    -0.2830 H     1 <1>   0.0800 
 34 H       -1.5720    -4.0060     1.3600 H     1 <1>   0.0800 
 35 H       -5.9780    -4.6940     0.4870 H     1 <1>   0.0800 
 36 H       -5.1540    -6.2100     0.8580 H     1 <1>   0.0800 
 37 H       -5.2600    -5.6490    -0.8120 H     1 <1>   0.0800 
@<TRIPOS>BOND
  1   1   2  1   
  2   1   3  1   
  3   2   4  1   
  4   2   5  1   
  5   2  16  1   
  6   3   6  1   
  7   3  17  1   
  8   3  18  1   
  9   4   6  1   
 10   4   7  1   
 11   4  19  1   
 12   5   8  1   
 13   5  20  1   
 14   5  21  1   
 15   6   9  1   
 16   6  22  1   
 17   7  23  1   
 18   7  24  1   
 19   7  25  1   
 20   8  10  1   
 21   8  26  1   
 22   8  27  1   
 23   9  28  1   
 24   9  29  1   
 25   9  30  1   
 26  10  11  1   
 27  10  31  1   
 28  10  32  1   
 29  11  12  1   
 30  11  33  1   
 31  11  34  1   
 32  12  13  2   
 33  12  14  1   
 34  14  15  1   
 35  15  35  1   
 36  15  36  1   
 37  15  37  1   
@<TRIPOS>SUBSTRUCTURE
  1 ****   8 GROUP 4 **** **** 0

# MOE 2024.06 (io_trps.svl 2023.06)
