@<TRIPOS>MOLECULE
NONAME
19 19 1 0 0 
SMALL
USER_CHARGES


@<TRIPOS>ATOM
  1 O       -2.3560    -0.9090     0.2680 O.3   1 <1>  -0.6800 
  2 C       -3.3420    -0.1210    -0.2950 C.3   1 <1>   0.2000 
  3 C       -3.3330     1.2560     0.3660 C.3   1 <1>   0.4230 
  4 C       -4.7430    -0.6460    -0.0170 C.3   1 <1>  -0.1600 
  5 N       -2.1930     2.0830    -0.0760 N.4   1 <1>  -0.8530 
  6 C       -4.6960     1.8320     0.0090 C.3   1 <1>  -0.1600 
  7 C       -5.6350     0.6100    -0.0280 C.3   1 <1>  -0.1600 
  8 H       -2.4600    -1.8460    -0.0040 H     1 <1>   0.4000 
  9 H       -3.1770    -0.0490    -1.3570 H     1 <1>   0.0800 
 10 H       -3.2930     1.1050     1.4330 H     1 <1>   0.0800 
 11 H       -5.0580    -1.3560    -0.7630 H     1 <1>   0.0800 
 12 H       -4.7850    -1.1040     0.9580 H     1 <1>   0.0800 
 13 H       -2.2490     2.2940    -1.0760 H     1 <1>   0.4500 
 14 H       -1.3380     1.5360     0.0920 H     1 <1>   0.4500 
 15 H       -2.1380     2.9560     0.4580 H     1 <1>   0.4500 
 16 H       -5.0270     2.5500     0.7390 H     1 <1>   0.0800 
 17 H       -4.6760     2.2880    -0.9670 H     1 <1>   0.0800 
 18 H       -6.2450     0.6360    -0.9160 H     1 <1>   0.0800 
 19 H       -6.2890     0.6030     0.8290 H     1 <1>   0.0800 
@<TRIPOS>BOND
  1   1   2  1   
  2   1   8  1   
  3   2   3  1   
  4   2   4  1   
  5   2   9  1   
  6   3   5  1   
  7   3   6  1   
  8   3  10  1   
  9   4   7  1   
 10   4  11  1   
 11   4  12  1   
 12   5  13  1   
 13   5  14  1   
 14   5  15  1   
 15   6   7  1   
 16   6  16  1   
 17   6  17  1   
 18   7  18  1   
 19   7  19  1   
@<TRIPOS>SUBSTRUCTURE
  1 ****   3 GROUP 4 **** **** 0

# MOE 2024.06 (io_trps.svl 2023.06)
