@<TRIPOS>MOLECULE
NONAME
32 33 1 0 0 
SMALL
USER_CHARGES


@<TRIPOS>ATOM
  1 I       -1.0980     2.2480    -3.5060 I     1 <1>  -0.0810 
  2 C       -1.5580     2.2950    -1.4190 C.ar  1 <1>   0.0810 
  3 C       -0.5770     2.6190    -0.4880 C.ar  1 <1>   0.0830 
  4 C       -2.8570     1.9940    -1.0580 C.ar  1 <1>  -0.1500 
  5 O        0.6810     2.9050    -0.9170 O.3   1 <1>  -0.3630 
  6 C       -0.9470     2.6320     0.8530 C.ar  1 <1>  -0.1500 
  7 C       -3.2270     2.0140     0.2810 C.ar  1 <1>  -0.0090 
  8 C        1.7280     3.1870    -0.0160 C.3   1 <1>   0.0400 
  9 C       -2.2500     2.3330     1.2220 C.ar  1 <1>  -0.1500 
 10 S       -4.9280     1.6310     0.7790 S.o2  1 <1>   1.4470 
 11 O       -5.1690     2.1000     2.1260 O.2   1 <1>  -0.6500 
 12 O       -5.2240     0.2570     0.4400 O.2   1 <1>  -0.6500 
 13 N       -5.8550     2.6030    -0.2550 N.am  1 <1>  -0.8490 
 14 C       -7.2630     2.1770    -0.2740 C.3   1 <1>   0.1960 
 15 C       -5.7860     4.0320     0.0920 C.3   1 <1>   0.1960 
 16 C       -8.1010     3.0670    -1.2110 C.3   1 <1>   0.1200 
 17 C       -6.6500     4.8730    -0.8650 C.3   1 <1>   0.1200 
 18 O       -7.9730     4.4160    -0.8590 O.3   1 <1>  -0.5600 
 19 H       -3.5860     1.7450    -1.8110 H     1 <1>   0.1500 
 20 H       -0.2380     2.8710     1.6240 H     1 <1>   0.1500 
 21 H        2.6220     3.3580    -0.5870 H     1 <1>   0.0800 
 22 H        1.8670     2.3420     0.6350 H     1 <1>   0.0800 
 23 H        1.4800     4.0710     0.5450 H     1 <1>   0.0800 
 24 H       -2.5160     2.3480     2.2660 H     1 <1>   0.1500 
 25 H       -7.6760     2.2220     0.7210 H     1 <1>   0.0800 
 26 H       -7.3280     1.1580    -0.6150 H     1 <1>   0.0800 
 27 H       -4.7670     4.3720     0.0330 H     1 <1>   0.0800 
 28 H       -6.1350     4.1910     1.1000 H     1 <1>   0.0800 
 29 H       -9.1410     2.8060    -1.1410 H     1 <1>   0.0800 
 30 H       -7.7800     2.9450    -2.2310 H     1 <1>   0.0800 
 31 H       -6.2690     4.8150    -1.8700 H     1 <1>   0.0800 
 32 H       -6.6580     5.9030    -0.5550 H     1 <1>   0.0800 
@<TRIPOS>BOND
  1   1   2  1   
  2   2   3  ar  
  3   2   4  ar  
  4   3   5  1   
  5   3   6  ar  
  6   4   7  ar  
  7   4  19  1   
  8   5   8  1   
  9   6   9  ar  
 10   6  20  1   
 11   7   9  ar  
 12   7  10  1   
 13   8  21  1   
 14   8  22  1   
 15   8  23  1   
 16   9  24  1   
 17  10  11  2   
 18  10  12  2   
 19  10  13  am  
 20  13  14  1   
 21  13  15  1   
 22  14  16  1   
 23  14  25  1   
 24  14  26  1   
 25  15  17  1   
 26  15  27  1   
 27  15  28  1   
 28  16  18  1   
 29  16  29  1   
 30  16  30  1   
 31  17  18  1   
 32  17  31  1   
 33  17  32  1   
@<TRIPOS>SUBSTRUCTURE
  1 ****   7 GROUP 4 **** **** 0

# MOE 2024.06 (io_trps.svl 2023.06)
