@<TRIPOS>MOLECULE
Structure2621
26 27 1 0 0 
SMALL
USER_CHARGES


@<TRIPOS>ATOM
  1 BR       0.5550    -0.2420     0.4020 Br    1 <1>  -0.1110 
  2 C        0.3460     1.6560     0.1210 C.ar  1 <1>   0.1110 
  3 C        1.4560     2.4870     0.2400 C.ar  1 <1>   0.0820 
  4 C       -0.9100     2.1310    -0.2020 C.ar  1 <1>  -0.1500 
  5 O        2.6470     1.9180     0.5620 O.3   1 <1>  -0.3630 
  6 C        1.2870     3.8540     0.0230 C.ar  1 <1>  -0.1500 
  7 C       -1.0470     3.4900    -0.4110 C.ar  1 <1>   0.1770 
  8 C        3.8620     2.6140     0.4360 C.3   1 <1>   0.1200 
  9 C        0.0330     4.3510    -0.3030 C.ar  1 <1>  -0.1500 
 10 CL      -2.6150     4.1360    -0.8230 Cl    1 <1>  -0.1770 
 11 C        4.9780     1.6290     0.7870 C.3   1 <1>   0.0000 
 12 C        6.2590     1.7790    -0.0590 C.3   1 <1>   0.4720 
 13 C        4.8290     0.2540     0.1020 C.3   1 <1>   0.4720 
 14 N        6.3110     0.2820    -0.1170 N.4   1 <1>  -0.8440 
 15 H       -1.7530     1.4710    -0.2880 H     1 <1>   0.1500 
 16 H        2.1050     4.5450     0.1080 H     1 <1>   0.1500 
 17 H        3.8580     3.4500     1.1150 H     1 <1>   0.0800 
 18 H        3.9390     2.9600    -0.5820 H     1 <1>   0.0800 
 19 H       -0.1140     5.4040    -0.4720 H     1 <1>   0.1500 
 20 H        5.1780     1.5560     1.8420 H     1 <1>   0.0000 
 21 H        7.0960     2.1990     0.4690 H     1 <1>   0.0000 
 22 H        6.0800     2.1980    -1.0320 H     1 <1>   0.0000 
 23 H        4.2980     0.2980    -0.8320 H     1 <1>   0.0000 
 24 H        4.5250    -0.5420     0.7580 H     1 <1>   0.0000 
 25 H        6.8220    -0.1270     0.6730 H     1 <1>   0.4500 
 26 H        6.5980    -0.0950    -1.0260 H     1 <1>   0.4500 
@<TRIPOS>BOND
  1   1   2  1   
  2   2   3  ar  
  3   2   4  ar  
  4   3   5  1   
  5   3   6  ar  
  6   4   7  ar  
  7   4  15  1   
  8   5   8  1   
  9   6   9  ar  
 10   6  16  1   
 11   7   9  ar  
 12   7  10  1   
 13   8  11  1   
 14   8  17  1   
 15   8  18  1   
 16   9  19  1   
 17  11  12  1   
 18  11  13  1   
 19  11  20  1   
 20  12  14  1   
 21  12  21  1   
 22  12  22  1   
 23  13  14  1   
 24  13  23  1   
 25  13  24  1   
 26  14  25  1   
 27  14  26  1   
@<TRIPOS>SUBSTRUCTURE
  1 ****   3 GROUP 4 **** **** 0

# MOE 2024.06 (io_trps.svl 2023.06)
