@<TRIPOS>MOLECULE
NONAME
34 34 1 0 0 
SMALL
USER_CHARGES


@<TRIPOS>ATOM
  1 S       -0.0100    -0.0650     0.1350 S.o2  1 <1>   1.3330 
  2 O        0.8020     1.1300     0.1870 O.2   1 <1>  -0.6500 
  3 O       -1.3580     0.0410    -0.3750 O.2   1 <1>  -0.6500 
  4 N        0.8390    -1.2390    -0.8150 N.am  1 <1>  -0.6930 
  5 C       -0.0590    -0.7540     1.7750 C.3   1 <1>  -0.1350 
  6 C        2.2340    -1.2750    -0.7920 C.ar  1 <1>   0.1990 
  7 C        0.0170    -2.4090    -1.3250 C.3   1 <1>   0.1700 
  8 C        2.9360    -2.2600    -0.1070 C.ar  1 <1>  -0.1500 
  9 C        2.9620    -0.3050    -1.4650 C.ar  1 <1>  -0.1500 
 10 C       -0.5110    -3.4170    -0.2670 C.2   1 <1>   0.9060 
 11 C        0.7550    -3.1180    -2.4750 C.3   1 <1>  -0.2400 
 12 C        4.3210    -2.2910    -0.0950 C.ar  1 <1>  -0.1440 
 13 C        4.3440    -0.3210    -1.4600 C.ar  1 <1>  -0.1500 
 14 O       -1.5370    -4.0580    -0.5250 O.co2 1 <1>  -0.9000 
 15 O        0.0800    -3.5780     0.8120 O.co2 1 <1>  -0.9000 
 16 C        5.0350    -1.3120    -0.7790 C.ar  1 <1>  -0.1440 
 17 C        5.0200    -3.4030     0.6730 C.3   1 <1>  -0.0970 
 18 C        6.5560    -1.3020    -0.7940 C.3   1 <1>  -0.0970 
 19 H       -0.3530    -0.0050     2.4800 H     1 <1>   0.0800 
 20 H        0.9070    -1.1340     2.0450 H     1 <1>   0.0800 
 21 H       -0.7670    -1.5570     1.8210 H     1 <1>   0.0800 
 22 H       -0.8710    -1.9910    -1.7610 H     1 <1>   0.0800 
 23 H        2.3760    -3.0090     0.4210 H     1 <1>   0.1500 
 24 H        2.4280     0.4670    -1.9880 H     1 <1>   0.1500 
 25 H        1.6070    -3.6560    -2.1000 H     1 <1>   0.0800 
 26 H        1.0660    -2.4060    -3.2170 H     1 <1>   0.0800 
 27 H        0.0900    -3.8280    -2.9320 H     1 <1>   0.0800 
 28 H        4.8760     0.4470    -1.9910 H     1 <1>   0.1500 
 29 H        4.3020    -4.0620     1.1300 H     1 <1>   0.0800 
 30 H        5.6350    -2.9850     1.4490 H     1 <1>   0.0800 
 31 H        5.6320    -3.9830     0.0070 H     1 <1>   0.0800 
 32 H        6.9250    -2.2120    -1.2310 H     1 <1>   0.0800 
 33 H        6.9320    -1.2140     0.2090 H     1 <1>   0.0800 
 34 H        6.9300    -0.4740    -1.3690 H     1 <1>   0.0800 
@<TRIPOS>BOND
  1   1   2  2   
  2   1   3  2   
  3   1   4  am  
  4   1   5  1   
  5   4   6  1   
  6   4   7  1   
  7   5  19  1   
  8   5  20  1   
  9   5  21  1   
 10   6   8  ar  
 11   6   9  ar  
 12   7  10  1   
 13   7  11  1   
 14   7  22  1   
 15   8  12  ar  
 16   8  23  1   
 17   9  13  ar  
 18   9  24  1   
 19  10  14  ar  
 20  10  15  ar  
 21  11  25  1   
 22  11  26  1   
 23  11  27  1   
 24  12  16  ar  
 25  12  17  1   
 26  13  16  ar  
 27  13  28  1   
 28  16  18  1   
 29  17  29  1   
 30  17  30  1   
 31  17  31  1   
 32  18  32  1   
 33  18  33  1   
 34  18  34  1   
@<TRIPOS>SUBSTRUCTURE
  1 ****   6 GROUP 4 **** **** 0

# MOE 2024.06 (io_trps.svl 2023.06)
