@<TRIPOS>MOLECULE
NONAME
37 37 1 0 0 
SMALL
USER_CHARGES


@<TRIPOS>ATOM
  1 S       -0.0790    -0.0330    -0.2840 S.o2  1 <1>   1.4470 
  2 O       -0.5660    -0.2660    -1.6240 O.2   1 <1>  -0.6500 
  3 O       -0.4410    -0.9280     0.7910 O.2   1 <1>  -0.6500 
  4 N       -0.7020     1.4750     0.1010 N.am  1 <1>  -0.9140 
  5 C        1.7110     0.2480    -0.2900 C.ar  1 <1>  -0.0090 
  6 C       -2.0650     1.4090     0.5910 C.3   1 <1>   0.1960 
  7 C        2.3710     0.6680     0.8590 C.ar  1 <1>  -0.1500 
  8 C        2.4750     0.0550    -1.4360 C.ar  1 <1>  -0.1500 
  9 C       -2.5880     2.8330     0.7750 C.3   1 <1>  -0.1600 
 10 C        3.7370     0.8880     0.8630 C.ar  1 <1>  -0.1500 
 11 C        3.8410     0.2740    -1.4350 C.ar  1 <1>  -0.1500 
 12 C       -4.0270     2.8350     1.3030 C.3   1 <1>  -0.2400 
 13 C        4.4950     0.6970    -0.2840 C.ar  1 <1>   0.1170 
 14 N        5.8750     0.9330    -0.2190 N.am  1 <1>  -0.5470 
 15 C        6.8700     0.9610    -1.1570 C.2   1 <1>   0.5690 
 16 O        6.7010     0.7680    -2.3370 O.2   1 <1>  -0.5700 
 17 C        8.2800     1.2630    -0.6590 C.3   1 <1>   0.1810 
 18 O        8.2980     1.4830     0.7340 O.3   1 <1>  -0.5600 
 19 C        9.5640     1.7630     1.2410 C.3   1 <1>   0.0400 
 20 H       -0.7360     1.9510    -0.7980 H     1 <1>   0.4200 
 21 H       -2.0870     0.8880     1.5350 H     1 <1>   0.0800 
 22 H       -2.6850     0.8740    -0.1120 H     1 <1>   0.0800 
 23 H        1.8020     0.8240     1.7610 H     1 <1>   0.1500 
 24 H        1.9960    -0.2730    -2.3440 H     1 <1>   0.1500 
 25 H       -2.5600     3.3530    -0.1670 H     1 <1>   0.0800 
 26 H       -1.9560     3.3530     1.4750 H     1 <1>   0.0800 
 27 H        4.2160     1.2140     1.7690 H     1 <1>   0.1500 
 28 H        4.3940     0.1100    -2.3420 H     1 <1>   0.1500 
 29 H       -4.6840     2.3340     0.6130 H     1 <1>   0.0800 
 30 H       -4.3710     3.8470     1.4280 H     1 <1>   0.0800 
 31 H       -4.0800     2.3380     2.2560 H     1 <1>   0.0800 
 32 H        6.2490     1.1420     0.7110 H     1 <1>   0.3700 
 33 H        8.6470     2.1450    -1.1540 H     1 <1>   0.0800 
 34 H        8.9200     0.4290    -0.8870 H     1 <1>   0.0800 
 35 H        9.4750     1.9150     2.3030 H     1 <1>   0.0800 
 36 H        9.9430     2.6590     0.7790 H     1 <1>   0.0800 
 37 H       10.2180     0.9300     1.0490 H     1 <1>   0.0800 
@<TRIPOS>BOND
  1   1   2  2   
  2   1   3  2   
  3   1   4  am  
  4   1   5  1   
  5   4   6  1   
  6   4  20  1   
  7   5   7  ar  
  8   5   8  ar  
  9   6   9  1   
 10   6  21  1   
 11   6  22  1   
 12   7  10  ar  
 13   7  23  1   
 14   8  11  ar  
 15   8  24  1   
 16   9  12  1   
 17   9  25  1   
 18   9  26  1   
 19  10  13  ar  
 20  10  27  1   
 21  11  13  ar  
 22  11  28  1   
 23  12  29  1   
 24  12  30  1   
 25  12  31  1   
 26  13  14  1   
 27  14  15  am  
 28  14  32  1   
 29  15  16  2   
 30  15  17  1   
 31  17  18  1   
 32  17  33  1   
 33  17  34  1   
 34  18  19  1   
 35  19  35  1   
 36  19  36  1   
 37  19  37  1   
@<TRIPOS>SUBSTRUCTURE
  1 ****   7 GROUP 4 **** **** 0

# MOE 2024.06 (io_trps.svl 2023.06)
