@<TRIPOS>MOLECULE
NONAME
43 45 1 0 0 
SMALL
USER_CHARGES


@<TRIPOS>ATOM
  1 S        0.4020    -0.8710    -0.9700 S.o2  1 <1>   1.4470 
  2 O        1.0620    -1.7960    -1.8670 O.2   1 <1>  -0.6500 
  3 O        0.3600     0.5350    -1.3090 O.2   1 <1>  -0.6500 
  4 N        1.2000    -0.9880     0.5210 N.am  1 <1>  -0.8490 
  5 C       -1.2710    -1.4570    -0.5900 C.ar  1 <1>  -0.0090 
  6 C        2.4710    -0.2480     0.5080 C.3   1 <1>   0.1960 
  7 C        1.4540    -2.3810     0.9230 C.3   1 <1>   0.1960 
  8 C       -1.8680    -2.4710    -1.3280 C.ar  1 <1>  -0.1500 
  9 C       -2.0010    -0.9150     0.4580 C.ar  1 <1>  -0.1500 
 10 C        3.1940    -0.3620     1.8630 C.3   1 <1>   0.1200 
 11 C        2.1910    -2.4390     2.2730 C.3   1 <1>   0.1200 
 12 C       -3.1440    -2.9310    -1.0450 C.ar  1 <1>  -0.1430 
 13 C       -3.2750    -1.3650     0.7510 C.ar  1 <1>  -0.1500 
 14 O        3.3820    -1.7050     2.2130 O.3   1 <1>  -0.5600 
 15 C       -3.8830    -2.3690     0.0010 C.ar  1 <1>   0.1170 
 16 C       -3.6910    -4.0730    -1.8930 C.3   1 <1>  -0.0170 
 17 N       -5.1940    -2.8240     0.2900 N.am  1 <1>  -0.4770 
 18 C       -5.1860    -4.3060    -1.6630 C.3   1 <1>  -0.1600 
 19 C       -6.2000    -2.0460     0.8410 C.2   1 <1>   0.7800 
 20 C       -5.5200    -4.1990    -0.1760 C.3   1 <1>   0.1400 
 21 O       -6.1440    -0.8350     0.9330 O.2   1 <1>  -0.5700 
 22 O       -7.2950    -2.6710     1.2930 O.3   1 <1>  -0.4300 
 23 C       -8.3690    -1.9530     1.8690 C.3   1 <1>   0.0400 
 24 H        2.2810     0.7930     0.3040 H     1 <1>   0.0800 
 25 H        3.1120    -0.6280    -0.2700 H     1 <1>   0.0800 
 26 H        2.0540    -2.8820     0.1810 H     1 <1>   0.0800 
 27 H        0.5200    -2.9100     1.0110 H     1 <1>   0.0800 
 28 H       -1.3140    -2.9090    -2.1420 H     1 <1>   0.1500 
 29 H       -1.5650    -0.1280     1.0510 H     1 <1>   0.1500 
 30 H        2.6210     0.1190     2.6360 H     1 <1>   0.0800 
 31 H        4.1620     0.1020     1.8080 H     1 <1>   0.0800 
 32 H        2.4450    -3.4550     2.5170 H     1 <1>   0.0800 
 33 H        1.5760    -2.0350     3.0580 H     1 <1>   0.0800 
 34 H       -3.7980    -0.9200     1.5780 H     1 <1>   0.1500 
 35 H       -3.1530    -4.9690    -1.6350 H     1 <1>   0.0800 
 36 H       -3.5190    -3.8720    -2.9360 H     1 <1>   0.0800 
 37 H       -5.4630    -5.2770    -2.0330 H     1 <1>   0.0800 
 38 H       -5.7560    -3.5690    -2.2010 H     1 <1>   0.0800 
 39 H       -6.5610    -4.4310    -0.0370 H     1 <1>   0.0800 
 40 H       -4.9400    -4.9080     0.3890 H     1 <1>   0.0800 
 41 H       -9.1330    -2.6540     2.1550 H     1 <1>   0.0800 
 42 H       -8.7540    -1.2600     1.1420 H     1 <1>   0.0800 
 43 H       -8.0090    -1.4230     2.7340 H     1 <1>   0.0800 
@<TRIPOS>BOND
  1   1   2  2   
  2   1   3  2   
  3   1   4  am  
  4   1   5  1   
  5   4   6  1   
  6   4   7  1   
  7   5   8  ar  
  8   5   9  ar  
  9   6  10  1   
 10   6  24  1   
 11   6  25  1   
 12   7  11  1   
 13   7  26  1   
 14   7  27  1   
 15   8  12  ar  
 16   8  28  1   
 17   9  13  ar  
 18   9  29  1   
 19  10  14  1   
 20  10  30  1   
 21  10  31  1   
 22  11  14  1   
 23  11  32  1   
 24  11  33  1   
 25  12  15  ar  
 26  12  16  1   
 27  13  15  ar  
 28  13  34  1   
 29  15  17  1   
 30  16  18  1   
 31  16  35  1   
 32  16  36  1   
 33  17  19  am  
 34  17  20  1   
 35  18  20  1   
 36  18  37  1   
 37  18  38  1   
 38  19  21  2   
 39  19  22  1   
 40  20  39  1   
 41  20  40  1   
 42  22  23  1   
 43  23  41  1   
 44  23  42  1   
 45  23  43  1   
@<TRIPOS>SUBSTRUCTURE
  1 ****   9 GROUP 4 **** **** 0

# MOE 2024.06 (io_trps.svl 2023.06)
