@<TRIPOS>MOLECULE
NONAME
43 45 1 0 0 
SMALL
USER_CHARGES


@<TRIPOS>ATOM
  1 S        0.9990     1.1240     0.5640 S.3   1 <1>  -0.3710 
  2 C       -0.6670     1.5860     0.9870 C.2   1 <1>   0.6410 
  3 C        1.5980     2.3520    -0.7010 C.3   1 <1>   0.1310 
  4 N       -1.1680     2.7000     0.3890 N.pl3 1 <1>  -0.5500 
  5 N       -1.2910     0.8490     1.8230 N.2   1 <1>  -0.6610 
  6 C        3.0170     2.0500    -1.1600 C.2   1 <1>   0.5690 
  7 C       -2.4430     3.1350     0.6520 C.2   1 <1>   0.0720 
  8 C       -2.5640     1.2330     2.1290 C.2   1 <1>   0.7670 
  9 O        3.5890     2.8870    -1.8130 O.2   1 <1>  -0.5700 
 10 N        3.6050     0.8710    -0.8310 N.am  1 <1>  -0.7300 
 11 C       -2.9270     4.3240    -0.0030 C.ar  1 <1>   0.0280 
 12 C       -3.1430     2.3820     1.5390 C.2   1 <1>  -0.1360 
 13 O       -3.1990     0.5630     2.9280 O.2   1 <1>  -0.5700 
 14 C        4.9850     0.4640    -1.2150 C.3   1 <1>   0.1400 
 15 C       -3.4730     5.3740     0.7320 C.ar  1 <1>  -0.1500 
 16 C       -2.8620     4.4610    -1.3880 C.ar  1 <1>  -0.1500 
 17 C        6.0230     0.9790    -0.2080 C.3   1 <1>   0.2000 
 18 C       -3.9300     6.5210     0.1100 C.ar  1 <1>  -0.1500 
 19 C       -3.3160     5.6070    -2.0150 C.ar  1 <1>  -0.1500 
 20 O        7.2610     0.4180    -0.4950 O.3   1 <1>  -0.5600 
 21 C        5.7700     0.5820     1.2410 C.3   1 <1>  -0.1600 
 22 C       -3.8510     6.6400    -1.2660 C.ar  1 <1>  -0.1500 
 23 C        8.0910     0.5030     0.6180 C.3   1 <1>   0.1200 
 24 C        7.1690     0.5410     1.8350 C.3   1 <1>  -0.1600 
 25 H        1.5670     3.3250    -0.2480 H     1 <1>   0.0800 
 26 H        0.9310     2.3050    -1.5410 H     1 <1>   0.0800 
 27 H       -0.5770     3.2480    -0.2320 H     1 <1>   0.4000 
 28 H        3.0970     0.2250    -0.2170 H     1 <1>   0.3700 
 29 H       -4.1480     2.6180     1.8260 H     1 <1>   0.1500 
 30 H        5.2170     0.8650    -2.1870 H     1 <1>   0.0800 
 31 H        5.0350    -0.6090    -1.2650 H     1 <1>   0.0800 
 32 H       -3.5360     5.2940     1.8040 H     1 <1>   0.1500 
 33 H       -2.4610     3.6600    -1.9830 H     1 <1>   0.1500 
 34 H        6.1240     2.0480    -0.2980 H     1 <1>   0.0800 
 35 H       -4.3480     7.3230     0.6940 H     1 <1>   0.1500 
 36 H       -3.2590     5.6970    -3.0870 H     1 <1>   0.1500 
 37 H        5.3240    -0.3960     1.2790 H     1 <1>   0.0800 
 38 H        5.1270     1.2870     1.7390 H     1 <1>   0.0800 
 39 H       -4.2060     7.5330    -1.7520 H     1 <1>   0.1500 
 40 H        8.6700     1.4070     0.5360 H     1 <1>   0.0800 
 41 H        8.7420    -0.3540     0.6250 H     1 <1>   0.0800 
 42 H        7.3100    -0.3260     2.4560 H     1 <1>   0.0800 
 43 H        7.3720     1.4240     2.4150 H     1 <1>   0.0800 
@<TRIPOS>BOND
  1   1   2  1   
  2   1   3  1   
  3   2   4  1   
  4   2   5  2   
  5   3   6  1   
  6   3  25  1   
  7   3  26  1   
  8   4   7  1   
  9   4  27  1   
 10   5   8  1   
 11   6   9  2   
 12   6  10  am  
 13   7  11  1   
 14   7  12  2   
 15   8  12  1   
 16   8  13  2   
 17  10  14  1   
 18  10  28  1   
 19  11  15  ar  
 20  11  16  ar  
 21  12  29  1   
 22  14  17  1   
 23  14  30  1   
 24  14  31  1   
 25  15  18  ar  
 26  15  32  1   
 27  16  19  ar  
 28  16  33  1   
 29  17  20  1   
 30  17  21  1   
 31  17  34  1   
 32  18  22  ar  
 33  18  35  1   
 34  19  22  ar  
 35  19  36  1   
 36  20  23  1   
 37  21  24  1   
 38  21  37  1   
 39  21  38  1   
 40  22  39  1   
 41  23  24  1   
 42  23  40  1   
 43  23  41  1   
 44  24  42  1   
 45  24  43  1   
@<TRIPOS>SUBSTRUCTURE
  1 ****   3 GROUP 4 **** **** 0

# MOE 2024.06 (io_trps.svl 2023.06)
