@<TRIPOS>MOLECULE
NONAME
48 49 1 0 0 
SMALL
USER_CHARGES


@<TRIPOS>ATOM
  1 O       -1.2230    -0.2960     1.1630 O.3   1 <1>  -0.5600 
  2 C       -1.0170     0.1440    -0.1530 C.3   1 <1>   0.1200 
  3 C       -1.4450    -1.6750     1.2790 C.3   1 <1>   0.1200 
  4 C       -2.2000    -0.2470    -1.0700 C.3   1 <1>   0.3430 
  5 C       -2.6900    -2.1090     0.4690 C.3   1 <1>   0.3430 
  6 N       -3.2770    -0.9580    -0.3030 N.4   1 <1>  -0.9590 
  7 C       -4.4400    -1.3200    -1.1560 C.3   1 <1>   0.3430 
  8 C       -5.6380    -1.7100    -0.2890 C.3   1 <1>  -0.1600 
  9 C       -6.8820    -1.9630    -1.1530 C.3   1 <1>  -0.1600 
 10 C       -8.0830    -2.3490    -0.2800 C.3   1 <1>  -0.1600 
 11 C       -9.3340    -2.6020    -1.1230 C.3   1 <1>   0.1200 
 12 O      -10.3780    -2.9500    -0.2470 O.3   1 <1>  -0.3630 
 13 C      -11.6300    -3.2430    -0.6920 C.ar  1 <1>   0.0830 
 14 C      -12.6010    -3.5900     0.2510 C.ar  1 <1>  -0.1430 
 15 C      -11.9590    -3.2100    -2.0450 C.ar  1 <1>  -0.1500 
 16 C      -13.8860    -3.9180    -0.1750 C.ar  1 <1>  -0.1430 
 17 C      -12.2470    -3.6180     1.7390 C.3   1 <1>  -0.0970 
 18 C      -13.2380    -3.5260    -2.4580 C.ar  1 <1>  -0.1500 
 19 C      -14.1950    -3.8790    -1.5260 C.ar  1 <1>  -0.1500 
 20 C      -14.9810    -4.3270     0.8010 C.3   1 <1>  -0.0970 
 21 H       -0.0960    -0.2780    -0.5170 H     1 <1>   0.0800 
 22 H       -0.9070     1.2140    -0.1250 H     1 <1>   0.0800 
 23 H       -1.5850    -1.9000     2.3230 H     1 <1>   0.0800 
 24 H       -0.5660    -2.1960     0.9380 H     1 <1>   0.0800 
 25 H       -1.8330    -0.8800    -1.8610 H     1 <1>   0.0800 
 26 H       -2.5970     0.6450    -1.5260 H     1 <1>   0.0800 
 27 H       -3.4230    -2.5080     1.1510 H     1 <1>   0.0800 
 28 H       -2.4090    -2.9020    -0.2040 H     1 <1>   0.0800 
 29 H       -3.5780    -0.2820     0.4160 H     1 <1>   0.4500 
 30 H       -4.1810    -2.1350    -1.8130 H     1 <1>   0.0800 
 31 H       -4.7160    -0.4730    -1.7640 H     1 <1>   0.0800 
 32 H       -5.8550    -0.9150     0.4050 H     1 <1>   0.0800 
 33 H       -5.4190    -2.6050     0.2650 H     1 <1>   0.0800 
 34 H       -6.6850    -2.7580    -1.8540 H     1 <1>   0.0800 
 35 H       -7.1250    -1.0740    -1.7120 H     1 <1>   0.0800 
 36 H       -8.2950    -1.5580     0.4190 H     1 <1>   0.0800 
 37 H       -7.8570    -3.2450     0.2740 H     1 <1>   0.0800 
 38 H       -9.1790    -3.4190    -1.8050 H     1 <1>   0.0800 
 39 H       -9.6230    -1.7130    -1.6570 H     1 <1>   0.0800 
 40 H      -11.2390    -2.9430    -2.7930 H     1 <1>   0.1500 
 41 H      -13.0650    -3.2630     2.3360 H     1 <1>   0.0800 
 42 H      -12.0070    -4.6230     2.0320 H     1 <1>   0.0800 
 43 H      -11.4040    -2.9890     1.9570 H     1 <1>   0.0800 
 44 H      -13.4910    -3.4990    -3.5030 H     1 <1>   0.1500 
 45 H      -15.1860    -4.1260    -1.8640 H     1 <1>   0.1500 
 46 H      -14.6240    -5.1000     1.4580 H     1 <1>   0.0800 
 47 H      -15.8420    -4.7060     0.2800 H     1 <1>   0.0800 
 48 H      -15.2860    -3.4790     1.3860 H     1 <1>   0.0800 
@<TRIPOS>BOND
  1   1   2  1   
  2   1   3  1   
  3   2   4  1   
  4   2  21  1   
  5   2  22  1   
  6   3   5  1   
  7   3  23  1   
  8   3  24  1   
  9   4   6  1   
 10   4  25  1   
 11   4  26  1   
 12   5   6  1   
 13   5  27  1   
 14   5  28  1   
 15   6   7  1   
 16   6  29  1   
 17   7   8  1   
 18   7  30  1   
 19   7  31  1   
 20   8   9  1   
 21   8  32  1   
 22   8  33  1   
 23   9  10  1   
 24   9  34  1   
 25   9  35  1   
 26  10  11  1   
 27  10  36  1   
 28  10  37  1   
 29  11  12  1   
 30  11  38  1   
 31  11  39  1   
 32  12  13  1   
 33  13  14  ar  
 34  13  15  ar  
 35  14  16  ar  
 36  14  17  1   
 37  15  18  ar  
 38  15  40  1   
 39  16  19  ar  
 40  16  20  1   
 41  17  41  1   
 42  17  42  1   
 43  17  43  1   
 44  18  19  ar  
 45  18  44  1   
 46  19  45  1   
 47  20  46  1   
 48  20  47  1   
 49  20  48  1   
@<TRIPOS>SUBSTRUCTURE
  1 ****  10 GROUP 4 **** **** 0

# MOE 2024.06 (io_trps.svl 2023.06)
