@<TRIPOS>MOLECULE
NONAME
33 33 1 0 0 
SMALL
USER_CHARGES


@<TRIPOS>ATOM
  1 CL      -1.1130    -0.3720    -0.8250 Cl    1 <1>  -0.1770 
  2 C       -0.9080    -2.0060    -0.2380 C.ar  1 <1>   0.1770 
  3 C       -1.8610    -2.5440     0.6080 C.ar  1 <1>  -0.1440 
  4 C        0.1940    -2.7300    -0.6470 C.ar  1 <1>  -0.1500 
  5 C       -1.6920    -3.8470     1.0450 C.ar  1 <1>  -0.1500 
  6 C       -3.0560    -1.7280     1.0420 C.3   1 <1>   0.4870 
  7 C        0.3660    -4.0410    -0.2100 C.ar  1 <1>   0.0830 
  8 C       -0.5970    -4.6020     0.6520 C.ar  1 <1>   0.0830 
  9 N       -4.0090    -1.6990    -0.0850 N.4   1 <1>  -0.9060 
 10 O        1.4410    -4.7760    -0.6170 O.3   1 <1>  -0.3620 
 11 O       -0.5940    -5.8610     1.1770 O.3   1 <1>  -0.3620 
 12 C       -5.2320    -0.9350     0.1850 C.3   1 <1>   0.4810 
 13 C        2.4590    -4.2520    -1.4440 C.3   1 <1>   0.0400 
 14 C        0.5150    -6.7310     1.1130 C.3   1 <1>   0.0400 
 15 C       -6.1020    -1.1140    -1.0330 C.2   1 <1>  -0.2880 
 16 C       -7.2280    -1.8340    -1.0770 C.2   1 <1>  -0.3000 
 17 H        0.8950    -2.2510    -1.3040 H     1 <1>   0.1500 
 18 H       -2.4040    -4.3090     1.7080 H     1 <1>   0.1500 
 19 H       -2.7410    -0.7280     1.2960 H     1 <1>   0.0800 
 20 H       -3.5110    -2.1790     1.9100 H     1 <1>   0.0800 
 21 H       -4.2730    -2.6580    -0.3410 H     1 <1>   0.4500 
 22 H       -3.5360    -1.3050    -0.9060 H     1 <1>   0.4500 
 23 H       -5.0140     0.1100     0.3440 H     1 <1>   0.0800 
 24 H       -5.7360    -1.3280     1.0540 H     1 <1>   0.0800 
 25 H        3.1930    -5.0220    -1.5960 H     1 <1>   0.0800 
 26 H        2.9130    -3.4100    -0.9520 H     1 <1>   0.0800 
 27 H        2.0320    -3.9670    -2.3890 H     1 <1>   0.0800 
 28 H        0.3000    -7.5940     1.7160 H     1 <1>   0.0800 
 29 H        1.3820    -6.2230     1.4960 H     1 <1>   0.0800 
 30 H        0.6650    -7.0300     0.0910 H     1 <1>   0.0800 
 31 H       -5.7300    -0.5880    -1.8970 H     1 <1>   0.1500 
 32 H       -7.8350    -1.9410    -1.9640 H     1 <1>   0.1500 
 33 H       -7.6560    -2.3760    -0.2490 H     1 <1>   0.1500 
@<TRIPOS>BOND
  1   1   2  1   
  2   2   3  ar  
  3   2   4  ar  
  4   3   5  ar  
  5   3   6  1   
  6   4   7  ar  
  7   4  17  1   
  8   5   8  ar  
  9   5  18  1   
 10   6   9  1   
 11   6  19  1   
 12   6  20  1   
 13   7   8  ar  
 14   7  10  1   
 15   8  11  1   
 16   9  12  1   
 17   9  21  1   
 18   9  22  1   
 19  10  13  1   
 20  11  14  1   
 21  12  15  1   
 22  12  23  1   
 23  12  24  1   
 24  13  25  1   
 25  13  26  1   
 26  13  27  1   
 27  14  28  1   
 28  14  29  1   
 29  14  30  1   
 30  15  16  2   
 31  15  31  1   
 32  16  32  1   
 33  16  33  1   
@<TRIPOS>SUBSTRUCTURE
  1 ****   3 GROUP 4 **** **** 0

# MOE 2024.06 (io_trps.svl 2023.06)
