@<TRIPOS>MOLECULE
NONAME
53 55 1 0 0 
SMALL
USER_CHARGES


@<TRIPOS>ATOM
  1 S        0.4530    -0.2280     0.8060 S.o2  1 <1>   1.4470 
  2 O        0.9850    -0.1540     2.1500 O.2   1 <1>  -0.6500 
  3 O       -0.2790     0.9000     0.2760 O.2   1 <1>  -0.6500 
  4 N        1.7700    -0.4980    -0.2240 N.am  1 <1>  -0.8490 
  5 C       -0.5610    -1.7250     0.6320 C.ar  1 <1>  -0.0090 
  6 C        2.6960    -1.5250     0.2990 C.3   1 <1>   0.1960 
  7 C        2.5100     0.7550    -0.4720 C.3   1 <1>   0.1960 
  8 C       -0.7700    -2.3220    -0.6020 C.ar  1 <1>  -0.1500 
  9 C       -1.1740    -2.3010     1.7360 C.ar  1 <1>  -0.1500 
 10 C        3.8770    -1.8000    -0.6520 C.3   1 <1>   0.2090 
 11 C        3.7060     0.5740    -1.4290 C.3   1 <1>   0.2090 
 12 C       -1.5520    -3.4670    -0.7810 C.ar  1 <1>   0.0860 
 13 C       -1.9570    -3.4310     1.6070 C.ar  1 <1>  -0.1500 
 14 N        4.6010    -0.5500    -1.0250 N.pl3 1 <1>  -0.8380 
 15 C       -2.1530    -4.0230     0.3620 C.ar  1 <1>   0.0830 
 16 C       -1.6940    -4.0120    -2.1230 C.2   1 <1>   0.5440 
 17 C        5.7960    -0.2560    -0.3650 C.ar  1 <1>   0.1000 
 18 O       -2.9130    -5.1400     0.2290 O.3   1 <1>  -0.3630 
 19 O       -0.8630    -3.7950    -2.9800 O.2   1 <1>  -0.5700 
 20 N       -2.7440    -4.7700    -2.5070 N.am  1 <1>  -0.8000 
 21 C        7.0330    -0.4550    -0.9890 C.ar  1 <1>  -0.1430 
 22 C        5.7630     0.2350     0.9350 C.ar  1 <1>  -0.1500 
 23 C       -3.5090    -5.8060     1.3230 C.3   1 <1>   0.0400 
 24 C        8.2110    -0.1710    -0.3000 C.ar  1 <1>  -0.1430 
 25 C        7.0430    -0.9890    -2.4220 C.3   1 <1>  -0.0970 
 26 C        6.9290     0.5230     1.6130 C.ar  1 <1>  -0.1500 
 27 C        8.1480     0.3190     0.9970 C.ar  1 <1>  -0.1500 
 28 C        9.5880    -0.3800    -0.9160 C.3   1 <1>  -0.0970 
 29 H        2.1630    -2.4470     0.4520 H     1 <1>   0.0800 
 30 H        3.0920    -1.2140     1.2510 H     1 <1>   0.0800 
 31 H        2.8670     1.1560     0.4610 H     1 <1>   0.0800 
 32 H        1.8460     1.4840    -0.9050 H     1 <1>   0.0800 
 33 H       -0.3060    -1.8780    -1.4680 H     1 <1>   0.1500 
 34 H       -1.0360    -1.8550     2.7080 H     1 <1>   0.1500 
 35 H        3.5080    -2.2680    -1.5480 H     1 <1>   0.0800 
 36 H        4.5640    -2.4820    -0.1820 H     1 <1>   0.0800 
 37 H        4.2750     1.4870    -1.4660 H     1 <1>   0.0800 
 38 H        3.3340     0.3790    -2.4190 H     1 <1>   0.0800 
 39 H       -2.4070    -3.8320     2.4960 H     1 <1>   0.1500 
 40 H       -2.7550    -5.1760    -3.4410 H     1 <1>   0.3700 
 41 H       -3.3880    -5.1580    -1.8130 H     1 <1>   0.3700 
 42 H        4.8190     0.3900     1.4180 H     1 <1>   0.1500 
 43 H       -4.0290    -6.6690     0.9480 H     1 <1>   0.0800 
 44 H       -4.2060    -5.1420     1.8020 H     1 <1>   0.0800 
 45 H       -2.7380    -6.1160     2.0070 H     1 <1>   0.0800 
 46 H        6.3460    -0.4320    -3.0210 H     1 <1>   0.0800 
 47 H        6.7390    -2.0200    -2.4180 H     1 <1>   0.0800 
 48 H        8.0030    -0.9150    -2.8910 H     1 <1>   0.0800 
 49 H        6.8900     0.9030     2.6180 H     1 <1>   0.1500 
 50 H        9.0500     0.5450     1.5370 H     1 <1>   0.1500 
 51 H        9.6890    -1.3950    -1.2550 H     1 <1>   0.0800 
 52 H       10.3670    -0.1880    -0.2010 H     1 <1>   0.0800 
 53 H        9.7220     0.2870    -1.7480 H     1 <1>   0.0800 
@<TRIPOS>BOND
  1   1   2  2   
  2   1   3  2   
  3   1   4  am  
  4   1   5  1   
  5   4   6  1   
  6   4   7  1   
  7   5   8  ar  
  8   5   9  ar  
  9   6  10  1   
 10   6  29  1   
 11   6  30  1   
 12   7  11  1   
 13   7  31  1   
 14   7  32  1   
 15   8  12  ar  
 16   8  33  1   
 17   9  13  ar  
 18   9  34  1   
 19  10  14  1   
 20  10  35  1   
 21  10  36  1   
 22  11  14  1   
 23  11  37  1   
 24  11  38  1   
 25  12  15  ar  
 26  12  16  1   
 27  13  15  ar  
 28  13  39  1   
 29  14  17  1   
 30  15  18  1   
 31  16  19  2   
 32  16  20  am  
 33  17  21  ar  
 34  17  22  ar  
 35  18  23  1   
 36  20  40  1   
 37  20  41  1   
 38  21  24  ar  
 39  21  25  1   
 40  22  26  ar  
 41  22  42  1   
 42  23  43  1   
 43  23  44  1   
 44  23  45  1   
 45  24  27  ar  
 46  24  28  1   
 47  25  46  1   
 48  25  47  1   
 49  25  48  1   
 50  26  27  ar  
 51  26  49  1   
 52  27  50  1   
 53  28  51  1   
 54  28  52  1   
 55  28  53  1   
@<TRIPOS>SUBSTRUCTURE
  1 ****   6 GROUP 4 **** **** 0

# MOE 2024.06 (io_trps.svl 2023.06)
