@<TRIPOS>MOLECULE
NONAME
55 56 1 0 0 
SMALL
USER_CHARGES


@<TRIPOS>ATOM
  1 S       -0.4310     0.1710    -0.7800 S.3   1 <1>  -0.3710 
  2 C        1.2790     0.2340    -0.2750 C.2   1 <1>   0.6410 
  3 C       -0.6380     1.6740    -1.8580 C.3   1 <1>   0.1310 
  4 N        1.9600     1.2170    -0.7300 N.2   1 <1>  -0.6610 
  5 N        1.7470    -0.7680     0.5500 N.pl3 1 <1>  -0.5190 
  6 C       -2.1000     1.8980    -2.1870 C.2   1 <1>   0.6590 
  7 C        3.2720     1.2610    -0.3740 C.2   1 <1>   0.7670 
  8 C        3.0880    -0.7890     0.8410 C.2   1 <1>   0.2000 
  9 C        0.8210    -1.7210     1.2270 C.3   1 <1>   0.3470 
 10 O       -2.5160     1.8210    -3.3160 O.2   1 <1>  -0.5700 
 11 O       -2.8800     2.2000    -1.1590 O.3   1 <1>  -0.4300 
 12 O        3.9370     2.2150    -0.7620 O.2   1 <1>  -0.5700 
 13 C        3.8490     0.2440     0.3970 C.2   1 <1>  -0.1360 
 14 N        3.5970    -1.8440     1.5330 N.pl3 1 <1>  -0.9000 
 15 C        0.8710    -3.0690     0.5250 C.2   1 <1>  -0.2880 
 16 C       -4.2660     2.4310    -1.2880 C.3   1 <1>   0.2000 
 17 C        1.1860    -4.2360     1.0970 C.2   1 <1>  -0.3000 
 18 C       -4.7560     3.3760    -0.1580 C.3   1 <1>  -0.0800 
 19 C       -4.9610     1.0520    -1.2860 C.3   1 <1>  -0.1600 
 20 C       -3.8420     4.6130     0.0790 C.3   1 <1>  -0.0800 
 21 C       -5.0780     2.5690     1.1160 C.3   1 <1>  -0.1600 
 22 C       -6.3310     1.0850    -0.5930 C.3   1 <1>  -0.0800 
 23 C       -2.6750     4.3780     1.0560 C.3   1 <1>  -0.2400 
 24 C       -4.6650     5.8060     0.5890 C.3   1 <1>  -0.2400 
 25 C       -6.1910     1.5290     0.8780 C.3   1 <1>  -0.1600 
 26 C       -7.0240    -0.2780    -0.6830 C.3   1 <1>  -0.2400 
 27 H       -0.0650     1.5110    -2.7520 H     1 <1>   0.0800 
 28 H       -0.2500     2.5180    -1.3190 H     1 <1>   0.0800 
 29 H       -0.1880    -1.3540     1.2440 H     1 <1>   0.0800 
 30 H        1.1200    -1.8320     2.2540 H     1 <1>   0.0800 
 31 H        4.8960     0.3140     0.6060 H     1 <1>   0.1500 
 32 H        4.6040    -1.9510     1.6890 H     1 <1>   0.4000 
 33 H        3.0880    -2.7360     1.5220 H     1 <1>   0.4000 
 34 H        0.6180    -2.9850    -0.5190 H     1 <1>   0.1500 
 35 H       -4.4360     2.9240    -2.2300 H     1 <1>   0.0800 
 36 H        1.2120    -5.1730     0.5650 H     1 <1>   0.1500 
 37 H        1.4380    -4.3640     2.1370 H     1 <1>   0.1500 
 38 H       -5.6960     3.7640    -0.5100 H     1 <1>   0.0800 
 39 H       -4.3400     0.3390    -0.7710 H     1 <1>   0.0800 
 40 H       -5.0740     0.7220    -2.3030 H     1 <1>   0.0800 
 41 H       -3.4250     4.9020    -0.8720 H     1 <1>   0.0800 
 42 H       -5.3740     3.2250     1.9150 H     1 <1>   0.0800 
 43 H       -4.1860     2.0540     1.4290 H     1 <1>   0.0800 
 44 H       -6.9480     1.8030    -1.1090 H     1 <1>   0.0800 
 45 H       -3.0360     4.1990     2.0530 H     1 <1>   0.0800 
 46 H       -2.0380     5.2450     1.0830 H     1 <1>   0.0800 
 47 H       -2.0740     3.5390     0.7580 H     1 <1>   0.0800 
 48 H       -5.1140     5.5840     1.5410 H     1 <1>   0.0800 
 49 H       -5.4440     6.0540    -0.1090 H     1 <1>   0.0800 
 50 H       -4.0350     6.6710     0.7040 H     1 <1>   0.0800 
 51 H       -7.1340     1.9380     1.1990 H     1 <1>   0.0800 
 52 H       -5.9850     0.6750     1.5020 H     1 <1>   0.0800 
 53 H       -6.4310    -1.0380    -0.2060 H     1 <1>   0.0800 
 54 H       -7.1700    -0.5550    -1.7130 H     1 <1>   0.0800 
 55 H       -7.9860    -0.2400    -0.2040 H     1 <1>   0.0800 
@<TRIPOS>BOND
  1   1   2  1   
  2   1   3  1   
  3   2   4  2   
  4   2   5  1   
  5   3   6  1   
  6   3  27  1   
  7   3  28  1   
  8   4   7  1   
  9   5   8  1   
 10   5   9  1   
 11   6  10  2   
 12   6  11  1   
 13   7  12  2   
 14   7  13  1   
 15   8  13  2   
 16   8  14  1   
 17   9  15  1   
 18   9  29  1   
 19   9  30  1   
 20  11  16  1   
 21  13  31  1   
 22  14  32  1   
 23  14  33  1   
 24  15  17  2   
 25  15  34  1   
 26  16  18  1   
 27  16  19  1   
 28  16  35  1   
 29  17  36  1   
 30  17  37  1   
 31  18  20  1   
 32  18  21  1   
 33  18  38  1   
 34  19  22  1   
 35  19  39  1   
 36  19  40  1   
 37  20  23  1   
 38  20  24  1   
 39  20  41  1   
 40  21  25  1   
 41  21  42  1   
 42  21  43  1   
 43  22  25  1   
 44  22  26  1   
 45  22  44  1   
 46  23  45  1   
 47  23  46  1   
 48  23  47  1   
 49  24  48  1   
 50  24  49  1   
 51  24  50  1   
 52  25  51  1   
 53  25  52  1   
 54  26  53  1   
 55  26  54  1   
 56  26  55  1   
@<TRIPOS>SUBSTRUCTURE
  1 ****   1 GROUP 4 **** **** 0

# MOE 2024.06 (io_trps.svl 2023.06)
