@<TRIPOS>MOLECULE
NONAME
39 41 1 0 0 
SMALL
USER_CHARGES


@<TRIPOS>ATOM
  1 O        0.4840    -0.5560    -1.8680 O.2   1 <1>  -0.5700 
  2 C        0.7900    -1.2080    -0.8870 C.2   1 <1>   0.7150 
  3 N       -0.1900    -1.8290    -0.1690 N.am  1 <1>  -0.7300 
  4 C        2.1680    -1.3330    -0.4730 C.2   1 <1>   0.0550 
  5 C       -1.6310    -1.8020    -0.4520 C.3   1 <1>   0.2200 
  6 O        2.5010    -2.0480     0.6020 O.3   1 <1>  -0.2800 
  7 C        3.3070    -0.8170    -1.0140 C.2   1 <1>  -0.1500 
  8 C       -2.3580    -1.1730     0.7400 C.3   1 <1>  -0.1600 
  9 C       -2.1110    -3.2350    -0.7060 C.3   1 <1>  -0.1600 
 10 C        3.8050    -1.9990     0.7550 C.2   1 <1>  -0.0100 
 11 C        4.3670    -1.2490    -0.2170 C.2   1 <1>  -0.1500 
 12 C       -3.8820    -1.2140     0.5450 C.3   1 <1>  -0.1600 
 13 C       -3.6350    -3.2810    -0.9050 C.3   1 <1>  -0.1600 
 14 C       -4.3780    -2.6470     0.2840 C.3   1 <1>   0.0630 
 15 C       -5.8900    -2.6780     0.0690 C.ar  1 <1>  -0.1440 
 16 C       -6.6970    -3.3890     0.9460 C.ar  1 <1>  -0.1500 
 17 C       -6.4820    -2.0050    -0.9910 C.ar  1 <1>  -0.1500 
 18 C       -8.0690    -3.4280     0.7670 C.ar  1 <1>  -0.1500 
 19 C       -7.8540    -2.0420    -1.1720 C.ar  1 <1>  -0.1500 
 20 C       -8.6500    -2.7540    -0.2920 C.ar  1 <1>  -0.1500 
 21 H        0.1050    -2.3660     0.6470 H     1 <1>   0.3700 
 22 H       -1.8190    -1.2080    -1.3320 H     1 <1>   0.0800 
 23 H        3.3850    -0.1940    -1.8880 H     1 <1>   0.1500 
 24 H       -2.0420    -0.1500     0.8480 H     1 <1>   0.0800 
 25 H       -2.1050    -1.7050     1.6410 H     1 <1>   0.0800 
 26 H       -1.8470    -3.8590     0.1300 H     1 <1>   0.0800 
 27 H       -1.6270    -3.6200    -1.5860 H     1 <1>   0.0800 
 28 H        4.2570    -2.5230     1.5800 H     1 <1>   0.1500 
 29 H        5.4060    -1.0160    -0.3710 H     1 <1>   0.1500 
 30 H       -4.1450    -0.5820    -0.2850 H     1 <1>   0.0800 
 31 H       -4.3700    -0.8230     1.4210 H     1 <1>   0.0800 
 32 H       -3.9540    -4.3030    -1.0200 H     1 <1>   0.0800 
 33 H       -3.8850    -2.7570    -1.8110 H     1 <1>   0.0800 
 34 H       -4.1480    -3.2330     1.1580 H     1 <1>   0.0800 
 35 H       -6.2640    -3.9190     1.7750 H     1 <1>   0.1500 
 36 H       -5.8800    -1.4460    -1.6840 H     1 <1>   0.1500 
 37 H       -8.6850    -3.9830     1.4530 H     1 <1>   0.1500 
 38 H       -8.3010    -1.5160    -1.9970 H     1 <1>   0.1500 
 39 H       -9.7160    -2.7830    -0.4320 H     1 <1>   0.1500 
@<TRIPOS>BOND
  1   1   2  2   
  2   2   3  am  
  3   2   4  1   
  4   3   5  1   
  5   3  21  1   
  6   4   6  1   
  7   4   7  2   
  8   5   8  1   
  9   5   9  1   
 10   5  22  1   
 11   6  10  1   
 12   7  11  1   
 13   7  23  1   
 14   8  12  1   
 15   8  24  1   
 16   8  25  1   
 17   9  13  1   
 18   9  26  1   
 19   9  27  1   
 20  10  11  2   
 21  10  28  1   
 22  11  29  1   
 23  12  14  1   
 24  12  30  1   
 25  12  31  1   
 26  13  14  1   
 27  13  32  1   
 28  13  33  1   
 29  14  15  1   
 30  14  34  1   
 31  15  16  ar  
 32  15  17  ar  
 33  16  18  ar  
 34  16  35  1   
 35  17  19  ar  
 36  17  36  1   
 37  18  20  ar  
 38  18  37  1   
 39  19  20  ar  
 40  19  38  1   
 41  20  39  1   
@<TRIPOS>SUBSTRUCTURE
  1 ****   5 GROUP 4 **** **** 0

# MOE 2024.06 (io_trps.svl 2023.06)
