@<TRIPOS>MOLECULE
NONAME
42 43 1 0 0 
SMALL
USER_CHARGES


@<TRIPOS>ATOM
  1 F       -4.0310    -0.0400     0.9380 F     1 <1>  -0.1900 
  2 C       -5.0200    -0.3380     0.1330 C.ar  1 <1>   0.1900 
  3 C       -5.3040    -1.6620    -0.2270 C.ar  1 <1>   0.0830 
  4 C       -5.7590     0.7280    -0.3450 C.ar  1 <1>  -0.1500 
  5 O       -4.6530    -2.7940     0.1750 O.3   1 <1>  -0.3630 
  6 C       -6.3680    -1.8740    -1.0920 C.ar  1 <1>  -0.1500 
  7 C       -6.8140     0.4860    -1.2080 C.ar  1 <1>  -0.1500 
  8 C       -3.5440    -2.8150     1.0530 C.3   1 <1>   0.1200 
  9 C       -7.1160    -0.8140    -1.5790 C.ar  1 <1>  -0.1500 
 10 C       -2.2650    -2.4620     0.2790 C.3   1 <1>   0.2000 
 11 O       -2.1410    -3.3250    -0.8130 O.3   1 <1>  -0.6800 
 12 C       -1.0010    -2.5720     1.1560 C.3   1 <1>   0.3430 
 13 N        0.2160    -2.7650     0.3000 N.4   1 <1>  -0.9590 
 14 C        1.3550    -3.4760     0.9490 C.3   1 <1>   0.4230 
 15 C        0.6200    -1.4760    -0.3350 C.3   1 <1>   0.3430 
 16 C        2.4590    -3.7250    -0.0890 C.3   1 <1>  -0.1600 
 17 C        0.8960    -4.8140     1.5300 C.3   1 <1>  -0.2400 
 18 C        1.7020    -1.7180    -1.3860 C.3   1 <1>  -0.1600 
 19 C        2.9120    -2.4370    -0.7850 C.3   1 <1>  -0.1600 
 20 H       -5.5160     1.7330    -0.0480 H     1 <1>   0.1500 
 21 H       -6.6160    -2.8800    -1.3840 H     1 <1>   0.1500 
 22 H       -7.4000     1.3060    -1.5900 H     1 <1>   0.1500 
 23 H       -3.4690    -3.8160     1.4410 H     1 <1>   0.0800 
 24 H       -3.7310    -2.1560     1.8810 H     1 <1>   0.0800 
 25 H       -7.9380    -1.0020    -2.2500 H     1 <1>   0.1500 
 26 H       -2.3400    -1.4620    -0.1090 H     1 <1>   0.0800 
 27 H       -3.0210    -3.4060    -1.2490 H     1 <1>   0.4000 
 28 H       -1.1340    -3.4210     1.8020 H     1 <1>   0.0800 
 29 H       -0.8980    -1.6990     1.7780 H     1 <1>   0.0800 
 30 H       -0.1300    -3.3700    -0.4670 H     1 <1>   0.4500 
 31 H        1.7560    -2.8630     1.7410 H     1 <1>   0.0800 
 32 H        0.9970    -0.8020     0.4180 H     1 <1>   0.0800 
 33 H       -0.2320    -1.0150    -0.8080 H     1 <1>   0.0800 
 34 H        2.1090    -4.4270    -0.8260 H     1 <1>   0.0800 
 35 H        3.3090    -4.1710     0.3990 H     1 <1>   0.0800 
 36 H        0.3640    -5.3920     0.7950 H     1 <1>   0.0800 
 37 H        0.2830    -4.6760     2.4000 H     1 <1>   0.0800 
 38 H        1.7530    -5.3840     1.8440 H     1 <1>   0.0800 
 39 H        2.0140    -0.7720    -1.7940 H     1 <1>   0.0800 
 40 H        1.2890    -2.2970    -2.1940 H     1 <1>   0.0800 
 41 H        3.6210    -2.6710    -1.5620 H     1 <1>   0.0800 
 42 H        3.4030    -1.7930    -0.0750 H     1 <1>   0.0800 
@<TRIPOS>BOND
  1   1   2  1   
  2   2   3  ar  
  3   2   4  ar  
  4   3   5  1   
  5   3   6  ar  
  6   4   7  ar  
  7   4  20  1   
  8   5   8  1   
  9   6   9  ar  
 10   6  21  1   
 11   7   9  ar  
 12   7  22  1   
 13   8  10  1   
 14   8  23  1   
 15   8  24  1   
 16   9  25  1   
 17  10  11  1   
 18  10  12  1   
 19  10  26  1   
 20  11  27  1   
 21  12  13  1   
 22  12  28  1   
 23  12  29  1   
 24  13  14  1   
 25  13  15  1   
 26  13  30  1   
 27  14  16  1   
 28  14  17  1   
 29  14  31  1   
 30  15  18  1   
 31  15  32  1   
 32  15  33  1   
 33  16  19  1   
 34  16  34  1   
 35  16  35  1   
 36  17  36  1   
 37  17  37  1   
 38  17  38  1   
 39  18  19  1   
 40  18  39  1   
 41  18  40  1   
 42  19  41  1   
 43  19  42  1   
@<TRIPOS>SUBSTRUCTURE
  1 ****  10 GROUP 4 **** **** 0

# MOE 2024.06 (io_trps.svl 2023.06)
