@<TRIPOS>MOLECULE
NONAME
45 47 1 0 0 
SMALL
USER_CHARGES


@<TRIPOS>ATOM
  1 O       -0.6890    -3.6030     3.7360 O.2   1 <1>  -0.5700 
  2 C       -0.3680    -3.5600     2.5780 C.2   1 <1>   0.5690 
  3 N       -1.0000    -4.3200     1.6450 N.am  1 <1>  -0.5390 
  4 C        0.6870    -2.5840     2.1010 C.3   1 <1>  -0.0990 
  5 C       -0.6720    -4.3450     0.3060 C.2   1 <1>  -0.0290 
  6 C        1.4130    -3.0620     0.8190 C.3   1 <1>   0.1190 
  7 C        0.4560    -3.7570    -0.1630 C.2   1 <1>  -0.1240 
  8 C       -1.6360    -5.0830    -0.6110 C.3   1 <1>  -0.0220 
  9 C        2.6040    -3.9810     1.1110 C.2   1 <1>   0.5690 
 10 C        0.8410    -3.7870    -1.5390 C.2   1 <1>   0.4950 
 11 C       -1.5090    -4.5920    -2.0620 C.3   1 <1>  -0.1600 
 12 O        2.6670    -4.5580     2.1700 O.2   1 <1>  -0.5700 
 13 N        3.5510    -4.1100     0.1310 N.am  1 <1>  -0.5470 
 14 O        1.8470    -3.2680    -1.9620 O.2   1 <1>  -0.5700 
 15 C       -0.0410    -4.5400    -2.5210 C.3   1 <1>  -0.0990 
 16 C        4.7610    -4.8200     0.0830 C.ar  1 <1>   0.1170 
 17 C        5.4500    -5.2370     1.2150 C.ar  1 <1>  -0.1500 
 18 C        5.3050    -5.1040    -1.1620 C.ar  1 <1>  -0.1500 
 19 C        6.6490    -5.9230     1.1120 C.ar  1 <1>   0.0820 
 20 C        6.5000    -5.7900    -1.2850 C.ar  1 <1>   0.0820 
 21 O        7.2450    -6.2850     2.2770 O.3   1 <1>  -0.3630 
 22 C        7.1790    -6.2040    -0.1430 C.ar  1 <1>  -0.1500 
 23 O        6.9410    -6.0170    -2.5490 O.3   1 <1>  -0.3630 
 24 C        8.4410    -7.0310     2.2950 C.3   1 <1>   0.0400 
 25 C        8.1460    -6.7060    -2.7970 C.3   1 <1>   0.0400 
 26 H       -1.7590    -4.8920     2.0220 H     1 <1>   0.3700 
 27 H        1.3930    -2.4050     2.8930 H     1 <1>   0.0800 
 28 H        0.1860    -1.6580     1.8940 H     1 <1>   0.0800 
 29 H        1.8100    -2.1780     0.3540 H     1 <1>   0.0800 
 30 H       -2.6490    -4.9280    -0.2810 H     1 <1>   0.0800 
 31 H       -1.4270    -6.1380    -0.5600 H     1 <1>   0.0800 
 32 H       -1.9260    -3.6010    -2.1280 H     1 <1>   0.0800 
 33 H       -2.0770    -5.2310    -2.7170 H     1 <1>   0.0800 
 34 H        3.2800    -3.6880    -0.7670 H     1 <1>   0.3700 
 35 H        0.3450    -5.5390    -2.6190 H     1 <1>   0.0800 
 36 H        0.0190    -4.0650    -3.4840 H     1 <1>   0.0800 
 37 H        5.0630    -5.0300     2.1950 H     1 <1>   0.1500 
 38 H        4.7950    -4.7920    -2.0540 H     1 <1>   0.1500 
 39 H        8.1040    -6.7330    -0.2300 H     1 <1>   0.1500 
 40 H        8.7050    -7.2130     3.3210 H     1 <1>   0.0800 
 41 H        9.2160    -6.4610     1.8140 H     1 <1>   0.0800 
 42 H        8.2760    -7.9660     1.7890 H     1 <1>   0.0800 
 43 H        8.2840    -6.7640    -3.8620 H     1 <1>   0.0800 
 44 H        8.0730    -7.6970    -2.3840 H     1 <1>   0.0800 
 45 H        8.9590    -6.1590    -2.3520 H     1 <1>   0.0800 
@<TRIPOS>BOND
  1   1   2  2   
  2   2   3  am  
  3   2   4  1   
  4   3   5  1   
  5   3  26  1   
  6   4   6  1   
  7   4  27  1   
  8   4  28  1   
  9   5   7  2   
 10   5   8  1   
 11   6   7  1   
 12   6   9  1   
 13   6  29  1   
 14   7  10  1   
 15   8  11  1   
 16   8  30  1   
 17   8  31  1   
 18   9  12  2   
 19   9  13  am  
 20  10  14  2   
 21  10  15  1   
 22  11  15  1   
 23  11  32  1   
 24  11  33  1   
 25  13  16  1   
 26  13  34  1   
 27  15  35  1   
 28  15  36  1   
 29  16  17  ar  
 30  16  18  ar  
 31  17  19  ar  
 32  17  37  1   
 33  18  20  ar  
 34  18  38  1   
 35  19  21  1   
 36  19  22  ar  
 37  20  22  ar  
 38  20  23  1   
 39  21  24  1   
 40  22  39  1   
 41  23  25  1   
 42  24  40  1   
 43  24  41  1   
 44  24  42  1   
 45  25  43  1   
 46  25  44  1   
 47  25  45  1   
@<TRIPOS>SUBSTRUCTURE
  1 ****  13 GROUP 4 **** **** 0

# MOE 2024.06 (io_trps.svl 2023.06)
