@<TRIPOS>MOLECULE
NONAME
34 35 1 0 0 
SMALL
USER_CHARGES


@<TRIPOS>ATOM
  1 O       -2.8680    -1.4280    -0.5140 O.co2 1 <1>  -0.9000 
  2 C       -3.2920    -0.6160     0.3080 C.2   1 <1>   0.9060 
  3 O       -4.2630    -0.8780     1.0310 O.co2 1 <1>  -0.9000 
  4 C       -2.6340     0.7540     0.4290 C.3   1 <1>  -0.1860 
  5 C       -3.5300     1.8490     1.0800 C.3   1 <1>  -0.0190 
  6 C       -2.0840     1.2440    -0.9240 C.3   1 <1>  -0.0220 
  7 C       -4.7950     2.1970     0.2700 C.2   1 <1>   0.5690 
  8 C       -2.6570     3.0880     1.3880 C.3   1 <1>  -0.0220 
  9 C       -1.5290     2.6560    -0.8140 C.2   1 <1>  -0.2880 
 10 O       -5.0030     3.3300    -0.1000 O.2   1 <1>  -0.5700 
 11 N       -5.6890     1.1930     0.0390 N.am  1 <1>  -0.5470 
 12 C       -1.7660     3.4790     0.2130 C.2   1 <1>  -0.2760 
 13 C       -6.8790     1.1180    -0.6980 C.ar  1 <1>   0.1170 
 14 C       -1.1850     4.8770     0.3100 C.3   1 <1>  -0.1020 
 15 C       -7.6000     2.2180    -1.1700 C.ar  1 <1>   0.1600 
 16 C       -7.3790    -0.1420    -0.9740 C.ar  1 <1>  -0.1500 
 17 N       -8.7340     2.1590    -1.8590 N.ar  1 <1>  -0.6200 
 18 C       -8.5520    -0.2260    -1.6900 C.ar  1 <1>  -0.1500 
 19 C       -9.1800     0.9370    -2.1020 C.ar  1 <1>   0.1600 
 20 H       -1.7930     0.5980     1.0760 H     1 <1>   0.0800 
 21 H       -3.8780     1.4720     2.0250 H     1 <1>   0.0800 
 22 H       -2.8610     1.2210    -1.6690 H     1 <1>   0.0800 
 23 H       -1.3040     0.5740    -1.2440 H     1 <1>   0.0800 
 24 H       -2.0250     2.8720     2.2310 H     1 <1>   0.0800 
 25 H       -3.2910     3.9120     1.6640 H     1 <1>   0.0800 
 26 H       -0.9230     2.9290    -1.6600 H     1 <1>   0.1500 
 27 H       -5.3620     0.2810     0.4170 H     1 <1>   0.3700 
 28 H       -0.5930     4.9710     1.2020 H     1 <1>   0.0800 
 29 H       -1.9790     5.6020     0.3360 H     1 <1>   0.0800 
 30 H       -0.5620     5.0860    -0.5410 H     1 <1>   0.0800 
 31 H       -7.2170     3.2000    -0.9620 H     1 <1>   0.1500 
 32 H       -6.8540    -1.0210    -0.6360 H     1 <1>   0.1500 
 33 H       -8.9750    -1.1850    -1.9280 H     1 <1>   0.1500 
 34 H      -10.0970     0.8590    -2.6610 H     1 <1>   0.1500 
@<TRIPOS>BOND
  1   1   2  ar  
  2   2   3  ar  
  3   2   4  1   
  4   4   5  1   
  5   4   6  1   
  6   4  20  1   
  7   5   7  1   
  8   5   8  1   
  9   5  21  1   
 10   6   9  1   
 11   6  22  1   
 12   6  23  1   
 13   7  10  2   
 14   7  11  am  
 15   8  12  1   
 16   8  24  1   
 17   8  25  1   
 18   9  12  2   
 19   9  26  1   
 20  11  13  1   
 21  11  27  1   
 22  12  14  1   
 23  13  15  ar  
 24  13  16  ar  
 25  14  28  1   
 26  14  29  1   
 27  14  30  1   
 28  15  17  ar  
 29  15  31  1   
 30  16  18  ar  
 31  16  32  1   
 32  17  19  ar  
 33  18  19  ar  
 34  18  33  1   
 35  19  34  1   
@<TRIPOS>SUBSTRUCTURE
  1 ****   7 GROUP 4 **** **** 0

# MOE 2024.06 (io_trps.svl 2023.06)
