@<TRIPOS>MOLECULE
NONAME
42 44 1 0 0 
SMALL
USER_CHARGES


@<TRIPOS>ATOM
  1 N        1.3320     0.9140    -1.3910 N.ar  1 <1>  -0.6200 
  2 C        1.5040     0.9330    -0.0760 C.ar  1 <1>   0.4100 
  3 C        0.2460     1.5300    -1.8330 C.ar  1 <1>   0.1600 
  4 N        2.6310     0.2980     0.3960 N.pl3 1 <1>  -0.8380 
  5 C        0.6270     1.5470     0.8120 C.ar  1 <1>  -0.1500 
  6 C       -0.6830     2.1680    -1.0300 C.ar  1 <1>  -0.1500 
  7 C        3.9050     0.9950     0.0440 C.3   1 <1>   0.2090 
  8 C        2.6570    -1.1710     0.1260 C.3   1 <1>   0.2090 
  9 C       -0.4960     2.1830     0.3380 C.ar  1 <1>  -0.1500 
 10 C        5.1270     0.3040     0.6810 C.3   1 <1>   0.3430 
 11 C        3.8860    -1.8460     0.7670 C.3   1 <1>   0.3430 
 12 N        5.1760    -1.1740     0.3770 N.4   1 <1>  -0.9590 
 13 C        6.3580    -1.8280     0.9990 C.3   1 <1>   0.4860 
 14 C        7.6120    -1.1960     0.4300 C.ar  1 <1>  -0.1430 
 15 C        8.3720    -0.3330     1.2060 C.ar  1 <1>  -0.1500 
 16 C        8.0080    -1.4680    -0.8720 C.ar  1 <1>  -0.1500 
 17 C        9.5060     0.2600     0.6800 C.ar  1 <1>  -0.1500 
 18 C        9.1420    -0.8710    -1.3940 C.ar  1 <1>  -0.1500 
 19 C        9.8960    -0.0050    -0.6210 C.ar  1 <1>  -0.1430 
 20 C       11.1420     0.6470    -1.1960 C.3   1 <1>  -0.0970 
 21 H        0.0860     1.5280    -2.8980 H     1 <1>   0.1500 
 22 H        0.8430     1.5150     1.8630 H     1 <1>   0.1500 
 23 H       -1.5400     2.6460    -1.4680 H     1 <1>   0.1500 
 24 H        3.8540     2.0150     0.3860 H     1 <1>   0.0800 
 25 H        4.0190     1.0170    -1.0270 H     1 <1>   0.0800 
 26 H        2.6630    -1.3430    -0.9370 H     1 <1>   0.0800 
 27 H        1.7590    -1.6160     0.5220 H     1 <1>   0.0800 
 28 H       -1.1950     2.6680     0.9970 H     1 <1>   0.1500 
 29 H        5.0790     0.4530     1.7460 H     1 <1>   0.0800 
 30 H        6.0230     0.7830     0.3200 H     1 <1>   0.0800 
 31 H        3.9070    -2.8820     0.4730 H     1 <1>   0.0800 
 32 H        3.7670    -1.8060     1.8370 H     1 <1>   0.0800 
 33 H        5.2890    -1.2540    -0.6410 H     1 <1>   0.4500 
 34 H        6.3610    -2.8830     0.7780 H     1 <1>   0.0800 
 35 H        6.3360    -1.7020     2.0690 H     1 <1>   0.0800 
 36 H        8.0990    -0.1120     2.2230 H     1 <1>   0.1500 
 37 H        7.4500    -2.1440    -1.4960 H     1 <1>   0.1500 
 38 H       10.0910     0.9300     1.2890 H     1 <1>   0.1500 
 39 H        9.4420    -1.0860    -2.4060 H     1 <1>   0.1500 
 40 H       10.8840     1.5790    -1.6650 H     1 <1>   0.0800 
 41 H       11.6010     0.0060    -1.9270 H     1 <1>   0.0800 
 42 H       11.8610     0.8380    -0.4190 H     1 <1>   0.0800 
@<TRIPOS>BOND
  1   1   2  ar  
  2   1   3  ar  
  3   2   4  1   
  4   2   5  ar  
  5   3   6  ar  
  6   3  21  1   
  7   4   7  1   
  8   4   8  1   
  9   5   9  ar  
 10   5  22  1   
 11   6   9  ar  
 12   6  23  1   
 13   7  10  1   
 14   7  24  1   
 15   7  25  1   
 16   8  11  1   
 17   8  26  1   
 18   8  27  1   
 19   9  28  1   
 20  10  12  1   
 21  10  29  1   
 22  10  30  1   
 23  11  12  1   
 24  11  31  1   
 25  11  32  1   
 26  12  13  1   
 27  12  33  1   
 28  13  14  1   
 29  13  34  1   
 30  13  35  1   
 31  14  15  ar  
 32  14  16  ar  
 33  15  17  ar  
 34  15  36  1   
 35  16  18  ar  
 36  16  37  1   
 37  17  19  ar  
 38  17  38  1   
 39  18  19  ar  
 40  18  39  1   
 41  19  20  1   
 42  20  40  1   
 43  20  41  1   
 44  20  42  1   
@<TRIPOS>SUBSTRUCTURE
  1 ****  10 GROUP 4 **** **** 0

# MOE 2024.06 (io_trps.svl 2023.06)
