@<TRIPOS>MOLECULE
NONAME
54 57 1 0 0 
SMALL
USER_CHARGES


@<TRIPOS>ATOM
  1 S        0.0060     0.4650     1.3330 S.3   1 <1>  -0.3320 
  2 C        1.0490     1.8870     1.0270 C.ar  1 <1>   0.7220 
  3 C       -1.7300     1.1010     1.3750 C.3   1 <1>   0.0700 
  4 N        0.4470     3.0720     0.9670 N.ar  1 <1>  -0.3100 
  5 N        2.3200     1.6250     0.8960 N.ar  1 <1>  -0.6200 
  6 C       -2.2330     1.2400    -0.0650 C.3   1 <1>  -0.1600 
  7 N        1.1700     4.1320     0.7440 N.ar  1 <1>  -0.3100 
  8 C        3.0500     2.7000     0.6640 C.ar  1 <1>   0.3930 
  9 C       -3.6780     1.7520    -0.0980 C.3   1 <1>  -0.1600 
 10 C        2.4950     4.0000     0.5830 C.ar  1 <1>   0.3100 
 11 O        4.3460     2.3690     0.5350 O.3   1 <1>  -0.3620 
 12 C       -4.1790     1.8890    -1.5390 C.3   1 <1>  -0.2400 
 13 C        3.2060     5.2520     0.3300 C.ar  1 <1>   0.0000 
 14 C        5.3750     3.2980     0.4870 C.3   1 <1>   0.7130 
 15 C        4.4360     5.3050    -0.3450 C.ar  1 <1>   0.1000 
 16 C        2.6610     6.4810     0.7260 C.ar  1 <1>  -0.1500 
 17 N        5.1070     4.1490    -0.6590 N.pl3 1 <1>  -0.8690 
 18 C        6.7130     2.5980     0.2930 C.ar  1 <1>  -0.1440 
 19 C        5.0280     6.5200    -0.6650 C.ar  1 <1>  -0.1500 
 20 C        3.2640     7.6880     0.4290 C.ar  1 <1>  -0.1500 
 21 C        6.8950     1.6920    -0.7440 C.ar  1 <1>  -0.1500 
 22 C        7.7750     2.8690     1.1470 C.ar  1 <1>  -0.1500 
 23 C        4.4500     7.7110    -0.2810 C.ar  1 <1>  -0.1500 
 24 C        8.1130     1.0610    -0.9300 C.ar  1 <1>   0.0820 
 25 C        9.0010     2.2500     0.9660 C.ar  1 <1>  -0.1500 
 26 O        8.2230     0.1970    -1.9700 O.3   1 <1>  -0.3620 
 27 C        9.1780     1.3500    -0.0720 C.ar  1 <1>   0.0820 
 28 C        8.4020    -1.1710    -1.6740 C.3   1 <1>   0.1200 
 29 O       10.3910     0.7820    -0.2350 O.3   1 <1>  -0.5330 
 30 C        7.0460    -1.7930    -1.3380 C.3   1 <1>  -0.2400 
 31 H       -1.7330     2.0400     1.9000 H     1 <1>   0.0800 
 32 H       -2.3120     0.3800     1.9200 H     1 <1>   0.0800 
 33 H       -2.1780     0.2810    -0.5510 H     1 <1>   0.0800 
 34 H       -1.6000     1.9260    -0.6010 H     1 <1>   0.0800 
 35 H       -3.7320     2.7120     0.3870 H     1 <1>   0.0800 
 36 H       -4.3170     1.0690     0.4350 H     1 <1>   0.0800 
 37 H       -3.5650     2.5840    -2.0850 H     1 <1>   0.0800 
 38 H       -5.1920     2.2510    -1.5440 H     1 <1>   0.0800 
 39 H       -4.1530     0.9370    -2.0390 H     1 <1>   0.0800 
 40 H        5.3650     3.8610     1.4060 H     1 <1>   0.0800 
 41 H        1.7330     6.5080     1.2720 H     1 <1>   0.1500 
 42 H        5.9690     4.2500    -1.2020 H     1 <1>   0.4000 
 43 H        5.9540     6.5330    -1.2110 H     1 <1>   0.1500 
 44 H        2.8090     8.6120     0.7430 H     1 <1>   0.1500 
 45 H        6.0860     1.4660    -1.4180 H     1 <1>   0.1500 
 46 H        7.6570     3.5670     1.9590 H     1 <1>   0.1500 
 47 H        4.9150     8.6500    -0.5270 H     1 <1>   0.1500 
 48 H        9.8120     2.4740     1.6340 H     1 <1>   0.1500 
 49 H        9.0920    -1.2760    -0.8570 H     1 <1>   0.0800 
 50 H        8.8210    -1.6350    -2.5490 H     1 <1>   0.0800 
 51 H       11.0570     1.1180     0.3880 H     1 <1>   0.4500 
 52 H        6.6390    -1.3440    -0.4500 H     1 <1>   0.0800 
 53 H        7.1650    -2.8460    -1.1630 H     1 <1>   0.0800 
 54 H        6.3630    -1.6550    -2.1570 H     1 <1>   0.0800 
@<TRIPOS>BOND
  1   1   2  1   
  2   1   3  1   
  3   2   4  ar  
  4   2   5  ar  
  5   3   6  1   
  6   3  31  1   
  7   3  32  1   
  8   4   7  ar  
  9   5   8  ar  
 10   6   9  1   
 11   6  33  1   
 12   6  34  1   
 13   7  10  ar  
 14   8  10  ar  
 15   8  11  1   
 16   9  12  1   
 17   9  35  1   
 18   9  36  1   
 19  10  13  1   
 20  11  14  1   
 21  12  37  1   
 22  12  38  1   
 23  12  39  1   
 24  13  15  ar  
 25  13  16  ar  
 26  14  17  1   
 27  14  18  1   
 28  14  40  1   
 29  15  17  1   
 30  15  19  ar  
 31  16  20  ar  
 32  16  41  1   
 33  17  42  1   
 34  18  21  ar  
 35  18  22  ar  
 36  19  23  ar  
 37  19  43  1   
 38  20  23  ar  
 39  20  44  1   
 40  21  24  ar  
 41  21  45  1   
 42  22  25  ar  
 43  22  46  1   
 44  23  47  1   
 45  24  26  1   
 46  24  27  ar  
 47  25  27  ar  
 48  25  48  1   
 49  26  28  1   
 50  27  29  1   
 51  28  30  1   
 52  28  49  1   
 53  28  50  1   
 54  29  51  1   
 55  30  52  1   
 56  30  53  1   
 57  30  54  1   
@<TRIPOS>SUBSTRUCTURE
  1 ****  11 GROUP 4 **** **** 0

# MOE 2024.06 (io_trps.svl 2023.06)
