@<TRIPOS>MOLECULE
NONAME
30 31 1 0 0 
SMALL
USER_CHARGES


@<TRIPOS>ATOM
  1 O       -1.0530     0.2200     0.0400 O.2   1 <1>  -0.5700 
  2 C       -2.0150     0.9610     0.0830 C.2   1 <1>   0.7800 
  3 O       -3.2830     0.4940     0.0540 O.3   1 <1>  -0.0870 
  4 N       -1.8200     2.3060     0.1830 N.am  1 <1>  -0.5470 
  5 N       -3.5990    -0.7980    -0.0490 N.2   1 <1>  -0.5130 
  6 C       -2.7400     3.3600     0.2100 C.ar  1 <1>   0.1170 
  7 C       -4.8170    -1.1130     0.0060 C.2   1 <1>   0.3280 
  8 C       -3.8770     3.3680    -0.5930 C.ar  1 <1>  -0.1500 
  9 C       -2.5100     4.4430     1.0490 C.ar  1 <1>  -0.1500 
 10 C       -5.9970    -0.1740     0.1790 C.3   1 <1>  -0.0990 
 11 C       -5.3300    -2.5310    -0.1020 C.3   1 <1>  -0.0990 
 12 C       -4.7670     4.4260    -0.5460 C.ar  1 <1>  -0.1500 
 13 C       -3.3970     5.5030     1.0970 C.ar  1 <1>  -0.1500 
 14 C       -7.2100    -1.0840     0.3960 C.3   1 <1>  -0.1600 
 15 C       -6.8430    -2.3990    -0.2920 C.3   1 <1>  -0.1600 
 16 C       -4.5290     5.4950     0.3000 C.ar  1 <1>  -0.1500 
 17 H       -0.8390     2.5370     0.3170 H     1 <1>   0.3700 
 18 H       -4.0670     2.5500    -1.2630 H     1 <1>   0.1500 
 19 H       -1.6350     4.4550     1.6730 H     1 <1>   0.1500 
 20 H       -5.8490     0.4930     1.0090 H     1 <1>   0.0800 
 21 H       -6.1180     0.3980    -0.7240 H     1 <1>   0.0800 
 22 H       -4.8650    -3.0510    -0.9200 H     1 <1>   0.0800 
 23 H       -5.1130    -3.0440     0.8180 H     1 <1>   0.0800 
 24 H       -5.6440     4.4200    -1.1700 H     1 <1>   0.1500 
 25 H       -3.2100     6.3350     1.7540 H     1 <1>   0.1500 
 26 H       -7.3370    -1.2590     1.4510 H     1 <1>   0.0800 
 27 H       -8.1140    -0.6560    -0.0010 H     1 <1>   0.0800 
 28 H       -7.0630    -2.3240    -1.3440 H     1 <1>   0.0800 
 29 H       -7.3780    -3.2370     0.1210 H     1 <1>   0.0800 
 30 H       -5.2210     6.3190     0.3360 H     1 <1>   0.1500 
@<TRIPOS>BOND
  1   1   2  2   
  2   2   3  1   
  3   2   4  am  
  4   3   5  1   
  5   4   6  1   
  6   4  17  1   
  7   5   7  2   
  8   6   8  ar  
  9   6   9  ar  
 10   7  10  1   
 11   7  11  1   
 12   8  12  ar  
 13   8  18  1   
 14   9  13  ar  
 15   9  19  1   
 16  10  14  1   
 17  10  20  1   
 18  10  21  1   
 19  11  15  1   
 20  11  22  1   
 21  11  23  1   
 22  12  16  ar  
 23  12  24  1   
 24  13  16  ar  
 25  13  25  1   
 26  14  15  1   
 27  14  26  1   
 28  14  27  1   
 29  15  28  1   
 30  15  29  1   
 31  16  30  1   
@<TRIPOS>SUBSTRUCTURE
  1 ****   3 GROUP 4 **** **** 0

# MOE 2024.06 (io_trps.svl 2023.06)
