@<TRIPOS>MOLECULE
NONAME
41 42 1 0 0 
SMALL
USER_CHARGES


@<TRIPOS>ATOM
  1 S       -0.5230    -0.1710     0.2640 S.3   1 <1>  -0.2860 
  2 C        1.2530    -0.4310     0.3120 C.2   1 <1>   0.2420 
  3 C       -1.1390    -1.3320     1.5820 C.3   1 <1>   0.1310 
  4 N        1.8300    -1.2770     1.0870 N.2   1 <1>  -0.3380 
  5 N        2.0970     0.2440    -0.4660 N.pl3 1 <1>   0.0480 
  6 C       -2.6580    -1.3410     1.6590 C.2   1 <1>   0.5690 
  7 N        3.1360    -1.1750     0.8240 N.2   1 <1>  -0.3380 
  8 C        3.2770    -0.2750    -0.0920 C.2   1 <1>   0.0060 
  9 C        1.7790     1.2840    -1.4650 C.3   1 <1>   0.0160 
 10 O       -3.1800    -1.7230     2.6780 O.2   1 <1>  -0.5700 
 11 N       -3.3880    -0.9360     0.5860 N.am  1 <1>  -0.7300 
 12 C        4.6180     0.1370    -0.6680 C.3   1 <1>  -0.0600 
 13 C       -4.8560    -0.8830     0.5100 C.3   1 <1>   0.2200 
 14 C       -5.2960    -1.8360    -0.6070 C.3   1 <1>  -0.1600 
 15 C       -5.2640     0.5830     0.3090 C.3   1 <1>  -0.1600 
 16 C       -6.8060    -1.8480    -0.8970 C.3   1 <1>  -0.1600 
 17 C       -6.7670     0.8090     0.5360 C.3   1 <1>  -0.1600 
 18 C       -7.2740    -0.5790    -1.6230 C.3   1 <1>  -0.1600 
 19 C       -7.6500     0.5920    -0.7020 C.3   1 <1>  -0.1600 
 20 H       -0.7180    -1.0050     2.5150 H     1 <1>   0.0800 
 21 H       -0.7720    -2.3130     1.3420 H     1 <1>   0.0800 
 22 H        1.1670     0.8560    -2.2380 H     1 <1>   0.0800 
 23 H        2.6830     1.6710    -1.8970 H     1 <1>   0.0800 
 24 H        1.2430     2.0820    -0.9850 H     1 <1>   0.0800 
 25 H       -2.8940    -0.5820    -0.2350 H     1 <1>   0.3700 
 26 H        4.7960     1.1800    -0.4830 H     1 <1>   0.0800 
 27 H        4.6400    -0.0500    -1.7260 H     1 <1>   0.0800 
 28 H        5.4030    -0.4330    -0.2030 H     1 <1>   0.0800 
 29 H       -5.2660    -1.2320     1.4450 H     1 <1>   0.0800 
 30 H       -5.0080    -2.8310    -0.3130 H     1 <1>   0.0800 
 31 H       -4.7670    -1.5990    -1.5120 H     1 <1>   0.0800 
 32 H       -4.9730     0.9330    -0.6650 H     1 <1>   0.0800 
 33 H       -4.7390     1.1690     1.0440 H     1 <1>   0.0800 
 34 H       -7.3690    -2.0020     0.0080 H     1 <1>   0.0800 
 35 H       -7.0050    -2.6880    -1.5400 H     1 <1>   0.0800 
 36 H       -6.9160     1.8220     0.8710 H     1 <1>   0.0800 
 37 H       -7.1070     0.1700     1.3340 H     1 <1>   0.0800 
 38 H       -8.1420    -0.8220    -2.2120 H     1 <1>   0.0800 
 39 H       -6.5140    -0.2610    -2.3150 H     1 <1>   0.0800 
 40 H       -7.6410     1.4920    -1.2940 H     1 <1>   0.0800 
 41 H       -8.6620     0.4530    -0.3640 H     1 <1>   0.0800 
@<TRIPOS>BOND
  1   1   2  1   
  2   1   3  1   
  3   2   4  2   
  4   2   5  1   
  5   3   6  1   
  6   3  20  1   
  7   3  21  1   
  8   4   7  1   
  9   5   8  1   
 10   5   9  1   
 11   6  10  2   
 12   6  11  am  
 13   7   8  2   
 14   8  12  1   
 15   9  22  1   
 16   9  23  1   
 17   9  24  1   
 18  11  13  1   
 19  11  25  1   
 20  12  26  1   
 21  12  27  1   
 22  12  28  1   
 23  13  14  1   
 24  13  15  1   
 25  13  29  1   
 26  14  16  1   
 27  14  30  1   
 28  14  31  1   
 29  15  17  1   
 30  15  32  1   
 31  15  33  1   
 32  16  18  1   
 33  16  34  1   
 34  16  35  1   
 35  17  19  1   
 36  17  36  1   
 37  17  37  1   
 38  18  19  1   
 39  18  38  1   
 40  18  39  1   
 41  19  40  1   
 42  19  41  1   
@<TRIPOS>SUBSTRUCTURE
  1 ****   1 GROUP 4 **** **** 0

# MOE 2024.06 (io_trps.svl 2023.06)
