@<TRIPOS>MOLECULE
NONAME
51 53 1 0 0 
SMALL
USER_CHARGES


@<TRIPOS>ATOM
  1 O        1.0880     0.4480    -0.5250 O.2   1 <1>  -0.5700 
  2 C        1.3190     1.6410    -0.5610 C.2   1 <1>   0.6900 
  3 N        2.4810     2.0840    -1.1360 N.am  1 <1>  -0.6600 
  4 N        0.4700     2.5650    -0.0280 N.am  1 <1>  -0.5470 
  5 C        3.1600     1.2500    -2.1480 C.3   1 <1>   0.1400 
  6 C        3.3770     3.0090    -0.4150 C.3   1 <1>   0.1400 
  7 C       -0.6680     2.4380     0.7800 C.ar  1 <1>   0.1170 
  8 C        4.2080     0.3870    -1.4400 C.3   1 <1>  -0.1600 
  9 C        4.3950     2.1590     0.3460 C.3   1 <1>  -0.1600 
 10 C       -0.9630     1.2870     1.5070 C.ar  1 <1>  -0.1500 
 11 C       -1.5360     3.5200     0.8800 C.ar  1 <1>  -0.1500 
 12 C        5.2030     1.2140    -0.5840 C.3   1 <1>   0.5640 
 13 C       -2.0910     1.2210     2.3050 C.ar  1 <1>  -0.1500 
 14 C       -2.6650     3.4580     1.6770 C.ar  1 <1>  -0.1500 
 15 N        5.9620     0.2330     0.3040 N.4   1 <1>  -0.9590 
 16 C        6.1750     2.0660    -1.4840 C.2   1 <1>   0.5690 
 17 C       -2.9440     2.3060     2.3920 C.ar  1 <1>  -0.1500 
 18 C        6.8900     0.9230     1.2650 C.3   1 <1>   0.3430 
 19 C        6.7280    -0.7940    -0.4730 C.3   1 <1>   0.3430 
 20 O        6.8450     2.9210    -0.9590 O.2   1 <1>  -0.5700 
 21 N        6.3470     1.8640    -2.8140 N.am  1 <1>  -0.8000 
 22 C        7.4730    -0.0870     2.2550 C.3   1 <1>  -0.1600 
 23 C        7.3040    -1.8500     0.4720 C.3   1 <1>  -0.1600 
 24 C        8.2090    -1.2220     1.5370 C.3   1 <1>  -0.1600 
 25 H        0.6460     3.5010    -0.3790 H     1 <1>   0.3700 
 26 H        3.6060     1.8890    -2.8920 H     1 <1>   0.0800 
 27 H        2.4380     0.6200    -2.6440 H     1 <1>   0.0800 
 28 H        2.8190     3.6140     0.2800 H     1 <1>   0.0800 
 29 H        3.8650     3.6680    -1.1150 H     1 <1>   0.0800 
 30 H        4.7170    -0.1860    -2.1910 H     1 <1>   0.0800 
 31 H        3.6770    -0.3050    -0.8090 H     1 <1>   0.0800 
 32 H        3.8600     1.5850     1.0820 H     1 <1>   0.0800 
 33 H        5.0450     2.8410     0.8620 H     1 <1>   0.0800 
 34 H       -0.3130     0.4340     1.4550 H     1 <1>   0.1500 
 35 H       -1.3320     4.4190     0.3280 H     1 <1>   0.1500 
 36 H       -2.3040     0.3220     2.8570 H     1 <1>   0.1500 
 37 H       -3.3280     4.3030     1.7430 H     1 <1>   0.1500 
 38 H        5.2590    -0.2610     0.8650 H     1 <1>   0.4500 
 39 H       -3.8220     2.2540     3.0130 H     1 <1>   0.1500 
 40 H        6.3680     1.6830     1.8220 H     1 <1>   0.0800 
 41 H        7.6920     1.4000     0.7230 H     1 <1>   0.0800 
 42 H        7.5320    -0.3190    -1.0130 H     1 <1>   0.0800 
 43 H        6.0870    -1.2890    -1.1820 H     1 <1>   0.0800 
 44 H        7.0050     2.4710    -3.3160 H     1 <1>   0.3700 
 45 H        5.8380     1.2070    -3.4080 H     1 <1>   0.3700 
 46 H        6.6820    -0.4870     2.8660 H     1 <1>   0.0800 
 47 H        8.1590     0.4220     2.9100 H     1 <1>   0.0800 
 48 H        7.8740    -2.5610    -0.1010 H     1 <1>   0.0800 
 49 H        6.5000    -2.3890     0.9430 H     1 <1>   0.0800 
 50 H        8.5150    -1.9710     2.2500 H     1 <1>   0.0800 
 51 H        9.0990    -0.8330     1.0700 H     1 <1>   0.0800 
@<TRIPOS>BOND
  1   1   2  2   
  2   2   3  am  
  3   2   4  am  
  4   3   5  1   
  5   3   6  1   
  6   4   7  1   
  7   4  25  1   
  8   5   8  1   
  9   5  26  1   
 10   5  27  1   
 11   6   9  1   
 12   6  28  1   
 13   6  29  1   
 14   7  10  ar  
 15   7  11  ar  
 16   8  12  1   
 17   8  30  1   
 18   8  31  1   
 19   9  12  1   
 20   9  32  1   
 21   9  33  1   
 22  10  13  ar  
 23  10  34  1   
 24  11  14  ar  
 25  11  35  1   
 26  12  15  1   
 27  12  16  1   
 28  13  17  ar  
 29  13  36  1   
 30  14  17  ar  
 31  14  37  1   
 32  15  18  1   
 33  15  19  1   
 34  15  38  1   
 35  16  20  2   
 36  16  21  am  
 37  17  39  1   
 38  18  22  1   
 39  18  40  1   
 40  18  41  1   
 41  19  23  1   
 42  19  42  1   
 43  19  43  1   
 44  21  44  1   
 45  21  45  1   
 46  22  24  1   
 47  22  46  1   
 48  22  47  1   
 49  23  24  1   
 50  23  48  1   
 51  23  49  1   
 52  24  50  1   
 53  24  51  1   
@<TRIPOS>SUBSTRUCTURE
  1 ****   9 GROUP 4 **** **** 0

# MOE 2024.06 (io_trps.svl 2023.06)
