@<TRIPOS>MOLECULE
NONAME
42 42 1 0 0 
SMALL
USER_CHARGES


@<TRIPOS>ATOM
  1 O       -1.2220     1.0080     0.0830 O.3   1 <1>  -0.5600 
  2 C       -0.6630    -0.2680     0.0960 C.3   1 <1>   0.1200 
  3 C       -2.5560     1.0390     0.4990 C.3   1 <1>   0.1200 
  4 C        0.7760    -0.1560    -0.4140 C.3   1 <1>   0.2000 
  5 C       -3.0630     2.4760     0.4290 C.3   1 <1>   0.1200 
  6 O        1.4590    -1.3550    -0.1770 O.3   1 <1>  -0.6800 
  7 C        1.5170     0.9990     0.2940 C.3   1 <1>   0.3430 
  8 O       -4.3800     2.4870     0.8770 O.3   1 <1>  -0.5600 
  9 N        2.9990     0.8030     0.2380 N.4   1 <1>  -0.9590 
 10 C       -4.9730     3.7410     0.8570 C.3   1 <1>   0.1200 
 11 C        3.6940     1.4580     1.3790 C.3   1 <1>   0.3430 
 12 C        3.5700     1.1820    -1.0840 C.3   1 <1>   0.3430 
 13 C       -6.3980     3.5830     1.3690 C.3   1 <1>  -0.2400 
 14 C        5.1750     1.0750     1.3670 C.3   1 <1>  -0.1600 
 15 C        5.0490     0.7940    -1.1340 C.3   1 <1>  -0.1600 
 16 C        5.8400     1.4110     0.0260 C.3   1 <1>  -0.1600 
 17 H       -1.2460    -0.9080    -0.5450 H     1 <1>   0.0800 
 18 H       -0.6810    -0.6340     1.1090 H     1 <1>   0.0800 
 19 H       -2.6150     0.6790     1.5120 H     1 <1>   0.0800 
 20 H       -3.1410     0.4140    -0.1550 H     1 <1>   0.0800 
 21 H        0.7650     0.0130    -1.4770 H     1 <1>   0.0800 
 22 H       -3.0420     2.8310    -0.5870 H     1 <1>   0.0800 
 23 H       -2.4780     3.1120     1.0690 H     1 <1>   0.0800 
 24 H        1.0010    -2.1100    -0.6050 H     1 <1>   0.4000 
 25 H        1.1960     1.0090     1.3220 H     1 <1>   0.0800 
 26 H        1.2310     1.9420    -0.1420 H     1 <1>   0.0800 
 27 H        3.1080    -0.2240     0.3310 H     1 <1>   0.4500 
 28 H       -4.9720     4.1120    -0.1550 H     1 <1>   0.0800 
 29 H       -4.4120     4.4040     1.4950 H     1 <1>   0.0800 
 30 H        3.2500     1.1450     2.3110 H     1 <1>   0.0800 
 31 H        3.5980     2.5280     1.2970 H     1 <1>   0.0800 
 32 H        3.4720     2.2450    -1.2320 H     1 <1>   0.0800 
 33 H        3.0400     0.6760    -1.8750 H     1 <1>   0.0800 
 34 H       -6.9460     2.9100     0.7330 H     1 <1>   0.0800 
 35 H       -6.8940     4.5360     1.3690 H     1 <1>   0.0800 
 36 H       -6.3890     3.1990     2.3730 H     1 <1>   0.0800 
 37 H        5.2700     0.0220     1.5690 H     1 <1>   0.0800 
 38 H        5.6800     1.6010     2.1580 H     1 <1>   0.0800 
 39 H        5.4680     1.1250    -2.0690 H     1 <1>   0.0800 
 40 H        5.1350    -0.2790    -1.1070 H     1 <1>   0.0800 
 41 H        6.8520     1.0410     0.0170 H     1 <1>   0.0800 
 42 H        5.8820     2.4810    -0.0960 H     1 <1>   0.0800 
@<TRIPOS>BOND
  1   1   2  1   
  2   1   3  1   
  3   2   4  1   
  4   2  17  1   
  5   2  18  1   
  6   3   5  1   
  7   3  19  1   
  8   3  20  1   
  9   4   6  1   
 10   4   7  1   
 11   4  21  1   
 12   5   8  1   
 13   5  22  1   
 14   5  23  1   
 15   6  24  1   
 16   7   9  1   
 17   7  25  1   
 18   7  26  1   
 19   8  10  1   
 20   9  11  1   
 21   9  12  1   
 22   9  27  1   
 23  10  13  1   
 24  10  28  1   
 25  10  29  1   
 26  11  14  1   
 27  11  30  1   
 28  11  31  1   
 29  12  15  1   
 30  12  32  1   
 31  12  33  1   
 32  13  34  1   
 33  13  35  1   
 34  13  36  1   
 35  14  16  1   
 36  14  37  1   
 37  14  38  1   
 38  15  16  1   
 39  15  39  1   
 40  15  40  1   
 41  16  41  1   
 42  16  42  1   
@<TRIPOS>SUBSTRUCTURE
  1 ****   7 GROUP 4 **** **** 0

# MOE 2024.06 (io_trps.svl 2023.06)
