@<TRIPOS>MOLECULE
NONAME
33 33 1 0 0 
SMALL
USER_CHARGES


@<TRIPOS>ATOM
  1 O       -0.1250    -0.3910     0.8030 O.2   1 <1>  -0.5700 
  2 C       -0.2660    -1.4850     0.2910 C.2   1 <1>   0.5440 
  3 N        0.8200    -2.0830    -0.2870 N.am  1 <1>  -0.7300 
  4 C       -1.5650    -2.1330     0.2730 C.ar  1 <1>   0.0860 
  5 C        2.1910    -1.5310    -0.3060 C.3   1 <1>   0.1400 
  6 C       -2.7420    -1.3810     0.3120 C.ar  1 <1>  -0.1500 
  7 C       -1.7000    -3.5230     0.2180 C.ar  1 <1>  -0.1500 
  8 C        3.1840    -2.6570    -0.0160 C.3   1 <1>  -0.1600 
  9 C       -3.9900    -1.9760     0.2830 C.ar  1 <1>  -0.1500 
 10 C       -2.9440    -4.1250     0.1880 C.ar  1 <1>  -0.1500 
 11 C        4.6280    -2.1410    -0.0240 C.3   1 <1>  -0.2400 
 12 C       -4.0990    -3.3620     0.2170 C.ar  1 <1>   0.0830 
 13 O       -5.2740    -4.0280     0.1820 O.3   1 <1>  -0.3630 
 14 C       -6.5090    -3.3530     0.2080 C.3   1 <1>   0.2580 
 15 C       -7.6140    -4.3900     0.1550 C.2   1 <1>  -0.2880 
 16 C       -8.5800    -4.4500    -0.7670 C.2   1 <1>  -0.3000 
 17 H        0.6820    -2.9300    -0.8360 H     1 <1>   0.3700 
 18 H        2.2870    -0.7570     0.4380 H     1 <1>   0.0800 
 19 H        2.3860    -1.1000    -1.2730 H     1 <1>   0.0800 
 20 H       -2.6650    -0.3080     0.3650 H     1 <1>   0.1500 
 21 H       -0.8220    -4.1430     0.2090 H     1 <1>   0.1500 
 22 H        3.0830    -3.4280    -0.7600 H     1 <1>   0.0800 
 23 H        2.9680    -3.0770     0.9510 H     1 <1>   0.0800 
 24 H       -4.8590    -1.3460     0.3130 H     1 <1>   0.1500 
 25 H       -3.0320    -5.1970     0.1440 H     1 <1>   0.1500 
 26 H        4.8750    -1.7260    -0.9860 H     1 <1>   0.0800 
 27 H        5.3080    -2.9470     0.1860 H     1 <1>   0.0800 
 28 H        4.7580    -1.3800     0.7260 H     1 <1>   0.0800 
 29 H       -6.5590    -2.6960    -0.6430 H     1 <1>   0.0800 
 30 H       -6.5680    -2.7860     1.1210 H     1 <1>   0.0800 
 31 H       -7.5360    -5.1000     0.9610 H     1 <1>   0.1500 
 32 H       -9.3490    -5.2030    -0.7790 H     1 <1>   0.1500 
 33 H       -8.6840    -3.7610    -1.5870 H     1 <1>   0.1500 
@<TRIPOS>BOND
  1   1   2  2   
  2   2   3  am  
  3   2   4  1   
  4   3   5  1   
  5   3  17  1   
  6   4   6  ar  
  7   4   7  ar  
  8   5   8  1   
  9   5  18  1   
 10   5  19  1   
 11   6   9  ar  
 12   6  20  1   
 13   7  10  ar  
 14   7  21  1   
 15   8  11  1   
 16   8  22  1   
 17   8  23  1   
 18   9  12  ar  
 19   9  24  1   
 20  10  12  ar  
 21  10  25  1   
 22  11  26  1   
 23  11  27  1   
 24  11  28  1   
 25  12  13  1   
 26  13  14  1   
 27  14  15  1   
 28  14  29  1   
 29  14  30  1   
 30  15  16  2   
 31  15  31  1   
 32  16  32  1   
 33  16  33  1   
@<TRIPOS>SUBSTRUCTURE
  1 ****   4 GROUP 4 **** **** 0

# MOE 2024.06 (io_trps.svl 2023.06)
