@<TRIPOS>MOLECULE
NONAME
36 37 1 0 0 
SMALL
USER_CHARGES


@<TRIPOS>ATOM
  1 S       -0.0570    -0.1490    -0.1850 S.o2  1 <1>   1.4240 
  2 O        0.1040     0.9660     0.7320 O.2   1 <1>  -0.6500 
  3 O       -0.2190     0.1880    -1.5880 O.2   1 <1>  -0.6500 
  4 N       -1.4960    -0.9430     0.2750 N.am  1 <1>  -0.8490 
  5 N        1.3290    -1.2980     0.0270 N.pl3 1 <1>   0.5840 
  6 C       -1.8990    -1.9590    -0.7070 C.3   1 <1>   0.1960 
  7 C       -2.5830     0.0140     0.5070 C.3   1 <1>   0.1960 
  8 N        1.2290    -2.6680     0.1360 N.2   1 <1>  -0.7070 
  9 C        2.6580    -0.9590     0.0320 C.2   1 <1>  -0.3320 
 10 C       -3.0990    -2.7540    -0.1840 C.3   1 <1>  -0.1600 
 11 C       -3.8180    -0.7040     1.0610 C.3   1 <1>  -0.1600 
 12 C        2.4380    -3.1120     0.2170 C.2   1 <1>   0.1080 
 13 C        3.3810    -2.0940     0.1580 C.2   1 <1>  -0.1810 
 14 C        3.1450     0.4810    -0.0930 C.3   1 <1>  -0.0600 
 15 C       -4.2810    -1.8320     0.1320 C.3   1 <1>  -0.1600 
 16 C        2.7460    -4.5860     0.3580 C.3   1 <1>  -0.0590 
 17 C        4.8860    -2.2890     0.2250 C.3   1 <1>  -0.0590 
 18 H       -1.0880    -2.6420    -0.8900 H     1 <1>   0.0800 
 19 H       -2.1550    -1.4870    -1.6420 H     1 <1>   0.0800 
 20 H       -2.8270     0.5200    -0.4130 H     1 <1>   0.0800 
 21 H       -2.2720     0.7550     1.2250 H     1 <1>   0.0800 
 22 H       -2.7990    -3.2850     0.7030 H     1 <1>   0.0800 
 23 H       -3.3920    -3.4820    -0.9200 H     1 <1>   0.0800 
 24 H       -4.6140     0.0060     1.1940 H     1 <1>   0.0800 
 25 H       -3.5740    -1.1090     2.0280 H     1 <1>   0.0800 
 26 H        2.7540     0.9330    -0.9870 H     1 <1>   0.0800 
 27 H        4.2170     0.5270    -0.1400 H     1 <1>   0.0800 
 28 H        2.8220     1.0580     0.7560 H     1 <1>   0.0800 
 29 H       -5.0730    -2.3930     0.5970 H     1 <1>   0.0800 
 30 H       -4.6600    -1.4090    -0.7830 H     1 <1>   0.0800 
 31 H        1.8350    -5.1560     0.3240 H     1 <1>   0.0800 
 32 H        3.2330    -4.7670     1.2980 H     1 <1>   0.0800 
 33 H        3.3850    -4.9050    -0.4440 H     1 <1>   0.0800 
 34 H        5.4010    -1.3470     0.2340 H     1 <1>   0.0800 
 35 H        5.2190    -2.8530    -0.6280 H     1 <1>   0.0800 
 36 H        5.1450    -2.8240     1.1200 H     1 <1>   0.0800 
@<TRIPOS>BOND
  1   1   2  2   
  2   1   3  2   
  3   1   4  am  
  4   1   5  1   
  5   4   6  1   
  6   4   7  1   
  7   5   8  1   
  8   5   9  1   
  9   6  10  1   
 10   6  18  1   
 11   6  19  1   
 12   7  11  1   
 13   7  20  1   
 14   7  21  1   
 15   8  12  2   
 16   9  13  2   
 17   9  14  1   
 18  10  15  1   
 19  10  22  1   
 20  10  23  1   
 21  11  15  1   
 22  11  24  1   
 23  11  25  1   
 24  12  13  1   
 25  12  16  1   
 26  13  17  1   
 27  14  26  1   
 28  14  27  1   
 29  14  28  1   
 30  15  29  1   
 31  15  30  1   
 32  16  31  1   
 33  16  32  1   
 34  16  33  1   
 35  17  34  1   
 36  17  35  1   
 37  17  36  1   
@<TRIPOS>SUBSTRUCTURE
  1 ****   5 GROUP 4 **** **** 0

# MOE 2024.06 (io_trps.svl 2023.06)
