@<TRIPOS>MOLECULE
NONAME
45 46 1 0 0 
SMALL
USER_CHARGES


@<TRIPOS>ATOM
  1 O       -0.2720    -0.5940    -1.1620 O.2   1 <1>  -0.5700 
  2 C       -0.7170    -1.2100    -0.2130 C.2   1 <1>   0.5440 
  3 N        0.1250    -1.9940     0.5330 N.am  1 <1>  -0.7300 
  4 C       -2.1220    -1.1040     0.1340 C.ar  1 <1>   0.0860 
  5 C        1.5800    -2.2030     0.3330 C.3   1 <1>   0.2200 
  6 C       -2.8470     0.0520    -0.1590 C.ar  1 <1>  -0.1500 
  7 C       -2.8130    -2.1390     0.7710 C.ar  1 <1>  -0.1500 
  8 C        2.3160    -0.8630     0.4980 C.3   1 <1>  -0.1600 
  9 C        1.8290    -2.8980    -1.0220 C.3   1 <1>  -0.1600 
 10 C       -4.1830     0.1750     0.1700 C.ar  1 <1>  -0.1500 
 11 C       -4.1500    -2.0200     1.1020 C.ar  1 <1>  -0.1500 
 12 C        3.7550    -0.9810     1.0280 C.3   1 <1>  -0.1600 
 13 C        2.5950    -4.2250    -0.9020 C.3   1 <1>  -0.1600 
 14 C       -4.8580    -0.8630     0.8020 C.ar  1 <1>   0.1170 
 15 C        4.7180    -1.7690     0.1270 C.3   1 <1>  -0.1600 
 16 C        4.1240    -4.0840    -0.8580 C.3   1 <1>  -0.1600 
 17 N       -6.2050    -0.7660     1.1490 N.am  1 <1>  -0.5470 
 18 C        4.6790    -3.2960     0.3390 C.3   1 <1>  -0.1600 
 19 C       -7.2890    -0.3730     0.4290 C.2   1 <1>   0.5690 
 20 O       -8.3700    -0.3290     0.9540 O.2   1 <1>  -0.5700 
 21 C       -7.1730    -0.0130    -1.0340 C.3   1 <1>  -0.1790 
 22 H       -0.2370    -2.4060     1.3910 H     1 <1>   0.3700 
 23 H        1.9060    -2.8540     1.1260 H     1 <1>   0.0800 
 24 H       -2.3420     0.8650    -0.6540 H     1 <1>   0.1500 
 25 H       -2.2990    -3.0550     1.0000 H     1 <1>   0.1500 
 26 H        1.7720    -0.2570     1.2010 H     1 <1>   0.0800 
 27 H        2.3180    -0.3330    -0.4380 H     1 <1>   0.0800 
 28 H        2.3460    -2.2410    -1.6990 H     1 <1>   0.0800 
 29 H        0.8820    -3.1180    -1.4810 H     1 <1>   0.0800 
 30 H       -4.7030     1.0880    -0.0570 H     1 <1>   0.1500 
 31 H       -4.6560    -2.8340     1.5890 H     1 <1>   0.1500 
 32 H        3.7480    -1.4020     2.0190 H     1 <1>   0.0800 
 33 H        4.1390     0.0210     1.1210 H     1 <1>   0.0800 
 34 H        2.3560    -4.8200    -1.7670 H     1 <1>   0.0800 
 35 H        2.2500    -4.7750    -0.0430 H     1 <1>   0.0800 
 36 H        5.7140    -1.4390     0.3670 H     1 <1>   0.0800 
 37 H        4.5540    -1.5090    -0.9050 H     1 <1>   0.0800 
 38 H        4.4760    -3.6490    -1.7790 H     1 <1>   0.0800 
 39 H        4.5330    -5.0790    -0.8130 H     1 <1>   0.0800 
 40 H       -6.4620    -1.0810     2.0840 H     1 <1>   0.3700 
 41 H        4.1500    -3.5590     1.2380 H     1 <1>   0.0800 
 42 H        5.6960    -3.6200     0.4820 H     1 <1>   0.0800 
 43 H       -6.4570    -0.6470    -1.5210 H     1 <1>   0.0800 
 44 H       -6.8740     1.0130    -1.1310 H     1 <1>   0.0800 
 45 H       -8.1270    -0.1410    -1.5100 H     1 <1>   0.0800 
@<TRIPOS>BOND
  1   1   2  2   
  2   2   3  am  
  3   2   4  1   
  4   3   5  1   
  5   3  22  1   
  6   4   6  ar  
  7   4   7  ar  
  8   5   8  1   
  9   5   9  1   
 10   5  23  1   
 11   6  10  ar  
 12   6  24  1   
 13   7  11  ar  
 14   7  25  1   
 15   8  12  1   
 16   8  26  1   
 17   8  27  1   
 18   9  13  1   
 19   9  28  1   
 20   9  29  1   
 21  10  14  ar  
 22  10  30  1   
 23  11  14  ar  
 24  11  31  1   
 25  12  15  1   
 26  12  32  1   
 27  12  33  1   
 28  13  16  1   
 29  13  34  1   
 30  13  35  1   
 31  14  17  1   
 32  15  18  1   
 33  15  36  1   
 34  15  37  1   
 35  16  18  1   
 36  16  38  1   
 37  16  39  1   
 38  17  19  am  
 39  17  40  1   
 40  18  41  1   
 41  18  42  1   
 42  19  20  2   
 43  19  21  1   
 44  21  43  1   
 45  21  44  1   
 46  21  45  1   
@<TRIPOS>SUBSTRUCTURE
  1 ****   2 GROUP 4 **** **** 0

# MOE 2024.06 (io_trps.svl 2023.06)
