@<TRIPOS>MOLECULE
NONAME
37 38 1 0 0 
SMALL
USER_CHARGES


@<TRIPOS>ATOM
  1 S       -0.3600     0.0620    -1.4010 S.3   1 <1>  -0.3320 
  2 C       -1.0470    -1.4790    -0.8110 C.ar  1 <1>   0.7220 
  3 C        1.4710    -0.1960    -1.3940 C.3   1 <1>  -0.0100 
  4 N       -2.3410    -1.5100    -0.7370 N.ar  1 <1>  -0.6200 
  5 N       -0.1940    -2.4110    -0.5140 N.ar  1 <1>  -0.6200 
  6 C       -2.8050    -2.6570    -0.2990 C.ar  1 <1>   0.7200 
  7 C       -0.7850    -3.4990    -0.0920 C.ar  1 <1>   0.7200 
  8 N       -2.0660    -3.6860     0.0370 N.ar  1 <1>  -0.6200 
  9 N       -4.1710    -2.7870    -0.1860 N.pl3 1 <1>  -0.8380 
 10 N       -0.0220    -4.5580     0.2540 N.pl3 1 <1>  -0.8690 
 11 C       -4.8490    -4.0330     0.2930 C.3   1 <1>   0.2090 
 12 C       -5.1410    -1.7160    -0.5840 C.3   1 <1>   0.2090 
 13 C        1.4300    -4.6960     0.1420 C.3   1 <1>   0.2890 
 14 C       -5.9420    -3.7000     1.3230 C.3   1 <1>   0.1200 
 15 C       -6.2180    -1.5240     0.4990 C.3   1 <1>   0.1200 
 16 C        1.7200    -5.7290    -0.9390 C.3   1 <1>  -0.2400 
 17 C        1.9610    -5.1440     1.4980 C.3   1 <1>  -0.2400 
 18 O       -6.8330    -2.7410     0.8240 O.3   1 <1>  -0.5600 
 19 H        1.9310     0.7110    -1.7420 H     1 <1>   0.0800 
 20 H        1.6910    -1.0190    -2.0500 H     1 <1>   0.0800 
 21 H        1.7680    -0.4170    -0.3840 H     1 <1>   0.0800 
 22 H       -0.5420    -5.3870     0.5290 H     1 <1>   0.4000 
 23 H       -4.1490    -4.7120     0.7450 H     1 <1>   0.0800 
 24 H       -5.2970    -4.5340    -0.5470 H     1 <1>   0.0800 
 25 H       -5.6160    -1.9970    -1.5070 H     1 <1>   0.0800 
 26 H       -4.6470    -0.7740    -0.7430 H     1 <1>   0.0800 
 27 H        1.8810    -3.7550    -0.1270 H     1 <1>   0.0800 
 28 H       -5.4980    -3.3200     2.2270 H     1 <1>   0.0800 
 29 H       -6.5080    -4.5820     1.5600 H     1 <1>   0.0800 
 30 H       -6.9810    -0.8540     0.1470 H     1 <1>   0.0800 
 31 H       -5.7790    -1.1100     1.3910 H     1 <1>   0.0800 
 32 H        1.2840    -6.6790    -0.6860 H     1 <1>   0.0800 
 33 H        2.7820    -5.8560    -1.0480 H     1 <1>   0.0800 
 34 H        1.3210    -5.3930    -1.8790 H     1 <1>   0.0800 
 35 H        1.5310    -6.0860     1.7840 H     1 <1>   0.0800 
 36 H        1.7260    -4.4040     2.2420 H     1 <1>   0.0800 
 37 H        3.0300    -5.2520     1.4540 H     1 <1>   0.0800 
@<TRIPOS>BOND
  1   1   2  1   
  2   1   3  1   
  3   2   4  ar  
  4   2   5  ar  
  5   3  19  1   
  6   3  20  1   
  7   3  21  1   
  8   4   6  ar  
  9   5   7  ar  
 10   6   8  ar  
 11   6   9  1   
 12   7   8  ar  
 13   7  10  1   
 14   9  11  1   
 15   9  12  1   
 16  10  13  1   
 17  10  22  1   
 18  11  14  1   
 19  11  23  1   
 20  11  24  1   
 21  12  15  1   
 22  12  25  1   
 23  12  26  1   
 24  13  16  1   
 25  13  17  1   
 26  13  27  1   
 27  14  18  1   
 28  14  28  1   
 29  14  29  1   
 30  15  18  1   
 31  15  30  1   
 32  15  31  1   
 33  16  32  1   
 34  16  33  1   
 35  16  34  1   
 36  17  35  1   
 37  17  36  1   
 38  17  37  1   
@<TRIPOS>SUBSTRUCTURE
  1 ****   8 GROUP 4 **** **** 0

# MOE 2024.06 (io_trps.svl 2023.06)
