@<TRIPOS>MOLECULE
NONAME
38 38 1 0 0 
SMALL
USER_CHARGES


@<TRIPOS>ATOM
  1 CL      -0.1410     0.3380    -0.0010 Cl    1 <1>  -0.1770 
  2 C       -1.8750     0.1350     0.0000 C.ar  1 <1>   0.1770 
  3 C       -2.6880     1.2510     0.0050 C.ar  1 <1>  -0.1500 
  4 C       -2.4070    -1.1400    -0.0040 C.ar  1 <1>  -0.1500 
  5 C       -4.0670     1.0980     0.0060 C.ar  1 <1>  -0.1440 
  6 C       -3.7810    -1.3010    -0.0030 C.ar  1 <1>  -0.1500 
  7 C       -4.6180    -0.1830     0.0020 C.ar  1 <1>   0.0830 
  8 C       -4.9540     2.3350     0.0120 C.3   1 <1>  -0.0960 
  9 O       -5.9750    -0.2790     0.0030 O.3   1 <1>  -0.3630 
 10 C       -6.6320    -1.5210     0.0000 C.3   1 <1>   0.1200 
 11 C       -8.1360    -1.2320     0.0030 C.3   1 <1>   0.3430 
 12 N       -8.9480    -2.4880     0.0000 N.4   1 <1>  -0.9060 
 13 C      -10.4060    -2.2130     0.0020 C.3   1 <1>   0.3430 
 14 C      -11.1490    -3.5410    -0.0010 C.3   1 <1>  -0.1600 
 15 C      -12.6610    -3.3280     0.0010 C.3   1 <1>   0.1200 
 16 O      -13.2290    -4.5870    -0.0020 O.3   1 <1>  -0.5600 
 17 C      -14.6220    -4.5910    -0.0010 C.3   1 <1>   0.0400 
 18 H       -2.2360     2.2260     0.0080 H     1 <1>   0.1500 
 19 H       -1.7470    -1.9890    -0.0070 H     1 <1>   0.1500 
 20 H       -4.1690    -2.3010    -0.0060 H     1 <1>   0.1500 
 21 H       -4.3660     3.2350     0.0140 H     1 <1>   0.0800 
 22 H       -5.5780     2.3350     0.8870 H     1 <1>   0.0800 
 23 H       -5.5800     2.3410    -0.8620 H     1 <1>   0.0800 
 24 H       -6.3380    -2.0560     0.8860 H     1 <1>   0.0800 
 25 H       -6.3400    -2.0500    -0.8900 H     1 <1>   0.0800 
 26 H       -8.3730    -0.6450    -0.8700 H     1 <1>   0.0800 
 27 H       -8.3710    -0.6510     0.8800 H     1 <1>   0.0800 
 28 H       -8.7190    -3.0600     0.8230 H     1 <1>   0.4500 
 29 H       -8.7210    -3.0550    -0.8290 H     1 <1>   0.4500 
 30 H      -10.6780    -1.6420    -0.8720 H     1 <1>   0.0800 
 31 H      -10.6760    -1.6480     0.8810 H     1 <1>   0.0800 
 32 H      -10.8900    -4.1090     0.8750 H     1 <1>   0.0800 
 33 H      -10.8920    -4.1040    -0.8820 H     1 <1>   0.0800 
 34 H      -12.9870    -2.8010    -0.8810 H     1 <1>   0.0800 
 35 H      -12.9850    -2.8070     0.8880 H     1 <1>   0.0800 
 36 H      -14.9540    -5.6150    -0.0040 H     1 <1>   0.0800 
 37 H      -14.9830    -4.0930    -0.8840 H     1 <1>   0.0800 
 38 H      -14.9810    -4.0990     0.8870 H     1 <1>   0.0800 
@<TRIPOS>BOND
  1   1   2  1   
  2   2   3  ar  
  3   2   4  ar  
  4   3   5  ar  
  5   3  18  1   
  6   4   6  ar  
  7   4  19  1   
  8   5   7  ar  
  9   5   8  1   
 10   6   7  ar  
 11   6  20  1   
 12   7   9  1   
 13   8  21  1   
 14   8  22  1   
 15   8  23  1   
 16   9  10  1   
 17  10  11  1   
 18  10  24  1   
 19  10  25  1   
 20  11  12  1   
 21  11  26  1   
 22  11  27  1   
 23  12  13  1   
 24  12  28  1   
 25  12  29  1   
 26  13  14  1   
 27  13  30  1   
 28  13  31  1   
 29  14  15  1   
 30  14  32  1   
 31  14  33  1   
 32  15  16  1   
 33  15  34  1   
 34  15  35  1   
 35  16  17  1   
 36  17  36  1   
 37  17  37  1   
 38  17  38  1   
@<TRIPOS>SUBSTRUCTURE
  1 ****  10 GROUP 4 **** **** 0

# MOE 2024.06 (io_trps.svl 2023.06)
