@<TRIPOS>MOLECULE
NONAME
54 55 1 0 0 
SMALL
USER_CHARGES


@<TRIPOS>ATOM
  1 BR       2.5360     1.6310    -2.0020 Br    1 <1>  -0.1110 
  2 C        1.4160     2.5450    -0.7220 C.ar  1 <1>   0.1110 
  3 C        1.8060     2.6020     0.6070 C.ar  1 <1>   0.0820 
  4 C        0.2540     3.1320    -1.1830 C.ar  1 <1>  -0.1500 
  5 O        2.9680     2.0100     0.9800 O.3   1 <1>  -0.3630 
  6 C        0.9780     3.2740     1.4960 C.ar  1 <1>  -0.1500 
  7 C       -0.5760     3.8140    -0.2960 C.ar  1 <1>  -0.1430 
  8 C        3.7120     2.5400     2.0660 C.3   1 <1>   0.1810 
  9 C       -0.1890     3.8680     1.0430 C.ar  1 <1>  -0.1500 
 10 C       -1.8880     4.4990    -0.7360 C.3   1 <1>   0.1440 
 11 C        5.1380     1.9940     2.0860 C.2   1 <1>   0.5690 
 12 C       -2.1700     4.3530    -2.2410 C.3   1 <1>  -0.2400 
 13 C       -1.8140     6.0010    -0.4220 C.3   1 <1>  -0.2400 
 14 C       -3.0710     3.8770     0.0200 C.3   1 <1>  -0.2400 
 15 O        5.4790     1.4090     3.0900 O.2   1 <1>  -0.5700 
 16 N        6.0060     2.1810     1.0320 N.am  1 <1>  -0.6600 
 17 C        5.6620     2.8850    -0.2370 C.3   1 <1>   0.1400 
 18 C        7.3750     1.5960     1.0520 C.3   1 <1>   0.1400 
 19 C        6.6840     3.9910    -0.5060 C.3   1 <1>  -0.1600 
 20 C        8.4100     2.6940     0.8000 C.3   1 <1>  -0.1600 
 21 C        8.1290     3.4510    -0.5130 C.3   1 <1>  -0.0190 
 22 C        9.1700     4.5430    -0.7500 C.2   1 <1>   0.6590 
 23 O        8.9170     5.7170    -0.6560 O.2   1 <1>  -0.5700 
 24 O       10.3840     4.1110    -1.0700 O.3   1 <1>  -0.4300 
 25 C       11.4440     5.0070    -1.3070 C.3   1 <1>   0.1200 
 26 C       12.6900     4.1900    -1.6320 C.3   1 <1>  -0.2400 
 27 H        0.0290     3.0400    -2.2280 H     1 <1>   0.1500 
 28 H        1.2220     3.3360     2.5400 H     1 <1>   0.1500 
 29 H        3.2140     2.2670     2.9780 H     1 <1>   0.0800 
 30 H        3.7430     3.6100     1.9750 H     1 <1>   0.0800 
 31 H       -0.8060     4.3810     1.7590 H     1 <1>   0.1500 
 32 H       -1.3800     4.7980    -2.8190 H     1 <1>   0.0800 
 33 H       -3.0900     4.8460    -2.5030 H     1 <1>   0.0800 
 34 H       -2.2620     3.3160    -2.5100 H     1 <1>   0.0800 
 35 H       -1.7110     6.1740     0.6330 H     1 <1>   0.0800 
 36 H       -0.9670     6.4390    -0.9210 H     1 <1>   0.0800 
 37 H       -2.7040     6.5030    -0.7560 H     1 <1>   0.0800 
 38 H       -3.1130     2.8190    -0.1680 H     1 <1>   0.0800 
 39 H       -3.9990     4.3170    -0.3000 H     1 <1>   0.0800 
 40 H       -2.9800     4.0280     1.0790 H     1 <1>   0.0800 
 41 H        4.6820     3.3240    -0.1930 H     1 <1>   0.0800 
 42 H        5.6670     2.1720    -1.0440 H     1 <1>   0.0800 
 43 H        7.4430     0.8410     0.2870 H     1 <1>   0.0800 
 44 H        7.5770     1.1250     1.9990 H     1 <1>   0.0800 
 45 H        6.5820     4.7480     0.2530 H     1 <1>   0.0800 
 46 H        6.4660     4.4510    -1.4540 H     1 <1>   0.0800 
 47 H        9.3890     2.2490     0.7610 H     1 <1>   0.0800 
 48 H        8.3960     3.3810     1.6280 H     1 <1>   0.0800 
 49 H        8.2170     2.7540    -1.3270 H     1 <1>   0.0800 
 50 H       11.5910     5.6030    -0.4220 H     1 <1>   0.0800 
 51 H       11.1720     5.6460    -2.1310 H     1 <1>   0.0800 
 52 H       12.9400     3.5500    -0.8050 H     1 <1>   0.0800 
 53 H       13.5180     4.8510    -1.8170 H     1 <1>   0.0800 
 54 H       12.5240     3.5950    -2.5130 H     1 <1>   0.0800 
@<TRIPOS>BOND
  1   1   2  1   
  2   2   3  ar  
  3   2   4  ar  
  4   3   5  1   
  5   3   6  ar  
  6   4   7  ar  
  7   4  27  1   
  8   5   8  1   
  9   6   9  ar  
 10   6  28  1   
 11   7   9  ar  
 12   7  10  1   
 13   8  11  1   
 14   8  29  1   
 15   8  30  1   
 16   9  31  1   
 17  10  12  1   
 18  10  13  1   
 19  10  14  1   
 20  11  15  2   
 21  11  16  am  
 22  12  32  1   
 23  12  33  1   
 24  12  34  1   
 25  13  35  1   
 26  13  36  1   
 27  13  37  1   
 28  14  38  1   
 29  14  39  1   
 30  14  40  1   
 31  16  17  1   
 32  16  18  1   
 33  17  19  1   
 34  17  41  1   
 35  17  42  1   
 36  18  20  1   
 37  18  43  1   
 38  18  44  1   
 39  19  21  1   
 40  19  45  1   
 41  19  46  1   
 42  20  21  1   
 43  20  47  1   
 44  20  48  1   
 45  21  22  1   
 46  21  49  1   
 47  22  23  2   
 48  22  24  1   
 49  24  25  1   
 50  25  26  1   
 51  25  50  1   
 52  25  51  1   
 53  26  52  1   
 54  26  53  1   
 55  26  54  1   
@<TRIPOS>SUBSTRUCTURE
  1 ****  17 GROUP 4 **** **** 0

# MOE 2024.06 (io_trps.svl 2023.06)
