@<TRIPOS>MOLECULE
NONAME
38 38 1 0 0 
SMALL
USER_CHARGES


@<TRIPOS>ATOM
  1 O        0.3220    -1.4630     0.4890 O.3   1 <1>  -0.3630 
  2 C       -1.0240    -1.3510     0.3260 C.ar  1 <1>   0.0820 
  3 C        1.2060    -0.4620     0.0560 C.3   1 <1>   0.1200 
  4 C       -1.8160    -2.3950     0.7950 C.ar  1 <1>  -0.1440 
  5 C       -1.6250    -0.2490    -0.2810 C.ar  1 <1>  -0.1500 
  6 C        2.6180    -0.9310     0.4080 C.3   1 <1>  -0.1600 
  7 C       -3.1920    -2.3240     0.6530 C.ar  1 <1>  -0.1500 
  8 C       -1.1900    -3.6110     1.4620 C.3   1 <1>  -0.0970 
  9 C       -3.0010    -0.1860    -0.4220 C.ar  1 <1>  -0.1430 
 10 C        3.6590     0.0950    -0.0250 C.3   1 <1>   0.3430 
 11 C       -3.7810    -1.2280     0.0490 C.ar  1 <1>  -0.1500 
 12 C       -3.6530     1.0160    -1.0820 C.3   1 <1>  -0.0970 
 13 N        5.0060    -0.4060     0.3390 N.4   1 <1>  -0.9060 
 14 C        6.0860     0.5490    -0.0550 C.3   1 <1>   0.3430 
 15 C        7.4790     0.0300     0.3220 C.3   1 <1>   0.1200 
 16 O        8.3970     0.9800    -0.0820 O.3   1 <1>  -0.6800 
 17 H        0.9550     0.4510     0.5680 H     1 <1>   0.0800 
 18 H        1.0830    -0.3450    -1.0080 H     1 <1>   0.0800 
 19 H       -1.0410     0.5700    -0.6500 H     1 <1>   0.1500 
 20 H        2.7970    -1.8660    -0.0930 H     1 <1>   0.0800 
 21 H        2.6690    -1.0760     1.4730 H     1 <1>   0.0800 
 22 H       -3.8160    -3.1230     1.0110 H     1 <1>   0.1500 
 23 H       -0.5170    -4.0950     0.7780 H     1 <1>   0.0800 
 24 H       -1.9410    -4.3190     1.7620 H     1 <1>   0.0800 
 25 H       -0.6400    -3.3050     2.3330 H     1 <1>   0.0800 
 26 H        3.4680     1.0360     0.4680 H     1 <1>   0.0800 
 27 H        3.5960     0.2480    -1.0920 H     1 <1>   0.0800 
 28 H       -4.8520    -1.1910    -0.0510 H     1 <1>   0.1500 
 29 H       -3.0030     1.4380    -1.8260 H     1 <1>   0.0800 
 30 H       -3.8680     1.7650    -0.3410 H     1 <1>   0.0800 
 31 H       -4.5720     0.7280    -1.5610 H     1 <1>   0.0800 
 32 H        5.1610    -1.3150    -0.1180 H     1 <1>   0.4500 
 33 H        5.0400    -0.5710     1.3540 H     1 <1>   0.4500 
 34 H        5.9300     1.4960     0.4360 H     1 <1>   0.0800 
 35 H        6.0580     0.7100    -1.1210 H     1 <1>   0.0800 
 36 H        7.7070    -0.8900    -0.1890 H     1 <1>   0.0800 
 37 H        7.5770    -0.0940     1.3870 H     1 <1>   0.0800 
 38 H        9.3190     0.7150     0.1270 H     1 <1>   0.4000 
@<TRIPOS>BOND
  1   1   2  1   
  2   1   3  1   
  3   2   4  ar  
  4   2   5  ar  
  5   3   6  1   
  6   3  17  1   
  7   3  18  1   
  8   4   7  ar  
  9   4   8  1   
 10   5   9  ar  
 11   5  19  1   
 12   6  10  1   
 13   6  20  1   
 14   6  21  1   
 15   7  11  ar  
 16   7  22  1   
 17   8  23  1   
 18   8  24  1   
 19   8  25  1   
 20   9  11  ar  
 21   9  12  1   
 22  10  13  1   
 23  10  26  1   
 24  10  27  1   
 25  11  28  1   
 26  12  29  1   
 27  12  30  1   
 28  12  31  1   
 29  13  14  1   
 30  13  32  1   
 31  13  33  1   
 32  14  15  1   
 33  14  34  1   
 34  14  35  1   
 35  15  16  1   
 36  15  36  1   
 37  15  37  1   
 38  16  38  1   
@<TRIPOS>SUBSTRUCTURE
  1 ****   3 GROUP 4 **** **** 0

# MOE 2024.06 (io_trps.svl 2023.06)
