@<TRIPOS>MOLECULE
NONAME
49 50 1 0 0 
SMALL
USER_CHARGES


@<TRIPOS>ATOM
  1 O        0.0330     0.1130    -0.3540 O.2   1 <1>  -0.5700 
  2 C        0.5220     1.1860    -0.0620 C.2   1 <1>   0.5440 
  3 N       -0.2460     2.3290    -0.0770 N.am  1 <1>  -0.5470 
  4 C        1.9220     1.2720     0.3140 C.ar  1 <1>   0.0860 
  5 C       -1.5950     2.5440    -0.4030 C.ar  1 <1>   0.1170 
  6 C        2.6900     2.4070     0.0520 C.ar  1 <1>  -0.1500 
  7 C        2.5550     0.2090     0.9600 C.ar  1 <1>  -0.1500 
  8 C       -1.9820     3.8090    -0.8240 C.ar  1 <1>  -0.1500 
  9 C       -2.5700     1.5540    -0.3060 C.ar  1 <1>  -0.1500 
 10 C        4.0170     2.4940     0.4330 C.ar  1 <1>   0.0830 
 11 C        3.8820     0.2800     1.3420 C.ar  1 <1>  -0.1500 
 12 C       -3.3000     4.0940    -1.1440 C.ar  1 <1>   0.1170 
 13 C       -3.8880     1.8220    -0.6290 C.ar  1 <1>  -0.1500 
 14 O        4.6580     3.6500     0.1330 O.3   1 <1>  -0.3630 
 15 C        4.6180     1.4220     1.0840 C.ar  1 <1>  -0.1500 
 16 N       -3.6530     5.3790    -1.5650 N.am  1 <1>  -0.5470 
 17 C       -4.2520     3.0880    -1.0500 C.ar  1 <1>  -0.1500 
 18 C        6.0230     3.8320     0.4330 C.3   1 <1>   0.1200 
 19 C       -4.4370     6.3110    -0.9630 C.2   1 <1>   0.5690 
 20 C        6.4390     5.2210    -0.0520 C.3   1 <1>  -0.1600 
 21 O       -4.6130     7.3740    -1.5000 O.2   1 <1>  -0.5700 
 22 C       -5.0850     6.0500     0.3900 C.3   1 <1>  -0.0990 
 23 C        7.9200     5.4920     0.2420 C.3   1 <1>  -0.1600 
 24 C       -4.0860     6.1250     1.5560 C.3   1 <1>  -0.2400 
 25 C        8.3300     6.8840    -0.2460 C.3   1 <1>  -0.2400 
 26 H        0.2620     3.1710     0.1830 H     1 <1>   0.3700 
 27 H        2.2630     3.2440    -0.4670 H     1 <1>   0.1500 
 28 H        1.9900    -0.6860     1.1620 H     1 <1>   0.1500 
 29 H       -1.2490     4.5890    -0.9050 H     1 <1>   0.1500 
 30 H       -2.3040     0.5670     0.0260 H     1 <1>   0.1500 
 31 H        4.3420    -0.5560     1.8410 H     1 <1>   0.1500 
 32 H       -4.6260     1.0430    -0.5550 H     1 <1>   0.1500 
 33 H        5.6460     1.4550     1.3930 H     1 <1>   0.1500 
 34 H       -3.2270     5.7170    -2.4280 H     1 <1>   0.3700 
 35 H       -5.2740     3.2940    -1.3110 H     1 <1>   0.1500 
 36 H        6.5870     3.0680    -0.0740 H     1 <1>   0.0800 
 37 H        6.1520     3.7480     1.4990 H     1 <1>   0.0800 
 38 H        5.8340     5.9600     0.4440 H     1 <1>   0.0800 
 39 H        6.2660     5.2870    -1.1120 H     1 <1>   0.0800 
 40 H       -5.5610     5.0880     0.3800 H     1 <1>   0.0800 
 41 H       -5.8540     6.7860     0.5410 H     1 <1>   0.0800 
 42 H        8.5290     4.7520    -0.2500 H     1 <1>   0.0800 
 43 H        8.0990     5.4230     1.3020 H     1 <1>   0.0800 
 44 H       -3.3280     5.3690     1.4550 H     1 <1>   0.0800 
 45 H       -4.5970     5.9750     2.4900 H     1 <1>   0.0800 
 46 H       -3.6120     7.0910     1.5740 H     1 <1>   0.0800 
 47 H        8.1810     6.9700    -1.3080 H     1 <1>   0.0800 
 48 H        9.3710     7.0570    -0.0320 H     1 <1>   0.0800 
 49 H        7.7500     7.6430     0.2490 H     1 <1>   0.0800 
@<TRIPOS>BOND
  1   1   2  2   
  2   2   3  am  
  3   2   4  1   
  4   3   5  1   
  5   3  26  1   
  6   4   6  ar  
  7   4   7  ar  
  8   5   8  ar  
  9   5   9  ar  
 10   6  10  ar  
 11   6  27  1   
 12   7  11  ar  
 13   7  28  1   
 14   8  12  ar  
 15   8  29  1   
 16   9  13  ar  
 17   9  30  1   
 18  10  14  1   
 19  10  15  ar  
 20  11  15  ar  
 21  11  31  1   
 22  12  16  1   
 23  12  17  ar  
 24  13  17  ar  
 25  13  32  1   
 26  14  18  1   
 27  15  33  1   
 28  16  19  am  
 29  16  34  1   
 30  17  35  1   
 31  18  20  1   
 32  18  36  1   
 33  18  37  1   
 34  19  21  2   
 35  19  22  1   
 36  20  23  1   
 37  20  38  1   
 38  20  39  1   
 39  22  24  1   
 40  22  40  1   
 41  22  41  1   
 42  23  25  1   
 43  23  42  1   
 44  23  43  1   
 45  24  44  1   
 46  24  45  1   
 47  24  46  1   
 48  25  47  1   
 49  25  48  1   
 50  25  49  1   
@<TRIPOS>SUBSTRUCTURE
  1 ****   3 GROUP 4 **** **** 0

# MOE 2024.06 (io_trps.svl 2023.06)
