@<TRIPOS>MOLECULE
NONAME
31 32 1 0 0 
SMALL
USER_CHARGES


@<TRIPOS>ATOM
  1 S       -0.3380    -0.0430    -0.5720 S.3   1 <1>  -0.9360 
  2 C       -1.7070    -0.8540    -0.3010 C.cat 1 <1>   0.7360 
  3 N       -2.8890    -0.3480    -0.0250 N.pl3 1 <1>  -0.3930 
  4 N       -1.8120    -2.1550    -0.3240 N.pl3 1 <1>  -0.7000 
  5 N       -3.8080    -1.3510     0.1390 N.2   1 <1>  -0.2600 
  6 C       -3.1210    -2.4250    -0.0490 C.2   1 <1>   0.4850 
  7 C       -3.6260    -3.8590     0.0120 C.3   1 <1>   0.0080 
  8 C       -5.1600    -3.9750     0.1510 C.3   1 <1>  -0.1600 
  9 C       -5.6510    -5.4300     0.3250 C.3   1 <1>  -0.0190 
 10 C       -5.4670    -6.3410    -0.8730 C.2   1 <1>   0.6590 
 11 C       -7.1670    -5.5060     0.5290 C.3   1 <1>  -0.1600 
 12 O       -4.4550    -6.4490    -1.5110 O.2   1 <1>  -0.5700 
 13 O       -6.5630    -7.0240    -1.1270 O.3   1 <1>  -0.4300 
 14 C       -7.5880    -6.7920    -0.2010 C.3   1 <1>   0.2800 
 15 C       -7.6330    -7.9990     0.7380 C.3   1 <1>  -0.2400 
 16 C       -8.8980    -6.6390    -0.9710 C.3   1 <1>  -0.2400 
 17 H       -3.0360     0.6600     0.0410 H     1 <1>   0.4500 
 18 H       -1.0060    -2.7360    -0.5340 H     1 <1>   0.4500 
 19 H       -3.1510    -4.3460     0.8440 H     1 <1>   0.0800 
 20 H       -3.3020    -4.3490    -0.8870 H     1 <1>   0.0800 
 21 H       -5.6230    -3.5420    -0.7190 H     1 <1>   0.0800 
 22 H       -5.4740    -3.4060     1.0100 H     1 <1>   0.0800 
 23 H       -5.1570    -5.8920     1.1620 H     1 <1>   0.0800 
 24 H       -7.6490    -4.6610     0.0670 H     1 <1>   0.0800 
 25 H       -7.4400    -5.5200     1.5690 H     1 <1>   0.0800 
 26 H       -6.6980    -8.1210     1.2530 H     1 <1>   0.0800 
 27 H       -7.8430    -8.8940     0.1790 H     1 <1>   0.0800 
 28 H       -8.4100    -7.8700     1.4690 H     1 <1>   0.0800 
 29 H       -8.8280    -5.8350    -1.6810 H     1 <1>   0.0800 
 30 H       -9.7040    -6.4280    -0.2920 H     1 <1>   0.0800 
 31 H       -9.1260    -7.5490    -1.4980 H     1 <1>   0.0800 
@<TRIPOS>BOND
  1   1   2  1   
  2   2   3  ar  
  3   2   4  ar  
  4   3   5  1   
  5   3  17  1   
  6   4   6  1   
  7   4  18  1   
  8   5   6  2   
  9   6   7  1   
 10   7   8  1   
 11   7  19  1   
 12   7  20  1   
 13   8   9  1   
 14   8  21  1   
 15   8  22  1   
 16   9  10  1   
 17   9  11  1   
 18   9  23  1   
 19  10  12  2   
 20  10  13  1   
 21  11  14  1   
 22  11  24  1   
 23  11  25  1   
 24  13  14  1   
 25  14  15  1   
 26  14  16  1   
 27  15  26  1   
 28  15  27  1   
 29  15  28  1   
 30  16  29  1   
 31  16  30  1   
 32  16  31  1   
@<TRIPOS>SUBSTRUCTURE
  1 ****   8 GROUP 4 **** **** 0

# MOE 2024.06 (io_trps.svl 2023.06)
