@<TRIPOS>MOLECULE
NONAME
39 40 1 0 0 
SMALL
USER_CHARGES


@<TRIPOS>ATOM
  1 O        0.1500    -0.6160     1.0250 O.2   1 <1>  -0.5700 
  2 C        0.7180    -1.5150     0.4480 C.2   1 <1>   0.5690 
  3 N        2.0720    -1.4610     0.2260 N.am  1 <1>  -0.6600 
  4 C       -0.1120    -2.7220    -0.0170 C.3   1 <1>  -0.0190 
  5 C        2.8900    -2.5620    -0.3720 C.3   1 <1>   0.1400 
  6 C        2.8570    -0.2480     0.6130 C.3   1 <1>   0.1400 
  7 C       -1.5050    -2.3130    -0.5400 C.3   1 <1>  -0.1600 
  8 C       -0.2540    -3.7570     1.1160 C.3   1 <1>  -0.1600 
  9 C        4.3850    -2.4060    -0.0290 C.3   1 <1>   0.2000 
 10 C        4.0660    -0.0350    -0.3230 C.3   1 <1>   0.2000 
 11 C       -2.3160    -3.5340    -0.9980 C.3   1 <1>  -0.1600 
 12 C       -1.0660    -4.9810     0.6650 C.3   1 <1>  -0.1600 
 13 O        4.8860    -1.1690    -0.4520 O.3   1 <1>  -0.5600 
 14 C        5.2430    -3.4790    -0.6940 C.3   1 <1>  -0.2400 
 15 C        4.9630     1.1060     0.1510 C.3   1 <1>  -0.2400 
 16 C       -2.4420    -4.5660     0.1300 C.3   1 <1>  -0.1600 
 17 H        0.3960    -3.1880    -0.8390 H     1 <1>   0.0800 
 18 H        2.7700    -2.5530    -1.4410 H     1 <1>   0.0800 
 19 H        2.5480    -3.5100     0.0010 H     1 <1>   0.0800 
 20 H        3.1980    -0.3580     1.6270 H     1 <1>   0.0800 
 21 H        2.2250     0.6230     0.5730 H     1 <1>   0.0800 
 22 H       -1.3920    -1.6250    -1.3600 H     1 <1>   0.0800 
 23 H       -2.0450    -1.8040     0.2400 H     1 <1>   0.0800 
 24 H       -0.7470    -3.2920     1.9540 H     1 <1>   0.0800 
 25 H        0.7190    -4.0740     1.4470 H     1 <1>   0.0800 
 26 H        4.5130    -2.4600     1.0390 H     1 <1>   0.0800 
 27 H        3.6960     0.1960    -1.3080 H     1 <1>   0.0800 
 28 H       -1.8330    -3.9880    -1.8470 H     1 <1>   0.0800 
 29 H       -3.2970    -3.2170    -1.3070 H     1 <1>   0.0800 
 30 H       -1.1920    -5.6540     1.4960 H     1 <1>   0.0800 
 31 H       -0.5270    -5.5040    -0.1050 H     1 <1>   0.0800 
 32 H        5.1560    -3.4170    -1.7640 H     1 <1>   0.0800 
 33 H        4.9290    -4.4560    -0.3750 H     1 <1>   0.0800 
 34 H        6.2730    -3.3450    -0.4140 H     1 <1>   0.0800 
 35 H        5.3700     0.8810     1.1210 H     1 <1>   0.0800 
 36 H        4.3980     2.0180     0.2140 H     1 <1>   0.0800 
 37 H        5.7680     1.2500    -0.5470 H     1 <1>   0.0800 
 38 H       -2.9660    -5.4340    -0.2320 H     1 <1>   0.0800 
 39 H       -3.0220    -4.1430     0.9330 H     1 <1>   0.0800 
@<TRIPOS>BOND
  1   1   2  2   
  2   2   3  am  
  3   2   4  1   
  4   3   5  1   
  5   3   6  1   
  6   4   7  1   
  7   4   8  1   
  8   4  17  1   
  9   5   9  1   
 10   5  18  1   
 11   5  19  1   
 12   6  10  1   
 13   6  20  1   
 14   6  21  1   
 15   7  11  1   
 16   7  22  1   
 17   7  23  1   
 18   8  12  1   
 19   8  24  1   
 20   8  25  1   
 21   9  13  1   
 22   9  14  1   
 23   9  26  1   
 24  10  13  1   
 25  10  15  1   
 26  10  27  1   
 27  11  16  1   
 28  11  28  1   
 29  11  29  1   
 30  12  16  1   
 31  12  30  1   
 32  12  31  1   
 33  14  32  1   
 34  14  33  1   
 35  14  34  1   
 36  15  35  1   
 37  15  36  1   
 38  15  37  1   
 39  16  38  1   
 40  16  39  1   
@<TRIPOS>SUBSTRUCTURE
  1 ****   3 GROUP 4 **** **** 0

# MOE 2024.06 (io_trps.svl 2023.06)
