@<TRIPOS>MOLECULE
NONAME
43 45 1 0 0 
SMALL
USER_CHARGES


@<TRIPOS>ATOM
  1 S       -0.2550     0.4430    -0.8240 S.3   1 <1>  -0.0800 
  2 C        1.3260    -0.1530    -0.3790 C.2   1 <1>   0.1040 
  3 C       -1.0150    -1.1340    -0.6270 C.2   1 <1>  -0.0450 
  4 N        2.4050     0.7110    -0.3440 N.am  1 <1>  -0.4940 
  5 C        1.2810    -1.5000    -0.1190 C.2   1 <1>  -0.0860 
  6 C       -0.0580    -2.0310    -0.2560 C.2   1 <1>  -0.1810 
  7 C       -2.4290    -1.2380    -0.9010 C.2   1 <1>   0.7150 
  8 C        2.5480     2.0770    -0.4630 C.2   1 <1>   0.7150 
  9 C        2.4740    -2.2360     0.2380 C.2   1 <1>   0.8060 
 10 C       -0.3940    -3.4980    -0.0030 C.3   1 <1>  -0.0590 
 11 O       -2.8470    -2.1730    -1.5640 O.2   1 <1>  -0.5700 
 12 N       -3.3480    -0.3260    -0.4240 N.am  1 <1>  -0.6600 
 13 O        1.5770     2.8020    -0.5390 O.2   1 <1>  -0.5700 
 14 C        3.8710     2.6460    -0.4760 C.2   1 <1>  -0.0450 
 15 O        3.5760    -1.7160     0.2910 O.2   1 <1>  -0.5700 
 16 O        2.3960    -3.5420     0.5260 O.3   1 <1>  -0.4300 
 17 C       -4.7940    -0.4370    -0.7160 C.3   1 <1>   0.1400 
 18 C       -3.1020     0.6530     0.6580 C.3   1 <1>   0.1400 
 19 S        5.2850     1.5910    -0.3480 S.3   1 <1>  -0.0800 
 20 C        4.3010     3.9310    -0.5740 C.2   1 <1>  -0.1500 
 21 C        3.5340    -4.3070     0.8770 C.3   1 <1>   0.0400 
 22 C       -5.4510     0.6590     0.1170 C.3   1 <1>  -0.1600 
 23 C       -4.4760     0.9100     1.2650 C.3   1 <1>  -0.1600 
 24 C        6.3940     2.9420    -0.4320 C.2   1 <1>  -0.1100 
 25 C        5.7160     4.0990    -0.5500 C.2   1 <1>  -0.1500 
 26 H        3.3010     0.2420    -0.1690 H     1 <1>   0.3700 
 27 H       -1.4440    -3.6920    -0.1190 H     1 <1>   0.0800 
 28 H       -0.1230    -3.7760     0.9990 H     1 <1>   0.0800 
 29 H        0.1340    -4.1240    -0.7000 H     1 <1>   0.0800 
 30 H       -5.1430    -1.4080    -0.4080 H     1 <1>   0.0800 
 31 H       -4.9800    -0.3040    -1.7680 H     1 <1>   0.0800 
 32 H       -2.7120     1.5610     0.2300 H     1 <1>   0.0800 
 33 H       -2.4110     0.2680     1.3900 H     1 <1>   0.0800 
 34 H        3.6430     4.7790    -0.6650 H     1 <1>   0.1500 
 35 H        3.2200    -5.3190     1.0600 H     1 <1>   0.0800 
 36 H        3.9760    -3.8900     1.7650 H     1 <1>   0.0800 
 37 H        4.2380    -4.2800     0.0630 H     1 <1>   0.0800 
 38 H       -6.4260     0.3670     0.4620 H     1 <1>   0.0800 
 39 H       -5.5430     1.5460    -0.4850 H     1 <1>   0.0800 
 40 H       -4.5580     1.9050     1.6640 H     1 <1>   0.0800 
 41 H       -4.6490     0.1990     2.0540 H     1 <1>   0.0800 
 42 H        7.4470     2.7280    -0.3850 H     1 <1>   0.1500 
 43 H        6.1610     5.0770    -0.6210 H     1 <1>   0.1500 
@<TRIPOS>BOND
  1   1   2  1   
  2   1   3  1   
  3   2   4  1   
  4   2   5  2   
  5   3   6  2   
  6   3   7  1   
  7   4   8  am  
  8   4  26  1   
  9   5   6  1   
 10   5   9  1   
 11   6  10  1   
 12   7  11  2   
 13   7  12  am  
 14   8  13  2   
 15   8  14  1   
 16   9  15  2   
 17   9  16  1   
 18  10  27  1   
 19  10  28  1   
 20  10  29  1   
 21  12  17  1   
 22  12  18  1   
 23  14  19  1   
 24  14  20  2   
 25  16  21  1   
 26  17  22  1   
 27  17  30  1   
 28  17  31  1   
 29  18  23  1   
 30  18  32  1   
 31  18  33  1   
 32  19  24  1   
 33  20  25  1   
 34  20  34  1   
 35  21  35  1   
 36  21  36  1   
 37  21  37  1   
 38  22  23  1   
 39  22  38  1   
 40  22  39  1   
 41  23  40  1   
 42  23  41  1   
 43  24  25  2   
 44  24  42  1   
 45  25  43  1   
@<TRIPOS>SUBSTRUCTURE
  1 ****   2 GROUP 4 **** **** 0

# MOE 2024.06 (io_trps.svl 2023.06)
