@<TRIPOS>MOLECULE
NONAME
30 30 1 0 0 
SMALL
USER_CHARGES


@<TRIPOS>ATOM
  1 CL      -1.9550    -0.8920     3.2260 Cl    1 <1>  -0.1770 
  2 C       -2.3650    -1.2590     1.5700 C.ar  1 <1>   0.1770 
  3 C       -3.5480    -0.7770     1.0430 C.ar  1 <1>  -0.1500 
  4 C       -1.4990    -2.0240     0.8120 C.ar  1 <1>  -0.1500 
  5 C       -3.8790    -1.0630    -0.2740 C.ar  1 <1>  -0.1440 
  6 C       -1.8290    -2.3130    -0.5010 C.ar  1 <1>  -0.1500 
  7 C       -3.0140    -1.8340    -1.0390 C.ar  1 <1>  -0.1500 
  8 C       -5.1740    -0.5320    -0.8670 C.3   1 <1>   0.2140 
  9 S       -6.5650    -1.3030     0.0070 S.3   1 <1>  -0.4600 
 10 C       -8.0210    -0.5180    -0.7340 C.3   1 <1>   0.0700 
 11 C       -9.2550    -0.9650     0.0490 C.3   1 <1>   0.1960 
 12 N      -10.4550    -0.3890    -0.5490 N.am  1 <1>  -0.9140 
 13 S      -11.8570    -0.8610     0.2320 S.o2  1 <1>   1.3330 
 14 O      -11.5790    -0.9740     1.6430 O.2   1 <1>  -0.6500 
 15 O      -12.3160    -1.9900    -0.5360 O.2   1 <1>  -0.6500 
 16 C      -12.9380     0.5260    -0.0380 C.3   1 <1>  -0.1350 
 17 H       -4.2030    -0.1900     1.6620 H     1 <1>   0.1500 
 18 H       -0.5850    -2.3860     1.2460 H     1 <1>   0.1500 
 19 H       -1.1650    -2.9100    -1.1040 H     1 <1>   0.1500 
 20 H       -3.2580    -2.0700    -2.0600 H     1 <1>   0.1500 
 21 H       -5.2700    -0.7810    -1.9090 H     1 <1>   0.0800 
 22 H       -5.2550     0.5320    -0.7300 H     1 <1>   0.0800 
 23 H       -8.0660    -0.8350    -1.7600 H     1 <1>   0.0800 
 24 H       -7.8860     0.5470    -0.6640 H     1 <1>   0.0800 
 25 H       -9.1590    -0.6320     1.0700 H     1 <1>   0.0800 
 26 H       -9.3220    -2.0410     0.0450 H     1 <1>   0.0800 
 27 H      -10.5610    -0.8170    -1.4690 H     1 <1>   0.4200 
 28 H      -13.0660     0.6990    -1.0880 H     1 <1>   0.0800 
 29 H      -12.5250     1.4070     0.4120 H     1 <1>   0.0800 
 30 H      -13.8970     0.3330     0.4000 H     1 <1>   0.0800 
@<TRIPOS>BOND
  1   1   2  1   
  2   2   3  ar  
  3   2   4  ar  
  4   3   5  ar  
  5   3  17  1   
  6   4   6  ar  
  7   4  18  1   
  8   5   7  ar  
  9   5   8  1   
 10   6   7  ar  
 11   6  19  1   
 12   7  20  1   
 13   8   9  1   
 14   8  21  1   
 15   8  22  1   
 16   9  10  1   
 17  10  11  1   
 18  10  23  1   
 19  10  24  1   
 20  11  12  1   
 21  11  25  1   
 22  11  26  1   
 23  12  13  am  
 24  12  27  1   
 25  13  14  2   
 26  13  15  2   
 27  13  16  1   
 28  16  28  1   
 29  16  29  1   
 30  16  30  1   
@<TRIPOS>SUBSTRUCTURE
  1 ****   9 GROUP 4 **** **** 0

# MOE 2024.06 (io_trps.svl 2023.06)
