@<TRIPOS>MOLECULE
NONAME
40 40 1 0 0 
SMALL
USER_CHARGES


@<TRIPOS>ATOM
  1 O        0.5970    -1.4610     0.5900 O.2   1 <1>  -0.5700 
  2 C        0.1320    -1.7090    -0.4910 C.2   1 <1>   0.6590 
  3 O       -1.0600    -2.2650    -0.6490 O.3   1 <1>  -0.4300 
  4 C        0.8780    -1.3970    -1.7610 C.3   1 <1>  -0.1790 
  5 C       -1.8820    -2.6210     0.4440 C.3   1 <1>   0.2000 
  6 C       -2.7840    -3.7640    -0.0260 C.3   1 <1>  -0.1600 
  7 C       -2.6570    -1.3860     0.9200 C.3   1 <1>  -0.1600 
  8 C       -4.1770    -3.7830     0.6250 C.3   1 <1>   0.3000 
  9 C       -4.0470    -1.2060     0.2860 C.3   1 <1>   0.3000 
 10 N       -4.8690    -2.4620     0.4250 N.am  1 <1>  -0.6600 
 11 C       -4.0780    -4.1260     2.1210 C.3   1 <1>  -0.2400 
 12 C       -4.9760    -4.8980    -0.0720 C.3   1 <1>  -0.2400 
 13 C       -3.9120    -0.8220    -1.1940 C.3   1 <1>  -0.2400 
 14 C       -4.7180    -0.0440     1.0400 C.3   1 <1>  -0.2400 
 15 C       -6.2370    -2.4090     0.5060 C.2   1 <1>   0.5690 
 16 O       -6.8510    -2.8120     1.4650 O.2   1 <1>  -0.5700 
 17 C       -7.0480    -1.8960    -0.6620 C.3   1 <1>  -0.1790 
 18 H        1.0370    -2.3030    -2.3140 H     1 <1>   0.0800 
 19 H        1.8280    -0.9530    -1.5260 H     1 <1>   0.0800 
 20 H        0.3030    -0.7120    -2.3550 H     1 <1>   0.0800 
 21 H       -1.2480    -2.9710     1.2420 H     1 <1>   0.0800 
 22 H       -2.2830    -4.6930     0.1740 H     1 <1>   0.0800 
 23 H       -2.9140    -3.7010    -1.0910 H     1 <1>   0.0800 
 24 H       -2.0600    -0.5050     0.7670 H     1 <1>   0.0800 
 25 H       -2.7840    -1.4650     1.9820 H     1 <1>   0.0800 
 26 H       -3.5640    -3.3700     2.6770 H     1 <1>   0.0800 
 27 H       -3.5540    -5.0540     2.2540 H     1 <1>   0.0800 
 28 H       -5.0580    -4.2440     2.5460 H     1 <1>   0.0800 
 29 H       -5.1380    -4.6550    -1.1070 H     1 <1>   0.0800 
 30 H       -5.9270    -5.0540     0.4050 H     1 <1>   0.0800 
 31 H       -4.4390    -5.8280    -0.0240 H     1 <1>   0.0800 
 32 H       -3.5380    -1.6410    -1.7780 H     1 <1>   0.0800 
 33 H       -3.2290     0.0000    -1.2990 H     1 <1>   0.0800 
 34 H       -4.8540    -0.5100    -1.6020 H     1 <1>   0.0800 
 35 H       -4.9180    -0.3270     2.0580 H     1 <1>   0.0800 
 36 H       -5.6370     0.2580     0.5770 H     1 <1>   0.0800 
 37 H       -4.0720     0.8150     1.0510 H     1 <1>   0.0800 
 38 H       -7.2070    -0.8410    -0.5760 H     1 <1>   0.0800 
 39 H       -8.0040    -2.3860    -0.6690 H     1 <1>   0.0800 
 40 H       -6.5470    -2.1200    -1.5840 H     1 <1>   0.0800 
@<TRIPOS>BOND
  1   1   2  2   
  2   2   3  1   
  3   2   4  1   
  4   3   5  1   
  5   4  18  1   
  6   4  19  1   
  7   4  20  1   
  8   5   6  1   
  9   5   7  1   
 10   5  21  1   
 11   6   8  1   
 12   6  22  1   
 13   6  23  1   
 14   7   9  1   
 15   7  24  1   
 16   7  25  1   
 17   8  10  1   
 18   8  11  1   
 19   8  12  1   
 20   9  10  1   
 21   9  13  1   
 22   9  14  1   
 23  10  15  am  
 24  11  26  1   
 25  11  27  1   
 26  11  28  1   
 27  12  29  1   
 28  12  30  1   
 29  12  31  1   
 30  13  32  1   
 31  13  33  1   
 32  13  34  1   
 33  14  35  1   
 34  14  36  1   
 35  14  37  1   
 36  15  16  2   
 37  15  17  1   
 38  17  38  1   
 39  17  39  1   
 40  17  40  1   
@<TRIPOS>SUBSTRUCTURE
  1 ****   9 GROUP 4 **** **** 0

# MOE 2024.06 (io_trps.svl 2023.06)
