@<TRIPOS>MOLECULE
NONAME
37 38 1 0 0 
SMALL
USER_CHARGES


@<TRIPOS>ATOM
  1 BR       0.3150     0.1590    -1.7860 Br    1 <1>  -0.1110 
  2 C        2.0860     0.2090    -1.0280 C.ar  1 <1>   0.1110 
  3 C        2.2410    -0.0360     0.3230 C.ar  1 <1>  -0.1500 
  4 C        3.1580     0.4900    -1.8520 C.ar  1 <1>  -0.1500 
  5 C        3.5160     0.0020     0.8590 C.ar  1 <1>  -0.1500 
  6 C        4.4260     0.5260    -1.3000 C.ar  1 <1>  -0.1500 
  7 C        4.6240     0.2800     0.0600 C.ar  1 <1>   0.1170 
  8 N        5.8890     0.3160     0.6650 N.am  1 <1>  -0.5470 
  9 C        7.1410     0.1850     0.1500 C.2   1 <1>   0.6900 
 10 O        7.3630    -0.0530    -1.0210 O.2   1 <1>  -0.5700 
 11 N        8.1980     0.3690     0.9910 N.am  1 <1>  -0.6600 
 12 C        9.3690    -0.5420     0.8240 C.3   1 <1>   0.1400 
 13 C        8.5940     1.7780     1.2620 C.3   1 <1>   0.1400 
 14 C       10.3030    -0.0260    -0.2900 C.3   1 <1>   0.3430 
 15 C        9.5250     2.2950     0.1440 C.3   1 <1>   0.3430 
 16 N       10.7280     1.4040    -0.0630 N.4   1 <1>  -0.9590 
 17 C       11.5670     1.8660    -1.1990 C.3   1 <1>   0.3430 
 18 C       12.3010     3.1450    -0.8120 C.3   1 <1>  -0.2400 
 19 H        1.3830    -0.2520     0.9340 H     1 <1>   0.1500 
 20 H        3.0020     0.6760    -2.9000 H     1 <1>   0.1500 
 21 H        3.6480    -0.1900     1.9080 H     1 <1>   0.1500 
 22 H        5.2620     0.7470    -1.9370 H     1 <1>   0.1500 
 23 H        5.8840     0.3220     1.6810 H     1 <1>   0.3700 
 24 H        9.0190    -1.5270     0.5620 H     1 <1>   0.0800 
 25 H        9.9040    -0.6190     1.7540 H     1 <1>   0.0800 
 26 H        9.0880     1.8390     2.2160 H     1 <1>   0.0800 
 27 H        7.7150     2.4000     1.3050 H     1 <1>   0.0800 
 28 H        9.7750    -0.1000    -1.2280 H     1 <1>   0.0800 
 29 H       11.1690    -0.6640    -0.3490 H     1 <1>   0.0800 
 30 H        9.8440     3.2940     0.3880 H     1 <1>   0.0800 
 31 H        8.9560     2.3440    -0.7700 H     1 <1>   0.0800 
 32 H       11.3010     1.4320     0.7900 H     1 <1>   0.4500 
 33 H       10.9540     2.0360    -2.0710 H     1 <1>   0.0800 
 34 H       12.2960     1.1080    -1.4440 H     1 <1>   0.0800 
 35 H       11.6190     3.9600    -0.6530 H     1 <1>   0.0800 
 36 H       12.9600     3.4260    -1.6160 H     1 <1>   0.0800 
 37 H       12.9010     2.9930     0.0670 H     1 <1>   0.0800 
@<TRIPOS>BOND
  1   1   2  1   
  2   2   3  ar  
  3   2   4  ar  
  4   3   5  ar  
  5   3  19  1   
  6   4   6  ar  
  7   4  20  1   
  8   5   7  ar  
  9   5  21  1   
 10   6   7  ar  
 11   6  22  1   
 12   7   8  1   
 13   8   9  am  
 14   8  23  1   
 15   9  10  2   
 16   9  11  am  
 17  11  12  1   
 18  11  13  1   
 19  12  14  1   
 20  12  24  1   
 21  12  25  1   
 22  13  15  1   
 23  13  26  1   
 24  13  27  1   
 25  14  16  1   
 26  14  28  1   
 27  14  29  1   
 28  15  16  1   
 29  15  30  1   
 30  15  31  1   
 31  16  17  1   
 32  16  32  1   
 33  17  18  1   
 34  17  33  1   
 35  17  34  1   
 36  18  35  1   
 37  18  36  1   
 38  18  37  1   
@<TRIPOS>SUBSTRUCTURE
  1 ****   9 GROUP 4 **** **** 0

# MOE 2024.06 (io_trps.svl 2023.06)
