@<TRIPOS>MOLECULE
NONAME
46 47 1 0 0 
SMALL
USER_CHARGES


@<TRIPOS>ATOM
  1 O        0.1680    -0.6860    -0.8250 O.2   1 <1>  -0.5700 
  2 C       -0.3390    -1.4170     0.0000 C.2   1 <1>   0.6340 
  3 O        0.2100    -1.4970     1.2160 O.3   1 <1>  -0.4300 
  4 C       -1.5250    -2.2110    -0.2680 C.ar  1 <1>   0.0860 
  5 C        1.3650    -0.7580     1.5620 C.3   1 <1>   0.0400 
  6 C       -2.1130    -3.0250     0.7030 C.ar  1 <1>  -0.1500 
  7 C       -2.1320    -2.1930    -1.5250 C.ar  1 <1>  -0.1500 
  8 C       -3.2470    -3.7720     0.4380 C.ar  1 <1>  -0.1500 
  9 C       -3.2660    -2.9360    -1.8000 C.ar  1 <1>  -0.1500 
 10 C       -3.8370    -3.7280    -0.8160 C.ar  1 <1>  -0.1440 
 11 C       -5.0900    -4.5320    -1.1090 C.3   1 <1>   0.4860 
 12 N       -6.2480    -3.8810    -0.4350 N.4   1 <1>  -0.9590 
 13 C       -7.4580    -4.7480    -0.4770 C.3   1 <1>   0.3430 
 14 C       -6.5110    -2.5160    -0.9790 C.3   1 <1>   0.3430 
 15 C       -8.5660    -4.1170     0.3630 C.3   1 <1>  -0.1600 
 16 C       -7.6010    -1.8380    -0.1530 C.3   1 <1>  -0.1600 
 17 C       -8.8900    -2.6800    -0.0900 C.3   1 <1>  -0.0190 
 18 C       -9.9180    -2.0320     0.8340 C.2   1 <1>   0.6590 
 19 O       -9.7110    -1.9200     2.0140 O.2   1 <1>  -0.5700 
 20 O      -11.0320    -1.6090     0.2570 O.3   1 <1>  -0.4300 
 21 C      -12.0570    -0.9930     1.0030 C.3   1 <1>   0.1200 
 22 C      -13.1860    -0.6290     0.0450 C.3   1 <1>  -0.2400 
 23 H        1.6220    -0.9820     2.5820 H     1 <1>   0.0800 
 24 H        1.1530     0.2910     1.4550 H     1 <1>   0.0800 
 25 H        2.1700    -1.0430     0.9060 H     1 <1>   0.0800 
 26 H       -1.6700    -3.0740     1.6840 H     1 <1>   0.1500 
 27 H       -1.6980    -1.5810    -2.3010 H     1 <1>   0.1500 
 28 H       -3.6540    -4.3880     1.2230 H     1 <1>   0.1500 
 29 H       -3.6890    -2.8870    -2.7900 H     1 <1>   0.1500 
 30 H       -4.9600    -5.5350    -0.7350 H     1 <1>   0.0800 
 31 H       -5.2560    -4.5830    -2.1730 H     1 <1>   0.0800 
 32 H       -5.9780    -3.7550     0.5490 H     1 <1>   0.4500 
 33 H       -7.2280    -5.7270    -0.0850 H     1 <1>   0.0800 
 34 H       -7.7950    -4.8590    -1.4950 H     1 <1>   0.0800 
 35 H       -6.8240    -2.5840    -2.0090 H     1 <1>   0.0800 
 36 H       -5.6120    -1.9190    -0.9370 H     1 <1>   0.0800 
 37 H       -8.2700    -4.1200     1.3990 H     1 <1>   0.0800 
 38 H       -9.4540    -4.7220     0.2850 H     1 <1>   0.0800 
 39 H       -7.8240    -0.8780    -0.5860 H     1 <1>   0.0800 
 40 H       -7.2290    -1.6590     0.8420 H     1 <1>   0.0800 
 41 H       -9.3190    -2.7220    -1.0760 H     1 <1>   0.0800 
 42 H      -11.6540    -0.1140     1.4770 H     1 <1>   0.0800 
 43 H      -12.3970    -1.6850     1.7560 H     1 <1>   0.0800 
 44 H      -12.8320     0.0550    -0.7050 H     1 <1>   0.0800 
 45 H      -13.9840    -0.1560     0.5890 H     1 <1>   0.0800 
 46 H      -13.5740    -1.5140    -0.4270 H     1 <1>   0.0800 
@<TRIPOS>BOND
  1   1   2  2   
  2   2   3  1   
  3   2   4  1   
  4   3   5  1   
  5   4   6  ar  
  6   4   7  ar  
  7   5  23  1   
  8   5  24  1   
  9   5  25  1   
 10   6   8  ar  
 11   6  26  1   
 12   7   9  ar  
 13   7  27  1   
 14   8  10  ar  
 15   8  28  1   
 16   9  10  ar  
 17   9  29  1   
 18  10  11  1   
 19  11  12  1   
 20  11  30  1   
 21  11  31  1   
 22  12  13  1   
 23  12  14  1   
 24  12  32  1   
 25  13  15  1   
 26  13  33  1   
 27  13  34  1   
 28  14  16  1   
 29  14  35  1   
 30  14  36  1   
 31  15  17  1   
 32  15  37  1   
 33  15  38  1   
 34  16  17  1   
 35  16  39  1   
 36  16  40  1   
 37  17  18  1   
 38  17  41  1   
 39  18  19  2   
 40  18  20  1   
 41  20  21  1   
 42  21  22  1   
 43  21  42  1   
 44  21  43  1   
 45  22  44  1   
 46  22  45  1   
 47  22  46  1   
@<TRIPOS>SUBSTRUCTURE
  1 ****  14 GROUP 4 **** **** 0

# MOE 2024.06 (io_trps.svl 2023.06)
