@<TRIPOS>MOLECULE
NONAME
30 30 1 0 0 
SMALL
USER_CHARGES


@<TRIPOS>ATOM
  1 O        0.0690     1.0130    -1.4470 O.2   1 <1>  -0.5700 
  2 C        0.0000     1.6970    -0.4560 C.2   1 <1>   0.5690 
  3 N        1.0690     1.9330     0.3690 N.am  1 <1>  -0.5470 
  4 C       -1.3230     2.3510    -0.0870 C.3   1 <1>   0.0420 
  5 C        2.3870     1.4470     0.3390 C.ar  1 <1>   0.1170 
  6 C       -2.4840     1.4310    -0.4680 C.2   1 <1>   0.4480 
  7 C       -1.4050     3.7740    -0.6920 C.3   1 <1>  -0.1600 
  8 C        3.3660     2.1440     1.0380 C.ar  1 <1>  -0.1500 
  9 C        2.7600     0.2910    -0.3420 C.ar  1 <1>  -0.1500 
 10 O       -3.3650     1.7630    -1.2040 O.2   1 <1>  -0.5700 
 11 C       -2.5240     0.0580     0.1760 C.3   1 <1>  -0.1790 
 12 C       -2.5180     4.6310    -0.0700 C.3   1 <1>  -0.2400 
 13 C        4.6780     1.7050     1.0580 C.ar  1 <1>  -0.1500 
 14 C        4.0710    -0.1500    -0.3260 C.ar  1 <1>  -0.1500 
 15 C        5.0330     0.5560     0.3750 C.ar  1 <1>  -0.1500 
 16 H        0.9070     2.6220     1.1000 H     1 <1>   0.3700 
 17 H       -1.3470     2.4480     0.9820 H     1 <1>   0.0800 
 18 H       -1.5630     3.6960    -1.7560 H     1 <1>   0.0800 
 19 H       -0.4670     4.2810    -0.5450 H     1 <1>   0.0800 
 20 H        3.1080     3.0400     1.5720 H     1 <1>   0.1500 
 21 H        2.0300    -0.2760    -0.8880 H     1 <1>   0.1500 
 22 H       -1.7250    -0.5530    -0.2030 H     1 <1>   0.0800 
 23 H       -3.4570    -0.4210    -0.0600 H     1 <1>   0.0800 
 24 H       -2.4380     0.1420     1.2420 H     1 <1>   0.0800 
 25 H       -3.4830     4.1880    -0.2430 H     1 <1>   0.0800 
 26 H       -2.5160     5.6090    -0.5170 H     1 <1>   0.0800 
 27 H       -2.3710     4.7410     0.9900 H     1 <1>   0.0800 
 28 H        5.4250     2.2560     1.6030 H     1 <1>   0.1500 
 29 H        4.3420    -1.0450    -0.8600 H     1 <1>   0.1500 
 30 H        6.0530     0.2120     0.3860 H     1 <1>   0.1500 
@<TRIPOS>BOND
  1   1   2  2   
  2   2   3  am  
  3   2   4  1   
  4   3   5  1   
  5   3  16  1   
  6   4   6  1   
  7   4   7  1   
  8   4  17  1   
  9   5   8  ar  
 10   5   9  ar  
 11   6  10  2   
 12   6  11  1   
 13   7  12  1   
 14   7  18  1   
 15   7  19  1   
 16   8  13  ar  
 17   8  20  1   
 18   9  14  ar  
 19   9  21  1   
 20  11  22  1   
 21  11  23  1   
 22  11  24  1   
 23  12  25  1   
 24  12  26  1   
 25  12  27  1   
 26  13  15  ar  
 27  13  28  1   
 28  14  15  ar  
 29  14  29  1   
 30  15  30  1   
@<TRIPOS>SUBSTRUCTURE
  1 ****   3 GROUP 4 **** **** 0

# MOE 2024.06 (io_trps.svl 2023.06)
