@<TRIPOS>MOLECULE
NONAME
46 49 1 0 0 
SMALL
USER_CHARGES


@<TRIPOS>ATOM
  1 S        6.6900     5.1380     0.2520 S.3   1 <1>  -0.0800 
  2 C        5.8940     3.6130     0.5010 C.2   1 <1>  -0.1120 
  3 C        5.1980     5.7110    -0.5150 C.2   1 <1>   0.1980 
  4 N        6.2210     2.4080     1.0280 N.pl3 1 <1>   0.0480 
  5 C        4.6490     3.6570     0.0010 C.2   1 <1>   0.2270 
  6 N        4.2540     4.8550    -0.5770 N.2   1 <1>  -0.5650 
  7 C        5.1890     7.1370    -1.0150 C.3   1 <1>  -0.0600 
  8 C        5.1050     1.6110     0.8350 C.ar  1 <1>  -0.1520 
  9 C        7.5840     1.9560     1.3210 C.3   1 <1>   0.0960 
 10 C        4.1070     2.3650     0.2000 C.ar  1 <1>   0.0000 
 11 C        4.8720     0.2720     1.1580 C.ar  1 <1>  -0.1500 
 12 C        8.1960     1.4670     0.0050 C.3   1 <1>   0.3430 
 13 C        2.8810     1.7760    -0.1150 C.ar  1 <1>  -0.1500 
 14 C        3.6570    -0.2920     0.8370 C.ar  1 <1>  -0.1500 
 15 N        9.6170     1.0110     0.1480 N.4   1 <1>  -0.9590 
 16 C        2.6580     0.4540     0.2010 C.ar  1 <1>  -0.1430 
 17 C       10.5510     2.1420     0.4470 C.3   1 <1>   0.3430 
 18 C       10.0410     0.2830    -1.0870 C.3   1 <1>   0.3430 
 19 C        1.3350    -0.2130    -0.1300 C.3   1 <1>  -0.0970 
 20 C       11.9610     1.5980     0.6830 C.3   1 <1>  -0.1600 
 21 C       11.4390    -0.3050    -0.8860 C.3   1 <1>  -0.1600 
 22 C       12.4610     0.7760    -0.5120 C.3   1 <1>  -0.1600 
 23 H        5.9570     7.2710    -1.7540 H     1 <1>   0.0800 
 24 H        5.3590     7.8110    -0.1960 H     1 <1>   0.0800 
 25 H        4.2360     7.3590    -1.4570 H     1 <1>   0.0800 
 26 H        7.5380     1.1640     2.0450 H     1 <1>   0.0800 
 27 H        8.1340     2.7870     1.7240 H     1 <1>   0.0800 
 28 H        5.6210    -0.3140     1.6570 H     1 <1>   0.1500 
 29 H        8.1460     2.2640    -0.7210 H     1 <1>   0.0800 
 30 H        7.5940     0.6490    -0.3590 H     1 <1>   0.0800 
 31 H        2.1350     2.3790    -0.6020 H     1 <1>   0.1500 
 32 H        3.4610    -1.3220     1.0810 H     1 <1>   0.1500 
 33 H        9.6870     0.3370     0.9220 H     1 <1>   0.4500 
 34 H       10.2270     2.6760     1.3260 H     1 <1>   0.0800 
 35 H       10.5670     2.8320    -0.3820 H     1 <1>   0.0800 
 36 H       10.0540     0.9610    -1.9250 H     1 <1>   0.0800 
 37 H        9.3470    -0.5130    -1.3060 H     1 <1>   0.0800 
 38 H        0.6700     0.4770    -0.6170 H     1 <1>   0.0800 
 39 H        0.8660    -0.5620     0.7730 H     1 <1>   0.0800 
 40 H        1.5000    -1.0500    -0.7840 H     1 <1>   0.0800 
 41 H       11.9690     0.9940     1.5740 H     1 <1>   0.0800 
 42 H       12.6330     2.4230     0.8500 H     1 <1>   0.0800 
 43 H       11.7510    -0.7870    -1.7970 H     1 <1>   0.0800 
 44 H       11.4040    -1.0600    -0.1200 H     1 <1>   0.0800 
 45 H       13.4070     0.3190    -0.2730 H     1 <1>   0.0800 
 46 H       12.6190     1.4280    -1.3550 H     1 <1>   0.0800 
@<TRIPOS>BOND
  1   1   2  1   
  2   1   3  1   
  3   2   4  1   
  4   2   5  2   
  5   3   6  2   
  6   3   7  1   
  7   4   8  1   
  8   4   9  1   
  9   5   6  1   
 10   5  10  1   
 11   7  23  1   
 12   7  24  1   
 13   7  25  1   
 14   8  10  ar  
 15   8  11  ar  
 16   9  12  1   
 17   9  26  1   
 18   9  27  1   
 19  10  13  ar  
 20  11  14  ar  
 21  11  28  1   
 22  12  15  1   
 23  12  29  1   
 24  12  30  1   
 25  13  16  ar  
 26  13  31  1   
 27  14  16  ar  
 28  14  32  1   
 29  15  17  1   
 30  15  18  1   
 31  15  33  1   
 32  16  19  1   
 33  17  20  1   
 34  17  34  1   
 35  17  35  1   
 36  18  21  1   
 37  18  36  1   
 38  18  37  1   
 39  19  38  1   
 40  19  39  1   
 41  19  40  1   
 42  20  22  1   
 43  20  41  1   
 44  20  42  1   
 45  21  22  1   
 46  21  43  1   
 47  21  44  1   
 48  22  45  1   
 49  22  46  1   
@<TRIPOS>SUBSTRUCTURE
  1 ****   4 GROUP 4 **** **** 0

# MOE 2024.06 (io_trps.svl 2023.06)
