@<TRIPOS>MOLECULE
NONAME
34 35 1 0 0 
SMALL
USER_CHARGES


@<TRIPOS>ATOM
  1 CL      -0.3760    -3.6410     1.0520 Cl    1 <1>  -0.1770 
  2 C        1.0350    -2.7860     0.4950 C.ar  1 <1>   0.1770 
  3 C        2.2080    -2.8610     1.2200 C.ar  1 <1>  -0.1500 
  4 C        0.9690    -2.0410    -0.6650 C.ar  1 <1>  -0.1500 
  5 C        3.3290    -2.1810     0.7760 C.ar  1 <1>  -0.1500 
  6 C        2.0950    -1.3640    -1.0990 C.ar  1 <1>  -0.1500 
  7 C        3.3050    -1.4120    -0.3960 C.ar  1 <1>   0.0860 
  8 C        4.4570    -0.6830    -0.8940 C.2   1 <1>   0.4230 
  9 O        4.4370    -0.0430    -1.9130 O.2   1 <1>  -0.5700 
 10 C        5.7750    -0.6950    -0.1320 C.3   1 <1>  -0.0990 
 11 C        6.7970     0.2060    -0.8360 C.3   1 <1>   0.3430 
 12 N        8.0920     0.2840    -0.0950 N.4   1 <1>  -0.9590 
 13 C        8.9300     1.4030    -0.6570 C.3   1 <1>   0.3430 
 14 C        8.8700    -1.0060    -0.1440 C.3   1 <1>   0.3430 
 15 C       10.3240     1.4540    -0.0020 C.3   1 <1>   0.1200 
 16 C       10.2660    -0.8520     0.4890 C.3   1 <1>   0.1200 
 17 O       10.9530     0.2100    -0.1060 O.3   1 <1>  -0.5600 
 18 H        2.2330    -3.4500     2.1210 H     1 <1>   0.1500 
 19 H        0.0470    -1.9940    -1.2170 H     1 <1>   0.1500 
 20 H        4.2250    -2.2620     1.3640 H     1 <1>   0.1500 
 21 H        2.0350    -0.7850    -2.0060 H     1 <1>   0.1500 
 22 H        6.1340    -1.7060    -0.0950 H     1 <1>   0.0800 
 23 H        5.6000    -0.3300     0.8640 H     1 <1>   0.0800 
 24 H        6.3700     1.1930    -0.9240 H     1 <1>   0.0800 
 25 H        6.9650    -0.1600    -1.8370 H     1 <1>   0.0800 
 26 H        7.9050     0.5130     0.8900 H     1 <1>   0.4500 
 27 H        8.4330     2.3480    -0.5090 H     1 <1>   0.0800 
 28 H        9.0610     1.2620    -1.7180 H     1 <1>   0.0800 
 29 H        8.9970    -1.3150    -1.1690 H     1 <1>   0.0800 
 30 H        8.3330    -1.7840     0.3720 H     1 <1>   0.0800 
 31 H       10.2590     1.7260     1.0370 H     1 <1>   0.0800 
 32 H       10.9440     2.1760    -0.5060 H     1 <1>   0.0800 
 33 H       10.8460    -1.7450     0.3300 H     1 <1>   0.0800 
 34 H       10.1990    -0.6720     1.5490 H     1 <1>   0.0800 
@<TRIPOS>BOND
  1   1   2  1   
  2   2   3  ar  
  3   2   4  ar  
  4   3   5  ar  
  5   3  18  1   
  6   4   6  ar  
  7   4  19  1   
  8   5   7  ar  
  9   5  20  1   
 10   6   7  ar  
 11   6  21  1   
 12   7   8  1   
 13   8   9  2   
 14   8  10  1   
 15  10  11  1   
 16  10  22  1   
 17  10  23  1   
 18  11  12  1   
 19  11  24  1   
 20  11  25  1   
 21  12  13  1   
 22  12  14  1   
 23  12  26  1   
 24  13  15  1   
 25  13  27  1   
 26  13  28  1   
 27  14  16  1   
 28  14  29  1   
 29  14  30  1   
 30  15  17  1   
 31  15  31  1   
 32  15  32  1   
 33  16  17  1   
 34  16  33  1   
 35  16  34  1   
@<TRIPOS>SUBSTRUCTURE
  1 ****  10 GROUP 4 **** **** 0

# MOE 2024.06 (io_trps.svl 2023.06)
