@<TRIPOS>MOLECULE
Structure600
26 27 1 0 0 
SMALL
USER_CHARGES


@<TRIPOS>ATOM
  1 CL       0.2840    -0.3800     2.0120 Cl    1 <1>  -0.1770 
  2 C        1.0840    -1.6220     1.0940 C.ar  1 <1>   0.4870 
  3 N        0.3250    -2.5720     0.5950 N.ar  1 <1>  -0.6200 
  4 C        2.4360    -1.5590     0.9330 C.ar  1 <1>  -0.1500 
  5 C        0.9980    -3.4820    -0.0830 C.ar  1 <1>   0.4700 
  6 C        3.0240    -2.5640     0.1970 C.ar  1 <1>   0.4100 
  7 N        2.2960    -3.5400    -0.3130 N.ar  1 <1>  -0.6200 
  8 N        4.3830    -2.5820    -0.0300 N.pl3 1 <1>  -0.8380 
  9 C        5.0510    -1.4040    -0.6430 C.3   1 <1>   0.2090 
 10 C        5.0880    -3.8760    -0.2420 C.3   1 <1>   0.2090 
 11 C        6.4640    -1.2760    -0.0740 C.3   1 <1>  -0.1600 
 12 C        6.5070    -3.7770     0.3180 C.3   1 <1>  -0.1600 
 13 C        7.2360    -2.5780    -0.2870 C.3   1 <1>   0.2000 
 14 O        8.4650    -2.4600     0.3240 O.3   1 <1>  -0.6800 
 15 H        3.0180    -0.7730     1.3650 H     1 <1>   0.1500 
 16 H        0.4110    -4.2810    -0.5060 H     1 <1>   0.1500 
 17 H        4.4940    -0.5050    -0.4460 H     1 <1>   0.0800 
 18 H        5.0960    -1.5430    -1.7110 H     1 <1>   0.0800 
 19 H        5.1140    -4.0980    -1.2960 H     1 <1>   0.0800 
 20 H        4.5590    -4.6710     0.2580 H     1 <1>   0.0800 
 21 H        6.3910    -1.0500     0.9740 H     1 <1>   0.0800 
 22 H        6.9730    -0.4700    -0.5700 H     1 <1>   0.0800 
 23 H        7.0410    -4.6800     0.0870 H     1 <1>   0.0800 
 24 H        6.4420    -3.6760     1.3860 H     1 <1>   0.0800 
 25 H        7.4080    -2.7400    -1.3380 H     1 <1>   0.0800 
 26 H        8.3460    -2.3370     1.2840 H     1 <1>   0.4000 
@<TRIPOS>BOND
  1   1   2  1   
  2   2   3  ar  
  3   2   4  ar  
  4   3   5  ar  
  5   4   6  ar  
  6   4  15  1   
  7   5   7  ar  
  8   5  16  1   
  9   6   7  ar  
 10   6   8  1   
 11   8   9  1   
 12   8  10  1   
 13   9  11  1   
 14   9  17  1   
 15   9  18  1   
 16  10  12  1   
 17  10  19  1   
 18  10  20  1   
 19  11  13  1   
 20  11  21  1   
 21  11  22  1   
 22  12  13  1   
 23  12  23  1   
 24  12  24  1   
 25  13  14  1   
 26  13  25  1   
 27  14  26  1   
@<TRIPOS>SUBSTRUCTURE
  1 ****   8 GROUP 4 **** **** 0

# MOE 2024.06 (io_trps.svl 2023.06)
