@<TRIPOS>MOLECULE
NONAME
40 42 1 0 0 
SMALL
USER_CHARGES


@<TRIPOS>ATOM
  1 S       -0.8370     0.5610    -1.0510 S.3   1 <1>  -0.3320 
  2 C        0.8190     1.2470    -0.8740 C.ar  1 <1>   0.1020 
  3 C       -1.4860     0.2900     0.6670 C.3   1 <1>   0.2140 
  4 C        1.4020     1.4730     0.3640 C.ar  1 <1>  -0.1500 
  5 C        1.4970     1.5440    -2.0420 C.ar  1 <1>  -0.1500 
  6 C       -2.8930    -0.2820     0.6100 C.ar  1 <1>   0.4760 
  7 C        2.6800     2.0050     0.4230 C.ar  1 <1>  -0.1500 
  8 C        2.7730     2.0740    -1.9770 C.ar  1 <1>  -0.1500 
  9 N       -3.8790     0.5720     0.5860 N.ar  1 <1>  -0.6200 
 10 N       -3.0100    -1.5810     0.6080 N.ar  1 <1>  -0.6200 
 11 C        3.3630     2.3040    -0.7440 C.ar  1 <1>  -0.1500 
 12 C       -5.0810     0.0320     0.5330 C.ar  1 <1>   0.7200 
 13 C       -4.2490    -1.9880     0.5640 C.ar  1 <1>   0.7200 
 14 N       -5.3190    -1.2570     0.5220 N.ar  1 <1>  -0.6200 
 15 N       -6.1590     0.8880     0.4890 N.pl3 1 <1>  -0.8380 
 16 N       -4.4290    -3.3090     0.5420 N.pl3 1 <1>  -0.9000 
 17 C       -7.5530     0.4520     0.7830 C.3   1 <1>   0.2090 
 18 C       -6.0430     2.3140     0.0700 C.3   1 <1>   0.2090 
 19 C       -8.4270     0.6690    -0.4570 C.3   1 <1>  -0.1600 
 20 C       -6.9130     2.5540    -1.1690 C.3   1 <1>  -0.1600 
 21 C       -8.3700     2.1240    -0.9420 C.3   1 <1>  -0.1600 
 22 H       -1.4850     1.2420     1.1640 H     1 <1>   0.0800 
 23 H       -0.8200    -0.3940     1.1580 H     1 <1>   0.0800 
 24 H        0.8900     1.2480     1.2780 H     1 <1>   0.1500 
 25 H        1.0270     1.3600    -2.9920 H     1 <1>   0.1500 
 26 H        3.1460     2.1860     1.3760 H     1 <1>   0.1500 
 27 H        3.3060     2.3070    -2.8820 H     1 <1>   0.1500 
 28 H        4.3560     2.7170    -0.6940 H     1 <1>   0.1500 
 29 H       -5.3420    -3.6350     0.2380 H     1 <1>   0.4000 
 30 H       -3.6240    -3.8730     0.2860 H     1 <1>   0.4000 
 31 H       -7.9340     1.0370     1.6020 H     1 <1>   0.0800 
 32 H       -7.5910    -0.5830     1.0770 H     1 <1>   0.0800 
 33 H       -5.0250     2.5760    -0.1620 H     1 <1>   0.0800 
 34 H       -6.3720     2.9440     0.8780 H     1 <1>   0.0800 
 35 H       -9.4420     0.4020    -0.2260 H     1 <1>   0.0800 
 36 H       -8.0820     0.0110    -1.2350 H     1 <1>   0.0800 
 37 H       -6.4960     1.9970    -1.9900 H     1 <1>   0.0800 
 38 H       -6.8780     3.5960    -1.4300 H     1 <1>   0.0800 
 39 H       -8.8190     2.7650    -0.2030 H     1 <1>   0.0800 
 40 H       -8.9270     2.2260    -1.8570 H     1 <1>   0.0800 
@<TRIPOS>BOND
  1   1   2  1   
  2   1   3  1   
  3   2   4  ar  
  4   2   5  ar  
  5   3   6  1   
  6   3  22  1   
  7   3  23  1   
  8   4   7  ar  
  9   4  24  1   
 10   5   8  ar  
 11   5  25  1   
 12   6   9  ar  
 13   6  10  ar  
 14   7  11  ar  
 15   7  26  1   
 16   8  11  ar  
 17   8  27  1   
 18   9  12  ar  
 19  10  13  ar  
 20  11  28  1   
 21  12  14  ar  
 22  12  15  1   
 23  13  14  ar  
 24  13  16  1   
 25  15  17  1   
 26  15  18  1   
 27  16  29  1   
 28  16  30  1   
 29  17  19  1   
 30  17  31  1   
 31  17  32  1   
 32  18  20  1   
 33  18  33  1   
 34  18  34  1   
 35  19  21  1   
 36  19  35  1   
 37  19  36  1   
 38  20  21  1   
 39  20  37  1   
 40  20  38  1   
 41  21  39  1   
 42  21  40  1   
@<TRIPOS>SUBSTRUCTURE
  1 ****   6 GROUP 4 **** **** 0

# MOE 2024.06 (io_trps.svl 2023.06)
