@<TRIPOS>MOLECULE
NONAME
48 51 1 0 0 
SMALL
USER_CHARGES


@<TRIPOS>ATOM
  1 S        0.1630    -0.0900     2.5640 S.3   1 <1>  -0.0800 
  2 C       -0.0210    -0.7700     0.9490 C.2   1 <1>   0.3250 
  3 C       -1.2160    -0.9860     3.1130 C.2   1 <1>  -0.1100 
  4 N       -1.0240    -1.5790     0.8750 N.2   1 <1>  -0.5650 
  5 C        0.9090    -0.3900    -0.0930 C.ar  1 <1>   0.0530 
  6 C       -1.6920    -1.7020     2.0840 C.2   1 <1>   0.0460 
  7 C        1.0590    -1.1940    -1.2240 C.ar  1 <1>  -0.1500 
  8 C        1.6790     0.7740    -0.0320 C.ar  1 <1>  -0.1500 
  9 C       -2.9040    -2.6230     2.1050 C.3   1 <1>   0.5240 
 10 C        1.9290    -0.8650    -2.2480 C.ar  1 <1>  -0.1440 
 11 C        2.5500     1.1140    -1.0500 C.ar  1 <1>  -0.1500 
 12 N       -3.6720    -2.3790     0.8530 N.4   1 <1>  -0.9590 
 13 C        2.6760     0.2970    -2.1580 C.ar  1 <1>  -0.1500 
 14 C        2.0730    -1.7600    -3.4660 C.3   1 <1>  -0.0970 
 15 C       -4.3810    -1.0490     0.8860 C.3   1 <1>   0.3430 
 16 C       -4.5730    -3.5300     0.4970 C.3   1 <1>   0.3430 
 17 C       -5.2150    -0.7960    -0.3880 C.3   1 <1>   0.1400 
 18 C       -5.3830    -3.2440    -0.7820 C.3   1 <1>   0.1400 
 19 N       -6.1200    -1.9540    -0.6370 N.am  1 <1>  -0.6600 
 20 C       -7.3620    -1.9610    -0.0360 C.2   1 <1>   0.7150 
 21 O       -7.5850    -2.8690     0.7460 O.2   1 <1>  -0.5700 
 22 C       -8.3110    -0.8950    -0.2740 C.2   1 <1>   0.0550 
 23 O       -9.2420    -0.5920     0.6250 O.3   1 <1>  -0.2800 
 24 C       -8.4490    -0.0480    -1.3340 C.2   1 <1>  -0.1500 
 25 C       -9.9640     0.4080     0.1720 C.2   1 <1>  -0.0100 
 26 C       -9.5210     0.7950    -1.0420 C.2   1 <1>  -0.1500 
 27 H       -1.5080    -0.8700     4.1430 H     1 <1>   0.1500 
 28 H        0.4820    -2.0980    -1.2970 H     1 <1>   0.1500 
 29 H        1.6010     1.4340     0.8130 H     1 <1>   0.1500 
 30 H       -3.5110    -2.4420     2.9760 H     1 <1>   0.0800 
 31 H       -2.5560    -3.6430     2.1250 H     1 <1>   0.0800 
 32 H        3.1330     2.0160    -0.9830 H     1 <1>   0.1500 
 33 H       -2.9220    -2.2940     0.1440 H     1 <1>   0.4500 
 34 H        3.3560     0.5680    -2.9470 H     1 <1>   0.1500 
 35 H        1.6870    -2.7440    -3.2670 H     1 <1>   0.0800 
 36 H        3.1090    -1.8520    -3.7380 H     1 <1>   0.0800 
 37 H        1.5330    -1.3370    -4.2950 H     1 <1>   0.0800 
 38 H       -3.6610    -0.2540     1.0000 H     1 <1>   0.0800 
 39 H       -5.0460    -1.0170     1.7340 H     1 <1>   0.0800 
 40 H       -5.2720    -3.7080     1.3000 H     1 <1>   0.0800 
 41 H       -3.9920    -4.4270     0.3560 H     1 <1>   0.0800 
 42 H       -4.5640    -0.6570    -1.2340 H     1 <1>   0.0800 
 43 H       -5.7890     0.1070    -0.2640 H     1 <1>   0.0800 
 44 H       -6.0840    -4.0460    -0.9480 H     1 <1>   0.0800 
 45 H       -4.7290    -3.1970    -1.6350 H     1 <1>   0.0800 
 46 H       -7.8650    -0.0190    -2.2370 H     1 <1>   0.1500 
 47 H      -10.7740     0.7830     0.7740 H     1 <1>   0.1500 
 48 H       -9.8990     1.5810    -1.6730 H     1 <1>   0.1500 
@<TRIPOS>BOND
  1   1   2  1   
  2   1   3  1   
  3   2   4  2   
  4   2   5  1   
  5   3   6  2   
  6   3  27  1   
  7   4   6  1   
  8   5   7  ar  
  9   5   8  ar  
 10   6   9  1   
 11   7  10  ar  
 12   7  28  1   
 13   8  11  ar  
 14   8  29  1   
 15   9  12  1   
 16   9  30  1   
 17   9  31  1   
 18  10  13  ar  
 19  10  14  1   
 20  11  13  ar  
 21  11  32  1   
 22  12  15  1   
 23  12  16  1   
 24  12  33  1   
 25  13  34  1   
 26  14  35  1   
 27  14  36  1   
 28  14  37  1   
 29  15  17  1   
 30  15  38  1   
 31  15  39  1   
 32  16  18  1   
 33  16  40  1   
 34  16  41  1   
 35  17  19  1   
 36  17  42  1   
 37  17  43  1   
 38  18  19  1   
 39  18  44  1   
 40  18  45  1   
 41  19  20  am  
 42  20  21  2   
 43  20  22  1   
 44  22  23  1   
 45  22  24  2   
 46  23  25  1   
 47  24  26  1   
 48  24  46  1   
 49  25  26  2   
 50  25  47  1   
 51  26  48  1   
@<TRIPOS>SUBSTRUCTURE
  1 ****  15 GROUP 4 **** **** 0

# MOE 2024.06 (io_trps.svl 2023.06)
