@<TRIPOS>MOLECULE
NONAME
42 43 1 0 0 
SMALL
USER_CHARGES


@<TRIPOS>ATOM
  1 S       -0.2000     0.0070    -1.0570 S.3   1 <1>  -0.2860 
  2 C        1.4680    -0.6560    -1.0980 C.2   1 <1>   0.2420 
  3 C       -1.2280    -1.4350    -1.6310 C.3   1 <1>   0.1310 
  4 N        1.7430    -1.8650    -1.4360 N.2   1 <1>  -0.3380 
  5 N        2.5410     0.0650    -0.7730 N.pl3 1 <1>   0.0480 
  6 C       -2.7150    -1.1310    -1.5330 C.2   1 <1>   0.5690 
  7 N        3.0710    -1.9760    -1.3310 N.2   1 <1>  -0.3380 
  8 C        3.5240    -0.8320    -0.9380 C.2   1 <1>   0.0060 
  9 C        2.6150     1.4790    -0.3570 C.3   1 <1>   0.2340 
 10 O       -3.4730    -1.7150    -2.2690 O.2   1 <1>  -0.5700 
 11 N       -3.1540    -0.2260    -0.6190 N.am  1 <1>  -0.7300 
 12 C        4.9930    -0.5460    -0.6880 C.3   1 <1>  -0.0600 
 13 C        2.8060     1.5810     1.1480 C.2   1 <1>  -0.2880 
 14 C       -4.5530     0.1740    -0.4090 C.3   1 <1>   0.2200 
 15 C        3.8300     2.1870     1.7580 C.2   1 <1>  -0.3000 
 16 C       -4.7000     1.6570    -0.7610 C.3   1 <1>  -0.1600 
 17 C       -4.9290    -0.0930     1.0520 C.3   1 <1>  -0.1600 
 18 C       -6.1180     2.1620    -0.4560 C.3   1 <1>  -0.1600 
 19 C       -6.3470     0.4100     1.3610 C.3   1 <1>  -0.1600 
 20 C       -6.4990     1.8950     1.0070 C.3   1 <1>  -0.1600 
 21 H       -0.9780    -2.2750    -1.0110 H     1 <1>   0.0800 
 22 H       -0.9510    -1.6390    -2.6480 H     1 <1>   0.0800 
 23 H        1.7100     1.9840    -0.6450 H     1 <1>   0.0800 
 24 H        3.4350     1.9470    -0.8700 H     1 <1>   0.0800 
 25 H       -2.4660     0.2760    -0.0570 H     1 <1>   0.3700 
 26 H        5.3370     0.2330    -1.3420 H     1 <1>   0.0800 
 27 H        5.5730    -1.4320    -0.8750 H     1 <1>   0.0800 
 28 H        5.1420    -0.2490     0.3340 H     1 <1>   0.0800 
 29 H        2.0110     1.1020     1.6960 H     1 <1>   0.1500 
 30 H       -5.1970    -0.4070    -1.0500 H     1 <1>   0.0800 
 31 H        3.9400     2.2420     2.8290 H     1 <1>   0.1500 
 32 H        4.6440     2.6780     1.2510 H     1 <1>   0.1500 
 33 H       -4.4920     1.7940    -1.8080 H     1 <1>   0.0800 
 34 H       -3.9930     2.2350    -0.1930 H     1 <1>   0.0800 
 35 H       -4.2320     0.4080     1.7010 H     1 <1>   0.0800 
 36 H       -4.8770    -1.1500     1.2440 H     1 <1>   0.0800 
 37 H       -6.8200     1.6640    -1.1020 H     1 <1>   0.0800 
 38 H       -6.1770     3.2180    -0.6580 H     1 <1>   0.0800 
 39 H       -6.5630     0.2630     2.4050 H     1 <1>   0.0800 
 40 H       -7.0590    -0.1650     0.7930 H     1 <1>   0.0800 
 41 H       -7.5160     2.2030     1.1760 H     1 <1>   0.0800 
 42 H       -5.8670     2.4820     1.6530 H     1 <1>   0.0800 
@<TRIPOS>BOND
  1   1   2  1   
  2   1   3  1   
  3   2   4  2   
  4   2   5  1   
  5   3   6  1   
  6   3  21  1   
  7   3  22  1   
  8   4   7  1   
  9   5   8  1   
 10   5   9  1   
 11   6  10  2   
 12   6  11  am  
 13   7   8  2   
 14   8  12  1   
 15   9  13  1   
 16   9  23  1   
 17   9  24  1   
 18  11  14  1   
 19  11  25  1   
 20  12  26  1   
 21  12  27  1   
 22  12  28  1   
 23  13  15  2   
 24  13  29  1   
 25  14  16  1   
 26  14  17  1   
 27  14  30  1   
 28  15  31  1   
 29  15  32  1   
 30  16  18  1   
 31  16  33  1   
 32  16  34  1   
 33  17  19  1   
 34  17  35  1   
 35  17  36  1   
 36  18  20  1   
 37  18  37  1   
 38  18  38  1   
 39  19  20  1   
 40  19  39  1   
 41  19  40  1   
 42  20  41  1   
 43  20  42  1   
@<TRIPOS>SUBSTRUCTURE
  1 ****   1 GROUP 4 **** **** 0

# MOE 2024.06 (io_trps.svl 2023.06)
