@<TRIPOS>MOLECULE
NONAME
44 46 1 0 0 
SMALL
USER_CHARGES


@<TRIPOS>ATOM
  1 CL      -5.8280     4.5140    -0.5130 Cl    1 <1>  -0.1770 
  2 C       -5.7270     2.7740    -0.5670 C.ar  1 <1>   0.1770 
  3 C       -5.3470     2.0780     0.5630 C.ar  1 <1>  -0.1500 
  4 C       -6.0310     2.1130    -1.7410 C.ar  1 <1>  -0.1500 
  5 C       -5.2770     0.6960     0.5130 C.ar  1 <1>  -0.1500 
  6 C       -5.9590     0.7300    -1.7750 C.ar  1 <1>  -0.1500 
  7 C       -5.5920    -0.0030    -0.6500 C.ar  1 <1>  -0.0090 
  8 S       -5.5140    -1.8180    -0.7170 S.o2  1 <1>   1.4470 
  9 O       -4.1390    -2.2190    -0.9170 O.2   1 <1>  -0.6500 
 10 O       -6.5160    -2.3230    -1.6320 O.2   1 <1>  -0.6500 
 11 N       -5.9520    -2.3560     0.8260 N.am  1 <1>  -0.8490 
 12 C       -7.3990    -2.3160     1.1040 C.3   1 <1>   0.3370 
 13 C       -5.5350    -3.7220     1.0900 C.3   1 <1>   0.1960 
 14 C       -8.0170    -0.8940     1.2360 C.2   1 <1>   0.5690 
 15 C       -7.5210    -3.1650     2.3720 C.3   1 <1>  -0.1600 
 16 C       -6.3850    -4.1840     2.2700 C.3   1 <1>  -0.1600 
 17 O       -7.7870    -0.2810     2.2560 O.2   1 <1>  -0.5700 
 18 N       -8.7710    -0.3140     0.2330 N.am  1 <1>  -0.6600 
 19 C       -9.1710     1.1230     0.3230 C.3   1 <1>   0.1400 
 20 C       -9.2400    -0.9660    -1.0280 C.3   1 <1>   0.1400 
 21 C      -10.6950     1.2450     0.2460 C.3   1 <1>  -0.1600 
 22 C      -10.7650    -0.8670    -1.1260 C.3   1 <1>  -0.1600 
 23 C      -11.2490     0.5860    -1.0240 C.3   1 <1>  -0.1600 
 24 H       -5.1140     2.6080     1.4690 H     1 <1>   0.1500 
 25 H       -6.3180     2.6750    -2.6120 H     1 <1>   0.1500 
 26 H       -4.9860     0.1500     1.3970 H     1 <1>   0.1500 
 27 H       -6.1950     0.2100    -2.6890 H     1 <1>   0.1500 
 28 H       -7.9080    -2.8630     0.3360 H     1 <1>   0.0800 
 29 H       -4.4810    -3.7610     1.3140 H     1 <1>   0.0800 
 30 H       -5.7370    -4.3420     0.2300 H     1 <1>   0.0800 
 31 H       -8.4880    -3.6310     2.4370 H     1 <1>   0.0800 
 32 H       -7.3720    -2.5520     3.2430 H     1 <1>   0.0800 
 33 H       -5.7990    -4.1870     3.1720 H     1 <1>   0.0800 
 34 H       -6.7570    -5.1780     2.0930 H     1 <1>   0.0800 
 35 H       -8.7200     1.6620    -0.4920 H     1 <1>   0.0800 
 36 H       -8.8230     1.5680     1.2400 H     1 <1>   0.0800 
 37 H       -8.9610    -1.9990    -1.0820 H     1 <1>   0.0800 
 38 H       -8.7900    -0.4630    -1.8670 H     1 <1>   0.0800 
 39 H      -10.9690     2.2850     0.2630 H     1 <1>   0.0800 
 40 H      -11.1230     0.7800     1.1180 H     1 <1>   0.0800 
 41 H      -11.2040    -1.4510    -0.3360 H     1 <1>   0.0800 
 42 H      -11.0880    -1.2880    -2.0620 H     1 <1>   0.0800 
 43 H      -10.9130     1.1360    -1.8860 H     1 <1>   0.0800 
 44 H      -12.3250     0.6130    -1.0090 H     1 <1>   0.0800 
@<TRIPOS>BOND
  1   1   2  1   
  2   2   3  ar  
  3   2   4  ar  
  4   3   5  ar  
  5   3  24  1   
  6   4   6  ar  
  7   4  25  1   
  8   5   7  ar  
  9   5  26  1   
 10   6   7  ar  
 11   6  27  1   
 12   7   8  1   
 13   8   9  2   
 14   8  10  2   
 15   8  11  am  
 16  11  12  1   
 17  11  13  1   
 18  12  14  1   
 19  12  15  1   
 20  12  28  1   
 21  13  16  1   
 22  13  29  1   
 23  13  30  1   
 24  14  17  2   
 25  14  18  am  
 26  15  16  1   
 27  15  31  1   
 28  15  32  1   
 29  16  33  1   
 30  16  34  1   
 31  18  19  1   
 32  18  20  1   
 33  19  21  1   
 34  19  35  1   
 35  19  36  1   
 36  20  22  1   
 37  20  37  1   
 38  20  38  1   
 39  21  23  1   
 40  21  39  1   
 41  21  40  1   
 42  22  23  1   
 43  22  41  1   
 44  22  42  1   
 45  23  43  1   
 46  23  44  1   
@<TRIPOS>SUBSTRUCTURE
  1 ****  14 GROUP 4 **** **** 0

# MOE 2024.06 (io_trps.svl 2023.06)
