@<TRIPOS>MOLECULE
NONAME
42 43 1 0 0 
SMALL
USER_CHARGES


@<TRIPOS>ATOM
  1 S        0.6730     0.6530    -0.3510 S.3   1 <1>  -0.0800 
  2 C        0.0580    -0.9490     0.0550 C.2   1 <1>   0.1040 
  3 C       -0.8420     1.4060     0.0820 C.2   1 <1>  -0.1400 
  4 N        0.9140    -2.0340    -0.0810 N.am  1 <1>  -0.4940 
  5 C       -1.2430    -0.8730     0.4920 C.2   1 <1>  -0.0860 
  6 C       -1.7230     0.4930     0.5090 C.2   1 <1>  -0.1810 
  7 C       -1.0130     2.9020    -0.0470 C.3   1 <1>   0.0200 
  8 C        2.0760    -2.2360    -0.7830 C.2   1 <1>   0.6160 
  9 C       -2.0890    -1.9810     0.8720 C.2   1 <1>   0.7160 
 10 C       -3.1110     0.9230     0.9650 C.3   1 <1>   0.0210 
 11 C       -2.5100     3.2630     0.0890 C.3   1 <1>  -0.0800 
 12 O        2.4180    -1.4560    -1.6500 O.2   1 <1>  -0.5700 
 13 C        2.9050    -3.3900    -0.5350 C.2   1 <1>  -0.1360 
 14 O       -3.2800    -1.9900     0.6210 O.2   1 <1>  -0.5700 
 15 N       -1.6440    -3.0640     1.5410 N.am  1 <1>  -0.8000 
 16 C       -3.1740     2.4430     1.2190 C.3   1 <1>  -0.1600 
 17 C       -2.7270     4.7700     0.3280 C.3   1 <1>  -0.1600 
 18 C        2.8260    -4.4540     0.3120 C.2   1 <1>  -0.4000 
 19 C       -2.2140     5.6450    -0.8260 C.3   1 <1>  -0.1600 
 20 C        1.8720    -4.8530     1.3040 C.2   1 <1>   1.0500 
 21 C       -2.5540     7.1190    -0.5890 C.3   1 <1>  -0.2400 
 22 O        2.0410    -5.9020     1.9320 O.co2 1 <1>  -0.9000 
 23 O        0.8650    -4.1650     1.5370 O.co2 1 <1>  -0.9000 
 24 H        0.7020    -2.8490     0.5130 H     1 <1>   0.3700 
 25 H       -0.4370     3.3820     0.7240 H     1 <1>   0.0800 
 26 H       -0.6420     3.2200    -1.0040 H     1 <1>   0.0800 
 27 H       -3.8210     0.6510     0.2040 H     1 <1>   0.0800 
 28 H       -3.3760     0.4040     1.8700 H     1 <1>   0.0800 
 29 H       -2.9980     2.9920    -0.8330 H     1 <1>   0.0800 
 30 H        3.7620    -3.3630    -1.1820 H     1 <1>   0.1500 
 31 H       -2.2720    -3.8490     1.6790 H     1 <1>   0.3700 
 32 H       -0.6460    -3.3190     1.6680 H     1 <1>   0.3700 
 33 H       -2.6720     2.6570     2.1470 H     1 <1>   0.0800 
 34 H       -4.2050     2.7300     1.3290 H     1 <1>   0.0800 
 35 H       -3.7820     4.9490     0.4490 H     1 <1>   0.0800 
 36 H       -2.2400     5.0630     1.2420 H     1 <1>   0.0800 
 37 H        3.6120    -5.1800     0.2760 H     1 <1>   0.1500 
 38 H       -1.1470     5.5480    -0.9200 H     1 <1>   0.0800 
 39 H       -2.6630     5.3230    -1.7510 H     1 <1>   0.0800 
 40 H       -2.1020     7.4670     0.3230 H     1 <1>   0.0800 
 41 H       -3.6200     7.2540    -0.5220 H     1 <1>   0.0800 
 42 H       -2.1860     7.7170    -1.4040 H     1 <1>   0.0800 
@<TRIPOS>BOND
  1   1   2  1   
  2   1   3  1   
  3   2   4  1   
  4   2   5  2   
  5   3   6  2   
  6   3   7  1   
  7   4   8  am  
  8   4  24  1   
  9   5   6  1   
 10   5   9  1   
 11   6  10  1   
 12   7  11  1   
 13   7  25  1   
 14   7  26  1   
 15   8  12  2   
 16   8  13  1   
 17   9  14  2   
 18   9  15  am  
 19  10  16  1   
 20  10  27  1   
 21  10  28  1   
 22  11  16  1   
 23  11  17  1   
 24  11  29  1   
 25  13  18  2   
 26  13  30  1   
 27  15  31  1   
 28  15  32  1   
 29  16  33  1   
 30  16  34  1   
 31  17  19  1   
 32  17  35  1   
 33  17  36  1   
 34  18  20  1   
 35  18  37  1   
 36  19  21  1   
 37  19  38  1   
 38  19  39  1   
 39  20  22  ar  
 40  20  23  ar  
 41  21  40  1   
 42  21  41  1   
 43  21  42  1   
@<TRIPOS>SUBSTRUCTURE
  1 ****   2 GROUP 4 **** **** 0

# MOE 2024.06 (io_trps.svl 2023.06)
