@<TRIPOS>MOLECULE
NONAME
41 42 1 0 0 
SMALL
USER_CHARGES


@<TRIPOS>ATOM
  1 O       -0.2600    -0.1350    -0.6880 O.2   1 <1>  -0.5700 
  2 C       -0.1190    -1.3060    -0.3880 C.2   1 <1>   0.6900 
  3 N       -1.2180    -2.1130    -0.2230 N.am  1 <1>  -0.6600 
  4 N        1.1200    -1.8430    -0.1880 N.am  1 <1>  -0.5470 
  5 C       -2.5830    -1.5050    -0.1960 C.3   1 <1>   0.1400 
  6 C       -1.1370    -3.6050    -0.1730 C.3   1 <1>   0.1400 
  7 C        2.4350    -1.3610    -0.3130 C.ar  1 <1>   0.1170 
  8 C       -3.5530    -2.3840     0.6080 C.3   1 <1>  -0.0800 
  9 C       -2.4080    -4.2440    -0.7530 C.3   1 <1>  -0.0800 
 10 C        3.4760    -2.1570     0.1790 C.ar  1 <1>   0.0820 
 11 C        2.7480    -0.1440    -0.9080 C.ar  1 <1>  -0.1500 
 12 C       -3.6730    -3.8010     0.0100 C.3   1 <1>  -0.1600 
 13 C       -4.9330    -1.7240     0.7230 C.3   1 <1>  -0.2400 
 14 C       -2.2990    -5.7750    -0.7770 C.3   1 <1>  -0.2400 
 15 O        3.1330    -3.3540     0.7490 O.3   1 <1>  -0.3630 
 16 C        4.7950    -1.7230     0.0760 C.ar  1 <1>  -0.1500 
 17 C        4.0600     0.2830    -1.0070 C.ar  1 <1>  -0.1500 
 18 C        4.1080    -4.1940     1.3280 C.3   1 <1>   0.0400 
 19 C        5.0840    -0.5050    -0.5150 C.ar  1 <1>  -0.1500 
 20 H        1.0930    -2.7650     0.2350 H     1 <1>   0.3700 
 21 H       -2.9350    -1.3910    -1.2060 H     1 <1>   0.0800 
 22 H       -2.5290    -0.5260     0.2520 H     1 <1>   0.0800 
 23 H       -1.0100    -3.9150     0.8500 H     1 <1>   0.0800 
 24 H       -0.2880    -3.9420    -0.7430 H     1 <1>   0.0800 
 25 H       -3.1480    -2.4670     1.6030 H     1 <1>   0.0800 
 26 H       -2.4920    -3.9070    -1.7740 H     1 <1>   0.0800 
 27 H        1.9680     0.4810    -1.3010 H     1 <1>   0.1500 
 28 H       -4.5040    -3.8470    -0.6720 H     1 <1>   0.0800 
 29 H       -3.8810    -4.4840     0.8150 H     1 <1>   0.0800 
 30 H       -5.3710    -1.5860    -0.2510 H     1 <1>   0.0800 
 31 H       -4.8480    -0.7630     1.1990 H     1 <1>   0.0800 
 32 H       -5.5910    -2.3370     1.3140 H     1 <1>   0.0800 
 33 H       -2.1830    -6.1640     0.2190 H     1 <1>   0.0800 
 34 H       -1.4510    -6.0790    -1.3660 H     1 <1>   0.0800 
 35 H       -3.1840    -6.2030    -1.2140 H     1 <1>   0.0800 
 36 H        5.6110    -2.3120     0.4460 H     1 <1>   0.1500 
 37 H        4.2810     1.2300    -1.4690 H     1 <1>   0.1500 
 38 H        3.6100    -5.0560     1.7330 H     1 <1>   0.0800 
 39 H        4.6070    -3.6580     2.1160 H     1 <1>   0.0800 
 40 H        4.8040    -4.4990     0.5660 H     1 <1>   0.0800 
 41 H        6.1040    -0.1710    -0.5930 H     1 <1>   0.1500 
@<TRIPOS>BOND
  1   1   2  2   
  2   2   3  am  
  3   2   4  am  
  4   3   5  1   
  5   3   6  1   
  6   4   7  1   
  7   4  20  1   
  8   5   8  1   
  9   5  21  1   
 10   5  22  1   
 11   6   9  1   
 12   6  23  1   
 13   6  24  1   
 14   7  10  ar  
 15   7  11  ar  
 16   8  12  1   
 17   8  13  1   
 18   8  25  1   
 19   9  12  1   
 20   9  14  1   
 21   9  26  1   
 22  10  15  1   
 23  10  16  ar  
 24  11  17  ar  
 25  11  27  1   
 26  12  28  1   
 27  12  29  1   
 28  13  30  1   
 29  13  31  1   
 30  13  32  1   
 31  14  33  1   
 32  14  34  1   
 33  14  35  1   
 34  15  18  1   
 35  16  19  ar  
 36  16  36  1   
 37  17  19  ar  
 38  17  37  1   
 39  18  38  1   
 40  18  39  1   
 41  18  40  1   
 42  19  41  1   
@<TRIPOS>SUBSTRUCTURE
  1 ****   4 GROUP 4 **** **** 0

# MOE 2024.06 (io_trps.svl 2023.06)
