@<TRIPOS>MOLECULE
NONAME
33 34 1 0 0 
SMALL
USER_CHARGES


@<TRIPOS>ATOM
  1 BR       2.4500     2.0000     2.4170 Br    1 <1>  -0.1110 
  2 C        1.1760     2.5440     1.0810 C.ar  1 <1>   0.1110 
  3 C        1.4560     2.3300    -0.2660 C.ar  1 <1>   0.0860 
  4 C        0.0070     3.1350     1.5240 C.ar  1 <1>  -0.1500 
  5 C        2.6930     1.7320    -0.7120 C.2   1 <1>   0.5440 
  6 C        0.4790     2.7290    -1.1780 C.ar  1 <1>  -0.1500 
  7 C       -0.9380     3.5290     0.5930 C.ar  1 <1>  -0.1500 
  8 O        2.6830     0.5740    -1.0840 O.2   1 <1>  -0.5700 
  9 N        3.8720     2.4500    -0.7620 N.am  1 <1>  -0.6600 
 10 C       -0.7000     3.3220    -0.7570 C.ar  1 <1>  -0.1500 
 11 C        3.9460     3.9280    -0.5850 C.3   1 <1>   0.1400 
 12 C        5.1740     1.7840    -1.0460 C.3   1 <1>   0.1400 
 13 C        4.9570     4.2770     0.5100 C.3   1 <1>  -0.1600 
 14 C        6.1810     2.1230     0.0550 C.3   1 <1>  -0.1600 
 15 C        6.3340     3.6440     0.2360 C.3   1 <1>  -0.0190 
 16 C        7.3430     3.9690     1.3360 C.2   1 <1>   0.5690 
 17 O        7.0490     3.8540     2.4970 O.2   1 <1>  -0.5700 
 18 N        8.5780     4.3870     1.0020 N.am  1 <1>  -0.8000 
 19 H       -0.1590     3.2800     2.5760 H     1 <1>   0.1500 
 20 H        0.6540     2.5650    -2.2270 H     1 <1>   0.1500 
 21 H       -1.8560     3.9900     0.9160 H     1 <1>   0.1500 
 22 H       -1.4390     3.6210    -1.4820 H     1 <1>   0.1500 
 23 H        2.9860     4.3370    -0.3280 H     1 <1>   0.0800 
 24 H        4.2540     4.3710    -1.5170 H     1 <1>   0.0800 
 25 H        5.5380     2.1220    -2.0010 H     1 <1>   0.0800 
 26 H        5.0520     0.7150    -1.0960 H     1 <1>   0.0800 
 27 H        4.5800     3.9290     1.4570 H     1 <1>   0.0800 
 28 H        5.0570     5.3460     0.5760 H     1 <1>   0.0800 
 29 H        7.1330     1.6880    -0.1900 H     1 <1>   0.0800 
 30 H        5.8470     1.6800     0.9790 H     1 <1>   0.0800 
 31 H        6.7070     4.0540    -0.6850 H     1 <1>   0.0800 
 32 H        9.2440     4.5940     1.7470 H     1 <1>   0.3700 
 33 H        8.9120     4.4980     0.0460 H     1 <1>   0.3700 
@<TRIPOS>BOND
  1   1   2  1   
  2   2   3  ar  
  3   2   4  ar  
  4   3   5  1   
  5   3   6  ar  
  6   4   7  ar  
  7   4  19  1   
  8   5   8  2   
  9   5   9  am  
 10   6  10  ar  
 11   6  20  1   
 12   7  10  ar  
 13   7  21  1   
 14   9  11  1   
 15   9  12  1   
 16  10  22  1   
 17  11  13  1   
 18  11  23  1   
 19  11  24  1   
 20  12  14  1   
 21  12  25  1   
 22  12  26  1   
 23  13  15  1   
 24  13  27  1   
 25  13  28  1   
 26  14  15  1   
 27  14  29  1   
 28  14  30  1   
 29  15  16  1   
 30  15  31  1   
 31  16  17  2   
 32  16  18  am  
 33  18  32  1   
 34  18  33  1   
@<TRIPOS>SUBSTRUCTURE
  1 ****   9 GROUP 4 **** **** 0

# MOE 2024.06 (io_trps.svl 2023.06)
