@<TRIPOS>MOLECULE
NONAME
43 44 1 0 0 
SMALL
USER_CHARGES


@<TRIPOS>ATOM
  1 CL      -3.3610    -1.2290     1.3680 Cl    1 <1>  -0.1770 
  2 C       -1.8660    -1.9490     0.8210 C.ar  1 <1>   0.1770 
  3 C       -1.6910    -2.3290    -0.5050 C.ar  1 <1>  -0.0090 
  4 C       -0.8750    -2.1210     1.7750 C.ar  1 <1>  -0.1500 
  5 S       -2.9910    -2.1090    -1.7410 S.o2  1 <1>   1.4470 
  6 C       -0.4690    -2.8980    -0.8520 C.ar  1 <1>  -0.1500 
  7 C        0.3330    -2.6900     1.4120 C.ar  1 <1>  -0.1500 
  8 O       -3.4260    -0.7310    -1.7560 O.2   1 <1>  -0.6500 
  9 O       -2.5790    -2.7210    -2.9850 O.2   1 <1>  -0.6500 
 10 N       -4.2790    -3.0440    -1.1670 N.am  1 <1>  -0.8490 
 11 C        0.5200    -3.0730     0.0980 C.ar  1 <1>   0.1770 
 12 C       -5.5150    -2.7360    -1.9380 C.3   1 <1>   0.2570 
 13 C       -4.0020    -4.4840    -1.1730 C.3   1 <1>   0.1960 
 14 CL       2.0350    -3.7940    -0.3730 Cl    1 <1>  -0.1770 
 15 C       -6.8060    -3.3670    -1.3970 C.2   1 <1>   0.5690 
 16 C       -4.3790    -5.0580     0.1890 C.3   1 <1>  -0.2400 
 17 O       -7.2870    -4.2770    -2.0360 O.2   1 <1>  -0.5700 
 18 N       -7.3930    -2.9250    -0.2340 N.am  1 <1>  -0.6600 
 19 C       -8.6630    -3.5530     0.2360 C.3   1 <1>   0.1400 
 20 C       -6.8080    -1.8770     0.6520 C.3   1 <1>   0.1400 
 21 C       -9.3070    -2.7760     1.3940 C.3   1 <1>  -0.1600 
 22 C       -7.8310    -0.7590     0.9010 C.3   1 <1>  -0.1600 
 23 C       -9.2690    -1.2640     1.1330 C.3   1 <1>  -0.1600 
 24 H       -1.0530    -1.8120     2.7900 H     1 <1>   0.1500 
 25 H       -0.2800    -3.2080    -1.8660 H     1 <1>   0.1500 
 26 H        1.1190    -2.8350     2.1330 H     1 <1>   0.1500 
 27 H       -5.3860    -3.0550    -2.9590 H     1 <1>   0.0800 
 28 H       -5.6740    -1.6730    -1.9610 H     1 <1>   0.0800 
 29 H       -2.9550    -4.6740    -1.3420 H     1 <1>   0.0800 
 30 H       -4.5510    -4.9860    -1.9550 H     1 <1>   0.0800 
 31 H       -5.4330    -4.9540     0.3690 H     1 <1>   0.0800 
 32 H       -3.8340    -4.5580     0.9690 H     1 <1>   0.0800 
 33 H       -4.1370    -6.1050     0.2180 H     1 <1>   0.0800 
 34 H       -8.4660    -4.5670     0.5380 H     1 <1>   0.0800 
 35 H       -9.3510    -3.5830    -0.5920 H     1 <1>   0.0800 
 36 H       -5.9150    -1.4520     0.2340 H     1 <1>   0.0800 
 37 H       -6.5390    -2.3360     1.5880 H     1 <1>   0.0800 
 38 H       -8.7870    -3.0030     2.3080 H     1 <1>   0.0800 
 39 H      -10.3250    -3.1020     1.5140 H     1 <1>   0.0800 
 40 H       -7.8240    -0.0880     0.0600 H     1 <1>   0.0800 
 41 H       -7.5060    -0.1950     1.7570 H     1 <1>   0.0800 
 42 H       -9.7150    -0.7350     1.9580 H     1 <1>   0.0800 
 43 H       -9.8550    -1.0560     0.2550 H     1 <1>   0.0800 
@<TRIPOS>BOND
  1   1   2  1   
  2   2   3  ar  
  3   2   4  ar  
  4   3   5  1   
  5   3   6  ar  
  6   4   7  ar  
  7   4  24  1   
  8   5   8  2   
  9   5   9  2   
 10   5  10  am  
 11   6  11  ar  
 12   6  25  1   
 13   7  11  ar  
 14   7  26  1   
 15  10  12  1   
 16  10  13  1   
 17  11  14  1   
 18  12  15  1   
 19  12  27  1   
 20  12  28  1   
 21  13  16  1   
 22  13  29  1   
 23  13  30  1   
 24  15  17  2   
 25  15  18  am  
 26  16  31  1   
 27  16  32  1   
 28  16  33  1   
 29  18  19  1   
 30  18  20  1   
 31  19  21  1   
 32  19  34  1   
 33  19  35  1   
 34  20  22  1   
 35  20  36  1   
 36  20  37  1   
 37  21  23  1   
 38  21  38  1   
 39  21  39  1   
 40  22  23  1   
 41  22  40  1   
 42  22  41  1   
 43  23  42  1   
 44  23  43  1   
@<TRIPOS>SUBSTRUCTURE
  1 ****  10 GROUP 4 **** **** 0

# MOE 2024.06 (io_trps.svl 2023.06)
