@<TRIPOS>MOLECULE
NONAME
39 40 1 0 0 
SMALL
USER_CHARGES


@<TRIPOS>ATOM
  1 S       -0.1590    -0.2230     0.1570 S.o2  1 <1>   1.4970 
  2 O       -0.5600    -0.7740     1.4400 O.2   1 <1>  -0.6500 
  3 O       -0.1160    -1.0980    -0.9950 O.2   1 <1>  -0.6500 
  4 N       -1.1900     1.0440    -0.2020 N.2   1 <1>  -0.6380 
  5 C        1.4450     0.6110     0.3330 C.ar  1 <1>  -0.0090 
  6 C       -2.4390     0.7940    -0.1400 C.2   1 <1>   0.4860 
  7 C        1.8760     1.0930     1.5650 C.ar  1 <1>  -0.1500 
  8 C        2.2740     0.8130    -0.7660 C.ar  1 <1>  -0.1500 
  9 N       -3.0760    -0.3470     0.2520 N.pl3 1 <1>  -0.4710 
 10 C       -3.4890     1.7000    -0.4150 C.2   1 <1>  -0.1360 
 11 C        3.0890     1.7440     1.6960 C.ar  1 <1>  -0.1500 
 12 C        3.4900     1.4640    -0.6460 C.ar  1 <1>  -0.1500 
 13 O       -4.4400    -0.1540     0.2630 O.3   1 <1>  -0.0560 
 14 C       -4.6590     1.0880    -0.1490 C.2   1 <1>  -0.0620 
 15 C        3.9060     1.9350     0.5950 C.ar  1 <1>   0.0830 
 16 C       -6.1040     1.5770    -0.2500 C.3   1 <1>   0.1380 
 17 O        5.0780     2.5810     0.8050 O.3   1 <1>  -0.3620 
 18 C       -6.7680     1.4990     1.1310 C.3   1 <1>  -0.2400 
 19 C       -6.1500     3.0300    -0.7420 C.3   1 <1>  -0.2400 
 20 C       -6.8740     0.6930    -1.2400 C.3   1 <1>  -0.2400 
 21 C        5.9850     2.8220    -0.2480 C.3   1 <1>   0.0400 
 22 H        1.2540     0.9560     2.4340 H     1 <1>   0.1500 
 23 H        1.9610     0.4540    -1.7330 H     1 <1>   0.1500 
 24 H       -2.6780    -0.9640     0.9710 H     1 <1>   0.4000 
 25 H       -3.3040     2.6960    -0.7670 H     1 <1>   0.1500 
 26 H        3.4120     2.1100     2.6540 H     1 <1>   0.1500 
 27 H        4.0950     1.5940    -1.5230 H     1 <1>   0.1500 
 28 H       -6.2260     2.1000     1.8380 H     1 <1>   0.0800 
 29 H       -6.7790     0.4850     1.4870 H     1 <1>   0.0800 
 30 H       -7.7820     1.8540     1.0850 H     1 <1>   0.0800 
 31 H       -7.1670     3.3720    -0.8130 H     1 <1>   0.0800 
 32 H       -5.6230     3.6740    -0.0620 H     1 <1>   0.0800 
 33 H       -5.6970     3.1120    -1.7150 H     1 <1>   0.0800 
 34 H       -6.8850    -0.3280    -0.9030 H     1 <1>   0.0800 
 35 H       -6.4050     0.7240    -2.2070 H     1 <1>   0.0800 
 36 H       -7.8900     1.0290    -1.3390 H     1 <1>   0.0800 
 37 H        6.8350     3.3410     0.1570 H     1 <1>   0.0800 
 38 H        5.5040     3.4320    -0.9910 H     1 <1>   0.0800 
 39 H        6.2960     1.8800    -0.6630 H     1 <1>   0.0800 
@<TRIPOS>BOND
  1   1   2  2   
  2   1   3  2   
  3   1   4  1   
  4   1   5  1   
  5   4   6  2   
  6   5   7  ar  
  7   5   8  ar  
  8   6   9  1   
  9   6  10  1   
 10   7  11  ar  
 11   7  22  1   
 12   8  12  ar  
 13   8  23  1   
 14   9  13  1   
 15   9  24  1   
 16  10  14  2   
 17  10  25  1   
 18  11  15  ar  
 19  11  26  1   
 20  12  15  ar  
 21  12  27  1   
 22  13  14  1   
 23  14  16  1   
 24  15  17  1   
 25  16  18  1   
 26  16  19  1   
 27  16  20  1   
 28  17  21  1   
 29  18  28  1   
 30  18  29  1   
 31  18  30  1   
 32  19  31  1   
 33  19  32  1   
 34  19  33  1   
 35  20  34  1   
 36  20  35  1   
 37  20  36  1   
 38  21  37  1   
 39  21  38  1   
 40  21  39  1   
@<TRIPOS>SUBSTRUCTURE
  1 ****   4 GROUP 4 **** **** 0

# MOE 2024.06 (io_trps.svl 2023.06)
