@<TRIPOS>MOLECULE
NONAME
54 57 1 0 0 
SMALL
USER_CHARGES


@<TRIPOS>ATOM
  1 O        1.6090    -3.6560    -0.1870 O.co2 1 <1>  -0.9000 
  2 C        2.1090    -3.0480    -1.1410 C.2   1 <1>   0.9060 
  3 O        2.4460    -3.6700    -2.1540 O.co2 1 <1>  -0.9000 
  4 C        2.3910    -1.5560    -1.0410 C.3   1 <1>  -0.1860 
  5 C        4.0040    -1.1820    -0.7350 C.3   1 <1>  -0.0190 
  6 C        1.4860    -0.7900     0.1020 C.3   1 <1>  -0.0800 
  7 C        5.0860    -2.2420    -1.0310 C.2   1 <1>   0.5690 
  8 C        4.0670    -0.4050     0.7060 C.3   1 <1>  -0.0800 
  9 C        2.7700    -0.5700     0.3940 C.3   1 <1>  -0.1600 
 10 C        1.5550     0.0540     1.5070 C.3   1 <1>  -0.1600 
 11 O        5.8550    -1.9530    -1.9220 O.2   1 <1>  -0.5700 
 12 N        5.2500    -3.4530    -0.3850 N.am  1 <1>  -0.6600 
 13 C        3.1680     0.3880     1.8200 C.3   1 <1>  -0.1600 
 14 C        4.5440    -3.9560     0.8310 C.3   1 <1>   0.1400 
 15 C        5.9400    -4.5520    -1.1060 C.3   1 <1>   0.1400 
 16 C        3.8060    -5.3130     0.6660 C.3   1 <1>   0.3430 
 17 C        4.8570    -5.4760    -1.6650 C.3   1 <1>   0.3430 
 18 N        4.0430    -6.1360    -0.5860 N.4   1 <1>  -0.9590 
 19 C        2.7040    -6.4540    -1.1580 C.3   1 <1>   0.4860 
 20 C        2.0690    -7.5170    -0.2820 C.ar  1 <1>  -0.1440 
 21 C        1.0480    -7.1610     0.5840 C.ar  1 <1>  -0.1500 
 22 C        2.4970    -8.8360    -0.3280 C.ar  1 <1>  -0.1500 
 23 C        0.4700    -8.1110     1.4080 C.ar  1 <1>  -0.1500 
 24 C        1.9170    -9.7840     0.4970 C.ar  1 <1>  -0.1500 
 25 C        0.9040    -9.4260     1.3710 C.ar  1 <1>  -0.1440 
 26 C        0.2650   -10.4660     2.2740 C.3   1 <1>  -0.0970 
 27 H        2.1370    -1.1660    -2.0120 H     1 <1>   0.0800 
 28 H        4.2400    -0.4200    -1.4700 H     1 <1>   0.0800 
 29 H        0.9130    -0.1120    -0.5150 H     1 <1>   0.0800 
 30 H        4.5950    -1.1180     1.3230 H     1 <1>   0.0800 
 31 H        2.7660    -1.5620     1.0150 H     1 <1>   0.0800 
 32 H        2.7420     0.4240    -0.2330 H     1 <1>   0.0800 
 33 H        1.1330    -0.5360     2.3080 H     1 <1>   0.0800 
 34 H        0.9850     0.9670     1.4410 H     1 <1>   0.0800 
 35 H        3.3470     1.4500     1.7510 H     1 <1>   0.0800 
 36 H        3.4300     0.0780     2.8190 H     1 <1>   0.0800 
 37 H        3.8290    -3.2450     1.1790 H     1 <1>   0.0800 
 38 H        5.2710    -4.0650     1.6160 H     1 <1>   0.0800 
 39 H        6.5940    -5.0850    -0.4400 H     1 <1>   0.0800 
 40 H        6.5340    -4.1740    -1.9200 H     1 <1>   0.0800 
 41 H        2.7540    -5.1190     0.7620 H     1 <1>   0.0800 
 42 H        4.0470    -5.9190     1.5220 H     1 <1>   0.0800 
 43 H        5.3120    -6.2270    -2.2870 H     1 <1>   0.0800 
 44 H        4.2200    -4.8780    -2.2940 H     1 <1>   0.0800 
 45 H        4.4610    -7.0250    -0.3100 H     1 <1>   0.4500 
 46 H        2.8000    -6.8240    -2.1650 H     1 <1>   0.0800 
 47 H        2.0780    -5.5810    -1.1830 H     1 <1>   0.0800 
 48 H        0.6970    -6.1390     0.6180 H     1 <1>   0.1500 
 49 H        3.2760    -9.1390    -1.0050 H     1 <1>   0.1500 
 50 H       -0.3240    -7.8200     2.0740 H     1 <1>   0.1500 
 51 H        2.2530   -10.8050     0.4550 H     1 <1>   0.1500 
 52 H       -0.0630   -10.0160     3.1930 H     1 <1>   0.0800 
 53 H        0.9680   -11.2450     2.5110 H     1 <1>   0.0800 
 54 H       -0.5840   -10.9030     1.7800 H     1 <1>   0.0800 
@<TRIPOS>BOND
  1   1   2  ar  
  2   2   3  ar  
  3   2   4  1   
  4   4   5  1   
  5   4   6  1   
  6   4  27  1   
  7   5   7  1   
  8   5   8  1   
  9   5  28  1   
 10   6   9  1   
 11   6  10  1   
 12   6  29  1   
 13   7  11  2   
 14   7  12  am  
 15   8   9  1   
 16   8  13  1   
 17   8  30  1   
 18   9  31  1   
 19   9  32  1   
 20  10  13  1   
 21  10  33  1   
 22  10  34  1   
 23  12  14  1   
 24  12  15  1   
 25  13  35  1   
 26  13  36  1   
 27  14  16  1   
 28  14  37  1   
 29  14  38  1   
 30  15  17  1   
 31  15  39  1   
 32  15  40  1   
 33  16  18  1   
 34  16  41  1   
 35  16  42  1   
 36  17  18  1   
 37  17  43  1   
 38  17  44  1   
 39  18  19  1   
 40  18  45  1   
 41  19  20  1   
 42  19  46  1   
 43  19  47  1   
 44  20  21  ar  
 45  20  22  ar  
 46  21  23  ar  
 47  21  48  1   
 48  22  24  ar  
 49  22  49  1   
 50  23  25  ar  
 51  23  50  1   
 52  24  25  ar  
 53  24  51  1   
 54  25  26  1   
 55  26  52  1   
 56  26  53  1   
 57  26  54  1   
@<TRIPOS>SUBSTRUCTURE
  1 ****  16 GROUP 4 **** **** 0

# MOE 2024.06 (io_trps.svl 2023.06)
