@<TRIPOS>MOLECULE
NONAME
34 35 1 0 0 
SMALL
USER_CHARGES


@<TRIPOS>ATOM
  1 O        0.9280     2.0420    -1.8280 O.2   1 <1>  -0.5700 
  2 C        1.0840     2.0060    -0.6190 C.2   1 <1>   0.5440 
  3 N       -0.0180     2.1540     0.1810 N.am  1 <1>  -0.7300 
  4 C        2.4080     1.8100    -0.0210 C.ar  1 <1>   0.3960 
  5 C       -1.4100     2.3530    -0.2500 C.3   1 <1>   0.2200 
  6 N        2.5210     1.7800     1.3210 N.ar  1 <1>  -0.6200 
  7 C        3.5280     1.6590    -0.8430 C.ar  1 <1>  -0.1500 
  8 C       -1.8450     3.7460     0.2170 C.3   1 <1>  -0.1600 
  9 C       -2.2470     1.1930     0.3070 C.3   1 <1>  -0.1600 
 10 C        3.7310     1.6020     1.8190 C.ar  1 <1>   0.1600 
 11 C        4.7850     1.4740    -0.3110 C.ar  1 <1>  -0.1500 
 12 C       -3.3140     4.1020    -0.0680 C.3   1 <1>  -0.1600 
 13 C       -3.6390     1.1110    -0.3370 C.3   1 <1>  -0.1600 
 14 C        4.8780     1.4460     1.0620 C.ar  1 <1>  -0.1500 
 15 C       -4.2880     3.3510     0.8510 C.3   1 <1>  -0.1600 
 16 C       -4.7190     1.9670     0.3430 C.3   1 <1>  -0.1600 
 17 H        0.1430     2.1210     1.1910 H     1 <1>   0.3700 
 18 H       -1.4500     2.3220    -1.3270 H     1 <1>   0.0800 
 19 H        3.4000     1.6880    -1.9110 H     1 <1>   0.1500 
 20 H       -1.2250     4.4640    -0.2930 H     1 <1>   0.0800 
 21 H       -1.6570     3.8470     1.2710 H     1 <1>   0.0800 
 22 H       -2.3280     1.2590     1.3770 H     1 <1>   0.0800 
 23 H       -1.7300     0.2790     0.0690 H     1 <1>   0.0800 
 24 H        3.8180     1.5790     2.8920 H     1 <1>   0.1500 
 25 H        5.6520     1.3570    -0.9390 H     1 <1>   0.1500 
 26 H       -3.5540     3.9320    -1.1040 H     1 <1>   0.0800 
 27 H       -3.4320     5.1560     0.1160 H     1 <1>   0.0800 
 28 H       -3.9690     0.0870    -0.3140 H     1 <1>   0.0800 
 29 H       -3.5660     1.3860    -1.3760 H     1 <1>   0.0800 
 30 H        5.8290     1.3060     1.5440 H     1 <1>   0.1500 
 31 H       -5.1760     3.9470     0.9690 H     1 <1>   0.0800 
 32 H       -3.8520     3.2530     1.8300 H     1 <1>   0.0800 
 33 H       -5.1160     1.4180     1.1810 H     1 <1>   0.0800 
 34 H       -5.5280     2.0930    -0.3570 H     1 <1>   0.0800 
@<TRIPOS>BOND
  1   1   2  2   
  2   2   3  am  
  3   2   4  1   
  4   3   5  1   
  5   3  17  1   
  6   4   6  ar  
  7   4   7  ar  
  8   5   8  1   
  9   5   9  1   
 10   5  18  1   
 11   6  10  ar  
 12   7  11  ar  
 13   7  19  1   
 14   8  12  1   
 15   8  20  1   
 16   8  21  1   
 17   9  13  1   
 18   9  22  1   
 19   9  23  1   
 20  10  14  ar  
 21  10  24  1   
 22  11  14  ar  
 23  11  25  1   
 24  12  15  1   
 25  12  26  1   
 26  12  27  1   
 27  13  16  1   
 28  13  28  1   
 29  13  29  1   
 30  14  30  1   
 31  15  16  1   
 32  15  31  1   
 33  15  32  1   
 34  16  33  1   
 35  16  34  1   
@<TRIPOS>SUBSTRUCTURE
  1 ****   3 GROUP 4 **** **** 0

# MOE 2024.06 (io_trps.svl 2023.06)
