@<TRIPOS>MOLECULE
NONAME
43 44 1 0 0 
SMALL
USER_CHARGES


@<TRIPOS>ATOM
  1 CL      -0.7260    -2.1230    -0.7080 Cl    1 <1>  -0.1770 
  2 C       -2.4050    -1.6690    -0.5900 C.ar  1 <1>   0.1770 
  3 C       -3.1240    -2.0120     0.5380 C.ar  1 <1>  -0.1500 
  4 C       -2.9960    -0.9710    -1.6250 C.ar  1 <1>  -0.1500 
  5 C       -4.4570    -1.6460     0.6260 C.ar  1 <1>  -0.1500 
  6 C       -4.3300    -0.6110    -1.5230 C.ar  1 <1>  -0.1500 
  7 C       -5.0820    -0.9400    -0.3980 C.ar  1 <1>  -0.0090 
  8 S       -6.8290    -0.4610    -0.2610 S.o2  1 <1>   1.4470 
  9 O       -7.1650     0.4760    -1.3100 O.2   1 <1>  -0.6500 
 10 O       -7.6180    -1.6630    -0.0980 O.2   1 <1>  -0.6500 
 11 N       -6.8830     0.3700     1.2150 N.am  1 <1>  -0.8490 
 12 C       -8.2790     0.4900     1.7340 C.3   1 <1>   0.2570 
 13 C       -6.1900     1.6630     1.1410 C.3   1 <1>   0.1960 
 14 C       -9.2280     1.4500     0.9830 C.2   1 <1>   0.5690 
 15 C       -5.9150     2.2130     2.5390 C.3   1 <1>  -0.2400 
 16 O       -9.1580     2.6190     1.2980 O.2   1 <1>  -0.5700 
 17 N      -10.1180     1.0320     0.0170 N.am  1 <1>  -0.6600 
 18 C      -10.4200    -0.3830    -0.3490 C.3   1 <1>   0.1400 
 19 C      -10.7900     2.0260    -0.8690 C.3   1 <1>   0.1400 
 20 C      -11.9340    -0.6200    -0.3340 C.3   1 <1>  -0.1600 
 21 C      -12.3070     1.8150    -0.8430 C.3   1 <1>  -0.1600 
 22 C      -12.6790     0.3780    -1.2290 C.3   1 <1>  -0.1600 
 23 H       -2.6460    -2.5580     1.3330 H     1 <1>   0.1500 
 24 H       -2.4180    -0.7150    -2.4950 H     1 <1>   0.1500 
 25 H       -5.0260    -1.9100     1.5030 H     1 <1>   0.1500 
 26 H       -4.7940    -0.0670    -2.3300 H     1 <1>   0.1500 
 27 H       -8.2320     0.8390     2.7480 H     1 <1>   0.0800 
 28 H       -8.7190    -0.4850     1.7980 H     1 <1>   0.0800 
 29 H       -6.7560     2.3730     0.5580 H     1 <1>   0.0800 
 30 H       -5.2410     1.5300     0.6510 H     1 <1>   0.0800 
 31 H       -6.8240     2.5390     3.0110 H     1 <1>   0.0800 
 32 H       -5.2660     3.0670     2.4620 H     1 <1>   0.0800 
 33 H       -5.4320     1.4700     3.1470 H     1 <1>   0.0800 
 34 H       -9.9680    -1.0750     0.3330 H     1 <1>   0.0800 
 35 H      -10.0270    -0.5800    -1.3330 H     1 <1>   0.0800 
 36 H      -10.4210     1.8990    -1.8720 H     1 <1>   0.0800 
 37 H      -10.5640     3.0330    -0.5610 H     1 <1>   0.0800 
 38 H      -12.2880    -0.5320     0.6780 H     1 <1>   0.0800 
 39 H      -12.1380    -1.6230    -0.6660 H     1 <1>   0.0800 
 40 H      -12.7720     2.5050    -1.5240 H     1 <1>   0.0800 
 41 H      -12.6690     2.0360     0.1470 H     1 <1>   0.0800 
 42 H      -13.7410     0.2370    -1.1310 H     1 <1>   0.0800 
 43 H      -12.4110     0.2050    -2.2570 H     1 <1>   0.0800 
@<TRIPOS>BOND
  1   1   2  1   
  2   2   3  ar  
  3   2   4  ar  
  4   3   5  ar  
  5   3  23  1   
  6   4   6  ar  
  7   4  24  1   
  8   5   7  ar  
  9   5  25  1   
 10   6   7  ar  
 11   6  26  1   
 12   7   8  1   
 13   8   9  2   
 14   8  10  2   
 15   8  11  am  
 16  11  12  1   
 17  11  13  1   
 18  12  14  1   
 19  12  27  1   
 20  12  28  1   
 21  13  15  1   
 22  13  29  1   
 23  13  30  1   
 24  14  16  2   
 25  14  17  am  
 26  15  31  1   
 27  15  32  1   
 28  15  33  1   
 29  17  18  1   
 30  17  19  1   
 31  18  20  1   
 32  18  34  1   
 33  18  35  1   
 34  19  21  1   
 35  19  36  1   
 36  19  37  1   
 37  20  22  1   
 38  20  38  1   
 39  20  39  1   
 40  21  22  1   
 41  21  40  1   
 42  21  41  1   
 43  22  42  1   
 44  22  43  1   
@<TRIPOS>SUBSTRUCTURE
  1 ****   8 GROUP 4 **** **** 0

# MOE 2024.06 (io_trps.svl 2023.06)
