@<TRIPOS>MOLECULE
NONAME
39 39 1 0 0 
SMALL
USER_CHARGES


@<TRIPOS>ATOM
  1 CL      -0.3250     0.1770     1.8040 Cl    1 <1>  -0.1770 
  2 C       -1.6930    -0.6390     1.0950 C.ar  1 <1>   0.1770 
  3 C       -1.9860    -0.4380    -0.2400 C.ar  1 <1>  -0.1500 
  4 C       -2.4640    -1.4750     1.8770 C.ar  1 <1>  -0.1500 
  5 C       -3.0760    -1.0820    -0.8010 C.ar  1 <1>  -0.1500 
  6 C       -3.5540    -2.1200     1.3150 C.ar  1 <1>  -0.1500 
  7 C       -3.8700    -1.9180    -0.0240 C.ar  1 <1>  -0.1430 
  8 C       -5.0770    -2.6070    -0.6330 C.3   1 <1>   0.4870 
  9 N       -6.3070    -1.9290    -0.1120 N.4   1 <1>  -0.9590 
 10 C       -7.5230    -2.8050    -0.3020 C.3   1 <1>   0.3430 
 11 C       -6.4230    -0.5640    -0.7090 C.3   1 <1>   0.3430 
 12 C       -8.8160    -2.2970     0.4040 C.3   1 <1>   0.3430 
 13 C       -6.7500     0.4290     0.3990 C.3   1 <1>  -0.2400 
 14 N       -9.9950    -3.2380     0.3190 N.4   1 <1>  -0.9590 
 15 C      -10.5140    -3.4340    -1.0790 C.3   1 <1>   0.2630 
 16 C      -11.1190    -2.7360     1.1820 C.3   1 <1>   0.2630 
 17 H       -1.3610     0.2140    -0.8270 H     1 <1>   0.1500 
 18 H       -2.2040    -1.6180     2.9120 H     1 <1>   0.1500 
 19 H       -3.2850    -0.9220    -1.8460 H     1 <1>   0.1500 
 20 H       -4.1340    -2.7790     1.9380 H     1 <1>   0.1500 
 21 H       -5.0650    -3.6450    -0.3420 H     1 <1>   0.0800 
 22 H       -5.0360    -2.5530    -1.7090 H     1 <1>   0.0800 
 23 H       -6.0970    -1.7870     0.8870 H     1 <1>   0.4500 
 24 H       -7.3000    -3.7860     0.0840 H     1 <1>   0.0800 
 25 H       -7.7210    -2.9010    -1.3570 H     1 <1>   0.0800 
 26 H       -7.1790    -0.5410    -1.4770 H     1 <1>   0.0800 
 27 H       -5.4860    -0.2700    -1.1570 H     1 <1>   0.0800 
 28 H       -9.0970    -1.3490    -0.0260 H     1 <1>   0.0800 
 29 H       -8.5850    -2.1330     1.4440 H     1 <1>   0.0800 
 30 H       -7.6930     0.2220     0.8690 H     1 <1>   0.0800 
 31 H       -6.8070     1.4170    -0.0250 H     1 <1>   0.0800 
 32 H       -5.9680     0.4420     1.1380 H     1 <1>   0.0800 
 33 H       -9.7400    -4.1670     0.6980 H     1 <1>   0.4500 
 34 H      -10.8260    -2.4930    -1.5030 H     1 <1>   0.0800 
 35 H      -11.3650    -4.0990    -1.0700 H     1 <1>   0.0800 
 36 H       -9.7580    -3.8670    -1.7130 H     1 <1>   0.0800 
 37 H      -11.4630    -1.7740     0.8370 H     1 <1>   0.0800 
 38 H      -10.7970    -2.6390     2.2070 H     1 <1>   0.0800 
 39 H      -11.9500    -3.4240     1.1540 H     1 <1>   0.0800 
@<TRIPOS>BOND
  1   1   2  1   
  2   2   3  ar  
  3   2   4  ar  
  4   3   5  ar  
  5   3  17  1   
  6   4   6  ar  
  7   4  18  1   
  8   5   7  ar  
  9   5  19  1   
 10   6   7  ar  
 11   6  20  1   
 12   7   8  1   
 13   8   9  1   
 14   8  21  1   
 15   8  22  1   
 16   9  10  1   
 17   9  11  1   
 18   9  23  1   
 19  10  12  1   
 20  10  24  1   
 21  10  25  1   
 22  11  13  1   
 23  11  26  1   
 24  11  27  1   
 25  12  14  1   
 26  12  28  1   
 27  12  29  1   
 28  13  30  1   
 29  13  31  1   
 30  13  32  1   
 31  14  15  1   
 32  14  16  1   
 33  14  33  1   
 34  15  34  1   
 35  15  35  1   
 36  15  36  1   
 37  16  37  1   
 38  16  38  1   
 39  16  39  1   
@<TRIPOS>SUBSTRUCTURE
  1 ****   9 GROUP 4 **** **** 0

# MOE 2024.06 (io_trps.svl 2023.06)
