@<TRIPOS>MOLECULE
NONAME
39 41 1 0 0 
SMALL
USER_CHARGES


@<TRIPOS>ATOM
  1 O       -0.0530    -1.2900     0.0140 O.2   1 <1>  -0.5700 
  2 C       -0.5660    -2.2930    -0.4090 C.2   1 <1>   0.5690 
  3 N        0.0390    -3.2180    -1.1980 N.am  1 <1>  -0.4200 
  4 C       -1.9930    -2.7010    -0.0990 C.3   1 <1>  -0.0190 
  5 C       -0.7960    -4.2490    -1.4880 C.2   1 <1>   0.5690 
  6 C        1.4470    -3.1190    -1.6640 C.3   1 <1>   0.1400 
  7 C       -2.1600    -4.0220    -0.8830 C.3   1 <1>  -0.0990 
  8 C       -3.0020    -1.6110    -0.4980 C.3   1 <1>  -0.0170 
  9 O       -0.5160    -5.2250    -2.1320 O.2   1 <1>  -0.5700 
 10 C        2.4330    -3.4150    -0.5280 C.3   1 <1>   0.2000 
 11 C       -4.4300    -2.0510    -0.2100 C.ar  1 <1>  -0.1440 
 12 O        3.7270    -3.3920    -1.0320 O.3   1 <1>  -0.5600 
 13 C        2.3030    -4.8010     0.0910 C.3   1 <1>  -0.1600 
 14 C       -5.2780    -2.4220    -1.2430 C.ar  1 <1>  -0.1500 
 15 C       -4.8940    -2.0870     1.0960 C.ar  1 <1>  -0.1500 
 16 C        4.5840    -4.1000    -0.1950 C.3   1 <1>   0.1200 
 17 C        3.7140    -5.0950     0.5720 C.3   1 <1>  -0.1600 
 18 C       -6.5720    -2.8310    -0.9720 C.ar  1 <1>  -0.1500 
 19 C       -6.1880    -2.4960     1.3680 C.ar  1 <1>  -0.1500 
 20 C       -7.0270    -2.8700     0.3330 C.ar  1 <1>  -0.1500 
 21 H       -2.0630    -2.8920     0.9570 H     1 <1>   0.0800 
 22 H        1.6230    -2.1240    -2.0320 H     1 <1>   0.0800 
 23 H        1.6080    -3.8180    -2.4670 H     1 <1>   0.0800 
 24 H       -2.8860    -3.9470    -1.6710 H     1 <1>   0.0800 
 25 H       -2.4180    -4.8360    -0.2310 H     1 <1>   0.0800 
 26 H       -2.8920    -1.3740    -1.5420 H     1 <1>   0.0800 
 27 H       -2.7940    -0.7120     0.0570 H     1 <1>   0.0800 
 28 H        2.3730    -2.6510     0.2290 H     1 <1>   0.0800 
 29 H        2.0140    -5.5120    -0.6650 H     1 <1>   0.0800 
 30 H        1.5810    -4.8180     0.8880 H     1 <1>   0.0800 
 31 H       -4.9390    -2.3940    -2.2640 H     1 <1>   0.1500 
 32 H       -4.2520    -1.7950     1.9080 H     1 <1>   0.1500 
 33 H        5.0590    -3.4000     0.4700 H     1 <1>   0.0800 
 34 H        5.3230    -4.5930    -0.8040 H     1 <1>   0.0800 
 35 H        4.0020    -6.1090     0.3590 H     1 <1>   0.0800 
 36 H        3.8090    -4.9160     1.6280 H     1 <1>   0.0800 
 37 H       -7.2250    -3.1190    -1.7780 H     1 <1>   0.1500 
 38 H       -6.5420    -2.5220     2.3830 H     1 <1>   0.1500 
 39 H       -8.0330    -3.1880     0.5440 H     1 <1>   0.1500 
@<TRIPOS>BOND
  1   1   2  2   
  2   2   3  am  
  3   2   4  1   
  4   3   5  am  
  5   3   6  1   
  6   4   7  1   
  7   4   8  1   
  8   4  21  1   
  9   5   7  1   
 10   5   9  2   
 11   6  10  1   
 12   6  22  1   
 13   6  23  1   
 14   7  24  1   
 15   7  25  1   
 16   8  11  1   
 17   8  26  1   
 18   8  27  1   
 19  10  12  1   
 20  10  13  1   
 21  10  28  1   
 22  11  14  ar  
 23  11  15  ar  
 24  12  16  1   
 25  13  17  1   
 26  13  29  1   
 27  13  30  1   
 28  14  18  ar  
 29  14  31  1   
 30  15  19  ar  
 31  15  32  1   
 32  16  17  1   
 33  16  33  1   
 34  16  34  1   
 35  17  35  1   
 36  17  36  1   
 37  18  20  ar  
 38  18  37  1   
 39  19  20  ar  
 40  19  38  1   
 41  20  39  1   
@<TRIPOS>SUBSTRUCTURE
  1 ****   4 GROUP 4 **** **** 0

# MOE 2024.06 (io_trps.svl 2023.06)
