@<TRIPOS>MOLECULE
NONAME
39 40 1 0 0 
SMALL
USER_CHARGES


@<TRIPOS>ATOM
  1 S       -0.3410     0.7630     0.7800 S.3   1 <1>  -0.3310 
  2 C        1.4240     0.4840     0.5490 C.ar  1 <1>   0.1020 
  3 C       -0.9380     1.6720    -0.7330 C.3   1 <1>   0.1310 
  4 C        2.0990     0.9130    -0.5840 C.ar  1 <1>  -0.1500 
  5 C        2.0900    -0.1840     1.5610 C.ar  1 <1>  -0.1500 
  6 C       -2.4300     1.9690    -0.6580 C.2   1 <1>   0.5690 
  7 C        3.4570     0.6650    -0.6970 C.ar  1 <1>  -0.1500 
  8 C        3.4470    -0.4290     1.4430 C.ar  1 <1>  -0.1500 
  9 O       -2.9420     2.5560    -1.5810 O.2   1 <1>  -0.5700 
 10 N       -3.1480     1.5730     0.4320 N.am  1 <1>  -0.7300 
 11 C        4.1290    -0.0040     0.3140 C.ar  1 <1>  -0.1500 
 12 C       -4.5870     1.7610     0.6960 C.3   1 <1>   0.2200 
 13 C       -5.4160     1.0320    -0.3680 C.3   1 <1>  -0.1600 
 14 C       -4.9160     3.2570     0.7700 C.3   1 <1>  -0.1600 
 15 C       -6.9020     1.3440    -0.2300 C.3   1 <1>   0.3430 
 16 C       -6.4180     3.4950     0.8700 C.3   1 <1>   0.3430 
 17 N       -7.1010     2.8200    -0.2690 N.4   1 <1>  -0.9590 
 18 C       -8.5520     3.1720    -0.3190 C.3   1 <1>   0.2630 
 19 H       -0.7290     1.0500    -1.5830 H     1 <1>   0.0800 
 20 H       -0.3830     2.5890    -0.7950 H     1 <1>   0.0800 
 21 H        1.5990     1.4310    -1.3770 H     1 <1>   0.1500 
 22 H        1.5510    -0.5090     2.4330 H     1 <1>   0.1500 
 23 H        3.9940     0.9910    -1.5710 H     1 <1>   0.1500 
 24 H        3.9710    -0.9480     2.2260 H     1 <1>   0.1500 
 25 H       -2.6210     1.0810     1.1630 H     1 <1>   0.3700 
 26 H        5.1840    -0.1950     0.2220 H     1 <1>   0.1500 
 27 H       -4.8080     1.3210     1.6550 H     1 <1>   0.0800 
 28 H       -5.2690    -0.0280    -0.2680 H     1 <1>   0.0800 
 29 H       -5.1050     1.3150    -1.3570 H     1 <1>   0.0800 
 30 H       -4.5530     3.7740    -0.1000 H     1 <1>   0.0800 
 31 H       -4.4340     3.6850     1.6310 H     1 <1>   0.0800 
 32 H       -7.2740     0.9470     0.7010 H     1 <1>   0.0800 
 33 H       -7.4410     0.8760    -1.0390 H     1 <1>   0.0800 
 34 H       -6.6130     4.5560     0.8430 H     1 <1>   0.0800 
 35 H       -6.7890     3.1050     1.8050 H     1 <1>   0.0800 
 36 H       -6.6480     3.1600    -1.1330 H     1 <1>   0.4500 
 37 H       -9.0530     2.8290     0.5720 H     1 <1>   0.0800 
 38 H       -9.0180     2.7130    -1.1760 H     1 <1>   0.0800 
 39 H       -8.6750     4.2400    -0.3950 H     1 <1>   0.0800 
@<TRIPOS>BOND
  1   1   2  1   
  2   1   3  1   
  3   2   4  ar  
  4   2   5  ar  
  5   3   6  1   
  6   3  19  1   
  7   3  20  1   
  8   4   7  ar  
  9   4  21  1   
 10   5   8  ar  
 11   5  22  1   
 12   6   9  2   
 13   6  10  am  
 14   7  11  ar  
 15   7  23  1   
 16   8  11  ar  
 17   8  24  1   
 18  10  12  1   
 19  10  25  1   
 20  11  26  1   
 21  12  13  1   
 22  12  14  1   
 23  12  27  1   
 24  13  15  1   
 25  13  28  1   
 26  13  29  1   
 27  14  16  1   
 28  14  30  1   
 29  14  31  1   
 30  15  17  1   
 31  15  32  1   
 32  15  33  1   
 33  16  17  1   
 34  16  34  1   
 35  16  35  1   
 36  17  18  1   
 37  17  36  1   
 38  18  37  1   
 39  18  38  1   
 40  18  39  1   
@<TRIPOS>SUBSTRUCTURE
  1 ****   6 GROUP 4 **** **** 0

# MOE 2024.06 (io_trps.svl 2023.06)
