@<TRIPOS>MOLECULE
NONAME
40 40 1 0 0 
SMALL
USER_CHARGES


@<TRIPOS>ATOM
  1 S       -0.0100    -0.3540    -0.4150 S.o2  1 <1>   1.3330 
  2 O        1.2880    -0.9710    -0.2850 O.2   1 <1>  -0.6500 
  3 O       -0.2830     0.5630    -1.4940 O.2   1 <1>  -0.6500 
  4 N       -1.1890    -1.6210    -0.4600 N.am  1 <1>  -0.6930 
  5 C       -0.4020     0.4390     1.1290 C.3   1 <1>  -0.1350 
  6 C       -2.5390    -1.3910    -0.6750 C.ar  1 <1>   0.1990 
  7 C       -0.7050    -3.0010    -0.2820 C.3   1 <1>   0.3340 
  8 C       -3.0000    -0.7880    -1.8400 C.ar  1 <1>  -0.1500 
  9 C       -3.4810    -1.7700     0.2750 C.ar  1 <1>  -0.1500 
 10 C       -0.4830    -3.2810     1.1930 C.2   1 <1>  -0.2880 
 11 C       -4.3480    -0.5660    -2.0410 C.ar  1 <1>  -0.1500 
 12 C       -4.8300    -1.5490     0.0720 C.ar  1 <1>  -0.1500 
 13 C       -1.1770    -4.1510     1.9350 C.2   1 <1>  -0.3000 
 14 C       -5.3030    -0.9330    -1.0900 C.ar  1 <1>   0.0860 
 15 C       -6.7140    -0.6830    -1.3130 C.2   1 <1>   0.5440 
 16 O       -7.1640    -0.6280    -2.4410 O.2   1 <1>  -0.5700 
 17 N       -7.5620    -0.4900    -0.2570 N.am  1 <1>  -0.7300 
 18 C       -9.0070    -0.2480    -0.3510 C.3   1 <1>   0.2200 
 19 C       -9.2860     1.1670     0.1410 C.3   1 <1>  -0.2400 
 20 C       -9.7190    -1.2860     0.5090 C.3   1 <1>  -0.2400 
 21 H        0.2720     1.2550     1.3040 H     1 <1>   0.0800 
 22 H       -0.3170    -0.2590     1.9370 H     1 <1>   0.0800 
 23 H       -1.4040     0.8200     1.1030 H     1 <1>   0.0800 
 24 H        0.2100    -3.1470    -0.8330 H     1 <1>   0.0800 
 25 H       -1.4370    -3.6860    -0.6760 H     1 <1>   0.0800 
 26 H       -2.2930    -0.4940    -2.5960 H     1 <1>   0.1500 
 27 H       -3.1460    -2.2420     1.1810 H     1 <1>   0.1500 
 28 H        0.3260    -2.6970     1.5980 H     1 <1>   0.1500 
 29 H       -4.6790    -0.0980    -2.9530 H     1 <1>   0.1500 
 30 H       -5.5300    -1.8670     0.8230 H     1 <1>   0.1500 
 31 H       -0.9890    -4.3310     2.9800 H     1 <1>   0.1500 
 32 H       -1.9870    -4.7570     1.5660 H     1 <1>   0.1500 
 33 H       -7.1780    -0.4100     0.6820 H     1 <1>   0.3700 
 34 H       -9.3320    -0.3450    -1.3750 H     1 <1>   0.0800 
 35 H       -8.9750     1.2880     1.1630 H     1 <1>   0.0800 
 36 H      -10.3390     1.3740     0.0760 H     1 <1>   0.0800 
 37 H       -8.7660     1.8760    -0.4780 H     1 <1>   0.0800 
 38 H       -9.4160    -1.2070     1.5370 H     1 <1>   0.0800 
 39 H       -9.4980    -2.2740     0.1450 H     1 <1>   0.0800 
 40 H      -10.7820    -1.1380     0.4510 H     1 <1>   0.0800 
@<TRIPOS>BOND
  1   1   2  2   
  2   1   3  2   
  3   1   4  am  
  4   1   5  1   
  5   4   6  1   
  6   4   7  1   
  7   5  21  1   
  8   5  22  1   
  9   5  23  1   
 10   6   8  ar  
 11   6   9  ar  
 12   7  10  1   
 13   7  24  1   
 14   7  25  1   
 15   8  11  ar  
 16   8  26  1   
 17   9  12  ar  
 18   9  27  1   
 19  10  13  2   
 20  10  28  1   
 21  11  14  ar  
 22  11  29  1   
 23  12  14  ar  
 24  12  30  1   
 25  13  31  1   
 26  13  32  1   
 27  14  15  1   
 28  15  16  2   
 29  15  17  am  
 30  17  18  1   
 31  17  33  1   
 32  18  19  1   
 33  18  20  1   
 34  18  34  1   
 35  19  35  1   
 36  19  36  1   
 37  19  37  1   
 38  20  38  1   
 39  20  39  1   
 40  20  40  1   
@<TRIPOS>SUBSTRUCTURE
  1 ****   9 GROUP 4 **** **** 0

# MOE 2024.06 (io_trps.svl 2023.06)
