@<TRIPOS>MOLECULE
NONAME
44 45 1 0 0 
SMALL
USER_CHARGES


@<TRIPOS>ATOM
  1 O       -0.8830     1.0860     0.2080 O.2   1 <1>  -0.5700 
  2 C       -0.3780     2.0540     0.7400 C.2   1 <1>   0.6900 
  3 N        0.9580     2.3020     0.6890 N.am  1 <1>  -0.5470 
  4 N       -1.1710     2.9400     1.3960 N.am  1 <1>  -0.7300 
  5 C        2.0000     1.5250     0.1570 C.ar  1 <1>   0.1170 
  6 C       -2.6340     2.7650     1.6140 C.3   1 <1>   0.1400 
  7 C        3.1280     2.1630    -0.3450 C.ar  1 <1>  -0.1500 
  8 C        1.9590     0.1350     0.1300 C.ar  1 <1>  -0.1500 
  9 C       -3.4000     2.6240     0.2780 C.3   1 <1>   0.3430 
 10 C        4.1860     1.4390    -0.8680 C.ar  1 <1>  -0.1500 
 11 C        3.0120    -0.5940    -0.3920 C.ar  1 <1>  -0.1500 
 12 N       -4.3440     1.4570     0.2450 N.4   1 <1>  -0.9590 
 13 C        4.1300     0.0490    -0.8950 C.ar  1 <1>   0.0830 
 14 C       -3.5910     0.1610     0.2370 C.3   1 <1>   0.3430 
 15 C       -5.2350     1.5500    -0.9460 C.3   1 <1>   0.3430 
 16 O        5.1190    -0.7420    -1.3920 O.3   1 <1>  -0.3620 
 17 C       -4.5730    -1.0100     0.2960 C.3   1 <1>  -0.1600 
 18 C       -6.2630     0.4170    -0.9140 C.3   1 <1>  -0.1600 
 19 C        6.2780    -0.1790    -1.9650 C.3   1 <1>   0.0400 
 20 C       -5.5870    -0.9580    -0.8540 C.3   1 <1>  -0.1600 
 21 H        1.2330     3.2350     0.9790 H     1 <1>   0.3700 
 22 H       -0.7100     3.6090     2.0160 H     1 <1>   0.3700 
 23 H       -3.0100     3.6230     2.1430 H     1 <1>   0.0800 
 24 H       -2.7840     1.8960     2.2320 H     1 <1>   0.0800 
 25 H        3.1840     3.2360    -0.3330 H     1 <1>   0.1500 
 26 H        1.1040    -0.3870     0.5200 H     1 <1>   0.1500 
 27 H       -2.6840     2.5180    -0.5210 H     1 <1>   0.0800 
 28 H       -3.9500     3.5340     0.1070 H     1 <1>   0.0800 
 29 H        5.0380     1.9690    -1.2470 H     1 <1>   0.1500 
 30 H        2.9740    -1.6680    -0.4130 H     1 <1>   0.1500 
 31 H       -4.9390     1.4650     1.0810 H     1 <1>   0.4500 
 32 H       -2.9200     0.1100     1.0790 H     1 <1>   0.0800 
 33 H       -2.9940     0.0920    -0.6590 H     1 <1>   0.0800 
 34 H       -4.6470     1.4750    -1.8470 H     1 <1>   0.0800 
 35 H       -5.7480     2.4990    -0.9530 H     1 <1>   0.0800 
 36 H       -5.0860    -1.0000     1.2410 H     1 <1>   0.0800 
 37 H       -4.0190    -1.9320     0.2400 H     1 <1>   0.0800 
 38 H       -6.8750     0.4730    -1.7970 H     1 <1>   0.0800 
 39 H       -6.9120     0.5450    -0.0650 H     1 <1>   0.0800 
 40 H        6.9060    -0.9840    -2.3030 H     1 <1>   0.0800 
 41 H        6.7930     0.3970    -1.2170 H     1 <1>   0.0800 
 42 H        5.9910     0.4360    -2.7990 H     1 <1>   0.0800 
 43 H       -6.3290    -1.7290    -0.7250 H     1 <1>   0.0800 
 44 H       -5.0780    -1.1480    -1.7860 H     1 <1>   0.0800 
@<TRIPOS>BOND
  1   1   2  2   
  2   2   3  am  
  3   2   4  am  
  4   3   5  1   
  5   3  21  1   
  6   4   6  1   
  7   4  22  1   
  8   5   7  ar  
  9   5   8  ar  
 10   6   9  1   
 11   6  23  1   
 12   6  24  1   
 13   7  10  ar  
 14   7  25  1   
 15   8  11  ar  
 16   8  26  1   
 17   9  12  1   
 18   9  27  1   
 19   9  28  1   
 20  10  13  ar  
 21  10  29  1   
 22  11  13  ar  
 23  11  30  1   
 24  12  14  1   
 25  12  15  1   
 26  12  31  1   
 27  13  16  1   
 28  14  17  1   
 29  14  32  1   
 30  14  33  1   
 31  15  18  1   
 32  15  34  1   
 33  15  35  1   
 34  16  19  1   
 35  17  20  1   
 36  17  36  1   
 37  17  37  1   
 38  18  20  1   
 39  18  38  1   
 40  18  39  1   
 41  19  40  1   
 42  19  41  1   
 43  19  42  1   
 44  20  43  1   
 45  20  44  1   
@<TRIPOS>SUBSTRUCTURE
  1 ****   1 GROUP 4 **** **** 0

# MOE 2024.06 (io_trps.svl 2023.06)
