@<TRIPOS>MOLECULE
NONAME
35 36 1 0 0 
SMALL
USER_CHARGES


@<TRIPOS>ATOM
  1 O       -2.2450     2.4320    -0.3040 O.3   1 <1>  -0.6800 
  2 C       -2.9860     2.1560    -1.4490 C.3   1 <1>   0.1200 
  3 C       -4.3100     1.4530    -1.0820 C.3   1 <1>  -0.0800 
  4 C       -4.1170     0.1460    -0.2850 C.3   1 <1>   0.4230 
  5 C       -5.3090     2.4220    -0.3990 C.3   1 <1>  -0.1600 
  6 N       -3.5770     0.4660     1.0440 N.4   1 <1>  -0.8530 
  7 C       -5.4490    -0.6070    -0.1160 C.3   1 <1>  -0.1600 
  8 C       -6.4550     1.7140     0.3590 C.3   1 <1>   0.0630 
  9 C       -6.7060     0.2910    -0.1680 C.3   1 <1>  -0.1600 
 10 C       -7.7290     2.5530     0.3360 C.ar  1 <1>  -0.1430 
 11 C       -8.2180     3.1020     1.5130 C.ar  1 <1>  -0.1500 
 12 C       -8.4180     2.7840    -0.8480 C.ar  1 <1>  -0.1500 
 13 C       -9.3720     3.8670     1.5090 C.ar  1 <1>  -0.1500 
 14 C       -9.5720     3.5480    -0.8540 C.ar  1 <1>  -0.1500 
 15 C      -10.0500     4.0900     0.3250 C.ar  1 <1>  -0.1500 
 16 H       -1.5150     3.0560    -0.5220 H     1 <1>   0.4000 
 17 H       -3.1870     3.0880    -1.9540 H     1 <1>   0.0800 
 18 H       -2.3860     1.5360    -2.0950 H     1 <1>   0.0800 
 19 H       -4.7550     1.1680    -2.0200 H     1 <1>   0.0800 
 20 H       -3.4140    -0.4850    -0.8070 H     1 <1>   0.0800 
 21 H       -4.7990     3.0700     0.2940 H     1 <1>   0.0800 
 22 H       -5.7200     3.0630    -1.1610 H     1 <1>   0.0800 
 23 H       -4.2970     0.8920     1.6290 H     1 <1>   0.4500 
 24 H       -2.8500     1.1900     0.8870 H     1 <1>   0.4500 
 25 H       -3.1620    -0.3410     1.5120 H     1 <1>   0.4500 
 26 H       -5.5340    -1.3200    -0.9200 H     1 <1>   0.0800 
 27 H       -5.4430    -1.1780     0.7960 H     1 <1>   0.0800 
 28 H       -6.1590     1.6140     1.3880 H     1 <1>   0.0800 
 29 H       -7.5040    -0.1670     0.3940 H     1 <1>   0.0800 
 30 H       -7.0420     0.3550    -1.1890 H     1 <1>   0.0800 
 31 H       -7.7100     2.9440     2.4480 H     1 <1>   0.1500 
 32 H       -8.0650     2.3760    -1.7770 H     1 <1>   0.1500 
 33 H       -9.7430     4.2880     2.4260 H     1 <1>   0.1500 
 34 H      -10.1000     3.7220    -1.7760 H     1 <1>   0.1500 
 35 H      -10.9470     4.6840     0.3210 H     1 <1>   0.1500 
@<TRIPOS>BOND
  1   1   2  1   
  2   1  16  1   
  3   2   3  1   
  4   2  17  1   
  5   2  18  1   
  6   3   4  1   
  7   3   5  1   
  8   3  19  1   
  9   4   6  1   
 10   4   7  1   
 11   4  20  1   
 12   5   8  1   
 13   5  21  1   
 14   5  22  1   
 15   6  23  1   
 16   6  24  1   
 17   6  25  1   
 18   7   9  1   
 19   7  26  1   
 20   7  27  1   
 21   8   9  1   
 22   8  10  1   
 23   8  28  1   
 24   9  29  1   
 25   9  30  1   
 26  10  11  ar  
 27  10  12  ar  
 28  11  13  ar  
 29  11  31  1   
 30  12  14  ar  
 31  12  32  1   
 32  13  15  ar  
 33  13  33  1   
 34  14  15  ar  
 35  14  34  1   
 36  15  35  1   
@<TRIPOS>SUBSTRUCTURE
  1 ****   8 GROUP 4 **** **** 0

# MOE 2024.06 (io_trps.svl 2023.06)
