@<TRIPOS>MOLECULE
NONAME
47 49 1 0 0 
SMALL
USER_CHARGES


@<TRIPOS>ATOM
  1 O        0.0820     0.1650    -0.9460 O.2   1 <1>  -0.5700 
  2 C        0.6400    -0.6620    -0.2510 C.2   1 <1>   0.6900 
  3 N        1.9280    -0.4470     0.1740 N.am  1 <1>  -0.6600 
  4 N        0.0150    -1.8260     0.0950 N.am  1 <1>  -0.5470 
  5 C        2.5810    -1.1390     1.3280 C.3   1 <1>   0.1400 
  6 C        2.7410     0.6800    -0.3790 C.3   1 <1>   0.1400 
  7 C       -1.3100    -2.2540    -0.0810 C.ar  1 <1>   0.1170 
  8 C        3.9900    -1.6200     0.9510 C.3   1 <1>   0.1400 
  9 C        4.1640     0.2200    -0.7370 C.3   1 <1>   0.1400 
 10 C       -1.5760    -3.6180    -0.1140 C.ar  1 <1>  -0.1500 
 11 C       -2.3780    -1.3700    -0.2030 C.ar  1 <1>  -0.1500 
 12 N        4.8130    -0.4960     0.4090 N.am  1 <1>  -0.6600 
 13 C       -2.8690    -4.0850    -0.2680 C.ar  1 <1>  -0.1500 
 14 C       -3.6730    -1.8300    -0.3580 C.ar  1 <1>  -0.1500 
 15 C        6.0700    -0.2200     0.9020 C.2   1 <1>   0.5690 
 16 C       -3.9260    -3.1980    -0.3920 C.ar  1 <1>   0.0820 
 17 O        6.5130    -0.8620     1.8310 O.2   1 <1>  -0.5700 
 18 C        6.9380     0.9200     0.3030 C.3   1 <1>   0.2610 
 19 O       -5.1650    -3.7390    -0.5410 O.3   1 <1>  -0.3630 
 20 O        7.1850     0.7110    -1.0620 O.3   1 <1>  -0.5600 
 21 C        8.3470     1.0590     0.8830 C.3   1 <1>  -0.1600 
 22 C       -6.2950    -2.9140    -0.7150 C.3   1 <1>   0.0400 
 23 C        8.3040    -0.1010    -1.2220 C.3   1 <1>   0.1200 
 24 C        9.1790     0.1350     0.0080 C.3   1 <1>  -0.1600 
 25 H        0.6580    -2.5340     0.4240 H     1 <1>   0.3700 
 26 H        1.9960    -1.9760     1.6620 H     1 <1>   0.0800 
 27 H        2.6590    -0.4480     2.1490 H     1 <1>   0.0800 
 28 H        2.7930     1.4670     0.3520 H     1 <1>   0.0800 
 29 H        2.2760     1.0830    -1.2630 H     1 <1>   0.0800 
 30 H        3.9180    -2.3920     0.2050 H     1 <1>   0.0800 
 31 H        4.4570    -2.0490     1.8210 H     1 <1>   0.0800 
 32 H        4.7350     1.0800    -1.0340 H     1 <1>   0.0800 
 33 H        4.1170    -0.4440    -1.5820 H     1 <1>   0.0800 
 34 H       -0.7710    -4.3220    -0.0240 H     1 <1>   0.1500 
 35 H       -2.1980    -0.3100    -0.1740 H     1 <1>   0.1500 
 36 H       -3.0700    -5.1400    -0.2950 H     1 <1>   0.1500 
 37 H       -4.4640    -1.1110    -0.4510 H     1 <1>   0.1500 
 38 H        6.4020     1.8450     0.4080 H     1 <1>   0.0800 
 39 H        8.4000     0.8070     1.9270 H     1 <1>   0.0800 
 40 H        8.6730     2.0760     0.7570 H     1 <1>   0.0800 
 41 H       -7.1560    -3.5470    -0.8290 H     1 <1>   0.0800 
 42 H       -6.1590    -2.3190    -1.6010 H     1 <1>   0.0800 
 43 H       -6.4100    -2.2910     0.1540 H     1 <1>   0.0800 
 44 H        8.8020     0.1730    -2.1360 H     1 <1>   0.0800 
 45 H        7.9730    -1.1250    -1.2720 H     1 <1>   0.0800 
 46 H        9.3630    -0.8020     0.5040 H     1 <1>   0.0800 
 47 H       10.1200     0.5820    -0.2610 H     1 <1>   0.0800 
@<TRIPOS>BOND
  1   1   2  2   
  2   2   3  am  
  3   2   4  am  
  4   3   5  1   
  5   3   6  1   
  6   4   7  1   
  7   4  25  1   
  8   5   8  1   
  9   5  26  1   
 10   5  27  1   
 11   6   9  1   
 12   6  28  1   
 13   6  29  1   
 14   7  10  ar  
 15   7  11  ar  
 16   8  12  1   
 17   8  30  1   
 18   8  31  1   
 19   9  12  1   
 20   9  32  1   
 21   9  33  1   
 22  10  13  ar  
 23  10  34  1   
 24  11  14  ar  
 25  11  35  1   
 26  12  15  am  
 27  13  16  ar  
 28  13  36  1   
 29  14  16  ar  
 30  14  37  1   
 31  15  17  2   
 32  15  18  1   
 33  16  19  1   
 34  18  20  1   
 35  18  21  1   
 36  18  38  1   
 37  19  22  1   
 38  20  23  1   
 39  21  24  1   
 40  21  39  1   
 41  21  40  1   
 42  22  41  1   
 43  22  42  1   
 44  22  43  1   
 45  23  24  1   
 46  23  44  1   
 47  23  45  1   
 48  24  46  1   
 49  24  47  1   
@<TRIPOS>SUBSTRUCTURE
  1 ****   3 GROUP 4 **** **** 0

# MOE 2024.06 (io_trps.svl 2023.06)
