@<TRIPOS>MOLECULE
NONAME
26 26 1 0 0 
SMALL
USER_CHARGES


@<TRIPOS>ATOM
  1 BR       1.0340    -0.2030    -0.3490 Br    1 <1>  -0.1110 
  2 C       -0.6460     0.7300    -0.1890 C.ar  1 <1>   0.1110 
  3 C       -0.6860     2.0260     0.3070 C.ar  1 <1>  -0.1440 
  4 C       -1.7840     0.0530    -0.5880 C.ar  1 <1>  -0.1500 
  5 C       -1.9230     2.6480     0.3910 C.ar  1 <1>  -0.1500 
  6 C        0.5660     2.7630     0.7520 C.3   1 <1>   0.2140 
  7 C       -3.0090     0.6900    -0.4920 C.ar  1 <1>  -0.1500 
  8 C       -3.0750     1.9850    -0.0040 C.ar  1 <1>  -0.1500 
  9 S        1.2640     3.6070    -0.6980 S.3   1 <1>  -0.4600 
 10 C        2.8160     4.3340    -0.0560 C.3   1 <1>   0.1310 
 11 C        3.7780     3.2610     0.4360 C.2   1 <1>   0.5690 
 12 O        4.4720     3.5020     1.3930 O.2   1 <1>  -0.5700 
 13 N        3.8190     2.0630    -0.2070 N.am  1 <1>  -0.7300 
 14 C        4.6890     0.9150     0.1500 C.3   1 <1>   0.0600 
 15 H       -1.7110    -0.9510    -0.9660 H     1 <1>   0.1500 
 16 H       -1.9960     3.6570     0.7610 H     1 <1>   0.1500 
 17 H        1.3120     2.0950     1.1440 H     1 <1>   0.0800 
 18 H        0.3400     3.5180     1.4830 H     1 <1>   0.0800 
 19 H       -3.9080     0.1820    -0.7970 H     1 <1>   0.1500 
 20 H       -4.0280     2.4810     0.0660 H     1 <1>   0.1500 
 21 H        2.5530     4.9980     0.7470 H     1 <1>   0.0800 
 22 H        3.2620     4.8910    -0.8570 H     1 <1>   0.0800 
 23 H        3.1420     1.9030    -0.9620 H     1 <1>   0.3700 
 24 H        5.3480     1.1820     0.9590 H     1 <1>   0.0800 
 25 H        5.2810     0.6290    -0.7020 H     1 <1>   0.0800 
 26 H        4.0820     0.0800     0.4570 H     1 <1>   0.0800 
@<TRIPOS>BOND
  1   1   2  1   
  2   2   3  ar  
  3   2   4  ar  
  4   3   5  ar  
  5   3   6  1   
  6   4   7  ar  
  7   4  15  1   
  8   5   8  ar  
  9   5  16  1   
 10   6   9  1   
 11   6  17  1   
 12   6  18  1   
 13   7   8  ar  
 14   7  19  1   
 15   8  20  1   
 16   9  10  1   
 17  10  11  1   
 18  10  21  1   
 19  10  22  1   
 20  11  12  2   
 21  11  13  am  
 22  13  14  1   
 23  13  23  1   
 24  14  24  1   
 25  14  25  1   
 26  14  26  1   
@<TRIPOS>SUBSTRUCTURE
  1 ****   6 GROUP 4 **** **** 0

# MOE 2024.06 (io_trps.svl 2023.06)
