@<TRIPOS>MOLECULE
NONAME
50 53 1 0 0 
SMALL
USER_CHARGES


@<TRIPOS>ATOM
  1 O        2.5230    -9.8920    -0.7780 O.3   1 <1>  -0.6800 
  2 C        3.2120    -8.6870    -0.7490 C.3   1 <1>   0.1200 
  3 C        3.0530    -8.0540     0.6350 C.3   1 <1>   0.2090 
  4 N        3.7720    -6.7460     0.6950 N.pl3 1 <1>  -0.8690 
  5 C        3.2630    -5.5380     0.3760 C.ar  1 <1>   0.4100 
  6 N        2.0410    -5.5090    -0.0880 N.ar  1 <1>  -0.6200 
  7 C        4.0520    -4.3530     0.5440 C.ar  1 <1>   0.0000 
  8 C        1.4840    -4.3460    -0.4090 C.ar  1 <1>   0.7710 
  9 C        3.4500    -3.1460     0.1910 C.ar  1 <1>   0.3610 
 10 C        5.3690    -4.3150     1.0310 C.ar  1 <1>  -0.1500 
 11 N        2.1630    -3.2030    -0.2790 N.ar  1 <1>  -0.1790 
 12 N        0.2160    -4.3290    -0.8780 N.pl3 1 <1>  -0.8380 
 13 C        4.1440    -1.9390     0.3170 C.ar  1 <1>  -0.1500 
 14 C        6.0460    -3.1250     1.1530 C.ar  1 <1>  -0.1500 
 15 C       -0.6710    -3.1270    -1.1140 C.3   1 <1>   0.2090 
 16 C       -0.5420    -5.6080    -1.1860 C.3   1 <1>   0.2090 
 17 C        5.4340    -1.9290     0.7950 C.ar  1 <1>  -0.1500 
 18 C       -1.9940    -3.2200    -0.3250 C.3   1 <1>   0.2090 
 19 C       -1.8600    -5.7030    -0.3970 C.3   1 <1>   0.2090 
 20 N       -2.7040    -4.4920    -0.6220 N.pl3 1 <1>  -0.8380 
 21 C       -4.0230    -4.5640    -0.1900 C.ar  1 <1>   0.1000 
 22 C       -5.0540    -4.4450    -1.1120 C.ar  1 <1>  -0.1500 
 23 C       -4.3430    -4.7470     1.1510 C.ar  1 <1>  -0.1500 
 24 C       -6.3760    -4.5040    -0.7080 C.ar  1 <1>  -0.1500 
 25 C       -5.6630    -4.8090     1.5600 C.ar  1 <1>  -0.1500 
 26 C       -6.6820    -4.6870     0.6300 C.ar  1 <1>  -0.1500 
 27 H        2.6360   -10.3370    -1.6420 H     1 <1>   0.4000 
 28 H        2.7980    -8.0430    -1.5050 H     1 <1>   0.0800 
 29 H        4.2490    -8.8860    -0.9560 H     1 <1>   0.0800 
 30 H        3.4560    -8.7150     1.3830 H     1 <1>   0.0800 
 31 H        2.0070    -7.9060     0.8400 H     1 <1>   0.0800 
 32 H        4.7310    -6.8270     1.0440 H     1 <1>   0.4000 
 33 H        5.8630    -5.2280     1.3150 H     1 <1>   0.1500 
 34 H        1.6950    -2.3630    -0.5810 H     1 <1>   0.4570 
 35 H        3.6800    -1.0080     0.0430 H     1 <1>   0.1500 
 36 H        7.0580    -3.1090     1.5280 H     1 <1>   0.1500 
 37 H       -0.9120    -3.0710    -2.1630 H     1 <1>   0.0800 
 38 H       -0.1810    -2.2120    -0.8410 H     1 <1>   0.0800 
 39 H        0.0410    -6.4880    -0.9760 H     1 <1>   0.0800 
 40 H       -0.7770    -5.6310    -2.2360 H     1 <1>   0.0800 
 41 H        5.9810    -1.0040     0.8970 H     1 <1>   0.1500 
 42 H       -2.6320    -2.3940    -0.5910 H     1 <1>   0.0800 
 43 H       -1.7950    -3.1610     0.7310 H     1 <1>   0.0800 
 44 H       -1.6420    -5.8080     0.6520 H     1 <1>   0.0800 
 45 H       -2.4050    -6.5760    -0.7130 H     1 <1>   0.0800 
 46 H       -4.8080    -4.3050    -2.1480 H     1 <1>   0.1500 
 47 H       -3.5560    -4.8410     1.8750 H     1 <1>   0.1500 
 48 H       -7.1650    -4.4100    -1.4340 H     1 <1>   0.1500 
 49 H       -5.9010    -4.9510     2.5990 H     1 <1>   0.1500 
 50 H       -7.7100    -4.7340     0.9450 H     1 <1>   0.1500 
@<TRIPOS>BOND
  1   1   2  1   
  2   1  27  1   
  3   2   3  1   
  4   2  28  1   
  5   2  29  1   
  6   3   4  1   
  7   3  30  1   
  8   3  31  1   
  9   4   5  1   
 10   4  32  1   
 11   5   6  ar  
 12   5   7  ar  
 13   6   8  ar  
 14   7   9  ar  
 15   7  10  ar  
 16   8  11  ar  
 17   8  12  1   
 18   9  11  ar  
 19   9  13  ar  
 20  10  14  ar  
 21  10  33  1   
 22  11  34  1   
 23  12  15  1   
 24  12  16  1   
 25  13  17  ar  
 26  13  35  1   
 27  14  17  ar  
 28  14  36  1   
 29  15  18  1   
 30  15  37  1   
 31  15  38  1   
 32  16  19  1   
 33  16  39  1   
 34  16  40  1   
 35  17  41  1   
 36  18  20  1   
 37  18  42  1   
 38  18  43  1   
 39  19  20  1   
 40  19  44  1   
 41  19  45  1   
 42  20  21  1   
 43  21  22  ar  
 44  21  23  ar  
 45  22  24  ar  
 46  22  46  1   
 47  23  25  ar  
 48  23  47  1   
 49  24  26  ar  
 50  24  48  1   
 51  25  26  ar  
 52  25  49  1   
 53  26  50  1   
@<TRIPOS>SUBSTRUCTURE
  1 ****  12 GROUP 4 **** **** 0

# MOE 2024.06 (io_trps.svl 2023.06)
