@<TRIPOS>MOLECULE
NONAME
48 50 1 0 0 
SMALL
USER_CHARGES


@<TRIPOS>ATOM
  1 O       -0.5510    -2.4940     1.3350 O.2   1 <1>  -0.5700 
  2 C       -0.5360    -3.6560     1.0000 C.2   1 <1>   0.5950 
  3 C        0.6510    -4.4180     0.7990 C.2   1 <1>  -0.0860 
  4 C       -1.8960    -4.2760     0.7390 C.3   1 <1>  -0.0990 
  5 C        1.8730    -3.9620     0.3670 C.2   1 <1>  -0.0680 
  6 C        0.8820    -5.8050     0.9560 C.2   1 <1>   0.1080 
  7 C       -2.8430    -3.2060     0.1900 C.3   1 <1>   0.3430 
  8 N        2.6910    -5.0200     0.2630 N.pl3 1 <1>   0.5930 
  9 N        2.5460    -2.8100    -0.0040 N.pl3 1 <1>  -0.5530 
 10 N        2.0760    -6.1740     0.6270 N.2   1 <1>  -0.7070 
 11 C       -0.0930    -6.8390     1.4840 C.3   1 <1>  -0.0590 
 12 N       -4.2290    -3.7270    -0.0260 N.4   1 <1>  -0.9590 
 13 C        3.9370    -4.5850    -0.1780 C.ar  1 <1>  -0.0230 
 14 C        3.8410    -3.2090    -0.3390 C.ar  1 <1>   0.1000 
 15 C        2.1000    -1.4220     0.2530 C.3   1 <1>   0.1290 
 16 C       -4.3090    -4.6990    -1.1520 C.3   1 <1>   0.3430 
 17 C       -5.1580    -2.5810    -0.2290 C.3   1 <1>   0.3430 
 18 C        5.1190    -5.2650    -0.4400 C.ar  1 <1>  -0.1500 
 19 C        4.9470    -2.4860    -0.7710 C.ar  1 <1>  -0.1500 
 20 C       -4.6460    -6.0700    -0.5830 C.3   1 <1>  -0.2400 
 21 C       -6.5950    -3.0360    -0.0060 C.3   1 <1>  -0.2400 
 22 C        6.2150    -4.5390    -0.8700 C.ar  1 <1>  -0.1500 
 23 C        6.1280    -3.1560    -1.0340 C.ar  1 <1>  -0.1500 
 24 H       -2.2760    -4.6620     1.6660 H     1 <1>   0.0800 
 25 H       -1.7840    -5.0680     0.0230 H     1 <1>   0.0800 
 26 H       -2.4480    -2.8150    -0.7350 H     1 <1>   0.0800 
 27 H       -2.8750    -2.3910     0.8970 H     1 <1>   0.0800 
 28 H       -0.6510    -6.4460     2.3130 H     1 <1>   0.0800 
 29 H        0.4520    -7.7000     1.8300 H     1 <1>   0.0800 
 30 H       -0.7580    -7.1570     0.7040 H     1 <1>   0.0800 
 31 H       -4.5390    -4.2070     0.8300 H     1 <1>   0.4500 
 32 H        1.2210    -1.2130    -0.3280 H     1 <1>   0.0800 
 33 H        2.8730    -0.7240    -0.0130 H     1 <1>   0.0800 
 34 H        1.8690    -1.3080     1.2980 H     1 <1>   0.0800 
 35 H       -3.3710    -4.7400    -1.6840 H     1 <1>   0.0800 
 36 H       -5.0760    -4.4040    -1.8500 H     1 <1>   0.0800 
 37 H       -5.0440    -2.1780    -1.2240 H     1 <1>   0.0800 
 38 H       -4.9300    -1.7980     0.4780 H     1 <1>   0.0800 
 39 H        5.1670    -6.3320    -0.3060 H     1 <1>   0.1500 
 40 H        4.8780    -1.4220    -0.8990 H     1 <1>   0.1500 
 41 H       -3.8900    -6.4080     0.1020 H     1 <1>   0.0800 
 42 H       -4.7040    -6.7810    -1.3880 H     1 <1>   0.0800 
 43 H       -5.6020    -6.0540    -0.0900 H     1 <1>   0.0800 
 44 H       -6.9000    -3.7620    -0.7370 H     1 <1>   0.0800 
 45 H       -7.2500    -2.1870    -0.0990 H     1 <1>   0.0800 
 46 H       -6.7200    -3.4410     0.9830 H     1 <1>   0.0800 
 47 H        7.1440    -5.0410    -1.0800 H     1 <1>   0.1500 
 48 H        6.9920    -2.6100    -1.3700 H     1 <1>   0.1500 
@<TRIPOS>BOND
  1   1   2  2   
  2   2   3  1   
  3   2   4  1   
  4   3   5  2   
  5   3   6  1   
  6   4   7  1   
  7   4  24  1   
  8   4  25  1   
  9   5   8  1   
 10   5   9  1   
 11   6  10  2   
 12   6  11  1   
 13   7  12  1   
 14   7  26  1   
 15   7  27  1   
 16   8  10  1   
 17   8  13  1   
 18   9  14  1   
 19   9  15  1   
 20  11  28  1   
 21  11  29  1   
 22  11  30  1   
 23  12  16  1   
 24  12  17  1   
 25  12  31  1   
 26  13  14  ar  
 27  13  18  ar  
 28  14  19  ar  
 29  15  32  1   
 30  15  33  1   
 31  15  34  1   
 32  16  20  1   
 33  16  35  1   
 34  16  36  1   
 35  17  21  1   
 36  17  37  1   
 37  17  38  1   
 38  18  22  ar  
 39  18  39  1   
 40  19  23  ar  
 41  19  40  1   
 42  20  41  1   
 43  20  42  1   
 44  20  43  1   
 45  21  44  1   
 46  21  45  1   
 47  21  46  1   
 48  22  23  ar  
 49  22  47  1   
 50  23  48  1   
@<TRIPOS>SUBSTRUCTURE
  1 ****   3 GROUP 4 **** **** 0

# MOE 2024.06 (io_trps.svl 2023.06)
