@<TRIPOS>MOLECULE
NONAME
28 29 1 0 0 
SMALL
USER_CHARGES


@<TRIPOS>ATOM
  1 O       -0.5250    -0.4930    -0.6880 O.2   1 <1>  -0.5700 
  2 C       -0.8560    -1.6010    -0.3540 C.2   1 <1>   0.5690 
  3 N       -1.8940    -2.2170    -0.9690 N.am  1 <1>  -0.4930 
  4 C       -0.0940    -2.2800     0.7620 C.3   1 <1>  -0.1790 
  5 C       -2.4500    -3.5040    -0.7390 C.2   1 <1>   0.0630 
  6 C       -1.8390    -4.7530    -0.7630 C.2   1 <1>   0.3510 
  7 C       -3.7490    -3.7770    -0.4480 C.2   1 <1>  -0.0260 
  8 O       -0.5500    -4.9610    -1.0800 O.3   1 <1>  -0.5120 
  9 N       -2.6220    -5.7480    -0.4920 N.2   1 <1>  -0.7070 
 10 N       -4.8370    -2.9390    -0.3160 N.2   1 <1>  -0.5760 
 11 N       -3.8200    -5.1510    -0.2900 N.pl3 1 <1>   0.6010 
 12 C       -5.9630    -3.4990    -0.0220 C.2   1 <1>   0.3750 
 13 C       -5.0400    -5.7340     0.0260 C.2   1 <1>  -0.1690 
 14 C       -6.1100    -4.9050     0.1600 C.2   1 <1>  -0.1360 
 15 C       -7.1890    -2.6270     0.1380 C.3   1 <1>  -0.1790 
 16 C       -5.1010    -7.2460     0.1990 C.3   1 <1>  -0.1020 
 17 H       -2.4830    -1.5800    -1.5100 H     1 <1>   0.3700 
 18 H       -0.7520    -2.8850     1.3570 H     1 <1>   0.0800 
 19 H        0.3500    -1.5340     1.3950 H     1 <1>   0.0800 
 20 H        0.6860    -2.8920     0.3530 H     1 <1>   0.0800 
 21 H       -0.1940    -4.1780    -1.5310 H     1 <1>   0.4500 
 22 H       -7.0880    -5.2780     0.4030 H     1 <1>   0.1500 
 23 H       -7.5870    -2.7360     1.1300 H     1 <1>   0.0800 
 24 H       -7.9360    -2.9110    -0.5800 H     1 <1>   0.0800 
 25 H       -6.9340    -1.5940    -0.0200 H     1 <1>   0.0800 
 26 H       -4.4390    -7.5520     0.9900 H     1 <1>   0.0800 
 27 H       -4.7930    -7.7330    -0.7100 H     1 <1>   0.0800 
 28 H       -6.0990    -7.5670     0.4410 H     1 <1>   0.0800 
@<TRIPOS>BOND
  1   1   2  2   
  2   2   3  am  
  3   2   4  1   
  4   3   5  1   
  5   3  17  1   
  6   4  18  1   
  7   4  19  1   
  8   4  20  1   
  9   5   6  1   
 10   5   7  2   
 11   6   8  1   
 12   6   9  2   
 13   7  10  1   
 14   7  11  1   
 15   8  21  1   
 16   9  11  1   
 17  10  12  2   
 18  11  13  1   
 19  12  14  1   
 20  12  15  1   
 21  13  14  2   
 22  13  16  1   
 23  14  22  1   
 24  15  23  1   
 25  15  24  1   
 26  15  25  1   
 27  16  26  1   
 28  16  27  1   
 29  16  28  1   
@<TRIPOS>SUBSTRUCTURE
  1 ****   7 GROUP 4 **** **** 0

# MOE 2024.06 (io_trps.svl 2023.06)
