@<TRIPOS>MOLECULE
NONAME
61 64 1 0 0 
SMALL
USER_CHARGES


@<TRIPOS>ATOM
  1 O        1.6830    -0.3140     0.4580 O.2   1 <1>  -0.5700 
  2 C        1.4300    -1.4930     0.6100 C.2   1 <1>   0.7800 
  3 O        0.3460    -2.0210     0.0530 O.3   1 <1>  -0.4300 
  4 N        2.2020    -2.3720     1.3270 N.am  1 <1>  -0.3680 
  5 C       -0.5210    -1.2150    -0.7130 C.3   1 <1>   0.2640 
  6 N        3.3730    -2.1170     2.0340 N.2   1 <1>  -0.5120 
  7 C       -1.6420    -2.0940    -1.2390 C.ar  1 <1>  -0.1430 
  8 C        4.0560    -3.0270     2.5930 C.2   1 <1>   0.3280 
  9 C       -2.7940    -2.2840    -0.4900 C.ar  1 <1>  -0.1500 
 10 C       -1.5230    -2.7170    -2.4720 C.ar  1 <1>  -0.1500 
 11 C        5.3290    -2.6590     3.3200 C.3   1 <1>  -0.0380 
 12 C        3.7460    -4.5190     2.5910 C.3   1 <1>  -0.1790 
 13 C       -3.8190    -3.0850    -0.9660 C.ar  1 <1>  -0.1500 
 14 C       -2.5450    -3.5180    -2.9500 C.ar  1 <1>  -0.1500 
 15 C        6.4840    -2.8400     2.3710 C.2   1 <1>   0.5690 
 16 C       -3.6970    -3.7070    -2.2050 C.ar  1 <1>   0.0830 
 17 O        7.3300    -3.6560     2.6420 O.2   1 <1>  -0.5700 
 18 N        6.4910    -2.0850     1.2440 N.am  1 <1>  -0.7300 
 19 O       -4.6500    -4.5060    -2.7470 O.3   1 <1>  -0.3630 
 20 C        7.4310    -2.1170     0.1140 C.3   1 <1>   0.3000 
 21 C       -5.8610    -4.7650    -2.0720 C.3   1 <1>   0.0400 
 22 C        7.4120    -3.4990    -0.5650 C.3   1 <1>  -0.1600 
 23 C        8.8610    -1.7790     0.5750 C.3   1 <1>  -0.1600 
 24 C        6.9690    -1.0560    -0.9020 C.3   1 <1>  -0.1600 
 25 C        8.3600    -3.5010    -1.7800 C.3   1 <1>  -0.0800 
 26 C        9.8140    -1.7740    -0.6370 C.3   1 <1>  -0.0800 
 27 C        7.9090    -1.0400    -2.1220 C.3   1 <1>  -0.0800 
 28 C        9.7880    -3.1630    -1.3050 C.3   1 <1>  -0.1600 
 29 C        7.8960    -2.4310    -2.7860 C.3   1 <1>  -0.1600 
 30 C        9.3400    -0.7170    -1.6520 C.3   1 <1>  -0.1600 
 31 H        1.8370    -3.3240     1.3110 H     1 <1>   0.3700 
 32 H       -0.9060    -0.4310    -0.0830 H     1 <1>   0.0800 
 33 H        0.0400    -0.7800    -1.5220 H     1 <1>   0.0800 
 34 H       -2.8960    -1.8100     0.4710 H     1 <1>   0.1500 
 35 H       -0.6340    -2.5840    -3.0630 H     1 <1>   0.1500 
 36 H        5.4620    -3.2710     4.1920 H     1 <1>   0.0800 
 37 H        5.2940    -1.6310     3.6280 H     1 <1>   0.0800 
 38 H        4.5820    -5.0590     2.1810 H     1 <1>   0.0800 
 39 H        2.8780    -4.7590     2.0080 H     1 <1>   0.0800 
 40 H        3.5820    -4.8550     3.5980 H     1 <1>   0.0800 
 41 H       -4.6960    -3.2110    -0.3630 H     1 <1>   0.1500 
 42 H       -2.4550    -4.0020    -3.9050 H     1 <1>   0.1500 
 43 H        5.6760    -1.4890     1.0730 H     1 <1>   0.3700 
 44 H       -6.4520    -5.4190    -2.6860 H     1 <1>   0.0800 
 45 H       -6.3820    -3.8360    -1.9200 H     1 <1>   0.0800 
 46 H       -5.6420    -5.2440    -1.1340 H     1 <1>   0.0800 
 47 H        7.7330    -4.2540     0.1310 H     1 <1>   0.0800 
 48 H        6.4130    -3.7370    -0.8830 H     1 <1>   0.0800 
 49 H        8.8730    -0.8160     1.0510 H     1 <1>   0.0800 
 50 H        9.2010    -2.5100     1.2850 H     1 <1>   0.0800 
 51 H        5.9670    -1.2740    -1.2280 H     1 <1>   0.0800 
 52 H        6.9700    -0.0850    -0.4400 H     1 <1>   0.0800 
 53 H        8.3510    -4.4710    -2.2470 H     1 <1>   0.0800 
 54 H       10.8140    -1.5460    -0.3110 H     1 <1>   0.0800 
 55 H        7.5800    -0.2960    -2.8280 H     1 <1>   0.0800 
 56 H       10.4620    -3.1770    -2.1430 H     1 <1>   0.0800 
 57 H       10.1240    -3.9090    -0.6050 H     1 <1>   0.0800 
 58 H        6.9030    -2.6610    -3.1320 H     1 <1>   0.0800 
 59 H        8.5470    -2.4310    -3.6430 H     1 <1>   0.0800 
 60 H       10.0050    -0.7000    -2.4970 H     1 <1>   0.0800 
 61 H        9.3630     0.2590    -1.1980 H     1 <1>   0.0800 
@<TRIPOS>BOND
  1   1   2  2   
  2   2   3  1   
  3   2   4  am  
  4   3   5  1   
  5   4   6  1   
  6   4  31  1   
  7   5   7  1   
  8   5  32  1   
  9   5  33  1   
 10   6   8  2   
 11   7   9  ar  
 12   7  10  ar  
 13   8  11  1   
 14   8  12  1   
 15   9  13  ar  
 16   9  34  1   
 17  10  14  ar  
 18  10  35  1   
 19  11  15  1   
 20  11  36  1   
 21  11  37  1   
 22  12  38  1   
 23  12  39  1   
 24  12  40  1   
 25  13  16  ar  
 26  13  41  1   
 27  14  16  ar  
 28  14  42  1   
 29  15  17  2   
 30  15  18  am  
 31  16  19  1   
 32  18  20  1   
 33  18  43  1   
 34  19  21  1   
 35  20  22  1   
 36  20  23  1   
 37  20  24  1   
 38  21  44  1   
 39  21  45  1   
 40  21  46  1   
 41  22  25  1   
 42  22  47  1   
 43  22  48  1   
 44  23  26  1   
 45  23  49  1   
 46  23  50  1   
 47  24  27  1   
 48  24  51  1   
 49  24  52  1   
 50  25  28  1   
 51  25  29  1   
 52  25  53  1   
 53  26  28  1   
 54  26  30  1   
 55  26  54  1   
 56  27  29  1   
 57  27  30  1   
 58  27  55  1   
 59  28  56  1   
 60  28  57  1   
 61  29  58  1   
 62  29  59  1   
 63  30  60  1   
 64  30  61  1   
@<TRIPOS>SUBSTRUCTURE
  1 ****   4 GROUP 4 **** **** 0

# MOE 2024.06 (io_trps.svl 2023.06)
