@<TRIPOS>MOLECULE
NONAME
40 42 1 0 0 
SMALL
USER_CHARGES


@<TRIPOS>ATOM
  1 CL       1.7270     1.5360    -3.3310 Cl    1 <1>  -0.1770 
  2 C        2.3140     1.5080    -1.6880 C.ar  1 <1>   0.1770 
  3 C        3.5250     0.9050    -1.4150 C.ar  1 <1>  -0.1500 
  4 C        1.5540     2.0900    -0.6890 C.ar  1 <1>  -0.1500 
  5 C        4.0010     0.8770    -0.1100 C.ar  1 <1>   0.1000 
  6 C        2.0250     2.0650     0.6140 C.ar  1 <1>  -0.1500 
  7 N        5.2150     0.2810     0.2080 N.pl3 1 <1>  -0.8380 
  8 C        3.2390     1.4620     0.8950 C.ar  1 <1>  -0.1500 
  9 C        6.4420     0.9830    -0.2670 C.3   1 <1>   0.2090 
 10 C        5.2730    -1.2050     0.0940 C.3   1 <1>   0.2090 
 11 C        7.6960     0.4230     0.4360 C.3   1 <1>   0.3430 
 12 C        6.5330    -1.7550     0.7970 C.3   1 <1>   0.3430 
 13 N        7.8010    -1.0830     0.3290 N.4   1 <1>  -0.9590 
 14 C        8.9970    -1.6130     1.0350 C.3   1 <1>   0.4860 
 15 C       10.2520    -1.0590     0.3860 C.ar  1 <1>  -0.1430 
 16 C       10.5700    -1.3910    -0.9250 C.ar  1 <1>   0.1900 
 17 C       11.1130    -0.2190     1.0850 C.ar  1 <1>  -0.1500 
 18 F        9.7580    -2.1690    -1.5910 F     1 <1>  -0.1900 
 19 C       11.7020    -0.9240    -1.5650 C.ar  1 <1>  -0.1500 
 20 C       12.2570     0.2690     0.4700 C.ar  1 <1>  -0.1500 
 21 C       12.5290    -0.0910    -0.8390 C.ar  1 <1>   0.1900 
 22 F       13.6060     0.3750    -1.4080 F     1 <1>  -0.1900 
 23 H        4.0870     0.4640    -2.2140 H     1 <1>   0.1500 
 24 H        0.6140     2.5530    -0.9300 H     1 <1>   0.1500 
 25 H        1.4470     2.5140     1.4040 H     1 <1>   0.1500 
 26 H        3.6060     1.4410     1.9050 H     1 <1>   0.1500 
 27 H        6.3530     2.0350    -0.0540 H     1 <1>   0.0800 
 28 H        6.5370     0.8700    -1.3340 H     1 <1>   0.0800 
 29 H        5.2770    -1.4910    -0.9440 H     1 <1>   0.0800 
 30 H        4.3940    -1.6290     0.5500 H     1 <1>   0.0800 
 31 H        7.6470     0.7070     1.4740 H     1 <1>   0.0800 
 32 H        8.5710     0.8850     0.0090 H     1 <1>   0.0800 
 33 H        6.5930    -2.8170     0.6240 H     1 <1>   0.0800 
 34 H        6.4130    -1.5990     1.8570 H     1 <1>   0.0800 
 35 H        7.9300    -1.3110    -0.6680 H     1 <1>   0.4500 
 36 H        9.0160    -2.6890     0.9700 H     1 <1>   0.0800 
 37 H        8.9670    -1.3360     2.0760 H     1 <1>   0.0800 
 38 H       10.9130     0.0600     2.1070 H     1 <1>   0.1500 
 39 H       11.9330    -1.1920    -2.5800 H     1 <1>   0.1500 
 40 H       12.9380     0.9200     0.9940 H     1 <1>   0.1500 
@<TRIPOS>BOND
  1   1   2  1   
  2   2   3  ar  
  3   2   4  ar  
  4   3   5  ar  
  5   3  23  1   
  6   4   6  ar  
  7   4  24  1   
  8   5   7  1   
  9   5   8  ar  
 10   6   8  ar  
 11   6  25  1   
 12   7   9  1   
 13   7  10  1   
 14   8  26  1   
 15   9  11  1   
 16   9  27  1   
 17   9  28  1   
 18  10  12  1   
 19  10  29  1   
 20  10  30  1   
 21  11  13  1   
 22  11  31  1   
 23  11  32  1   
 24  12  13  1   
 25  12  33  1   
 26  12  34  1   
 27  13  14  1   
 28  13  35  1   
 29  14  15  1   
 30  14  36  1   
 31  14  37  1   
 32  15  16  ar  
 33  15  17  ar  
 34  16  18  1   
 35  16  19  ar  
 36  17  20  ar  
 37  17  38  1   
 38  19  21  ar  
 39  19  39  1   
 40  20  21  ar  
 41  20  40  1   
 42  21  22  1   
@<TRIPOS>SUBSTRUCTURE
  1 ****  11 GROUP 4 **** **** 0

# MOE 2024.06 (io_trps.svl 2023.06)
