@<TRIPOS>MOLECULE
NONAME
39 40 1 0 0 
SMALL
USER_CHARGES


@<TRIPOS>ATOM
  1 O        1.4480     3.6950    -2.8640 O.2   1 <1>  -0.5700 
  2 C        0.7150     2.9070    -2.3150 C.2   1 <1>   0.5690 
  3 N       -0.3600     3.3110    -1.5640 N.am  1 <1>  -0.6600 
  4 C        1.0280     1.4400    -2.4940 C.3   1 <1>  -0.1790 
  5 C       -0.6090     4.7650    -1.3260 C.3   1 <1>   0.1400 
  6 C       -1.2830     2.3820    -0.8330 C.3   1 <1>   0.1400 
  7 C       -0.7570     5.1040     0.1760 C.3   1 <1>   0.0000 
  8 C       -1.4840     2.7580     0.6590 C.3   1 <1>   0.0000 
  9 C        0.5650     4.8610     0.9500 C.3   1 <1>   0.1400 
 10 C       -1.8780     4.2390     0.7750 C.3   1 <1>  -0.1600 
 11 C       -1.1450     6.5870     0.3110 C.3   1 <1>  -0.2400 
 12 C       -0.1990     2.5150     1.4850 C.3   1 <1>   0.1400 
 13 C       -2.6160     1.8930     1.2410 C.3   1 <1>  -0.2400 
 14 N        0.9250     3.4110     1.0770 N.am  1 <1>  -0.6600 
 15 C        2.1470     2.8810     0.7450 C.2   1 <1>   0.5690 
 16 O        2.3820     1.6990     0.8370 O.2   1 <1>  -0.5700 
 17 C        3.2670     3.7650     0.2480 C.3   1 <1>  -0.1790 
 18 H        1.8790     1.3280    -3.1400 H     1 <1>   0.0800 
 19 H        0.1900     0.9360    -2.9360 H     1 <1>   0.0800 
 20 H        1.2630     0.9990    -1.5440 H     1 <1>   0.0800 
 21 H        0.1900     5.3550    -1.7410 H     1 <1>   0.0800 
 22 H       -1.5110     5.0370    -1.8450 H     1 <1>   0.0800 
 23 H       -0.9250     1.3710    -0.8840 H     1 <1>   0.0800 
 24 H       -2.2360     2.4120    -1.3320 H     1 <1>   0.0800 
 25 H        0.4660     5.2590     1.9450 H     1 <1>   0.0800 
 26 H        1.3510     5.4080     0.4620 H     1 <1>   0.0800 
 27 H       -2.7990     4.4160     0.2470 H     1 <1>   0.0800 
 28 H       -2.0300     4.4990     1.8080 H     1 <1>   0.0800 
 29 H       -2.0670     6.7870    -0.2080 H     1 <1>   0.0800 
 30 H       -0.3790     7.2170    -0.1080 H     1 <1>   0.0800 
 31 H       -1.2760     6.8540     1.3450 H     1 <1>   0.0800 
 32 H        0.0900     1.4830     1.3870 H     1 <1>   0.0800 
 33 H       -0.4030     2.6930     2.5270 H     1 <1>   0.0800 
 34 H       -2.3620     0.8490     1.1790 H     1 <1>   0.0800 
 35 H       -3.5320     2.0530     0.7010 H     1 <1>   0.0800 
 36 H       -2.7870     2.1380     2.2750 H     1 <1>   0.0800 
 37 H        2.9820     4.2260    -0.6790 H     1 <1>   0.0800 
 38 H        4.1470     3.1730     0.0780 H     1 <1>   0.0800 
 39 H        3.4920     4.5170     0.9790 H     1 <1>   0.0800 
@<TRIPOS>BOND
  1   1   2  2   
  2   2   3  am  
  3   2   4  1   
  4   3   5  1   
  5   3   6  1   
  6   4  18  1   
  7   4  19  1   
  8   4  20  1   
  9   5   7  1   
 10   5  21  1   
 11   5  22  1   
 12   6   8  1   
 13   6  23  1   
 14   6  24  1   
 15   7   9  1   
 16   7  10  1   
 17   7  11  1   
 18   8  10  1   
 19   8  12  1   
 20   8  13  1   
 21   9  14  1   
 22   9  25  1   
 23   9  26  1   
 24  10  27  1   
 25  10  28  1   
 26  11  29  1   
 27  11  30  1   
 28  11  31  1   
 29  12  14  1   
 30  12  32  1   
 31  12  33  1   
 32  13  34  1   
 33  13  35  1   
 34  13  36  1   
 35  14  15  am  
 36  15  16  2   
 37  15  17  1   
 38  17  37  1   
 39  17  38  1   
 40  17  39  1   
@<TRIPOS>SUBSTRUCTURE
  1 ****   3 GROUP 4 **** **** 0

# MOE 2024.06 (io_trps.svl 2023.06)
