@<TRIPOS>MOLECULE
NONAME
38 40 1 0 0 
SMALL
USER_CHARGES


@<TRIPOS>ATOM
  1 S        0.6600     1.0860     1.5950 S.3   1 <1>  -0.3320 
  2 C       -0.6440     2.0860     0.8320 C.ar  1 <1>   0.1020 
  3 C        1.1360    -0.3030     0.4440 C.3   1 <1>   0.2110 
  4 C       -1.5710     1.6280    -0.1120 C.ar  1 <1>  -0.1790 
  5 C       -0.6550     3.4020     1.2630 C.ar  1 <1>  -0.1500 
  6 C        2.3800    -0.9850     0.9910 C.2   1 <1>   0.5690 
  7 C        1.6120     0.2890    -0.8910 C.3   1 <1>  -0.0990 
  8 C       -1.6640     0.2640    -0.5690 C.2   1 <1>   0.9790 
  9 C       -2.4700     2.5640    -0.6270 C.ar  1 <1>  -0.1500 
 10 C       -1.5660     4.3040     0.7460 C.ar  1 <1>  -0.1500 
 11 O        2.4020    -1.7100     1.9580 O.2   1 <1>  -0.5700 
 12 N        3.4660    -0.6730     0.2310 N.am  1 <1>  -0.4200 
 13 C        3.1050     0.0930    -0.8380 C.2   1 <1>   0.5690 
 14 O       -2.0520    -0.6440     0.1810 O.co2 1 <1>  -0.9000 
 15 O       -1.3210    -0.0280    -1.7270 O.co2 1 <1>  -0.9000 
 16 C       -2.4730     3.8820    -0.2080 C.ar  1 <1>  -0.1500 
 17 C        4.8380    -1.1220     0.5810 C.3   1 <1>   0.2200 
 18 O        3.8490     0.5670    -1.6590 O.2   1 <1>  -0.5700 
 19 C        5.7460     0.0610     0.9460 C.3   1 <1>  -0.1600 
 20 C        5.5290    -1.8650    -0.5720 C.3   1 <1>  -0.1600 
 21 C        7.0920    -0.2330     0.2850 C.3   1 <1>  -0.1600 
 22 C        6.7270    -1.0050    -0.9780 C.3   1 <1>  -0.1600 
 23 H        0.3240    -0.9990     0.3590 H     1 <1>   0.0800 
 24 H        0.0580     3.7190     2.0010 H     1 <1>   0.1500 
 25 H        1.3570     1.3260    -1.0060 H     1 <1>   0.0800 
 26 H        1.2160    -0.2750    -1.7140 H     1 <1>   0.0800 
 27 H       -3.1780     2.2340    -1.3690 H     1 <1>   0.1500 
 28 H       -1.5680     5.3260     1.0820 H     1 <1>   0.1500 
 29 H       -3.1830     4.5740    -0.6240 H     1 <1>   0.1500 
 30 H        4.7880    -1.7900     1.4240 H     1 <1>   0.0800 
 31 H        5.8470     0.1610     2.0120 H     1 <1>   0.0800 
 32 H        5.3550     0.9780     0.5410 H     1 <1>   0.0800 
 33 H        4.8740    -2.0450    -1.4070 H     1 <1>   0.0800 
 34 H        5.8880    -2.8100    -0.2050 H     1 <1>   0.0800 
 35 H        7.6850    -0.8580     0.9300 H     1 <1>   0.0800 
 36 H        7.6380     0.6680     0.0620 H     1 <1>   0.0800 
 37 H        6.4230    -0.3100    -1.7430 H     1 <1>   0.0800 
 38 H        7.5480    -1.5970    -1.3460 H     1 <1>   0.0800 
@<TRIPOS>BOND
  1   1   2  1   
  2   1   3  1   
  3   2   4  ar  
  4   2   5  ar  
  5   3   6  1   
  6   3   7  1   
  7   3  23  1   
  8   4   8  1   
  9   4   9  ar  
 10   5  10  ar  
 11   5  24  1   
 12   6  11  2   
 13   6  12  am  
 14   7  13  1   
 15   7  25  1   
 16   7  26  1   
 17   8  14  ar  
 18   8  15  ar  
 19   9  16  ar  
 20   9  27  1   
 21  10  16  ar  
 22  10  28  1   
 23  12  13  am  
 24  12  17  1   
 25  13  18  2   
 26  16  29  1   
 27  17  19  1   
 28  17  20  1   
 29  17  30  1   
 30  19  21  1   
 31  19  31  1   
 32  19  32  1   
 33  20  22  1   
 34  20  33  1   
 35  20  34  1   
 36  21  22  1   
 37  21  35  1   
 38  21  36  1   
 39  22  37  1   
 40  22  38  1   
@<TRIPOS>SUBSTRUCTURE
  1 ****   3 GROUP 4 **** **** 0

# MOE 2024.06 (io_trps.svl 2023.06)
