@<TRIPOS>MOLECULE
NONAME
43 44 1 0 0 
SMALL
USER_CHARGES


@<TRIPOS>ATOM
  1 O        0.0060     0.5710     2.6040 O.2   1 <1>  -0.5700 
  2 C       -0.0410     1.4620     1.7920 C.2   1 <1>   0.5690 
  3 N        1.0180     1.8640     1.0310 N.am  1 <1>  -0.5470 
  4 C       -1.3570     2.1930     1.6010 C.3   1 <1>  -0.0990 
  5 C        2.3480     1.4160     0.9110 C.ar  1 <1>   0.1170 
  6 C       -2.2960     1.5020     0.5930 C.3   1 <1>  -0.0800 
  7 C        3.1160     1.9170    -0.1460 C.ar  1 <1>   0.0830 
  8 C        2.9280     0.5120     1.7930 C.ar  1 <1>  -0.1500 
  9 C       -1.6910     1.4510    -0.8250 C.3   1 <1>  -0.1600 
 10 C       -3.6570     2.2210     0.5700 C.3   1 <1>  -0.1600 
 11 O        2.5050     2.8070    -0.9880 O.3   1 <1>  -0.3630 
 12 C        4.4370     1.5090    -0.3090 C.ar  1 <1>  -0.1500 
 13 C        4.2410     0.1090     1.6280 C.ar  1 <1>  -0.1500 
 14 C       -2.6600     0.8140    -1.8300 C.3   1 <1>  -0.1600 
 15 C       -4.6220     1.5770    -0.4340 C.3   1 <1>  -0.1600 
 16 C        3.1670     3.3210    -2.1230 C.3   1 <1>   0.0400 
 17 C        5.0010     0.6010     0.5810 C.ar  1 <1>   0.0830 
 18 C       -4.0110     1.5380    -1.8400 C.3   1 <1>  -0.1600 
 19 O        6.2810     0.1490     0.4970 O.3   1 <1>  -0.3630 
 20 C        7.1460     0.5820    -0.5290 C.3   1 <1>   0.0400 
 21 H        0.8090     2.5830     0.3380 H     1 <1>   0.3700 
 22 H       -1.1630     3.2030     1.2920 H     1 <1>   0.0800 
 23 H       -1.8420     2.2360     2.5590 H     1 <1>   0.0800 
 24 H       -2.4560     0.4900     0.9270 H     1 <1>   0.0800 
 25 H        2.3630     0.1170     2.6160 H     1 <1>   0.1500 
 26 H       -0.7830     0.8730    -0.8200 H     1 <1>   0.0800 
 27 H       -1.4510     2.4480    -1.1530 H     1 <1>   0.0800 
 28 H       -3.5160     3.2550     0.3050 H     1 <1>   0.0800 
 29 H       -4.1010     2.1880     1.5500 H     1 <1>   0.0800 
 30 H        5.0240     1.8920    -1.1160 H     1 <1>   0.1500 
 31 H        4.6810    -0.5920     2.3130 H     1 <1>   0.1500 
 32 H       -2.8130    -0.2200    -1.5690 H     1 <1>   0.0800 
 33 H       -2.2280     0.8440    -2.8160 H     1 <1>   0.0800 
 34 H       -5.5440     2.1320    -0.4570 H     1 <1>   0.0800 
 35 H       -4.8500     0.5730    -0.1170 H     1 <1>   0.0800 
 36 H        2.4860     3.9720    -2.6420 H     1 <1>   0.0800 
 37 H        3.4490     2.5040    -2.7640 H     1 <1>   0.0800 
 38 H        4.0300     3.8780    -1.8030 H     1 <1>   0.0800 
 39 H       -4.6850     1.0350    -2.5120 H     1 <1>   0.0800 
 40 H       -3.8760     2.5440    -2.1990 H     1 <1>   0.0800 
 41 H        8.0940     0.0940    -0.3930 H     1 <1>   0.0800 
 42 H        7.2700     1.6480    -0.4550 H     1 <1>   0.0800 
 43 H        6.7260     0.3040    -1.4800 H     1 <1>   0.0800 
@<TRIPOS>BOND
  1   1   2  2   
  2   2   3  am  
  3   2   4  1   
  4   3   5  1   
  5   3  21  1   
  6   4   6  1   
  7   4  22  1   
  8   4  23  1   
  9   5   7  ar  
 10   5   8  ar  
 11   6   9  1   
 12   6  10  1   
 13   6  24  1   
 14   7  11  1   
 15   7  12  ar  
 16   8  13  ar  
 17   8  25  1   
 18   9  14  1   
 19   9  26  1   
 20   9  27  1   
 21  10  15  1   
 22  10  28  1   
 23  10  29  1   
 24  11  16  1   
 25  12  17  ar  
 26  12  30  1   
 27  13  17  ar  
 28  13  31  1   
 29  14  18  1   
 30  14  32  1   
 31  14  33  1   
 32  15  18  1   
 33  15  34  1   
 34  15  35  1   
 35  16  36  1   
 36  16  37  1   
 37  16  38  1   
 38  17  19  1   
 39  18  39  1   
 40  18  40  1   
 41  19  20  1   
 42  20  41  1   
 43  20  42  1   
 44  20  43  1   
@<TRIPOS>SUBSTRUCTURE
  1 ****   3 GROUP 4 **** **** 0

# MOE 2024.06 (io_trps.svl 2023.06)
