@<TRIPOS>MOLECULE
NONAME
38 39 1 0 0 
SMALL
USER_CHARGES


@<TRIPOS>ATOM
  1 I       -0.3840    -0.0340     0.9590 I     1 <1>  -0.0810 
  2 C        1.5250    -0.8850     0.5800 C.ar  1 <1>   0.0810 
  3 C        2.2230    -1.4520     1.6310 C.ar  1 <1>  -0.1500 
  4 C        2.0240    -0.8560    -0.7080 C.ar  1 <1>  -0.1500 
  5 C        3.4660    -2.0010     1.3730 C.ar  1 <1>  -0.1500 
  6 C        3.2700    -1.4110    -0.9430 C.ar  1 <1>  -0.1500 
  7 C        4.0180    -1.9850     0.0890 C.ar  1 <1>   0.0860 
  8 C        5.3270    -2.5580    -0.1580 C.2   1 <1>   0.5440 
  9 O        5.5210    -3.7230     0.1340 O.2   1 <1>  -0.5700 
 10 N        6.3590    -1.8200    -0.7070 N.am  1 <1>  -0.6600 
 11 C        6.3670    -0.3320    -0.7680 C.3   1 <1>   0.1400 
 12 C        7.6360    -2.4610    -1.1270 C.3   1 <1>   0.1400 
 13 C        7.5060     0.2070     0.1010 C.3   1 <1>  -0.1600 
 14 C        8.7810    -1.9420    -0.2540 C.3   1 <1>  -0.1600 
 15 C        8.8690    -0.4040    -0.2880 C.3   1 <1>  -0.0190 
 16 C       10.0180     0.1010     0.5850 C.2   1 <1>   0.6590 
 17 O        9.8400     0.7090     1.6100 O.2   1 <1>  -0.5700 
 18 O       11.2360    -0.1710     0.1340 O.3   1 <1>  -0.4300 
 19 C       12.3860     0.2310     0.8400 C.3   1 <1>   0.1200 
 20 C       13.6090    -0.2420     0.0600 C.3   1 <1>  -0.2400 
 21 H        1.8060    -1.4660     2.6230 H     1 <1>   0.1500 
 22 H        1.4530    -0.4140    -1.5070 H     1 <1>   0.1500 
 23 H        4.0290    -2.4560     2.1700 H     1 <1>   0.1500 
 24 H        3.6770    -1.4080    -1.9390 H     1 <1>   0.1500 
 25 H        5.4370     0.0770    -0.4170 H     1 <1>   0.0800 
 26 H        6.5050    -0.0240    -1.7900 H     1 <1>   0.0800 
 27 H        7.8230    -2.2230    -2.1600 H     1 <1>   0.0800 
 28 H        7.5740    -3.5330    -1.0430 H     1 <1>   0.0800 
 29 H        7.2890    -0.0160     1.1320 H     1 <1>   0.0800 
 30 H        7.5500     1.2780     0.0040 H     1 <1>   0.0800 
 31 H        9.7060    -2.3680    -0.6010 H     1 <1>   0.0800 
 32 H        8.6240    -2.2780     0.7570 H     1 <1>   0.0800 
 33 H        9.0910    -0.1030    -1.2950 H     1 <1>   0.0800 
 34 H       12.3570    -0.2130     1.8210 H     1 <1>   0.0800 
 35 H       12.3740     1.3040     0.9300 H     1 <1>   0.0800 
 36 H       13.6000    -1.3130    -0.0290 H     1 <1>   0.0800 
 37 H       14.5040     0.0510     0.5790 H     1 <1>   0.0800 
 38 H       13.6190     0.2030    -0.9190 H     1 <1>   0.0800 
@<TRIPOS>BOND
  1   1   2  1   
  2   2   3  ar  
  3   2   4  ar  
  4   3   5  ar  
  5   3  21  1   
  6   4   6  ar  
  7   4  22  1   
  8   5   7  ar  
  9   5  23  1   
 10   6   7  ar  
 11   6  24  1   
 12   7   8  1   
 13   8   9  2   
 14   8  10  am  
 15  10  11  1   
 16  10  12  1   
 17  11  13  1   
 18  11  25  1   
 19  11  26  1   
 20  12  14  1   
 21  12  27  1   
 22  12  28  1   
 23  13  15  1   
 24  13  29  1   
 25  13  30  1   
 26  14  15  1   
 27  14  31  1   
 28  14  32  1   
 29  15  16  1   
 30  15  33  1   
 31  16  17  2   
 32  16  18  1   
 33  18  19  1   
 34  19  20  1   
 35  19  34  1   
 36  19  35  1   
 37  20  36  1   
 38  20  37  1   
 39  20  38  1   
@<TRIPOS>SUBSTRUCTURE
  1 ****  10 GROUP 4 **** **** 0

# MOE 2024.06 (io_trps.svl 2023.06)
