@<TRIPOS>MOLECULE
NONAME
41 42 1 0 0 
SMALL
USER_CHARGES


@<TRIPOS>ATOM
  1 BR      -1.5120     0.6390     3.2120 Br    1 <1>  -0.1110 
  2 C       -2.2880     1.2040     1.5450 C.ar  1 <1>   0.1110 
  3 C       -3.3480     0.4810     1.0300 C.ar  1 <1>  -0.1500 
  4 C       -1.7700     2.3140     0.9090 C.ar  1 <1>  -0.1500 
  5 C       -3.9150     0.8890    -0.1700 C.ar  1 <1>  -0.1440 
  6 C       -2.3340     2.7100    -0.2900 C.ar  1 <1>  -0.1500 
  7 C       -3.3990     2.0010    -0.8260 C.ar  1 <1>  -0.1500 
  8 C       -5.0890     0.1360    -0.7510 C.3   1 <1>   0.4870 
  9 N       -6.3050     0.7730    -0.1900 N.4   1 <1>  -0.9060 
 10 C       -7.5760     0.1740    -0.6750 C.3   1 <1>   0.3430 
 11 C       -8.7720     0.8960    -0.0380 C.3   1 <1>  -0.1600 
 12 C      -10.1020     0.2880    -0.5130 C.3   1 <1>   0.3430 
 13 N      -11.2690     0.9130     0.1780 N.4   1 <1>  -0.9590 
 14 C      -12.5180     0.0930    -0.0550 C.3   1 <1>   0.3430 
 15 C      -11.5260     2.3430    -0.2450 C.3   1 <1>   0.3430 
 16 C      -13.7650     0.7550     0.5630 C.3   1 <1>   0.1200 
 17 C      -12.8180     2.9040     0.3810 C.3   1 <1>   0.1200 
 18 O      -13.8940     2.0630     0.0920 O.3   1 <1>  -0.5600 
 19 H       -3.6980    -0.3800     1.5740 H     1 <1>   0.1500 
 20 H       -0.9430     2.8510     1.3410 H     1 <1>   0.1500 
 21 H       -1.9390     3.5710    -0.8060 H     1 <1>   0.1500 
 22 H       -3.8090     2.3330    -1.7660 H     1 <1>   0.1500 
 23 H       -5.0350    -0.9040    -0.4710 H     1 <1>   0.0800 
 24 H       -5.0770     0.2110    -1.8270 H     1 <1>   0.0800 
 25 H       -6.2380     1.7740    -0.4170 H     1 <1>   0.4500 
 26 H       -6.2170     0.7180     0.8330 H     1 <1>   0.4500 
 27 H       -7.6020    -0.8740    -0.4160 H     1 <1>   0.0800 
 28 H       -7.6280     0.2580    -1.7500 H     1 <1>   0.0800 
 29 H       -8.7370     1.9350    -0.3120 H     1 <1>   0.0800 
 30 H       -8.7090     0.8030     1.0320 H     1 <1>   0.0800 
 31 H      -10.0980    -0.7710    -0.3020 H     1 <1>   0.0800 
 32 H      -10.2080     0.4110    -1.5800 H     1 <1>   0.0800 
 33 H      -11.1160     0.9180     1.1970 H     1 <1>   0.4500 
 34 H      -12.4000    -0.8920     0.3660 H     1 <1>   0.0800 
 35 H      -12.6910    -0.0180    -1.1130 H     1 <1>   0.0800 
 36 H      -11.6270     2.3940    -1.3170 H     1 <1>   0.0800 
 37 H      -10.7000     2.9710     0.0410 H     1 <1>   0.0800 
 38 H      -13.7110     0.7750     1.6380 H     1 <1>   0.0800 
 39 H      -14.6520     0.2170     0.2750 H     1 <1>   0.0800 
 40 H      -13.0420     3.8720    -0.0330 H     1 <1>   0.0800 
 41 H      -12.7300     3.0020     1.4500 H     1 <1>   0.0800 
@<TRIPOS>BOND
  1   1   2  1   
  2   2   3  ar  
  3   2   4  ar  
  4   3   5  ar  
  5   3  19  1   
  6   4   6  ar  
  7   4  20  1   
  8   5   7  ar  
  9   5   8  1   
 10   6   7  ar  
 11   6  21  1   
 12   7  22  1   
 13   8   9  1   
 14   8  23  1   
 15   8  24  1   
 16   9  10  1   
 17   9  25  1   
 18   9  26  1   
 19  10  11  1   
 20  10  27  1   
 21  10  28  1   
 22  11  12  1   
 23  11  29  1   
 24  11  30  1   
 25  12  13  1   
 26  12  31  1   
 27  12  32  1   
 28  13  14  1   
 29  13  15  1   
 30  13  33  1   
 31  14  16  1   
 32  14  34  1   
 33  14  35  1   
 34  15  17  1   
 35  15  36  1   
 36  15  37  1   
 37  16  18  1   
 38  16  38  1   
 39  16  39  1   
 40  17  18  1   
 41  17  40  1   
 42  17  41  1   
@<TRIPOS>SUBSTRUCTURE
  1 ****   9 GROUP 4 **** **** 0

# MOE 2024.06 (io_trps.svl 2023.06)
