@<TRIPOS>MOLECULE
NONAME
31 30 1 0 0 
SMALL
USER_CHARGES


@<TRIPOS>ATOM
  1 F       -1.3090    -0.1230    -0.9350 F     1 <1>  -0.3400 
  2 C       -1.1110    -1.3620    -1.3790 C.3   1 <1>   1.0200 
  3 F       -1.9420    -1.4920    -2.4100 F     1 <1>  -0.3400 
  4 F        0.1080    -1.3420    -1.9070 F     1 <1>  -0.3400 
  5 C       -1.3210    -2.4410    -0.2350 C.3   1 <1>   0.5700 
  6 N       -0.3480    -2.2790     0.8880 N.am  1 <1>  -0.7300 
  7 N       -2.5360    -2.2260     0.6400 N.3   1 <1>  -0.9000 
  8 C       -1.2750    -3.8430    -0.9890 C.3   1 <1>   1.0200 
  9 C        0.9800    -2.4770     0.9340 C.2   1 <1>   0.7800 
 10 C       -3.8600    -2.1770     0.0300 C.3   1 <1>   0.2480 
 11 F       -0.2790    -4.0160    -1.8500 F     1 <1>  -0.3400 
 12 F       -2.3740    -4.0950    -1.6940 F     1 <1>  -0.3400 
 13 F       -1.1860    -4.8580    -0.1330 F     1 <1>  -0.3400 
 14 O        1.6250    -2.1190     1.8920 O.2   1 <1>  -0.5700 
 15 O        1.5600    -3.0700    -0.0970 O.3   1 <1>  -0.4300 
 16 C       -4.5960    -3.4090     0.5040 C.2   1 <1>  -0.2880 
 17 C        2.9500    -3.2960    -0.1170 C.3   1 <1>   0.1200 
 18 C       -5.5930    -3.4080     1.3940 C.2   1 <1>  -0.3000 
 19 C        3.2940    -3.9750    -1.4390 C.3   1 <1>  -0.2400 
 20 H       -0.7410    -1.7350     1.6550 H     1 <1>   0.3700 
 21 H       -2.5690    -2.9940     1.3250 H     1 <1>   0.3600 
 22 H       -3.8360    -2.1380    -1.0440 H     1 <1>   0.0800 
 23 H       -4.3700    -1.2960     0.3870 H     1 <1>   0.0800 
 24 H       -4.2410    -4.3180     0.0480 H     1 <1>   0.1500 
 25 H        3.2070    -3.9230     0.7200 H     1 <1>   0.0800 
 26 H        3.4520    -2.3470    -0.0280 H     1 <1>   0.0800 
 27 H       -6.1090    -4.2960     1.7180 H     1 <1>   0.1500 
 28 H       -5.9790    -2.5250     1.8740 H     1 <1>   0.1500 
 29 H        2.7750    -4.9140    -1.5180 H     1 <1>   0.0800 
 30 H        4.3510    -4.1620    -1.4870 H     1 <1>   0.0800 
 31 H        3.0180    -3.3420    -2.2630 H     1 <1>   0.0800 
@<TRIPOS>BOND
  1   1   2  1   
  2   2   3  1   
  3   2   4  1   
  4   2   5  1   
  5   5   6  1   
  6   5   7  1   
  7   5   8  1   
  8   6   9  am  
  9   6  20  1   
 10   7  10  1   
 11   7  21  1   
 12   8  11  1   
 13   8  12  1   
 14   8  13  1   
 15   9  14  2   
 16   9  15  1   
 17  10  16  1   
 18  10  22  1   
 19  10  23  1   
 20  15  17  1   
 21  16  18  2   
 22  16  24  1   
 23  17  19  1   
 24  17  25  1   
 25  17  26  1   
 26  18  27  1   
 27  18  28  1   
 28  19  29  1   
 29  19  30  1   
 30  19  31  1   
@<TRIPOS>SUBSTRUCTURE
  1 ****   5 GROUP 4 **** **** 0

# MOE 2024.06 (io_trps.svl 2023.06)
