@<TRIPOS>MOLECULE
NONAME
37 39 1 0 0 
SMALL
USER_CHARGES


@<TRIPOS>ATOM
  1 CL      -0.4120     0.6600     1.8820 Cl    1 <1>  -0.1770 
  2 C       -1.8190     1.1800     0.9940 C.ar  1 <1>   0.1770 
  3 C       -2.4860     2.3230     1.3890 C.ar  1 <1>  -0.1500 
  4 C       -2.2460     0.4410    -0.0930 C.ar  1 <1>  -0.1500 
  5 C       -3.6060     2.7330     0.6860 C.ar  1 <1>  -0.1500 
  6 C       -3.3670     0.8520    -0.7940 C.ar  1 <1>  -0.1500 
  7 C       -4.0560     1.9950    -0.4030 C.ar  1 <1>  -0.1430 
  8 C       -5.2970     2.4300    -1.1610 C.3   1 <1>   0.4870 
  9 N       -6.4940     2.1200    -0.3320 N.4   1 <1>  -0.9590 
 10 C       -6.6420     0.6430    -0.1300 C.3   1 <1>   0.3430 
 11 C       -7.7240     2.7280    -0.9240 C.3   1 <1>   0.3430 
 12 C       -7.8210     0.3580     0.7890 C.3   1 <1>  -0.1600 
 13 C       -8.9200     2.4750    -0.0170 C.3   1 <1>  -0.1600 
 14 C       -9.0730     0.9780     0.1970 C.3   1 <1>   0.5600 
 15 O       -9.3390     0.3760    -1.0270 O.3   1 <1>  -0.5600 
 16 O      -10.1490     0.7260     1.0250 O.3   1 <1>  -0.5600 
 17 C      -10.5210    -0.3400    -0.9430 C.3   1 <1>   0.1200 
 18 C      -11.2000     0.2290     0.2810 C.3   1 <1>   0.1200 
 19 H       -2.1240     2.8810     2.2350 H     1 <1>   0.1500 
 20 H       -1.7020    -0.4410    -0.3810 H     1 <1>   0.1500 
 21 H       -4.1120     3.6310     0.9990 H     1 <1>   0.1500 
 22 H       -3.6880     0.2710    -1.6430 H     1 <1>   0.1500 
 23 H       -5.3540     1.9160    -2.1060 H     1 <1>   0.0800 
 24 H       -5.2410     3.4900    -1.3520 H     1 <1>   0.0800 
 25 H       -6.3250     2.5380     0.5920 H     1 <1>   0.4500 
 26 H       -5.7440     0.2330     0.3050 H     1 <1>   0.0800 
 27 H       -6.8120     0.1600    -1.0800 H     1 <1>   0.0800 
 28 H       -7.9190     2.2870    -1.8900 H     1 <1>   0.0800 
 29 H       -7.5910     3.7900    -1.0540 H     1 <1>   0.0800 
 30 H       -7.6330     0.7640     1.7660 H     1 <1>   0.0800 
 31 H       -7.9590    -0.7040     0.8850 H     1 <1>   0.0800 
 32 H       -9.8120     2.8640    -0.4740 H     1 <1>   0.0800 
 33 H       -8.7800     2.9690     0.9270 H     1 <1>   0.0800 
 34 H      -10.2860    -1.3810    -0.8060 H     1 <1>   0.0800 
 35 H      -11.1000    -0.2020    -1.8400 H     1 <1>   0.0800 
 36 H      -11.8570     1.0410     0.0230 H     1 <1>   0.0800 
 37 H      -11.7290    -0.5170     0.8480 H     1 <1>   0.0800 
@<TRIPOS>BOND
  1   1   2  1   
  2   2   3  ar  
  3   2   4  ar  
  4   3   5  ar  
  5   3  19  1   
  6   4   6  ar  
  7   4  20  1   
  8   5   7  ar  
  9   5  21  1   
 10   6   7  ar  
 11   6  22  1   
 12   7   8  1   
 13   8   9  1   
 14   8  23  1   
 15   8  24  1   
 16   9  10  1   
 17   9  11  1   
 18   9  25  1   
 19  10  12  1   
 20  10  26  1   
 21  10  27  1   
 22  11  13  1   
 23  11  28  1   
 24  11  29  1   
 25  12  14  1   
 26  12  30  1   
 27  12  31  1   
 28  13  14  1   
 29  13  32  1   
 30  13  33  1   
 31  14  15  1   
 32  14  16  1   
 33  15  17  1   
 34  16  18  1   
 35  17  18  1   
 36  17  34  1   
 37  17  35  1   
 38  18  36  1   
 39  18  37  1   
@<TRIPOS>SUBSTRUCTURE
  1 ****  10 GROUP 4 **** **** 0

# MOE 2024.06 (io_trps.svl 2023.06)
