@<TRIPOS>MOLECULE
NONAME
44 46 1 0 0 
SMALL
USER_CHARGES


@<TRIPOS>ATOM
  1 N       -0.1430    -0.2830     0.9400 N.pl3 1 <1>   0.0330 
  2 C       -0.8390    -1.3600     0.4590 C.ar  1 <1>  -0.1520 
  3 C        1.1930    -0.5480     0.8160 C.2   1 <1>  -0.3020 
  4 C        0.0740    -2.3140     0.0250 C.ar  1 <1>   0.0000 
  5 C       -2.2140    -1.5820     0.3640 C.ar  1 <1>  -0.1500 
  6 C        1.3590    -1.7760     0.2630 C.2   1 <1>  -0.1810 
  7 C       -0.3940    -3.5180    -0.5140 C.ar  1 <1>  -0.1500 
  8 C       -2.6600    -2.7690    -0.1690 C.ar  1 <1>  -0.1500 
  9 C        2.6320    -2.5230    -0.0780 C.3   1 <1>   0.0210 
 10 C       -1.7490    -3.7380    -0.6080 C.ar  1 <1>  -0.1500 
 11 C        3.8610    -1.6930     0.2850 C.3   1 <1>   0.3430 
 12 N        5.1180    -2.4200    -0.0510 N.4   1 <1>  -0.9060 
 13 C        6.3410    -1.6760     0.3080 C.3   1 <1>   0.4230 
 14 C        6.5320    -0.4840    -0.6400 C.3   1 <1>  -0.1600 
 15 C        7.5270    -2.6410     0.2220 C.3   1 <1>  -0.1600 
 16 C        7.8550     0.2420    -0.3550 C.3   1 <1>  -0.1600 
 17 C        8.8510    -1.9170     0.5130 C.3   1 <1>  -0.1600 
 18 C        9.0520    -0.7190    -0.4270 C.3   1 <1>  -0.0800 
 19 C       10.3480     0.0190    -0.0770 C.3   1 <1>  -0.2400 
 20 H       -0.5730     0.5660     1.3240 H     1 <1>   0.2700 
 21 H        1.9210     0.1750     1.1380 H     1 <1>   0.1500 
 22 H       -2.9080    -0.8330     0.7030 H     1 <1>   0.1500 
 23 H        0.3050    -4.2600    -0.8510 H     1 <1>   0.1500 
 24 H       -3.7150    -2.9660    -0.2530 H     1 <1>   0.1500 
 25 H        2.6280    -2.7330    -1.1330 H     1 <1>   0.0800 
 26 H        2.6370    -3.4490     0.4680 H     1 <1>   0.0800 
 27 H       -2.1250    -4.6580    -1.0200 H     1 <1>   0.1500 
 28 H        3.8320    -1.4730     1.3410 H     1 <1>   0.0800 
 29 H        3.8170    -0.7590    -0.2520 H     1 <1>   0.0800 
 30 H        5.1500    -2.6270    -1.0550 H     1 <1>   0.4500 
 31 H        5.1340    -3.3200     0.4430 H     1 <1>   0.4500 
 32 H        6.2670    -1.3130     1.3210 H     1 <1>   0.0800 
 33 H        5.7310     0.2240    -0.5220 H     1 <1>   0.0800 
 34 H        6.5430    -0.8230    -1.6620 H     1 <1>   0.0800 
 35 H        7.5850    -3.0700    -0.7640 H     1 <1>   0.0800 
 36 H        7.4090    -3.4350     0.9380 H     1 <1>   0.0800 
 37 H        7.8150     0.6930     0.6220 H     1 <1>   0.0800 
 38 H        7.9890     1.0350    -1.0720 H     1 <1>   0.0800 
 39 H        9.6690    -2.6080     0.3930 H     1 <1>   0.0800 
 40 H        8.8590    -1.5780     1.5350 H     1 <1>   0.0800 
 41 H        9.1410    -1.0840    -1.4380 H     1 <1>   0.0800 
 42 H       10.3130     0.4060     0.9260 H     1 <1>   0.0800 
 43 H       10.5060     0.8400    -0.7550 H     1 <1>   0.0800 
 44 H       11.1910    -0.6460    -0.1570 H     1 <1>   0.0800 
@<TRIPOS>BOND
  1   1   2  1   
  2   1   3  1   
  3   1  20  1   
  4   2   4  ar  
  5   2   5  ar  
  6   3   6  2   
  7   3  21  1   
  8   4   6  1   
  9   4   7  ar  
 10   5   8  ar  
 11   5  22  1   
 12   6   9  1   
 13   7  10  ar  
 14   7  23  1   
 15   8  10  ar  
 16   8  24  1   
 17   9  11  1   
 18   9  25  1   
 19   9  26  1   
 20  10  27  1   
 21  11  12  1   
 22  11  28  1   
 23  11  29  1   
 24  12  13  1   
 25  12  30  1   
 26  12  31  1   
 27  13  14  1   
 28  13  15  1   
 29  13  32  1   
 30  14  16  1   
 31  14  33  1   
 32  14  34  1   
 33  15  17  1   
 34  15  35  1   
 35  15  36  1   
 36  16  18  1   
 37  16  37  1   
 38  16  38  1   
 39  17  18  1   
 40  17  39  1   
 41  17  40  1   
 42  18  19  1   
 43  18  41  1   
 44  19  42  1   
 45  19  43  1   
 46  19  44  1   
@<TRIPOS>SUBSTRUCTURE
  1 ****  11 GROUP 4 **** **** 0

# MOE 2024.06 (io_trps.svl 2023.06)
