@<TRIPOS>MOLECULE
NONAME
35 35 1 0 0 
SMALL
USER_CHARGES


@<TRIPOS>ATOM
  1 S        0.5630     1.3720     0.2500 S.3   1 <1>  -0.4600 
  2 C       -1.1580     1.7790    -0.1630 C.3   1 <1>   0.2140 
  3 C        0.8180    -0.2630    -0.5480 C.3   1 <1>   0.1310 
  4 C       -2.0360     0.5760     0.1440 C.ar  1 <1>  -0.1440 
  5 C        2.2700    -0.7190    -0.4830 C.2   1 <1>   0.5690 
  6 C       -2.6710    -0.1100    -0.8810 C.ar  1 <1>  -0.1500 
  7 C       -2.2040     0.1520     1.4530 C.ar  1 <1>  -0.1500 
  8 O        2.6160    -1.6450    -1.1770 O.2   1 <1>  -0.5700 
  9 N        3.1330    -0.0770     0.3470 N.am  1 <1>  -0.7300 
 10 C       -3.4620    -1.2100    -0.5990 C.ar  1 <1>  -0.1500 
 11 C       -2.9960    -0.9480     1.7360 C.ar  1 <1>  -0.1500 
 12 C        4.5760    -0.3590     0.5010 C.3   1 <1>   0.1400 
 13 C       -3.6250    -1.6290     0.7100 C.ar  1 <1>  -0.1500 
 14 C        5.4050     0.8960     0.1790 C.3   1 <1>  -0.0800 
 15 C        6.9010     0.5740     0.2760 C.3   1 <1>  -0.2400 
 16 C        5.0700     2.0720     1.1110 C.3   1 <1>  -0.2400 
 17 H       -1.1840     2.0390    -1.2060 H     1 <1>   0.0800 
 18 H       -1.4370     2.6300     0.4320 H     1 <1>   0.0800 
 19 H        0.5080    -0.1730    -1.5720 H     1 <1>   0.0800 
 20 H        0.1920    -0.9730    -0.0390 H     1 <1>   0.0800 
 21 H       -2.5530     0.2050    -1.9030 H     1 <1>   0.1500 
 22 H       -1.7140     0.6740     2.2570 H     1 <1>   0.1500 
 23 H        2.7740     0.7300     0.8650 H     1 <1>   0.3700 
 24 H       -3.9520    -1.7400    -1.3970 H     1 <1>   0.1500 
 25 H       -3.1210    -1.2730     2.7540 H     1 <1>   0.1500 
 26 H        4.8580    -1.1600    -0.1630 H     1 <1>   0.0800 
 27 H        4.7650    -0.6780     1.5110 H     1 <1>   0.0800 
 28 H       -4.2400    -2.4850     0.9290 H     1 <1>   0.1500 
 29 H        5.1920     1.1840    -0.8370 H     1 <1>   0.0800 
 30 H        7.1630     0.2790     1.2780 H     1 <1>   0.0800 
 31 H        7.4870     1.4350     0.0070 H     1 <1>   0.0800 
 32 H        7.1550    -0.2280    -0.3960 H     1 <1>   0.0800 
 33 H        5.2240     1.7970     2.1400 H     1 <1>   0.0800 
 34 H        4.0480     2.3810     0.9840 H     1 <1>   0.0800 
 35 H        5.6980     2.9150     0.8840 H     1 <1>   0.0800 
@<TRIPOS>BOND
  1   1   2  1   
  2   1   3  1   
  3   2   4  1   
  4   2  17  1   
  5   2  18  1   
  6   3   5  1   
  7   3  19  1   
  8   3  20  1   
  9   4   6  ar  
 10   4   7  ar  
 11   5   8  2   
 12   5   9  am  
 13   6  10  ar  
 14   6  21  1   
 15   7  11  ar  
 16   7  22  1   
 17   9  12  1   
 18   9  23  1   
 19  10  13  ar  
 20  10  24  1   
 21  11  13  ar  
 22  11  25  1   
 23  12  14  1   
 24  12  26  1   
 25  12  27  1   
 26  13  28  1   
 27  14  15  1   
 28  14  16  1   
 29  14  29  1   
 30  15  30  1   
 31  15  31  1   
 32  15  32  1   
 33  16  33  1   
 34  16  34  1   
 35  16  35  1   
@<TRIPOS>SUBSTRUCTURE
  1 ****   3 GROUP 4 **** **** 0

# MOE 2024.06 (io_trps.svl 2023.06)
