@<TRIPOS>MOLECULE
NONAME
49 52 1 0 0 
SMALL
USER_CHARGES


@<TRIPOS>ATOM
  1 S       -1.0630     0.0710     1.4640 S.3   1 <1>  -0.0800 
  2 C       -2.5300     0.4490     0.5850 C.ar  1 <1>   0.0400 
  3 C       -0.2710     1.4430     0.6950 C.2   1 <1>   0.1980 
  4 C       -2.2830     1.5610    -0.1960 C.ar  1 <1>   0.2270 
  5 C       -3.7450    -0.2060     0.6220 C.ar  1 <1>  -0.1500 
  6 N       -1.0010     2.0980    -0.1110 N.2   1 <1>  -0.5650 
  7 C        1.1710     1.6960     1.0660 C.3   1 <1>  -0.0600 
  8 C       -3.3170     2.0430    -0.9850 C.ar  1 <1>  -0.1500 
  9 C       -4.7810     0.2760    -0.1710 C.ar  1 <1>   0.1170 
 10 C       -4.5480     1.4060    -0.9670 C.ar  1 <1>  -0.1500 
 11 N       -6.0190    -0.3760    -0.1240 N.am  1 <1>  -0.5470 
 12 C       -7.0560    -0.4260    -1.0110 C.2   1 <1>   0.6900 
 13 O       -6.9760     0.0820    -2.1140 O.2   1 <1>  -0.5700 
 14 N       -8.1940    -1.0810    -0.6370 N.am  1 <1>  -0.6600 
 15 C       -9.3840    -1.1870    -1.5050 C.3   1 <1>   0.2200 
 16 C       -8.4800    -1.7310     0.6670 C.3   1 <1>   0.1400 
 17 C      -10.2740     0.0570    -1.3390 C.3   1 <1>  -0.1600 
 18 C      -10.1120    -2.3910    -0.9270 C.3   1 <1>  -0.1600 
 19 C       -9.9580    -2.1380     0.5690 C.3   1 <1>   0.0000 
 20 C      -10.7670     0.3320     0.1120 C.3   1 <1>   0.0000 
 21 C      -10.9070    -0.9740     0.9540 C.3   1 <1>  -0.1600 
 22 C      -10.2720    -3.3910     1.3970 C.3   1 <1>  -0.2400 
 23 C       -9.8300     1.3400     0.8100 C.3   1 <1>  -0.2400 
 24 C      -12.1430     1.0160     0.0400 C.3   1 <1>  -0.2400 
 25 H       -3.8750    -1.0680     1.2480 H     1 <1>   0.1500 
 26 H        1.7690     0.8420     0.8080 H     1 <1>   0.0800 
 27 H        1.2490     1.8790     2.1220 H     1 <1>   0.0800 
 28 H        1.5370     2.5550     0.5340 H     1 <1>   0.0800 
 29 H       -3.1460     2.9070    -1.6000 H     1 <1>   0.1500 
 30 H       -5.3420     1.7930    -1.5790 H     1 <1>   0.1500 
 31 H       -6.1720    -0.9740     0.6770 H     1 <1>   0.3700 
 32 H       -9.1040    -1.3380    -2.5350 H     1 <1>   0.0800 
 33 H       -8.3050    -1.0660     1.4940 H     1 <1>   0.0800 
 34 H       -7.8570    -2.6030     0.7630 H     1 <1>   0.0800 
 35 H       -9.7530     0.9130    -1.7300 H     1 <1>   0.0800 
 36 H      -11.1260    -0.0920    -1.9780 H     1 <1>   0.0800 
 37 H       -9.6070    -3.2920    -1.2270 H     1 <1>   0.0800 
 38 H      -11.1390    -2.4430    -1.2440 H     1 <1>   0.0800 
 39 H      -10.7880    -0.7440     1.9980 H     1 <1>   0.0800 
 40 H      -11.9110    -1.3430     0.8410 H     1 <1>   0.0800 
 41 H       -9.6340    -4.2080     1.1090 H     1 <1>   0.0800 
 42 H      -11.2940    -3.6930     1.2470 H     1 <1>   0.0800 
 43 H      -10.1250    -3.1940     2.4450 H     1 <1>   0.0800 
 44 H       -8.8210     0.9870     0.8640 H     1 <1>   0.0800 
 45 H      -10.1690     1.5440     1.8100 H     1 <1>   0.0800 
 46 H       -9.8130     2.2690     0.2690 H     1 <1>   0.0800 
 47 H      -12.8640     0.3780    -0.4400 H     1 <1>   0.0800 
 48 H      -12.0820     1.9320    -0.5210 H     1 <1>   0.0800 
 49 H      -12.5030     1.2460     1.0280 H     1 <1>   0.0800 
@<TRIPOS>BOND
  1   1   2  1   
  2   1   3  1   
  3   2   4  ar  
  4   2   5  ar  
  5   3   6  2   
  6   3   7  1   
  7   4   6  1   
  8   4   8  ar  
  9   5   9  ar  
 10   5  25  1   
 11   7  26  1   
 12   7  27  1   
 13   7  28  1   
 14   8  10  ar  
 15   8  29  1   
 16   9  10  ar  
 17   9  11  1   
 18  10  30  1   
 19  11  12  am  
 20  11  31  1   
 21  12  13  2   
 22  12  14  am  
 23  14  15  1   
 24  14  16  1   
 25  15  17  1   
 26  15  18  1   
 27  15  32  1   
 28  16  19  1   
 29  16  33  1   
 30  16  34  1   
 31  17  20  1   
 32  17  35  1   
 33  17  36  1   
 34  18  19  1   
 35  18  37  1   
 36  18  38  1   
 37  19  21  1   
 38  19  22  1   
 39  20  21  1   
 40  20  23  1   
 41  20  24  1   
 42  21  39  1   
 43  21  40  1   
 44  22  41  1   
 45  22  42  1   
 46  22  43  1   
 47  23  44  1   
 48  23  45  1   
 49  23  46  1   
 50  24  47  1   
 51  24  48  1   
 52  24  49  1   
@<TRIPOS>SUBSTRUCTURE
  1 ****  11 GROUP 4 **** **** 0

# MOE 2024.06 (io_trps.svl 2023.06)
