@<TRIPOS>MOLECULE
NONAME
38 38 1 0 0 
SMALL
USER_CHARGES


@<TRIPOS>ATOM
  1 O        1.9950    -4.7680    -0.0140 O.3   1 <1>  -0.3630 
  2 C        3.1630    -5.4600    -0.0070 C.ar  1 <1>   0.0830 
  3 C        0.7540    -5.4240    -0.0030 C.3   1 <1>   0.1200 
  4 C        4.3290    -4.7130    -0.0200 C.ar  1 <1>  -0.1500 
  5 C        3.2410    -6.8510     0.0110 C.ar  1 <1>  -0.1500 
  6 C       -0.3260    -4.3400    -0.0150 C.3   1 <1>   0.3430 
  7 C        5.5680    -5.3300    -0.0150 C.ar  1 <1>   0.0820 
  8 C        4.4780    -7.4730     0.0160 C.ar  1 <1>  -0.1500 
  9 N       -1.7030    -4.9230    -0.0040 N.4   1 <1>  -0.9060 
 10 O        6.6540    -4.5170    -0.0290 O.3   1 <1>  -0.3620 
 11 C        5.6390    -6.7200     0.0030 C.ar  1 <1>  -0.1500 
 12 C       -2.7480    -3.8760    -0.0160 C.3   1 <1>   0.3430 
 13 C        7.9620    -5.0410    -0.0250 C.3   1 <1>   0.1200 
 14 C       -4.1050    -4.5640    -0.0040 C.3   1 <1>  -0.2400 
 15 C        8.9460    -3.8710    -0.0440 C.3   1 <1>  -0.1600 
 16 C       10.3980    -4.3620    -0.0410 C.3   1 <1>  -0.2400 
 17 H        0.7000    -6.0180     0.8930 H     1 <1>   0.0800 
 18 H        0.6960    -6.0410    -0.8830 H     1 <1>   0.0800 
 19 H        4.2790    -3.6400    -0.0340 H     1 <1>   0.1500 
 20 H        2.3640    -7.4680     0.0220 H     1 <1>   0.1500 
 21 H       -0.1950    -3.7350    -0.8980 H     1 <1>   0.0800 
 22 H       -0.1920    -3.7120     0.8520 H     1 <1>   0.0800 
 23 H        4.5400    -8.5480     0.0300 H     1 <1>   0.1500 
 24 H       -1.8320    -5.5090     0.8310 H     1 <1>   0.4500 
 25 H       -1.8350    -5.5300    -0.8230 H     1 <1>   0.4500 
 26 H        6.5840    -7.2300     0.0080 H     1 <1>   0.1500 
 27 H       -2.6560    -3.2640    -0.9000 H     1 <1>   0.0800 
 28 H       -2.6520    -3.2420     0.8520 H     1 <1>   0.0800 
 29 H        8.0850    -5.6540    -0.9010 H     1 <1>   0.0800 
 30 H        8.0890    -5.6310     0.8660 H     1 <1>   0.0800 
 31 H       -4.2340    -5.1800    -0.8770 H     1 <1>   0.0800 
 32 H       -4.8790    -3.8160    -0.0120 H     1 <1>   0.0800 
 33 H       -4.2300    -5.1580     0.8840 H     1 <1>   0.0800 
 34 H        8.7780    -3.2560     0.8230 H     1 <1>   0.0800 
 35 H        8.7730    -3.2790    -0.9250 H     1 <1>   0.0800 
 36 H       10.5980    -4.9440     0.8420 H     1 <1>   0.0800 
 37 H       11.0690    -3.5210    -0.0540 H     1 <1>   0.0800 
 38 H       10.5930    -4.9670    -0.9090 H     1 <1>   0.0800 
@<TRIPOS>BOND
  1   1   2  1   
  2   1   3  1   
  3   2   4  ar  
  4   2   5  ar  
  5   3   6  1   
  6   3  17  1   
  7   3  18  1   
  8   4   7  ar  
  9   4  19  1   
 10   5   8  ar  
 11   5  20  1   
 12   6   9  1   
 13   6  21  1   
 14   6  22  1   
 15   7  10  1   
 16   7  11  ar  
 17   8  11  ar  
 18   8  23  1   
 19   9  12  1   
 20   9  24  1   
 21   9  25  1   
 22  10  13  1   
 23  11  26  1   
 24  12  14  1   
 25  12  27  1   
 26  12  28  1   
 27  13  15  1   
 28  13  29  1   
 29  13  30  1   
 30  14  31  1   
 31  14  32  1   
 32  14  33  1   
 33  15  16  1   
 34  15  34  1   
 35  15  35  1   
 36  16  36  1   
 37  16  37  1   
 38  16  38  1   
@<TRIPOS>SUBSTRUCTURE
  1 ****   2 GROUP 4 **** **** 0

# MOE 2024.06 (io_trps.svl 2023.06)
