@<TRIPOS>MOLECULE
NONAME
44 47 1 0 0 
SMALL
USER_CHARGES


@<TRIPOS>ATOM
  1 O       -2.0550     0.4460    -0.4480 O.co2 1 <1>  -0.9000 
  2 C       -2.4440     1.2510     0.4010 C.2   1 <1>   0.9060 
  3 O       -3.5440     1.1180     0.9560 O.co2 1 <1>  -0.9000 
  4 C       -1.6040     2.4580     0.8080 C.3   1 <1>  -0.1860 
  5 C       -2.0610     3.8550     0.2490 C.3   1 <1>  -0.0190 
  6 C       -0.0740     2.2710     0.6230 C.3   1 <1>  -0.0800 
  7 C       -3.1580     3.8900    -0.8370 C.2   1 <1>   0.5690 
  8 C       -0.7960     4.6810    -0.1320 C.3   1 <1>  -0.0800 
  9 C        0.3090     2.5180    -0.8510 C.3   1 <1>  -0.1600 
 10 C        0.6390     3.3390     1.4780 C.3   1 <1>  -0.1600 
 11 O       -3.0340     4.5950    -1.8150 O.2   1 <1>  -0.5700 
 12 N       -4.3030     3.1990    -0.6430 N.am  1 <1>  -0.7300 
 13 C       -0.0260     3.9650    -1.2640 C.3   1 <1>  -0.1600 
 14 C        0.1440     4.7520     1.0920 C.3   1 <1>  -0.1600 
 15 C       -5.3220     2.9520    -1.6670 C.3   1 <1>   0.2840 
 16 C       -6.6750     2.7500    -1.0010 C.ar  1 <1>  -0.1430 
 17 C       -7.7290     3.6160    -1.2780 C.ar  1 <1>  -0.1500 
 18 C       -6.8590     1.6910    -0.1110 C.ar  1 <1>  -0.1500 
 19 C       -8.9410     3.3870    -0.6570 C.ar  1 <1>   0.0820 
 20 C       -8.0860     1.4780     0.5050 C.ar  1 <1>  -0.1500 
 21 O      -10.0780     4.0830    -0.7770 O.3   1 <1>  -0.3630 
 22 C       -9.1160     2.3470     0.2090 C.ar  1 <1>   0.0820 
 23 C      -11.0340     3.4510     0.0720 C.3   1 <1>   0.4000 
 24 O      -10.3710     2.3410     0.6740 O.3   1 <1>  -0.3630 
 25 H       -1.7610     2.5010     1.8700 H     1 <1>   0.0800 
 26 H       -2.5160     4.3680     1.0760 H     1 <1>   0.0800 
 27 H        0.2200     1.2800     0.9260 H     1 <1>   0.0800 
 28 H       -1.0760     5.6740    -0.4400 H     1 <1>   0.0800 
 29 H       -0.2290     1.8310    -1.4830 H     1 <1>   0.0800 
 30 H        1.3580     2.3300    -0.9930 H     1 <1>   0.0800 
 31 H        1.7010     3.2690     1.3200 H     1 <1>   0.0800 
 32 H        0.4500     3.1580     2.5210 H     1 <1>   0.0800 
 33 H       -4.2850     2.4640     0.0940 H     1 <1>   0.3700 
 34 H        0.8820     4.5010    -1.4740 H     1 <1>   0.0800 
 35 H       -0.6080     3.9510    -2.1690 H     1 <1>   0.0800 
 36 H       -0.3800     5.1930     1.9220 H     1 <1>   0.0800 
 37 H        0.9880     5.3810     0.8660 H     1 <1>   0.0800 
 38 H       -5.0520     2.0650    -2.2130 H     1 <1>   0.0800 
 39 H       -5.3560     3.7800    -2.3530 H     1 <1>   0.0800 
 40 H       -7.6160     4.4450    -1.9520 H     1 <1>   0.1500 
 41 H       -6.0320     1.0290     0.1090 H     1 <1>   0.1500 
 42 H       -8.2310     0.6650     1.1930 H     1 <1>   0.1500 
 43 H      -11.8630     3.1010    -0.5150 H     1 <1>   0.0800 
 44 H      -11.3470     4.1400     0.8360 H     1 <1>   0.0800 
@<TRIPOS>BOND
  1   1   2  ar  
  2   2   3  ar  
  3   2   4  1   
  4   4   5  1   
  5   4   6  1   
  6   4  25  1   
  7   5   7  1   
  8   5   8  1   
  9   5  26  1   
 10   6   9  1   
 11   6  10  1   
 12   6  27  1   
 13   7  11  2   
 14   7  12  am  
 15   8  13  1   
 16   8  14  1   
 17   8  28  1   
 18   9  13  1   
 19   9  29  1   
 20   9  30  1   
 21  10  14  1   
 22  10  31  1   
 23  10  32  1   
 24  12  15  1   
 25  12  33  1   
 26  13  34  1   
 27  13  35  1   
 28  14  36  1   
 29  14  37  1   
 30  15  16  1   
 31  15  38  1   
 32  15  39  1   
 33  16  17  ar  
 34  16  18  ar  
 35  17  19  ar  
 36  17  40  1   
 37  18  20  ar  
 38  18  41  1   
 39  19  21  1   
 40  19  22  ar  
 41  20  22  ar  
 42  20  42  1   
 43  21  23  1   
 44  22  24  1   
 45  23  24  1   
 46  23  43  1   
 47  23  44  1   
@<TRIPOS>SUBSTRUCTURE
  1 ****  12 GROUP 4 **** **** 0

# MOE 2024.06 (io_trps.svl 2023.06)
