@<TRIPOS>MOLECULE
NONAME
30 31 1 0 0 
SMALL
USER_CHARGES


@<TRIPOS>ATOM
  1 BR      -0.6240    -2.0850     2.3520 Br    1 <1>  -0.0580 
  2 C        0.4410    -2.5270     0.8140 C.2   1 <1>   0.1980 
  3 O        1.6540    -2.9760     1.0170 O.3   1 <1>  -0.2800 
  4 C        0.1170    -2.4410    -0.4900 C.2   1 <1>  -0.1500 
  5 C        2.1870    -3.2090    -0.1860 C.2   1 <1>   0.0550 
  6 C        1.2660    -2.8900    -1.1460 C.2   1 <1>  -0.1500 
  7 C        3.5320    -3.7160    -0.3130 C.2   1 <1>   0.7150 
  8 O        4.0160    -3.9270    -1.4100 O.2   1 <1>  -0.5700 
  9 N        4.2690    -3.9610     0.8120 N.am  1 <1>  -0.7300 
 10 C        5.6370    -4.5320     0.9190 C.3   1 <1>   0.2200 
 11 C        6.6610    -3.8500    -0.0190 C.3   1 <1>   0.2000 
 12 C        5.5460    -6.0410     0.6860 C.3   1 <1>  -0.2400 
 13 O        7.9520    -4.2630     0.3060 O.3   1 <1>  -0.5600 
 14 C        6.7280    -2.3300     0.0950 C.3   1 <1>  -0.1600 
 15 C        8.8750    -3.3680    -0.2220 C.3   1 <1>   0.1200 
 16 C        8.1740    -2.0120    -0.2550 C.3   1 <1>  -0.1600 
 17 H       -0.8000    -2.1100    -0.9410 H     1 <1>   0.1500 
 18 H        1.3930    -2.9670    -2.2130 H     1 <1>   0.1500 
 19 H        3.7890    -3.8130     1.7010 H     1 <1>   0.3700 
 20 H        5.9760    -4.3630     1.9270 H     1 <1>   0.0800 
 21 H        6.4860    -4.1410    -1.0400 H     1 <1>   0.0800 
 22 H        5.2260    -6.2450    -0.3200 H     1 <1>   0.0800 
 23 H        4.8590    -6.4880     1.3800 H     1 <1>   0.0800 
 24 H        6.5140    -6.4870     0.8290 H     1 <1>   0.0800 
 25 H        6.5140    -2.0280     1.1050 H     1 <1>   0.0800 
 26 H        6.0280    -1.8590    -0.5730 H     1 <1>   0.0800 
 27 H        9.1290    -3.7000    -1.2140 H     1 <1>   0.0800 
 28 H        9.7500    -3.3640     0.4040 H     1 <1>   0.0800 
 29 H        8.6100    -1.3380     0.4600 H     1 <1>   0.0800 
 30 H        8.2550    -1.5830    -1.2380 H     1 <1>   0.0800 
@<TRIPOS>BOND
  1   1   2  1   
  2   2   3  1   
  3   2   4  2   
  4   3   5  1   
  5   4   6  1   
  6   4  17  1   
  7   5   6  2   
  8   5   7  1   
  9   6  18  1   
 10   7   8  2   
 11   7   9  am  
 12   9  10  1   
 13   9  19  1   
 14  10  11  1   
 15  10  12  1   
 16  10  20  1   
 17  11  13  1   
 18  11  14  1   
 19  11  21  1   
 20  12  22  1   
 21  12  23  1   
 22  12  24  1   
 23  13  15  1   
 24  14  16  1   
 25  14  25  1   
 26  14  26  1   
 27  15  16  1   
 28  15  27  1   
 29  15  28  1   
 30  16  29  1   
 31  16  30  1   
@<TRIPOS>SUBSTRUCTURE
  1 ****   9 GROUP 4 **** **** 0

# MOE 2024.06 (io_trps.svl 2023.06)
