@<TRIPOS>MOLECULE
NONAME
41 45 1 0 0 
SMALL
USER_CHARGES


@<TRIPOS>ATOM
  1 CL       0.0180    -0.7060     0.1790 Cl    1 <1>  -0.1770 
  2 C       -1.6970    -0.4010     0.0580 C.ar  1 <1>   0.1770 
  3 C       -2.2520     0.6460     0.7690 C.ar  1 <1>  -0.1500 
  4 C       -2.4760    -1.2100    -0.7460 C.ar  1 <1>  -0.1500 
  5 C       -3.6120     0.8840     0.6710 C.ar  1 <1>  -0.1500 
  6 C       -3.8350    -0.9650    -0.8390 C.ar  1 <1>  -0.1500 
  7 C       -4.4240     0.0840    -0.1330 C.ar  1 <1>   0.1170 
  8 N       -5.8130     0.3340    -0.2280 N.am  1 <1>  -0.2370 
  9 C       -6.8110    -0.6280    -0.3180 C.2   1 <1>   0.5690 
 10 C       -6.4070     1.5870    -0.2570 C.2   1 <1>   0.5690 
 11 O       -6.7090    -1.8210    -0.2020 O.2   1 <1>  -0.5700 
 12 C       -8.0680     0.0730    -0.7310 C.3   1 <1>  -0.0190 
 13 O       -5.8870     2.6590    -0.4270 O.2   1 <1>  -0.5700 
 14 C       -7.8630     1.3860     0.0070 C.3   1 <1>  -0.0190 
 15 C       -9.6010    -0.0670    -0.6260 C.3   1 <1>   0.4180 
 16 C       -9.2400     2.0170    -0.1630 C.3   1 <1>   0.4180 
 17 O       -9.9270     0.9160     0.3300 O.3   1 <1>  -0.5600 
 18 C      -10.1010     0.7130    -1.8320 C.2   1 <1>  -0.2880 
 19 C      -10.1490    -1.4950    -0.3370 C.3   1 <1>   0.4800 
 20 C       -9.8160     1.9890    -1.5700 C.2   1 <1>  -0.2880 
 21 C       -9.5700     3.2470     0.6690 C.3   1 <1>  -0.2400 
 22 O      -11.5430    -1.5530    -0.3450 O.3   1 <1>  -0.5600 
 23 O       -9.7750    -1.9380     0.9290 O.3   1 <1>  -0.5600 
 24 C      -11.9500    -2.5250     0.5500 C.3   1 <1>   0.1200 
 25 C      -10.7010    -2.8720     1.3390 C.3   1 <1>   0.1200 
 26 H       -1.6260     1.2630     1.3870 H     1 <1>   0.1500 
 27 H       -2.0220    -2.0200    -1.2890 H     1 <1>   0.1500 
 28 H       -4.0410     1.7020     1.2230 H     1 <1>   0.1500 
 29 H       -4.4390    -1.5990    -1.4640 H     1 <1>   0.1500 
 30 H       -7.8700     0.2060    -1.7830 H     1 <1>   0.0800 
 31 H       -7.8350     1.1920     1.0710 H     1 <1>   0.0800 
 32 H      -10.5460     0.2180    -2.6770 H     1 <1>   0.1500 
 33 H       -9.7790    -2.1950    -1.0660 H     1 <1>   0.0800 
 34 H       -9.9430     2.8940    -2.1380 H     1 <1>   0.1500 
 35 H       -9.3170     3.0820     1.7010 H     1 <1>   0.0800 
 36 H      -10.6190     3.4680     0.5910 H     1 <1>   0.0800 
 37 H       -9.0110     4.0900     0.3050 H     1 <1>   0.0800 
 38 H      -12.3310    -3.3720     0.0070 H     1 <1>   0.0800 
 39 H      -12.7170    -2.1110     1.1810 H     1 <1>   0.0800 
 40 H      -10.8490    -2.7830     2.4010 H     1 <1>   0.0800 
 41 H      -10.3380    -3.8550     1.0930 H     1 <1>   0.0800 
@<TRIPOS>BOND
  1   1   2  1   
  2   2   3  ar  
  3   2   4  ar  
  4   3   5  ar  
  5   3  26  1   
  6   4   6  ar  
  7   4  27  1   
  8   5   7  ar  
  9   5  28  1   
 10   6   7  ar  
 11   6  29  1   
 12   7   8  1   
 13   8   9  am  
 14   8  10  am  
 15   9  11  2   
 16   9  12  1   
 17  10  13  2   
 18  10  14  1   
 19  12  14  1   
 20  12  15  1   
 21  12  30  1   
 22  14  16  1   
 23  14  31  1   
 24  15  17  1   
 25  15  18  1   
 26  15  19  1   
 27  16  17  1   
 28  16  20  1   
 29  16  21  1   
 30  18  20  2   
 31  18  32  1   
 32  19  22  1   
 33  19  23  1   
 34  19  33  1   
 35  20  34  1   
 36  21  35  1   
 37  21  36  1   
 38  21  37  1   
 39  22  24  1   
 40  23  25  1   
 41  24  25  1   
 42  24  38  1   
 43  24  39  1   
 44  25  40  1   
 45  25  41  1   
@<TRIPOS>SUBSTRUCTURE
  1 ****   9 GROUP 4 **** **** 0

# MOE 2024.06 (io_trps.svl 2023.06)
