@<TRIPOS>MOLECULE
NONAME
49 50 1 0 0 
SMALL
USER_CHARGES


@<TRIPOS>ATOM
  1 S        0.0360     0.1790     0.7270 S.o2  1 <1>   1.4470 
  2 O        0.1070    -1.2640     0.7210 O.2   1 <1>  -0.6500 
  3 O       -0.5550     0.8790     1.8450 O.2   1 <1>  -0.6500 
  4 N       -0.8640     0.5520    -0.6410 N.am  1 <1>  -0.9140 
  5 C        1.6630     0.8850     0.3530 C.ar  1 <1>  -0.0090 
  6 C       -2.2950     0.7290    -0.4190 C.3   1 <1>   0.1960 
  7 C        1.7980     2.2300     0.0320 C.ar  1 <1>  -0.1500 
  8 C        2.8150     0.1070     0.3840 C.ar  1 <1>  -0.1500 
  9 C       -3.0140    -0.6000    -0.1130 C.3   1 <1>  -0.0800 
 10 C        3.0360     2.7810    -0.2480 C.ar  1 <1>  -0.1500 
 11 C        4.0570     0.6510     0.1050 C.ar  1 <1>  -0.1500 
 12 C       -2.8000    -1.6540    -1.2130 C.3   1 <1>  -0.2400 
 13 C       -4.5170    -0.3460     0.0610 C.3   1 <1>  -0.2400 
 14 C        4.1740     1.9930    -0.2120 C.ar  1 <1>  -0.1430 
 15 C        5.5320     2.6050    -0.5090 C.3   1 <1>  -0.0170 
 16 C        6.1200     3.2280     0.7610 C.3   1 <1>  -0.0990 
 17 C        7.4530     3.8770     0.4730 C.2   1 <1>   0.5690 
 18 O        7.4740     4.9630    -0.0490 O.2   1 <1>  -0.5700 
 19 N        8.5870     3.2160     0.7960 N.am  1 <1>  -0.7300 
 20 C        9.9480     3.6990     0.5080 C.3   1 <1>   0.3200 
 21 C       10.8240     2.5040     0.1830 C.2   1 <1>  -0.0400 
 22 O       10.9670     1.5490     1.0850 O.3   1 <1>  -0.2800 
 23 C       11.5290     2.2090    -0.9310 C.2   1 <1>  -0.1500 
 24 C       11.7640     0.6330     0.5720 C.2   1 <1>  -0.0100 
 25 C       12.1480     0.9790    -0.6750 C.2   1 <1>  -0.1500 
 26 H       -0.7590    -0.2720    -1.2280 H     1 <1>   0.4200 
 27 H       -2.7220     1.1530    -1.3120 H     1 <1>   0.0800 
 28 H       -2.4600     1.4330     0.3800 H     1 <1>   0.0800 
 29 H        0.9200     2.8530     0.0030 H     1 <1>   0.1500 
 30 H        2.7400    -0.9390     0.6300 H     1 <1>   0.1500 
 31 H       -2.6450    -0.9910     0.8210 H     1 <1>   0.0800 
 32 H        3.1090     3.8270    -0.4920 H     1 <1>   0.1500 
 33 H        4.9300     0.0230     0.1380 H     1 <1>   0.1500 
 34 H       -3.1050    -1.2730    -2.1720 H     1 <1>   0.0800 
 35 H       -3.3780    -2.5360    -0.9970 H     1 <1>   0.0800 
 36 H       -1.7680    -1.9510    -1.2660 H     1 <1>   0.0800 
 37 H       -4.9490     0.0360    -0.8470 H     1 <1>   0.0800 
 38 H       -4.6860     0.3660     0.8500 H     1 <1>   0.0800 
 39 H       -5.0220    -1.2600     0.3230 H     1 <1>   0.0800 
 40 H        5.4290     3.3630    -1.2670 H     1 <1>   0.0800 
 41 H        6.2000     1.8520    -0.8890 H     1 <1>   0.0800 
 42 H        6.2350     2.4760     1.5190 H     1 <1>   0.0800 
 43 H        5.4510     3.9800     1.1370 H     1 <1>   0.0800 
 44 H        8.5700     2.2850     1.2170 H     1 <1>   0.3700 
 45 H       10.3360     4.2080     1.3720 H     1 <1>   0.0800 
 46 H        9.9300     4.3840    -0.3230 H     1 <1>   0.0800 
 47 H       11.6200     2.7740    -1.8430 H     1 <1>   0.1500 
 48 H       12.0070    -0.2340     1.1620 H     1 <1>   0.1500 
 49 H       12.7920     0.4480    -1.3540 H     1 <1>   0.1500 
@<TRIPOS>BOND
  1   1   2  2   
  2   1   3  2   
  3   1   4  am  
  4   1   5  1   
  5   4   6  1   
  6   4  26  1   
  7   5   7  ar  
  8   5   8  ar  
  9   6   9  1   
 10   6  27  1   
 11   6  28  1   
 12   7  10  ar  
 13   7  29  1   
 14   8  11  ar  
 15   8  30  1   
 16   9  12  1   
 17   9  13  1   
 18   9  31  1   
 19  10  14  ar  
 20  10  32  1   
 21  11  14  ar  
 22  11  33  1   
 23  12  34  1   
 24  12  35  1   
 25  12  36  1   
 26  13  37  1   
 27  13  38  1   
 28  13  39  1   
 29  14  15  1   
 30  15  16  1   
 31  15  40  1   
 32  15  41  1   
 33  16  17  1   
 34  16  42  1   
 35  16  43  1   
 36  17  18  2   
 37  17  19  am  
 38  19  20  1   
 39  19  44  1   
 40  20  21  1   
 41  20  45  1   
 42  20  46  1   
 43  21  22  1   
 44  21  23  2   
 45  22  24  1   
 46  23  25  1   
 47  23  47  1   
 48  24  25  2   
 49  24  48  1   
 50  25  49  1   
@<TRIPOS>SUBSTRUCTURE
  1 ****  14 GROUP 4 **** **** 0

# MOE 2024.06 (io_trps.svl 2023.06)
