@<TRIPOS>MOLECULE
NONAME
38 39 1 0 0 
SMALL
USER_CHARGES


@<TRIPOS>ATOM
  1 S       -0.0800    -1.1760     1.5830 S.3   1 <1>  -0.0800 
  2 C        0.0080    -1.5100    -0.1350 C.2   1 <1>  -0.1400 
  3 C       -1.8260    -1.1840     1.5370 C.2   1 <1>  -0.1100 
  4 C       -1.2280    -1.6190    -0.6530 C.2   1 <1>  -0.1500 
  5 C        1.3830    -1.6230    -0.7670 C.3   1 <1>   0.0200 
  6 C       -2.3010    -1.4460     0.2930 C.2   1 <1>  -0.0860 
  7 C        2.0810    -0.2620    -0.8130 C.3   1 <1>  -0.2400 
  8 C       -3.6900    -1.5440    -0.1080 C.2   1 <1>   0.7160 
  9 O       -4.0260    -1.2470    -1.2390 O.2   1 <1>  -0.5700 
 10 N       -4.6730    -2.0130     0.7400 N.am  1 <1>  -0.6600 
 11 C       -6.1000    -1.6610     0.4780 C.3   1 <1>   0.1400 
 12 C       -4.4090    -3.0470     1.7740 C.3   1 <1>   0.1400 
 13 C       -6.6780    -2.5020    -0.6770 C.3   1 <1>   0.3430 
 14 C       -5.2850    -4.2890     1.5670 C.3   1 <1>  -0.1600 
 15 N       -6.8080    -3.9770    -0.3830 N.4   1 <1>  -0.9590 
 16 C       -5.5450    -4.6220     0.0930 C.3   1 <1>   0.3430 
 17 C       -7.2980    -4.6750    -1.6100 C.3   1 <1>   0.2630 
 18 H       -2.3380    -0.9840     2.4610 H     1 <1>   0.1500 
 19 H       -1.4470    -1.8140    -1.6890 H     1 <1>   0.1500 
 20 H        1.2790    -2.0010    -1.7680 H     1 <1>   0.0800 
 21 H        1.9770    -2.3220    -0.2060 H     1 <1>   0.0800 
 22 H        1.4820     0.4420    -1.3630 H     1 <1>   0.0800 
 23 H        3.0380    -0.3540    -1.2950 H     1 <1>   0.0800 
 24 H        2.2320     0.1170     0.1820 H     1 <1>   0.0800 
 25 H       -6.1460    -0.6220     0.1960 H     1 <1>   0.0800 
 26 H       -6.6900    -1.7800     1.3690 H     1 <1>   0.0800 
 27 H       -4.5790    -2.6310     2.7540 H     1 <1>   0.0800 
 28 H       -3.3770    -3.3510     1.7230 H     1 <1>   0.0800 
 29 H       -6.0460    -2.3610    -1.5400 H     1 <1>   0.0800 
 30 H       -7.6490    -2.1070    -0.9260 H     1 <1>   0.0800 
 31 H       -6.2110    -4.1870     2.1040 H     1 <1>   0.0800 
 32 H       -4.7650    -5.1180     2.0130 H     1 <1>   0.0800 
 33 H       -7.5120    -4.0940     0.3580 H     1 <1>   0.4500 
 34 H       -5.6440    -5.6920     0.0040 H     1 <1>   0.0800 
 35 H       -4.7090    -4.3120    -0.5150 H     1 <1>   0.0800 
 36 H       -6.5810    -4.5730    -2.4090 H     1 <1>   0.0800 
 37 H       -8.2360    -4.2530    -1.9340 H     1 <1>   0.0800 
 38 H       -7.4460    -5.7250    -1.4110 H     1 <1>   0.0800 
@<TRIPOS>BOND
  1   1   2  1   
  2   1   3  1   
  3   2   4  2   
  4   2   5  1   
  5   3   6  2   
  6   3  18  1   
  7   4   6  1   
  8   4  19  1   
  9   5   7  1   
 10   5  20  1   
 11   5  21  1   
 12   6   8  1   
 13   7  22  1   
 14   7  23  1   
 15   7  24  1   
 16   8   9  2   
 17   8  10  am  
 18  10  11  1   
 19  10  12  1   
 20  11  13  1   
 21  11  25  1   
 22  11  26  1   
 23  12  14  1   
 24  12  27  1   
 25  12  28  1   
 26  13  15  1   
 27  13  29  1   
 28  13  30  1   
 29  14  16  1   
 30  14  31  1   
 31  14  32  1   
 32  15  16  1   
 33  15  17  1   
 34  15  33  1   
 35  16  34  1   
 36  16  35  1   
 37  17  36  1   
 38  17  37  1   
 39  17  38  1   
@<TRIPOS>SUBSTRUCTURE
  1 ****   8 GROUP 4 **** **** 0

# MOE 2024.06 (io_trps.svl 2023.06)
