@<TRIPOS>MOLECULE
NONAME
37 37 1 0 0 
SMALL
USER_CHARGES


@<TRIPOS>ATOM
  1 CL       0.9350     1.2480    -1.8070 Cl    1 <1>  -0.1770 
  2 C        0.4130     2.1960    -0.4360 C.ar  1 <1>   0.1770 
  3 C        1.2600     2.4030     0.6520 C.ar  1 <1>   0.0860 
  4 C       -0.8680     2.7140    -0.4790 C.ar  1 <1>  -0.1500 
  5 C        2.6070     1.8770     0.7130 C.2   1 <1>   0.5440 
  6 C        0.7370     3.1250     1.7250 C.ar  1 <1>  -0.1500 
  7 C       -1.3550     3.4500     0.5870 C.ar  1 <1>  -0.1440 
  8 O        2.8570     1.0790     1.5970 O.2   1 <1>  -0.5700 
  9 N        3.6150     2.2700    -0.1540 N.am  1 <1>  -0.6600 
 10 C       -0.5450     3.6460     1.6940 C.ar  1 <1>  -0.1500 
 11 C       -2.7600     4.0250     0.5560 C.3   1 <1>  -0.0970 
 12 C        4.7280     1.3530    -0.5500 C.3   1 <1>   0.2200 
 13 C        3.8400     3.6810    -0.5890 C.3   1 <1>   0.2200 
 14 C        4.2270    -0.0480    -0.9090 C.3   1 <1>  -0.2400 
 15 C        5.7960     1.3110     0.5430 C.3   1 <1>  -0.2400 
 16 C        3.6020     4.6830     0.5410 C.3   1 <1>  -0.2400 
 17 C        3.0100     4.0100    -1.8270 C.3   1 <1>  -0.2400 
 18 H       -1.4780     2.5320    -1.3450 H     1 <1>   0.1500 
 19 H        1.3540     3.2730     2.5950 H     1 <1>   0.1500 
 20 H       -0.9120     4.2040     2.5390 H     1 <1>   0.1500 
 21 H       -3.4280     3.3820     1.1010 H     1 <1>   0.0800 
 22 H       -3.1130     4.1130    -0.4560 H     1 <1>   0.0800 
 23 H       -2.7740     5.0010     1.0060 H     1 <1>   0.0800 
 24 H        5.1840     1.7460    -1.4430 H     1 <1>   0.0800 
 25 H        4.8770     3.7820    -0.8630 H     1 <1>   0.0800 
 26 H        3.8270    -0.5540    -0.0490 H     1 <1>   0.0800 
 27 H        5.0410    -0.6360    -1.2880 H     1 <1>   0.0800 
 28 H        3.4730     0.0130    -1.6710 H     1 <1>   0.0800 
 29 H        5.4030     0.8680     1.4400 H     1 <1>   0.0800 
 30 H        6.1440     2.3030     0.7650 H     1 <1>   0.0800 
 31 H        6.6320     0.7220     0.2150 H     1 <1>   0.0800 
 32 H        2.5560     4.8190     0.7340 H     1 <1>   0.0800 
 33 H        4.0060     5.6380     0.2610 H     1 <1>   0.0800 
 34 H        4.0980     4.3560     1.4370 H     1 <1>   0.0800 
 35 H        1.9660     4.0790    -1.5880 H     1 <1>   0.0800 
 36 H        3.1550     3.2570    -2.5820 H     1 <1>   0.0800 
 37 H        3.3200     4.9570    -2.2290 H     1 <1>   0.0800 
@<TRIPOS>BOND
  1   1   2  1   
  2   2   3  ar  
  3   2   4  ar  
  4   3   5  1   
  5   3   6  ar  
  6   4   7  ar  
  7   4  18  1   
  8   5   8  2   
  9   5   9  am  
 10   6  10  ar  
 11   6  19  1   
 12   7  10  ar  
 13   7  11  1   
 14   9  12  1   
 15   9  13  1   
 16  10  20  1   
 17  11  21  1   
 18  11  22  1   
 19  11  23  1   
 20  12  14  1   
 21  12  15  1   
 22  12  24  1   
 23  13  16  1   
 24  13  17  1   
 25  13  25  1   
 26  14  26  1   
 27  14  27  1   
 28  14  28  1   
 29  15  29  1   
 30  15  30  1   
 31  15  31  1   
 32  16  32  1   
 33  16  33  1   
 34  16  34  1   
 35  17  35  1   
 36  17  36  1   
 37  17  37  1   
@<TRIPOS>SUBSTRUCTURE
  1 ****   3 GROUP 4 **** **** 0

# MOE 2024.06 (io_trps.svl 2023.06)
