@<TRIPOS>MOLECULE
NONAME
48 49 1 0 0 
SMALL
USER_CHARGES


@<TRIPOS>ATOM
  1 O       -0.9180    -6.1910    -0.0530 O.3   1 <1>  -0.3630 
  2 C       -2.1220    -6.8210     0.0000 C.ar  1 <1>   0.0830 
  3 C        0.2930    -6.8940     0.1100 C.3   1 <1>   0.1200 
  4 C       -3.2650    -6.0440    -0.1730 C.ar  1 <1>  -0.1440 
  5 C       -2.2490    -8.1920     0.2170 C.ar  1 <1>  -0.1500 
  6 C        1.4360    -5.8920    -0.0060 C.3   1 <1>   0.1200 
  7 C       -4.5140    -6.6420    -0.1270 C.ar  1 <1>  -0.1500 
  8 C       -3.1550    -4.5450    -0.4110 C.3   1 <1>  -0.0960 
  9 C       -3.5010    -8.7780     0.2600 C.ar  1 <1>  -0.1500 
 10 O        2.6480    -6.5690     0.1570 O.3   1 <1>  -0.5600 
 11 C       -4.6340    -8.0040     0.0880 C.ar  1 <1>  -0.1500 
 12 C        3.7700    -5.7570     0.0710 C.3   1 <1>   0.1200 
 13 C        4.9990    -6.6570     0.2460 C.3   1 <1>   0.3430 
 14 N        6.2890    -5.8970     0.1680 N.4   1 <1>  -0.9590 
 15 C        7.4350    -6.8370     0.0290 C.3   1 <1>   0.3430 
 16 C        6.5000    -5.0160     1.3470 C.3   1 <1>   0.3430 
 17 C        8.6190    -6.1630    -0.6710 C.3   1 <1>  -0.1600 
 18 C        7.0480    -3.6600     0.9030 C.3   1 <1>  -0.1600 
 19 C        9.1360    -4.8590    -0.0340 C.3   1 <1>  -0.1600 
 20 C        8.1500    -3.6890    -0.1720 C.3   1 <1>  -0.1600 
 21 H        0.3600    -7.6350    -0.6670 H     1 <1>   0.0800 
 22 H        0.2890    -7.3520     1.0830 H     1 <1>   0.0800 
 23 H       -1.3900    -8.8200     0.3530 H     1 <1>   0.1500 
 24 H        1.3480    -5.1450     0.7650 H     1 <1>   0.0800 
 25 H        1.4220    -5.4320    -0.9790 H     1 <1>   0.0800 
 26 H       -5.4030    -6.0520    -0.2590 H     1 <1>   0.1500 
 27 H       -2.5850    -4.3600    -1.3030 H     1 <1>   0.0800 
 28 H       -2.6570    -4.0810     0.4210 H     1 <1>   0.0800 
 29 H       -4.1250    -4.0970    -0.5240 H     1 <1>   0.0800 
 30 H       -3.5950    -9.8370     0.4270 H     1 <1>   0.1500 
 31 H       -5.6080    -8.4600     0.1220 H     1 <1>   0.1500 
 32 H        3.7110    -5.0180     0.8510 H     1 <1>   0.0800 
 33 H        3.7770    -5.2880    -0.8980 H     1 <1>   0.0800 
 34 H        4.9760    -7.4010    -0.5330 H     1 <1>   0.0800 
 35 H        4.9310    -7.1610     1.1970 H     1 <1>   0.0800 
 36 H        6.2870    -5.3010    -0.6700 H     1 <1>   0.4500 
 37 H        7.1370    -7.6910    -0.5580 H     1 <1>   0.0800 
 38 H        7.7390    -7.1920     1.0010 H     1 <1>   0.0800 
 39 H        7.1980    -5.4790     2.0260 H     1 <1>   0.0800 
 40 H        5.5750    -4.8640     1.8800 H     1 <1>   0.0800 
 41 H        8.3640    -5.9850    -1.7020 H     1 <1>   0.0800 
 42 H        9.4300    -6.8710    -0.6790 H     1 <1>   0.0800 
 43 H        7.4420    -3.1750     1.7800 H     1 <1>   0.0800 
 44 H        6.2360    -3.0450     0.5560 H     1 <1>   0.0800 
 45 H       10.0420    -4.5850    -0.5510 H     1 <1>   0.0800 
 46 H        9.4030    -5.0140     0.9980 H     1 <1>   0.0800 
 47 H        8.7030    -2.7660    -0.1000 H     1 <1>   0.0800 
 48 H        7.7110    -3.7020    -1.1550 H     1 <1>   0.0800 
@<TRIPOS>BOND
  1   1   2  1   
  2   1   3  1   
  3   2   4  ar  
  4   2   5  ar  
  5   3   6  1   
  6   3  21  1   
  7   3  22  1   
  8   4   7  ar  
  9   4   8  1   
 10   5   9  ar  
 11   5  23  1   
 12   6  10  1   
 13   6  24  1   
 14   6  25  1   
 15   7  11  ar  
 16   7  26  1   
 17   8  27  1   
 18   8  28  1   
 19   8  29  1   
 20   9  11  ar  
 21   9  30  1   
 22  10  12  1   
 23  11  31  1   
 24  12  13  1   
 25  12  32  1   
 26  12  33  1   
 27  13  14  1   
 28  13  34  1   
 29  13  35  1   
 30  14  15  1   
 31  14  16  1   
 32  14  36  1   
 33  15  17  1   
 34  15  37  1   
 35  15  38  1   
 36  16  18  1   
 37  16  39  1   
 38  16  40  1   
 39  17  19  1   
 40  17  41  1   
 41  17  42  1   
 42  18  20  1   
 43  18  43  1   
 44  18  44  1   
 45  19  20  1   
 46  19  45  1   
 47  19  46  1   
 48  20  47  1   
 49  20  48  1   
@<TRIPOS>SUBSTRUCTURE
  1 ****  10 GROUP 4 **** **** 0

# MOE 2024.06 (io_trps.svl 2023.06)
