@<TRIPOS>MOLECULE
NONAME
32 33 1 0 0 
SMALL
USER_CHARGES


@<TRIPOS>ATOM
  1 CL       2.4530     1.0970    -0.6180 Cl    1 <1>  -0.1770 
  2 C        1.1970     2.2000    -0.1130 C.ar  1 <1>   0.1770 
  3 C        1.4260     3.0960     0.9300 C.ar  1 <1>   0.0860 
  4 C       -0.0090     2.1490    -0.7830 C.ar  1 <1>  -0.1500 
  5 C        2.6890     3.1540     1.6260 C.2   1 <1>   0.5440 
  6 C        0.3790     3.9450     1.2900 C.ar  1 <1>  -0.1500 
  7 C       -1.0190     3.0100    -0.4040 C.ar  1 <1>   0.1770 
  8 O        2.7900     2.7190     2.7520 O.2   1 <1>  -0.5700 
  9 N        3.7980     3.7270     1.0930 N.am  1 <1>  -0.7300 
 10 C       -0.8420     3.9160     0.6340 C.ar  1 <1>  -0.1430 
 11 CL      -2.5370     2.9370    -1.2630 Cl    1 <1>  -0.1770 
 12 C        3.9930     4.2830    -0.2510 C.3   1 <1>   0.3150 
 13 C       -1.9610     4.8590     1.0530 C.3   1 <1>  -0.0960 
 14 C        5.3520     3.8450    -0.8230 C.3   1 <1>  -0.1950 
 15 C        3.9220     5.8010    -0.1430 C.3   1 <1>  -0.2400 
 16 C        5.9440     2.4930    -0.5650 C.3   1 <1>  -0.2000 
 17 C        6.6010     3.7240    -0.0030 C.3   1 <1>  -0.2000 
 18 H       -0.1630     1.4500    -1.5850 H     1 <1>   0.1500 
 19 H        0.5410     4.6320     2.1050 H     1 <1>   0.1500 
 20 H        4.6470     3.6620     1.6550 H     1 <1>   0.3700 
 21 H        3.2140     3.9360    -0.9070 H     1 <1>   0.0800 
 22 H       -1.6540     5.4860     1.8710 H     1 <1>   0.0800 
 23 H       -2.8210     4.2930     1.3640 H     1 <1>   0.0800 
 24 H       -2.2420     5.4880     0.2280 H     1 <1>   0.0800 
 25 H        5.4800     4.2260    -1.8220 H     1 <1>   0.1000 
 26 H        4.7010     6.1680     0.5000 H     1 <1>   0.0800 
 27 H        2.9660     6.1000     0.2480 H     1 <1>   0.0800 
 28 H        4.0450     6.2430    -1.1150 H     1 <1>   0.0800 
 29 H        6.4220     1.9760    -1.3800 H     1 <1>   0.1000 
 30 H        5.4520     1.8160     0.1120 H     1 <1>   0.1000 
 31 H        6.5680     3.8800     1.0610 H     1 <1>   0.1000 
 32 H        7.5320     4.0520    -0.4320 H     1 <1>   0.1000 
@<TRIPOS>BOND
  1   1   2  1   
  2   2   3  ar  
  3   2   4  ar  
  4   3   5  1   
  5   3   6  ar  
  6   4   7  ar  
  7   4  18  1   
  8   5   8  2   
  9   5   9  am  
 10   6  10  ar  
 11   6  19  1   
 12   7  10  ar  
 13   7  11  1   
 14   9  12  1   
 15   9  20  1   
 16  10  13  1   
 17  12  14  1   
 18  12  15  1   
 19  12  21  1   
 20  13  22  1   
 21  13  23  1   
 22  13  24  1   
 23  14  16  1   
 24  14  17  1   
 25  14  25  1   
 26  15  26  1   
 27  15  27  1   
 28  15  28  1   
 29  16  17  1   
 30  16  29  1   
 31  16  30  1   
 32  17  31  1   
 33  17  32  1   
@<TRIPOS>SUBSTRUCTURE
  1 ****   3 GROUP 4 **** **** 0

# MOE 2024.06 (io_trps.svl 2023.06)
