@<TRIPOS>MOLECULE
NONAME
43 44 1 0 0 
SMALL
USER_CHARGES


@<TRIPOS>ATOM
  1 N        4.7600    -5.3400     0.1770 N.4   1 <1>  -0.9590 
  2 C        5.9800    -4.5380     0.4170 C.3   1 <1>   0.4230 
  3 C        4.8740    -6.7660     0.6280 C.3   1 <1>   0.3430 
  4 C        4.1660    -5.2800    -1.2020 C.3   1 <1>   0.3430 
  5 C        5.6310    -3.0560     0.3220 C.3   1 <1>  -0.2400 
  6 C        7.0880    -4.9080    -0.5690 C.3   1 <1>  -0.2400 
  7 C        3.5180    -7.5040     0.5050 C.3   1 <1>   0.1100 
  8 C        2.7810    -5.9690    -1.2360 C.3   1 <1>   0.1100 
  9 N        2.4270    -6.6040     0.0610 N.3   1 <1>  -0.8100 
 10 C        1.1380    -7.3240     0.0070 C.3   1 <1>   0.1100 
 11 C       -0.0670    -6.3700    -0.0800 C.3   1 <1>  -0.0800 
 12 C       -0.0620    -5.3340     1.0640 C.3   1 <1>  -0.0220 
 13 C       -1.3830    -7.1690    -0.0710 C.3   1 <1>  -0.1600 
 14 C       -1.3830    -4.5890     1.1490 C.2   1 <1>  -0.2880 
 15 C       -2.6010    -6.2570    -0.2930 C.3   1 <1>  -0.0220 
 16 C       -2.5010    -4.9910     0.5400 C.2   1 <1>  -0.2880 
 17 H        4.0000    -4.9710     0.7700 H     1 <1>   0.4500 
 18 H        6.3310    -4.7340     1.4180 H     1 <1>   0.0800 
 19 H        5.1930    -6.7970     1.6570 H     1 <1>   0.0800 
 20 H        5.6130    -7.2830     0.0400 H     1 <1>   0.0800 
 21 H        4.8220    -5.7650    -1.9050 H     1 <1>   0.0800 
 22 H        4.0500    -4.2550    -1.5140 H     1 <1>   0.0800 
 23 H        5.3490    -2.7760    -0.6760 H     1 <1>   0.0800 
 24 H        6.4910    -2.4700     0.5950 H     1 <1>   0.0800 
 25 H        4.8380    -2.8100     1.0040 H     1 <1>   0.0800 
 26 H        6.8180    -4.6640    -1.5800 H     1 <1>   0.0800 
 27 H        7.3340    -5.9510    -0.5020 H     1 <1>   0.0800 
 28 H        7.9760    -4.3510    -0.3270 H     1 <1>   0.0800 
 29 H        3.2680    -7.9250     1.4640 H     1 <1>   0.0800 
 30 H        3.6220    -8.3210    -0.1890 H     1 <1>   0.0800 
 31 H        2.7730    -6.7060    -2.0210 H     1 <1>   0.0800 
 32 H        2.0440    -5.2260    -1.4850 H     1 <1>   0.0800 
 33 H        1.0270    -7.9110     0.9040 H     1 <1>   0.0800 
 34 H        1.1290    -8.0010    -0.8310 H     1 <1>   0.0800 
 35 H       -0.0300    -5.8430    -1.0170 H     1 <1>   0.0800 
 36 H        0.7310    -4.6280     0.8980 H     1 <1>   0.0800 
 37 H        0.1180    -5.8230     2.0050 H     1 <1>   0.0800 
 38 H       -1.4900    -7.6600     0.8820 H     1 <1>   0.0800 
 39 H       -1.3690    -7.9270    -0.8350 H     1 <1>   0.0800 
 40 H       -1.3340    -3.6990     1.7540 H     1 <1>   0.1500 
 41 H       -3.4950    -6.7940    -0.0290 H     1 <1>   0.0800 
 42 H       -2.6690    -5.9840    -1.3320 H     1 <1>   0.0800 
 43 H       -3.4270    -4.4440     0.5950 H     1 <1>   0.1500 
@<TRIPOS>BOND
  1   1   2  1   
  2   1   3  1   
  3   1   4  1   
  4   1  17  1   
  5   2   5  1   
  6   2   6  1   
  7   2  18  1   
  8   3   7  1   
  9   3  19  1   
 10   3  20  1   
 11   4   8  1   
 12   4  21  1   
 13   4  22  1   
 14   5  23  1   
 15   5  24  1   
 16   5  25  1   
 17   6  26  1   
 18   6  27  1   
 19   6  28  1   
 20   7   9  1   
 21   7  29  1   
 22   7  30  1   
 23   8   9  1   
 24   8  31  1   
 25   8  32  1   
 26   9  10  1   
 27  10  11  1   
 28  10  33  1   
 29  10  34  1   
 30  11  12  1   
 31  11  13  1   
 32  11  35  1   
 33  12  14  1   
 34  12  36  1   
 35  12  37  1   
 36  13  15  1   
 37  13  38  1   
 38  13  39  1   
 39  14  16  2   
 40  14  40  1   
 41  15  16  1   
 42  15  41  1   
 43  15  42  1   
 44  16  43  1   
@<TRIPOS>SUBSTRUCTURE
  1 ****   9 GROUP 4 **** **** 0

# MOE 2024.06 (io_trps.svl 2023.06)
