@<TRIPOS>MOLECULE
NONAME
38 39 1 0 0 
SMALL
USER_CHARGES


@<TRIPOS>ATOM
  1 O       -0.7630    -0.4010     0.0080 O.2   1 <1>  -0.5700 
  2 C       -0.9170    -1.3240     0.7830 C.2   1 <1>   0.6900 
  3 N        0.0110    -2.3080     0.9440 N.am  1 <1>  -0.5470 
  4 N       -2.0530    -1.4170     1.5160 N.am  1 <1>  -0.7300 
  5 C        1.3060    -2.4560     0.4220 C.ar  1 <1>   0.1170 
  6 C       -3.1620    -0.4210     1.4780 C.3   1 <1>   0.1400 
  7 C        1.8510    -3.7330     0.2720 C.ar  1 <1>  -0.1430 
  8 C        2.0800    -1.3560     0.0670 C.ar  1 <1>  -0.1500 
  9 C       -3.8720    -0.3840     0.1150 C.3   1 <1>   0.2000 
 10 C        3.1380    -3.8820    -0.2220 C.ar  1 <1>  -0.1500 
 11 C        1.0570    -4.9820     0.6350 C.3   1 <1>  -0.0970 
 12 C        3.3610    -1.5140    -0.4270 C.ar  1 <1>  -0.1500 
 13 O       -5.0450     0.3530     0.2300 O.3   1 <1>  -0.5600 
 14 C       -4.3430    -1.7360    -0.4090 C.3   1 <1>  -0.1600 
 15 C        3.9000    -2.7800    -0.5730 C.ar  1 <1>  -0.1430 
 16 C       -5.8920     0.0540    -0.8310 C.3   1 <1>   0.1200 
 17 C       -5.5660    -1.3800    -1.2410 C.3   1 <1>  -0.1600 
 18 C        5.3050    -2.9590    -1.1160 C.3   1 <1>  -0.0970 
 19 H       -0.3400    -3.1270     1.4220 H     1 <1>   0.3700 
 20 H       -2.0760    -2.0620     2.3020 H     1 <1>   0.3700 
 21 H       -2.7640     0.5570     1.6870 H     1 <1>   0.0800 
 22 H       -3.8810    -0.6720     2.2380 H     1 <1>   0.0800 
 23 H        1.6830    -0.3640     0.1780 H     1 <1>   0.1500 
 24 H       -3.2510     0.1080    -0.6150 H     1 <1>   0.0800 
 25 H        3.5580    -4.8650    -0.3400 H     1 <1>   0.1500 
 26 H        0.1250    -4.9940     0.0990 H     1 <1>   0.0800 
 27 H        0.8610    -5.0000     1.6920 H     1 <1>   0.0800 
 28 H        1.6010    -5.8730     0.3780 H     1 <1>   0.0800 
 29 H        3.9350    -0.6440    -0.6970 H     1 <1>   0.1500 
 30 H       -4.6240    -2.3690     0.4140 H     1 <1>   0.0800 
 31 H       -3.5740    -2.2200    -0.9850 H     1 <1>   0.0800 
 32 H       -5.6830     0.7460    -1.6300 H     1 <1>   0.0800 
 33 H       -6.9110     0.1660    -0.5010 H     1 <1>   0.0800 
 34 H       -6.3900    -2.0380    -1.0300 H     1 <1>   0.0800 
 35 H       -5.3470    -1.4160    -2.2940 H     1 <1>   0.0800 
 36 H        5.2660    -3.1140    -2.1790 H     1 <1>   0.0800 
 37 H        5.7790    -3.8080    -0.6570 H     1 <1>   0.0800 
 38 H        5.9020    -2.0880    -0.9140 H     1 <1>   0.0800 
@<TRIPOS>BOND
  1   1   2  2   
  2   2   3  am  
  3   2   4  am  
  4   3   5  1   
  5   3  19  1   
  6   4   6  1   
  7   4  20  1   
  8   5   7  ar  
  9   5   8  ar  
 10   6   9  1   
 11   6  21  1   
 12   6  22  1   
 13   7  10  ar  
 14   7  11  1   
 15   8  12  ar  
 16   8  23  1   
 17   9  13  1   
 18   9  14  1   
 19   9  24  1   
 20  10  15  ar  
 21  10  25  1   
 22  11  26  1   
 23  11  27  1   
 24  11  28  1   
 25  12  15  ar  
 26  12  29  1   
 27  13  16  1   
 28  14  17  1   
 29  14  30  1   
 30  14  31  1   
 31  15  18  1   
 32  16  17  1   
 33  16  32  1   
 34  16  33  1   
 35  17  34  1   
 36  17  35  1   
 37  18  36  1   
 38  18  37  1   
 39  18  38  1   
@<TRIPOS>SUBSTRUCTURE
  1 ****   2 GROUP 4 **** **** 0

# MOE 2024.06 (io_trps.svl 2023.06)
