@<TRIPOS>MOLECULE
NONAME
40 41 1 0 0 
SMALL
USER_CHARGES


@<TRIPOS>ATOM
  1 F       -1.7990     1.6900    -1.7660 F     1 <1>  -0.1900 
  2 C       -1.1290     2.5440    -1.0380 C.ar  1 <1>   0.1900 
  3 C       -1.4400     2.6630     0.3080 C.ar  1 <1>  -0.1440 
  4 C       -0.1470     3.3010    -1.6460 C.ar  1 <1>  -0.1500 
  5 C       -0.7260     3.5830     1.0640 C.ar  1 <1>  -0.1500 
  6 C       -2.5280     1.8080     0.9250 C.3   1 <1>   0.4870 
  7 C        0.5530     4.2150    -0.8790 C.ar  1 <1>  -0.1500 
  8 C        0.2630     4.3530     0.4700 C.ar  1 <1>  -0.1500 
  9 N       -3.8400     2.1630     0.3160 N.4   1 <1>  -0.9590 
 10 C       -4.2140     3.5840     0.5780 C.3   1 <1>   0.3430 
 11 C       -4.9040     1.2040     0.7160 C.3   1 <1>   0.3430 
 12 C       -5.4830     3.9310    -0.1980 C.3   1 <1>  -0.1600 
 13 C       -6.1820     1.5090    -0.0630 C.3   1 <1>  -0.1600 
 14 C       -6.6400     2.9700     0.1280 C.3   1 <1>  -0.0190 
 15 C       -7.8720     3.3070    -0.7090 C.2   1 <1>   0.6590 
 16 O       -8.1010     2.7540    -1.7530 O.2   1 <1>  -0.5700 
 17 O       -8.6540     4.2560    -0.2170 O.3   1 <1>  -0.4300 
 18 C       -9.8180     4.6720    -0.8940 C.3   1 <1>   0.1200 
 19 C      -10.4770     5.7730    -0.0690 C.3   1 <1>  -0.2400 
 20 H        0.0660     3.1790    -2.6940 H     1 <1>   0.1500 
 21 H       -0.9220     3.7110     2.1160 H     1 <1>   0.1500 
 22 H       -2.5570     1.9620     1.9910 H     1 <1>   0.0800 
 23 H       -2.3040     0.7700     0.7350 H     1 <1>   0.0800 
 24 H        1.3250     4.8180    -1.3280 H     1 <1>   0.1500 
 25 H        0.8170     5.0660     1.0600 H     1 <1>   0.1500 
 26 H       -3.7010     2.0710    -0.7030 H     1 <1>   0.4500 
 27 H       -3.4160     4.2420     0.2690 H     1 <1>   0.0800 
 28 H       -4.3830     3.7290     1.6330 H     1 <1>   0.0800 
 29 H       -5.0960     1.2870     1.7740 H     1 <1>   0.0800 
 30 H       -4.5920     0.1930     0.5050 H     1 <1>   0.0800 
 31 H       -5.2710     3.9060    -1.2540 H     1 <1>   0.0800 
 32 H       -5.7760     4.9380     0.0450 H     1 <1>   0.0800 
 33 H       -6.9630     0.8460     0.2670 H     1 <1>   0.0800 
 34 H       -6.0130     1.3060    -1.1070 H     1 <1>   0.0800 
 35 H       -6.9160     3.1030     1.1600 H     1 <1>   0.0800 
 36 H      -10.4740     3.8230    -1.0000 H     1 <1>   0.0800 
 37 H       -9.5370     5.0340    -1.8690 H     1 <1>   0.0800 
 38 H      -10.7440     5.4000     0.9030 H     1 <1>   0.0800 
 39 H      -11.3710     6.1080    -0.5640 H     1 <1>   0.0800 
 40 H       -9.8100     6.6100     0.0350 H     1 <1>   0.0800 
@<TRIPOS>BOND
  1   1   2  1   
  2   2   3  ar  
  3   2   4  ar  
  4   3   5  ar  
  5   3   6  1   
  6   4   7  ar  
  7   4  20  1   
  8   5   8  ar  
  9   5  21  1   
 10   6   9  1   
 11   6  22  1   
 12   6  23  1   
 13   7   8  ar  
 14   7  24  1   
 15   8  25  1   
 16   9  10  1   
 17   9  11  1   
 18   9  26  1   
 19  10  12  1   
 20  10  27  1   
 21  10  28  1   
 22  11  13  1   
 23  11  29  1   
 24  11  30  1   
 25  12  14  1   
 26  12  31  1   
 27  12  32  1   
 28  13  14  1   
 29  13  33  1   
 30  13  34  1   
 31  14  15  1   
 32  14  35  1   
 33  15  16  2   
 34  15  17  1   
 35  17  18  1   
 36  18  19  1   
 37  18  36  1   
 38  18  37  1   
 39  19  38  1   
 40  19  39  1   
 41  19  40  1   
@<TRIPOS>SUBSTRUCTURE
  1 ****  10 GROUP 4 **** **** 0

# MOE 2024.06 (io_trps.svl 2023.06)
