@<TRIPOS>MOLECULE
NONAME
53 55 1 0 0 
SMALL
USER_CHARGES


@<TRIPOS>ATOM
  1 BR       1.9400     3.2240    -4.6710 Br    1 <1>  -0.1110 
  2 C        1.9860     3.3350    -2.7500 C.ar  1 <1>   0.1110 
  3 C        2.9970     2.6850    -2.0710 C.ar  1 <1>  -0.1500 
  4 C        1.0090     4.0640    -2.1010 C.ar  1 <1>  -0.1500 
  5 C        3.0380     2.7640    -0.6870 C.ar  1 <1>  -0.1440 
  6 C        1.0520     4.1450    -0.7200 C.ar  1 <1>  -0.1500 
  7 C        2.0650     3.5000    -0.0070 C.ar  1 <1>   0.0830 
  8 C        4.1550     2.0420     0.0560 C.3   1 <1>   0.2540 
  9 O        2.1550     3.5640     1.3490 O.3   1 <1>  -0.3630 
 10 N        5.4330     2.7650    -0.1040 N.3   1 <1>  -0.8100 
 11 C        1.0950     4.0700     2.1330 C.3   1 <1>   0.0400 
 12 C        5.3560     4.1290     0.4860 C.3   1 <1>   0.1100 
 13 C        6.5590     2.0110     0.4920 C.3   1 <1>   0.1100 
 14 C        6.7070     4.8800     0.4300 C.3   1 <1>   0.3430 
 15 C        7.9140     2.7350     0.2930 C.3   1 <1>   0.3430 
 16 N        7.7200     4.0820    -0.3390 N.4   1 <1>  -0.9590 
 17 C        8.9790     4.7840    -0.7010 C.3   1 <1>   0.4230 
 18 C        9.7340     5.2450     0.5580 C.3   1 <1>  -0.1600 
 19 C        8.6490     5.9090    -1.6930 C.3   1 <1>  -0.1600 
 20 C       11.0690     5.9550     0.2790 C.3   1 <1>  -0.1600 
 21 C        9.8880     6.3520    -2.4860 C.3   1 <1>  -0.1600 
 22 C       10.8780     7.3700    -0.2840 C.3   1 <1>  -0.1600 
 23 C       10.7270     7.4470    -1.8110 C.3   1 <1>  -0.1600 
 24 H        3.7380     2.1300    -2.6170 H     1 <1>   0.1500 
 25 H        0.2360     4.5550    -2.6650 H     1 <1>   0.1500 
 26 H        0.2930     4.7170    -0.2210 H     1 <1>   0.1500 
 27 H        4.2520     1.0530    -0.3570 H     1 <1>   0.0800 
 28 H        3.9160     1.9350     1.1010 H     1 <1>   0.0800 
 29 H        1.3440     3.9240     3.1680 H     1 <1>   0.0800 
 30 H        0.1960     3.5280     1.8960 H     1 <1>   0.0800 
 31 H        0.9770     5.1190     1.9300 H     1 <1>   0.0800 
 32 H        5.0230     4.0720     1.5100 H     1 <1>   0.0800 
 33 H        4.6270     4.7120    -0.0520 H     1 <1>   0.0800 
 34 H        6.6170     1.0350     0.0400 H     1 <1>   0.0800 
 35 H        6.3860     1.8690     1.5460 H     1 <1>   0.0800 
 36 H        7.0590     5.0540     1.4330 H     1 <1>   0.0800 
 37 H        6.5520     5.8380    -0.0370 H     1 <1>   0.0800 
 38 H        8.5430     2.1270    -0.3360 H     1 <1>   0.0800 
 39 H        8.4030     2.8370     1.2470 H     1 <1>   0.0800 
 40 H        7.2100     3.8540    -1.2070 H     1 <1>   0.4500 
 41 H        9.6110     4.0810    -1.2210 H     1 <1>   0.0800 
 42 H        9.9580     4.3830     1.1600 H     1 <1>   0.0800 
 43 H        9.1180     5.9030     1.1440 H     1 <1>   0.0800 
 44 H        8.2080     6.7550    -1.1960 H     1 <1>   0.0800 
 45 H        7.9380     5.5350    -2.4080 H     1 <1>   0.0800 
 46 H       11.6960     5.3690    -0.3720 H     1 <1>   0.0800 
 47 H       11.5910     6.0470     1.2170 H     1 <1>   0.0800 
 48 H        9.5690     6.7330    -3.4420 H     1 <1>   0.0800 
 49 H       10.5130     5.4990    -2.6910 H     1 <1>   0.0800 
 50 H       11.7380     7.9620    -0.0150 H     1 <1>   0.0800 
 51 H       10.0310     7.8390     0.1870 H     1 <1>   0.0800 
 52 H       10.3010     8.4070    -2.0500 H     1 <1>   0.0800 
 53 H       11.7090     7.4310    -2.2550 H     1 <1>   0.0800 
@<TRIPOS>BOND
  1   1   2  1   
  2   2   3  ar  
  3   2   4  ar  
  4   3   5  ar  
  5   3  24  1   
  6   4   6  ar  
  7   4  25  1   
  8   5   7  ar  
  9   5   8  1   
 10   6   7  ar  
 11   6  26  1   
 12   7   9  1   
 13   8  10  1   
 14   8  27  1   
 15   8  28  1   
 16   9  11  1   
 17  10  12  1   
 18  10  13  1   
 19  11  29  1   
 20  11  30  1   
 21  11  31  1   
 22  12  14  1   
 23  12  32  1   
 24  12  33  1   
 25  13  15  1   
 26  13  34  1   
 27  13  35  1   
 28  14  16  1   
 29  14  36  1   
 30  14  37  1   
 31  15  16  1   
 32  15  38  1   
 33  15  39  1   
 34  16  17  1   
 35  16  40  1   
 36  17  18  1   
 37  17  19  1   
 38  17  41  1   
 39  18  20  1   
 40  18  42  1   
 41  18  43  1   
 42  19  21  1   
 43  19  44  1   
 44  19  45  1   
 45  20  22  1   
 46  20  46  1   
 47  20  47  1   
 48  21  23  1   
 49  21  48  1   
 50  21  49  1   
 51  22  23  1   
 52  22  50  1   
 53  22  51  1   
 54  23  52  1   
 55  23  53  1   
@<TRIPOS>SUBSTRUCTURE
  1 ****  12 GROUP 4 **** **** 0

# MOE 2024.06 (io_trps.svl 2023.06)
