@<TRIPOS>MOLECULE
NONAME
49 51 1 0 0 
SMALL
USER_CHARGES


@<TRIPOS>ATOM
  1 BR      -0.1720     1.0250     0.8670 Br    1 <1>  -0.1110 
  2 C        1.6860     1.5300     0.7490 C.ar  1 <1>   0.1110 
  3 C        2.0420     2.8550     0.9490 C.ar  1 <1>  -0.1440 
  4 C        2.6070     0.5430     0.4550 C.ar  1 <1>  -0.1500 
  5 C        3.3870     3.1880     0.8540 C.ar  1 <1>  -0.1500 
  6 C        1.0030     3.9050     1.2690 C.3   1 <1>   0.4870 
  7 C        3.9440     0.8870     0.3490 C.ar  1 <1>   0.0820 
  8 C        4.3350     2.2160     0.5700 C.ar  1 <1>   0.0820 
  9 N        0.3370     4.2730     0.0020 N.4   1 <1>  -0.9060 
 10 O        4.8150    -0.1050     0.0420 O.3   1 <1>  -0.3620 
 11 O        5.6270     2.6150     0.5170 O.3   1 <1>  -0.3620 
 12 C       -0.7110     5.3000     0.1310 C.3   1 <1>   0.4230 
 13 C        5.6300     0.0380    -1.1090 C.3   1 <1>   0.2630 
 14 C        6.4720     2.1520     1.5510 C.3   1 <1>   0.0400 
 15 C       -1.9660     4.6760     0.7360 C.3   1 <1>  -0.1600 
 16 C       -1.1680     5.6780    -1.2720 C.3   1 <1>  -0.1600 
 17 C        7.0730    -0.2880    -0.7510 C.ar  1 <1>  -0.1440 
 18 C       -2.6670     3.9410    -0.4140 C.3   1 <1>  -0.1600 
 19 C       -2.1420     4.5760    -1.7080 C.3   1 <1>  -0.1600 
 20 C        7.3920    -1.4900    -0.1380 C.ar  1 <1>  -0.1500 
 21 C        8.0850     0.6170    -1.0350 C.ar  1 <1>  -0.1500 
 22 C        8.7050    -1.7850     0.1860 C.ar  1 <1>  -0.1500 
 23 C        9.3980     0.3240    -0.7120 C.ar  1 <1>  -0.1500 
 24 C        9.7090    -0.8780    -0.1010 C.ar  1 <1>  -0.1500 
 25 H        2.2990    -0.4760     0.3080 H     1 <1>   0.1500 
 26 H        3.7300     4.1970     1.0070 H     1 <1>   0.1500 
 27 H        1.4770     4.7690     1.7080 H     1 <1>   0.0800 
 28 H        0.2880     3.5100     1.9720 H     1 <1>   0.0800 
 29 H       -0.0990     3.4340    -0.3960 H     1 <1>   0.4500 
 30 H        1.0470     4.5800    -0.6700 H     1 <1>   0.4500 
 31 H       -0.3590     6.1550     0.6870 H     1 <1>   0.0800 
 32 H        5.5440     1.0380    -1.4930 H     1 <1>   0.0800 
 33 H        5.2690    -0.6520    -1.8510 H     1 <1>   0.0800 
 34 H        6.1170     2.5360     2.4910 H     1 <1>   0.0800 
 35 H        7.4680     2.5080     1.3590 H     1 <1>   0.0800 
 36 H        6.4710     1.0760     1.5670 H     1 <1>   0.0800 
 37 H       -2.6090     5.4750     1.0670 H     1 <1>   0.0800 
 38 H       -1.7780     4.0350     1.5790 H     1 <1>   0.0800 
 39 H       -0.3560     5.8140    -1.9650 H     1 <1>   0.0800 
 40 H       -1.7110     6.6070    -1.2100 H     1 <1>   0.0800 
 41 H       -3.7380     4.0480    -0.3370 H     1 <1>   0.0800 
 42 H       -2.4320     2.8900    -0.3960 H     1 <1>   0.0800 
 43 H       -1.6340     3.8350    -2.3020 H     1 <1>   0.0800 
 44 H       -2.9470     4.9870    -2.2950 H     1 <1>   0.0800 
 45 H        6.6150    -2.1990     0.0910 H     1 <1>   0.1500 
 46 H        7.8540     1.5570    -1.5070 H     1 <1>   0.1500 
 47 H        8.9440    -2.7200     0.6610 H     1 <1>   0.1500 
 48 H       10.1770     1.0320    -0.9360 H     1 <1>   0.1500 
 49 H       10.7300    -1.1060     0.1500 H     1 <1>   0.1500 
@<TRIPOS>BOND
  1   1   2  1   
  2   2   3  ar  
  3   2   4  ar  
  4   3   5  ar  
  5   3   6  1   
  6   4   7  ar  
  7   4  25  1   
  8   5   8  ar  
  9   5  26  1   
 10   6   9  1   
 11   6  27  1   
 12   6  28  1   
 13   7   8  ar  
 14   7  10  1   
 15   8  11  1   
 16   9  12  1   
 17   9  29  1   
 18   9  30  1   
 19  10  13  1   
 20  11  14  1   
 21  12  15  1   
 22  12  16  1   
 23  12  31  1   
 24  13  17  1   
 25  13  32  1   
 26  13  33  1   
 27  14  34  1   
 28  14  35  1   
 29  14  36  1   
 30  15  18  1   
 31  15  37  1   
 32  15  38  1   
 33  16  19  1   
 34  16  39  1   
 35  16  40  1   
 36  17  20  ar  
 37  17  21  ar  
 38  18  19  1   
 39  18  41  1   
 40  18  42  1   
 41  19  43  1   
 42  19  44  1   
 43  20  22  ar  
 44  20  45  1   
 45  21  23  ar  
 46  21  46  1   
 47  22  24  ar  
 48  22  47  1   
 49  23  24  ar  
 50  23  48  1   
 51  24  49  1   
@<TRIPOS>SUBSTRUCTURE
  1 ****   8 GROUP 4 **** **** 0

# MOE 2024.06 (io_trps.svl 2023.06)
