@<TRIPOS>MOLECULE
NONAME
46 47 1 0 0 
SMALL
USER_CHARGES


@<TRIPOS>ATOM
  1 S        0.0620    -0.1210    -0.1380 S.3   1 <1>  -0.3320 
  2 C       -1.4020     0.8930     0.1380 C.ar  1 <1>   0.1020 
  3 C        1.5200     1.0030    -0.0100 C.3   1 <1>   0.0700 
  4 C       -1.3220     2.2530     0.3990 C.ar  1 <1>  -0.1500 
  5 C       -2.6270     0.2530     0.0810 C.ar  1 <1>  -0.1500 
  6 C        2.7760     0.1610    -0.2400 C.3   1 <1>  -0.1600 
  7 C       -2.4880     2.9730     0.6020 C.ar  1 <1>  -0.1500 
  8 C       -3.7890     0.9780     0.2840 C.ar  1 <1>  -0.1500 
  9 C        4.0470     1.0170    -0.1680 C.3   1 <1>  -0.1600 
 10 C       -3.7180     2.3370     0.5450 C.ar  1 <1>  -0.1500 
 11 C        5.2960     0.1570    -0.3820 C.3   1 <1>   0.1100 
 12 N        6.5170     0.9520    -0.1710 N.3   1 <1>  -0.8100 
 13 C        7.6810     0.0710     0.0870 C.3   1 <1>   0.1100 
 14 C        6.8090     1.8620    -1.3090 C.3   1 <1>   0.1100 
 15 C        8.9820     0.8710     0.3490 C.3   1 <1>   0.3430 
 16 C        8.1290     2.6500    -1.1190 C.3   1 <1>   0.3430 
 17 N        8.7520     2.3470     0.2130 N.4   1 <1>  -0.9590 
 18 C        9.9510     3.1530     0.5440 C.3   1 <1>   0.3430 
 19 C        9.5500     4.6060     0.7670 C.3   1 <1>  -0.2400 
 20 H        1.5070     1.4360     0.9750 H     1 <1>   0.0800 
 21 H        1.4060     1.7630    -0.7630 H     1 <1>   0.0800 
 22 H       -0.3790     2.7590     0.4460 H     1 <1>   0.1500 
 23 H       -2.6670    -0.8020    -0.1220 H     1 <1>   0.1500 
 24 H        2.7090    -0.3080    -1.2070 H     1 <1>   0.0800 
 25 H        2.8160    -0.6130     0.5080 H     1 <1>   0.0800 
 26 H       -2.4400     4.0290     0.8050 H     1 <1>   0.1500 
 27 H       -4.7440     0.4860     0.2410 H     1 <1>   0.1500 
 28 H        4.1050     1.4840     0.8000 H     1 <1>   0.0800 
 29 H        3.9910     1.7830    -0.9200 H     1 <1>   0.0800 
 30 H       -4.6210     2.9000     0.7030 H     1 <1>   0.1500 
 31 H        5.2910    -0.2760    -1.3690 H     1 <1>   0.0800 
 32 H        5.2700    -0.6490     0.3340 H     1 <1>   0.0800 
 33 H        7.8340    -0.5870    -0.7520 H     1 <1>   0.0800 
 34 H        7.4800    -0.5450     0.9470 H     1 <1>   0.0800 
 35 H        6.0080     2.5720    -1.4180 H     1 <1>   0.0800 
 36 H        6.8650     1.2990    -2.2260 H     1 <1>   0.0800 
 37 H        9.7400     0.5490    -0.3450 H     1 <1>   0.0800 
 38 H        9.3320     0.6470     1.3430 H     1 <1>   0.0800 
 39 H        7.9160     3.7020    -1.1980 H     1 <1>   0.0800 
 40 H        8.8120     2.3930    -1.9110 H     1 <1>   0.0800 
 41 H        7.9950     2.5380     0.8890 H     1 <1>   0.4500 
 42 H       10.6780     3.0850    -0.2500 H     1 <1>   0.0800 
 43 H       10.4010     2.7740     1.4480 H     1 <1>   0.0800 
 44 H        9.1900     5.0590    -0.1390 H     1 <1>   0.0800 
 45 H       10.4120     5.1630     1.0890 H     1 <1>   0.0800 
 46 H        8.8010     4.6820     1.5350 H     1 <1>   0.0800 
@<TRIPOS>BOND
  1   1   2  1   
  2   1   3  1   
  3   2   4  ar  
  4   2   5  ar  
  5   3   6  1   
  6   3  20  1   
  7   3  21  1   
  8   4   7  ar  
  9   4  22  1   
 10   5   8  ar  
 11   5  23  1   
 12   6   9  1   
 13   6  24  1   
 14   6  25  1   
 15   7  10  ar  
 16   7  26  1   
 17   8  10  ar  
 18   8  27  1   
 19   9  11  1   
 20   9  28  1   
 21   9  29  1   
 22  10  30  1   
 23  11  12  1   
 24  11  31  1   
 25  11  32  1   
 26  12  13  1   
 27  12  14  1   
 28  13  15  1   
 29  13  33  1   
 30  13  34  1   
 31  14  16  1   
 32  14  35  1   
 33  14  36  1   
 34  15  17  1   
 35  15  37  1   
 36  15  38  1   
 37  16  17  1   
 38  16  39  1   
 39  16  40  1   
 40  17  18  1   
 41  17  41  1   
 42  18  19  1   
 43  18  42  1   
 44  18  43  1   
 45  19  44  1   
 46  19  45  1   
 47  19  46  1   
@<TRIPOS>SUBSTRUCTURE
  1 ****   9 GROUP 4 **** **** 0

# MOE 2024.06 (io_trps.svl 2023.06)
