@<TRIPOS>MOLECULE
NONAME
51 53 1 0 0 
SMALL
USER_CHARGES


@<TRIPOS>ATOM
  1 O       -0.0880     0.9580    -1.6690 O.2   1 <1>  -0.5700 
  2 C        0.0640     1.9860    -1.0420 C.2   1 <1>   0.5440 
  3 N       -1.0100     2.8260    -0.9940 N.am  1 <1>  -0.5470 
  4 C        1.3220     2.2610    -0.3730 C.ar  1 <1>   0.0860 
  5 C       -1.2240     4.1250    -0.5050 C.ar  1 <1>   0.1170 
  6 C        2.5350     2.0620    -1.0320 C.ar  1 <1>  -0.1500 
  7 C        1.3730     2.7190     0.9440 C.ar  1 <1>  -0.1500 
  8 C       -2.5200     4.4540    -0.0800 C.ar  1 <1>   0.1000 
  9 C       -0.2220     5.0850    -0.4530 C.ar  1 <1>  -0.1500 
 10 C        3.7490     2.3240    -0.4190 C.ar  1 <1>  -0.1440 
 11 C        2.5780     2.9830     1.5670 C.ar  1 <1>  -0.1500 
 12 N       -3.5520     3.5050    -0.1670 N.pl3 1 <1>  -0.8380 
 13 C       -2.7630     5.7250     0.4260 C.ar  1 <1>  -0.1500 
 14 C       -0.4810     6.3500     0.0480 C.ar  1 <1>  -0.1500 
 15 C        3.7650     2.7870     0.8860 C.ar  1 <1>  -0.1500 
 16 C        5.0550     2.1020    -1.1600 C.3   1 <1>  -0.0970 
 17 C       -3.8820     2.7920     1.1050 C.3   1 <1>   0.2090 
 18 C       -4.7710     3.8940    -0.9380 C.3   1 <1>   0.2090 
 19 C       -1.7520     6.6680     0.4920 C.ar  1 <1>  -0.1500 
 20 C       -4.7730     1.5680     0.8390 C.3   1 <1>   0.1400 
 21 C       -5.6650     2.6710    -1.2150 C.3   1 <1>   0.1400 
 22 N       -5.9950     1.9450     0.0550 N.am  1 <1>  -0.6600 
 23 C       -7.2550     1.6880     0.5330 C.2   1 <1>   0.5690 
 24 O       -7.4230     1.1830     1.6190 O.2   1 <1>  -0.5700 
 25 C       -8.4800     2.0470    -0.3050 C.3   1 <1>  -0.0990 
 26 C       -9.8270     1.5830     0.2790 C.3   1 <1>  -0.2400 
 27 H       -1.8880     2.3780    -1.2620 H     1 <1>   0.3700 
 28 H        2.5100     1.6930    -2.0420 H     1 <1>   0.1500 
 29 H        0.4530     2.8700     1.4810 H     1 <1>   0.1500 
 30 H        0.7650     4.8550    -0.8080 H     1 <1>   0.1500 
 31 H        2.5940     3.3400     2.5820 H     1 <1>   0.1500 
 32 H       -3.7470     5.9770     0.7730 H     1 <1>   0.1500 
 33 H        0.3050     7.0840     0.0890 H     1 <1>   0.1500 
 34 H        4.7010     2.9940     1.3750 H     1 <1>   0.1500 
 35 H        4.8800     1.9680    -2.2120 H     1 <1>   0.0800 
 36 H        5.5450     1.2240    -0.7780 H     1 <1>   0.0800 
 37 H        5.7040     2.9490    -1.0280 H     1 <1>   0.0800 
 38 H       -4.3920     3.4630     1.7750 H     1 <1>   0.0800 
 39 H       -2.9710     2.4720     1.5810 H     1 <1>   0.0800 
 40 H       -4.4720     4.3380    -1.8720 H     1 <1>   0.0800 
 41 H       -5.3350     4.6230    -0.3830 H     1 <1>   0.0800 
 42 H       -1.9550     7.6490     0.8870 H     1 <1>   0.1500 
 43 H       -5.0450     1.1210     1.7790 H     1 <1>   0.0800 
 44 H       -4.2100     0.8390     0.2820 H     1 <1>   0.0800 
 45 H       -5.1410     2.0000    -1.8730 H     1 <1>   0.0800 
 46 H       -6.5540     2.9980    -1.7190 H     1 <1>   0.0800 
 47 H       -8.3640     1.6030    -1.2770 H     1 <1>   0.0800 
 48 H       -8.5070     3.1140    -0.4200 H     1 <1>   0.0800 
 49 H       -9.8310     0.5130     0.3970 H     1 <1>   0.0800 
 50 H      -10.6350     1.8640    -0.3710 H     1 <1>   0.0800 
 51 H       -9.9870     2.0320     1.2440 H     1 <1>   0.0800 
@<TRIPOS>BOND
  1   1   2  2   
  2   2   3  am  
  3   2   4  1   
  4   3   5  1   
  5   3  27  1   
  6   4   6  ar  
  7   4   7  ar  
  8   5   8  ar  
  9   5   9  ar  
 10   6  10  ar  
 11   6  28  1   
 12   7  11  ar  
 13   7  29  1   
 14   8  12  1   
 15   8  13  ar  
 16   9  14  ar  
 17   9  30  1   
 18  10  15  ar  
 19  10  16  1   
 20  11  15  ar  
 21  11  31  1   
 22  12  17  1   
 23  12  18  1   
 24  13  19  ar  
 25  13  32  1   
 26  14  19  ar  
 27  14  33  1   
 28  15  34  1   
 29  16  35  1   
 30  16  36  1   
 31  16  37  1   
 32  17  20  1   
 33  17  38  1   
 34  17  39  1   
 35  18  21  1   
 36  18  40  1   
 37  18  41  1   
 38  19  42  1   
 39  20  22  1   
 40  20  43  1   
 41  20  44  1   
 42  21  22  1   
 43  21  45  1   
 44  21  46  1   
 45  22  23  am  
 46  23  24  2   
 47  23  25  1   
 48  25  26  1   
 49  25  47  1   
 50  25  48  1   
 51  26  49  1   
 52  26  50  1   
 53  26  51  1   
@<TRIPOS>SUBSTRUCTURE
  1 ****   3 GROUP 4 **** **** 0

# MOE 2024.06 (io_trps.svl 2023.06)
