@<TRIPOS>MOLECULE
NONAME
50 52 1 0 0 
SMALL
USER_CHARGES


@<TRIPOS>ATOM
  1 O       -1.5870    -7.1450    -0.9650 O.2   1 <1>  -0.5700 
  2 C       -1.5720    -5.9850    -0.6080 C.2   1 <1>   0.6340 
  3 O       -0.3860    -5.3660    -0.5180 O.3   1 <1>  -0.4300 
  4 C       -2.7720    -5.2390    -0.2740 C.ar  1 <1>   0.0860 
  5 C        0.8210    -6.0070    -0.8660 C.3   1 <1>   0.2000 
  6 C       -4.0220    -5.8600    -0.3070 C.ar  1 <1>  -0.1500 
  7 C       -2.7310    -3.8900     0.0850 C.ar  1 <1>  -0.1500 
  8 C        1.2610    -6.9270     0.2900 C.3   1 <1>  -0.1600 
  9 C        1.8630    -4.9210    -1.1820 C.3   1 <1>  -0.1600 
 10 C       -5.1900    -5.1770     0.0070 C.ar  1 <1>   0.0830 
 11 C       -3.8850    -3.1830     0.4030 C.ar  1 <1>   0.0830 
 12 C        2.7450    -7.3000     0.1890 C.3   1 <1>   0.4230 
 13 C        3.2940    -5.4760    -1.1480 C.3   1 <1>   0.4230 
 14 O       -6.4190    -5.7710    -0.0240 O.3   1 <1>  -0.3630 
 15 C       -5.1180    -3.8310     0.3660 C.ar  1 <1>   0.0830 
 16 O       -3.8660    -1.8630     0.7470 O.3   1 <1>  -0.3630 
 17 N        3.4960    -6.0260     0.2100 N.4   1 <1>  -0.9590 
 18 C        3.0930    -7.9020    -1.1770 C.3   1 <1>  -0.1600 
 19 C        3.4590    -6.6970    -2.0590 C.3   1 <1>  -0.1600 
 20 C       -6.5670    -7.1620    -0.2030 C.3   1 <1>   0.0400 
 21 O       -6.2440    -3.1540     0.7030 O.3   1 <1>  -0.3630 
 22 C       -2.6650    -1.1820     1.0310 C.3   1 <1>   0.0400 
 23 C        4.9410    -6.2100     0.5560 C.3   1 <1>   0.2630 
 24 C       -6.9740    -2.6070    -0.3680 C.3   1 <1>   0.0400 
 25 H        0.6480    -6.5920    -1.7560 H     1 <1>   0.0800 
 26 H       -4.0580    -6.8950    -0.5900 H     1 <1>   0.1500 
 27 H       -1.7790    -3.3980     0.1060 H     1 <1>   0.1500 
 28 H        0.6740    -7.8280     0.2660 H     1 <1>   0.0800 
 29 H        1.0830    -6.4450     1.2350 H     1 <1>   0.0800 
 30 H        1.7840    -4.1150    -0.4740 H     1 <1>   0.0800 
 31 H        1.6620    -4.5200    -2.1600 H     1 <1>   0.0800 
 32 H        3.0300    -7.9500     1.0010 H     1 <1>   0.0800 
 33 H        4.0080    -4.7010    -1.3790 H     1 <1>   0.0800 
 34 H        3.0580    -5.3960     0.8930 H     1 <1>   0.4500 
 35 H        2.2730    -8.4700    -1.5820 H     1 <1>   0.0800 
 36 H        3.9360    -8.5620    -1.0780 H     1 <1>   0.0800 
 37 H        4.4820    -6.7710    -2.3850 H     1 <1>   0.0800 
 38 H        2.8360    -6.6300    -2.9350 H     1 <1>   0.0800 
 39 H       -7.6120    -7.3990    -0.1160 H     1 <1>   0.0800 
 40 H       -6.0130    -7.6740     0.5640 H     1 <1>   0.0800 
 41 H       -6.2120    -7.4300    -1.1820 H     1 <1>   0.0800 
 42 H       -2.9170    -0.1930     1.3680 H     1 <1>   0.0800 
 43 H       -2.0760    -1.1210     0.1340 H     1 <1>   0.0800 
 44 H       -2.1400    -1.7080     1.8080 H     1 <1>   0.0800 
 45 H        5.4170    -6.8710    -0.1500 H     1 <1>   0.0800 
 46 H        5.0380    -6.6330     1.5430 H     1 <1>   0.0800 
 47 H        5.4530    -5.2620     0.5380 H     1 <1>   0.0800 
 48 H       -7.8270    -2.0930     0.0360 H     1 <1>   0.0800 
 49 H       -7.2940    -3.4050    -1.0140 H     1 <1>   0.0800 
 50 H       -6.3430    -1.9170    -0.9000 H     1 <1>   0.0800 
@<TRIPOS>BOND
  1   1   2  2   
  2   2   3  1   
  3   2   4  1   
  4   3   5  1   
  5   4   6  ar  
  6   4   7  ar  
  7   5   8  1   
  8   5   9  1   
  9   5  25  1   
 10   6  10  ar  
 11   6  26  1   
 12   7  11  ar  
 13   7  27  1   
 14   8  12  1   
 15   8  28  1   
 16   8  29  1   
 17   9  13  1   
 18   9  30  1   
 19   9  31  1   
 20  10  14  1   
 21  10  15  ar  
 22  11  15  ar  
 23  11  16  1   
 24  12  17  1   
 25  12  18  1   
 26  12  32  1   
 27  13  17  1   
 28  13  19  1   
 29  13  33  1   
 30  14  20  1   
 31  15  21  1   
 32  16  22  1   
 33  17  23  1   
 34  17  34  1   
 35  18  19  1   
 36  18  35  1   
 37  18  36  1   
 38  19  37  1   
 39  19  38  1   
 40  20  39  1   
 41  20  40  1   
 42  20  41  1   
 43  21  24  1   
 44  22  42  1   
 45  22  43  1   
 46  22  44  1   
 47  23  45  1   
 48  23  46  1   
 49  23  47  1   
 50  24  48  1   
 51  24  49  1   
 52  24  50  1   
@<TRIPOS>SUBSTRUCTURE
  1 ****   2 GROUP 4 **** **** 0

# MOE 2024.06 (io_trps.svl 2023.06)
