@<TRIPOS>MOLECULE
NONAME
24 24 1 0 0 
SMALL
USER_CHARGES


@<TRIPOS>ATOM
  1 S       -0.1440    -0.0540    -0.3740 S.3   1 <1>  -0.3710 
  2 C        1.3930     0.7910     0.0080 C.2   1 <1>   0.6510 
  3 C       -1.4210     1.2510    -0.1050 C.3   1 <1>   0.0700 
  4 N        1.2940     2.0200     0.3530 N.2   1 <1>  -0.6210 
  5 N        2.5580     0.0560    -0.0970 N.am  1 <1>  -0.4200 
  6 C       -2.7900     0.6400    -0.4000 C.3   1 <1>  -0.2400 
  7 C        2.4460     2.6880     0.6570 C.2   1 <1>   0.0210 
  8 C        3.7380     0.7180     0.2180 C.2   1 <1>   0.6160 
  9 C        2.5960    -1.3680    -0.5250 C.3   1 <1>   0.1400 
 10 O        2.3460     3.8710     0.9850 O.3   1 <1>  -0.8500 
 11 C        3.6660     2.0460     0.5950 C.2   1 <1>  -0.1360 
 12 O        4.8160     0.0980     0.1520 O.2   1 <1>  -0.5700 
 13 C        2.4490    -2.2850     0.6900 C.3   1 <1>  -0.2400 
 14 H       -1.1890     2.0680    -0.7670 H     1 <1>   0.0800 
 15 H       -1.3340     1.5790     0.9170 H     1 <1>   0.0800 
 16 H       -2.8280     0.2980    -1.4180 H     1 <1>   0.0800 
 17 H       -3.5560     1.3790    -0.2510 H     1 <1>   0.0800 
 18 H       -2.9720    -0.1890     0.2600 H     1 <1>   0.0800 
 19 H        3.5320    -1.5710    -1.0180 H     1 <1>   0.0800 
 20 H        1.8180    -1.5650    -1.2400 H     1 <1>   0.0800 
 21 H        4.5530     2.5890     0.8410 H     1 <1>   0.1500 
 22 H        3.2550    -2.1110     1.3810 H     1 <1>   0.0800 
 23 H        2.4830    -3.3120     0.3760 H     1 <1>   0.0800 
 24 H        1.5100    -2.1060     1.1830 H     1 <1>   0.0800 
@<TRIPOS>BOND
  1   1   2  1   
  2   1   3  1   
  3   2   4  2   
  4   2   5  1   
  5   3   6  1   
  6   3  14  1   
  7   3  15  1   
  8   4   7  1   
  9   5   8  am  
 10   5   9  1   
 11   6  16  1   
 12   6  17  1   
 13   6  18  1   
 14   7  10  1   
 15   7  11  2   
 16   8  11  1   
 17   8  12  2   
 18   9  13  1   
 19   9  19  1   
 20   9  20  1   
 21  11  21  1   
 22  13  22  1   
 23  13  23  1   
 24  13  24  1   
@<TRIPOS>SUBSTRUCTURE
  1 ****   2 GROUP 4 **** **** 0

# MOE 2024.06 (io_trps.svl 2023.06)
