@<TRIPOS>MOLECULE
NONAME
41 42 1 0 0 
SMALL
USER_CHARGES


@<TRIPOS>ATOM
  1 CL      -0.3530    -1.0710     3.0850 Cl    1 <1>  -0.1240 
  2 C       -0.8730    -1.6100     1.5120 C.2   1 <1>   0.1640 
  3 S       -2.0810    -2.8750     1.4730 S.3   1 <1>  -0.0800 
  4 C       -0.5100    -1.2240     0.2790 C.2   1 <1>  -0.1500 
  5 C       -2.0850    -2.8670    -0.2950 C.2   1 <1>  -0.0220 
  6 C       -1.2020    -1.9470    -0.7460 C.2   1 <1>  -0.1500 
  7 S       -3.1710    -4.0340    -1.1530 S.o2  1 <1>   1.5000 
  8 O       -3.5030    -3.5040    -2.4570 O.2   1 <1>  -0.6500 
  9 O       -2.6140    -5.3650    -1.0560 O.2   1 <1>  -0.6500 
 10 N       -4.6030    -4.0210    -0.2460 N.am  1 <1>  -0.8490 
 11 C       -5.4360    -5.2000    -0.5420 C.3   1 <1>   0.1960 
 12 C       -5.3920    -2.7920    -0.4430 C.3   1 <1>   0.1960 
 13 C       -6.7450    -5.2070     0.2730 C.3   1 <1>   0.1960 
 14 C       -6.6810    -2.8070     0.3990 C.3   1 <1>   0.1960 
 15 N       -7.5250    -3.9720     0.0710 N.am  1 <1>  -0.8490 
 16 S       -8.9810    -3.9980     0.9380 S.o2  1 <1>   1.3330 
 17 O       -9.4820    -5.3530     0.9170 O.2   1 <1>  -0.6500 
 18 O       -8.7470    -3.3350     2.2020 O.2   1 <1>  -0.6500 
 19 C      -10.0590    -2.9840    -0.0790 C.3   1 <1>  -0.0550 
 20 C      -11.4820    -2.8380     0.4830 C.3   1 <1>  -0.1600 
 21 C      -12.3520    -1.9630    -0.4260 C.3   1 <1>  -0.1600 
 22 C      -13.7680    -1.8240     0.1390 C.3   1 <1>  -0.2400 
 23 H        0.2160    -0.4630     0.0500 H     1 <1>   0.1500 
 24 H       -1.0040    -1.7470    -1.7870 H     1 <1>   0.1500 
 25 H       -4.8870    -6.0970    -0.3080 H     1 <1>   0.0800 
 26 H       -5.6770    -5.2240    -1.5920 H     1 <1>   0.0800 
 27 H       -5.6610    -2.6830    -1.4810 H     1 <1>   0.0800 
 28 H       -4.8020    -1.9370    -0.1590 H     1 <1>   0.0800 
 29 H       -6.5120    -5.3280     1.3180 H     1 <1>   0.0800 
 30 H       -7.3280    -6.0580    -0.0360 H     1 <1>   0.0800 
 31 H       -7.2300    -1.9000     0.2150 H     1 <1>   0.0800 
 32 H       -6.4120    -2.8260     1.4430 H     1 <1>   0.0800 
 33 H      -10.1160    -3.4200    -1.0580 H     1 <1>   0.0800 
 34 H       -9.6280    -2.0080    -0.1800 H     1 <1>   0.0800 
 35 H      -11.4320    -2.4010     1.4670 H     1 <1>   0.0800 
 36 H      -11.9260    -3.8160     0.5780 H     1 <1>   0.0800 
 37 H      -12.4070    -2.4010    -1.4090 H     1 <1>   0.0800 
 38 H      -11.9130    -0.9840    -0.5200 H     1 <1>   0.0800 
 39 H      -14.2380    -2.7890     0.2220 H     1 <1>   0.0800 
 40 H      -14.3650    -1.2080    -0.5100 H     1 <1>   0.0800 
 41 H      -13.7420    -1.3680     1.1140 H     1 <1>   0.0800 
@<TRIPOS>BOND
  1   1   2  1   
  2   2   3  1   
  3   2   4  2   
  4   3   5  1   
  5   4   6  1   
  6   4  23  1   
  7   5   6  2   
  8   5   7  1   
  9   6  24  1   
 10   7   8  2   
 11   7   9  2   
 12   7  10  am  
 13  10  11  1   
 14  10  12  1   
 15  11  13  1   
 16  11  25  1   
 17  11  26  1   
 18  12  14  1   
 19  12  27  1   
 20  12  28  1   
 21  13  15  1   
 22  13  29  1   
 23  13  30  1   
 24  14  15  1   
 25  14  31  1   
 26  14  32  1   
 27  15  16  am  
 28  16  17  2   
 29  16  18  2   
 30  16  19  1   
 31  19  20  1   
 32  19  33  1   
 33  19  34  1   
 34  20  21  1   
 35  20  35  1   
 36  20  36  1   
 37  21  22  1   
 38  21  37  1   
 39  21  38  1   
 40  22  39  1   
 41  22  40  1   
 42  22  41  1   
@<TRIPOS>SUBSTRUCTURE
  1 ****  12 GROUP 4 **** **** 0

# MOE 2024.06 (io_trps.svl 2023.06)
