@<TRIPOS>MOLECULE
NONAME
40 42 1 0 0 
SMALL
USER_CHARGES


@<TRIPOS>ATOM
  1 O       -0.2580    -0.3990     0.5350 O.2   1 <1>  -0.5700 
  2 C       -0.9390    -1.4010     0.4580 C.2   1 <1>   0.7060 
  3 O       -2.2530    -1.3510     0.5340 O.3   1 <1>  -0.3000 
  4 C       -0.5630    -2.7710     0.2860 C.2   1 <1>   0.1850 
  5 C       -2.6650    -2.6090     0.4140 C.2   1 <1>   0.5390 
  6 N       -1.7480    -3.4780     0.2700 N.2   1 <1>  -0.6210 
  7 C        0.6960    -3.2770     0.1720 C.2   1 <1>  -0.1780 
  8 C       -4.1740    -2.8450     0.4660 C.3   1 <1>  -0.0190 
  9 C        1.1810    -4.6200    -0.0070 C.ar  1 <1>   0.0280 
 10 C       -4.5350    -4.3410     0.5840 C.3   1 <1>  -0.1600 
 11 C       -4.8700    -2.2220    -0.7610 C.3   1 <1>  -0.1600 
 12 C        0.3750    -5.7010    -0.3720 C.ar  1 <1>  -0.1500 
 13 C        2.5410    -4.8840     0.1790 C.ar  1 <1>  -0.1500 
 14 C       -6.0540    -4.5560     0.6260 C.3   1 <1>  -0.1600 
 15 C       -6.3890    -2.4410    -0.7230 C.3   1 <1>  -0.1600 
 16 C        0.8950    -6.9710    -0.5320 C.ar  1 <1>  -0.1500 
 17 C        3.0700    -6.1500     0.0190 C.ar  1 <1>  -0.1500 
 18 C       -6.7340    -3.9300    -0.5970 C.3   1 <1>  -0.1600 
 19 C        2.2450    -7.2110    -0.3390 C.ar  1 <1>   0.0830 
 20 O        2.6770    -8.4800    -0.5150 O.3   1 <1>  -0.3630 
 21 C        4.0300    -8.8350    -0.3390 C.3   1 <1>   0.0400 
 22 H        1.4900    -2.5540     0.2310 H     1 <1>   0.1500 
 23 H       -4.5400    -2.3490     1.3480 H     1 <1>   0.0800 
 24 H       -4.1270    -4.8750    -0.2580 H     1 <1>   0.0800 
 25 H       -4.0910    -4.7510     1.4760 H     1 <1>   0.0800 
 26 H       -4.6670    -1.1660    -0.7980 H     1 <1>   0.0800 
 27 H       -4.4710    -2.6660    -1.6580 H     1 <1>   0.0800 
 28 H       -0.6750    -5.5570    -0.5390 H     1 <1>   0.1500 
 29 H        3.1980    -4.0790     0.4580 H     1 <1>   0.1500 
 30 H       -6.2670    -5.6110     0.6550 H     1 <1>   0.0800 
 31 H       -6.4540    -4.1150     1.5230 H     1 <1>   0.0800 
 32 H       -6.8070    -1.9070     0.1140 H     1 <1>   0.0800 
 33 H       -6.8330    -2.0440    -1.6200 H     1 <1>   0.0800 
 34 H        0.2560    -7.7890    -0.8120 H     1 <1>   0.1500 
 35 H        4.1220    -6.2960     0.1770 H     1 <1>   0.1500 
 36 H       -7.8010    -4.0470    -0.5160 H     1 <1>   0.0800 
 37 H       -6.4140    -4.4460    -1.4870 H     1 <1>   0.0800 
 38 H        4.1260    -9.8880    -0.5300 H     1 <1>   0.0800 
 39 H        4.3180    -8.6200     0.6750 H     1 <1>   0.0800 
 40 H        4.6300    -8.2790    -1.0370 H     1 <1>   0.0800 
@<TRIPOS>BOND
  1   1   2  2   
  2   2   3  1   
  3   2   4  1   
  4   3   5  1   
  5   4   6  1   
  6   4   7  2   
  7   5   6  2   
  8   5   8  1   
  9   7   9  1   
 10   7  22  1   
 11   8  10  1   
 12   8  11  1   
 13   8  23  1   
 14   9  12  ar  
 15   9  13  ar  
 16  10  14  1   
 17  10  24  1   
 18  10  25  1   
 19  11  15  1   
 20  11  26  1   
 21  11  27  1   
 22  12  16  ar  
 23  12  28  1   
 24  13  17  ar  
 25  13  29  1   
 26  14  18  1   
 27  14  30  1   
 28  14  31  1   
 29  15  18  1   
 30  15  32  1   
 31  15  33  1   
 32  16  19  ar  
 33  16  34  1   
 34  17  19  ar  
 35  17  35  1   
 36  18  36  1   
 37  18  37  1   
 38  19  20  1   
 39  20  21  1   
 40  21  38  1   
 41  21  39  1   
 42  21  40  1   
@<TRIPOS>SUBSTRUCTURE
  1 ****   6 GROUP 4 **** **** 0

# MOE 2024.06 (io_trps.svl 2023.06)
