@<TRIPOS>MOLECULE
NONAME
38 39 1 0 0 
SMALL
USER_CHARGES


@<TRIPOS>ATOM
  1 CL      -1.7730     1.0730    -1.5790 Cl    1 <1>  -0.1770 
  2 C       -0.5060     1.6930    -0.5360 C.ar  1 <1>   0.1770 
  3 C        0.0260     2.9510    -0.7910 C.ar  1 <1>  -0.1440 
  4 C       -0.0610     0.9140     0.5230 C.ar  1 <1>  -0.1440 
  5 C        1.0270     3.4330     0.0380 C.ar  1 <1>  -0.1500 
  6 C       -0.4760     3.7940    -1.9550 C.3   1 <1>  -0.0960 
  7 C        0.9410     1.4150     1.3390 C.ar  1 <1>  -0.1500 
  8 C       -0.6500    -0.4630     0.7960 C.3   1 <1>  -0.0960 
  9 C        1.4900     2.6660     1.1050 C.ar  1 <1>   0.0830 
 10 O        2.4680     3.0620     1.9610 O.3   1 <1>  -0.3630 
 11 C        3.2390     4.2280     1.7660 C.3   1 <1>   0.1200 
 12 C        4.3030     3.9600     0.6940 C.3   1 <1>  -0.1600 
 13 C        5.1820     5.1960     0.4630 C.3   1 <1>  -0.1600 
 14 C        6.2570     4.9200    -0.5960 C.3   1 <1>   0.0960 
 15 N        7.0740     6.1270    -0.8230 N.pl3 1 <1>   0.0480 
 16 C        6.9070     7.0750    -1.7720 C.2   1 <1>   0.0360 
 17 C        8.1490     6.5330    -0.1230 C.2   1 <1>  -0.3020 
 18 N        7.7780     8.0300    -1.7230 N.2   1 <1>  -0.5650 
 19 C        8.5630     7.6890    -0.6840 C.2   1 <1>   0.0770 
 20 H        1.4350     4.4050    -0.1570 H     1 <1>   0.1500 
 21 H       -1.5260     3.9970    -1.8330 H     1 <1>   0.0800 
 22 H       -0.3320     3.2650    -2.8800 H     1 <1>   0.0800 
 23 H        0.0480     4.7300    -2.0120 H     1 <1>   0.0800 
 24 H        1.3100     0.8410     2.1690 H     1 <1>   0.1500 
 25 H       -1.7060    -0.3790     0.9830 H     1 <1>   0.0800 
 26 H       -0.1870    -0.9180     1.6520 H     1 <1>   0.0800 
 27 H       -0.4980    -1.1020    -0.0550 H     1 <1>   0.0800 
 28 H        3.7140     4.4500     2.7060 H     1 <1>   0.0800 
 29 H        2.5900     5.0470     1.5130 H     1 <1>   0.0800 
 30 H        3.8240     3.6850    -0.2300 H     1 <1>   0.0800 
 31 H        4.9160     3.1370     1.0180 H     1 <1>   0.0800 
 32 H        5.6600     5.4730     1.3870 H     1 <1>   0.0800 
 33 H        4.5650     6.0170     0.1370 H     1 <1>   0.0800 
 34 H        5.7990     4.6340    -1.5270 H     1 <1>   0.0800 
 35 H        6.9030     4.1230    -0.2730 H     1 <1>   0.0800 
 36 H        6.1120     7.0240    -2.4960 H     1 <1>   0.1500 
 37 H        8.5520     5.9940     0.7140 H     1 <1>   0.1500 
 38 H        9.3970     8.3050    -0.3910 H     1 <1>   0.1500 
@<TRIPOS>BOND
  1   1   2  1   
  2   2   3  ar  
  3   2   4  ar  
  4   3   5  ar  
  5   3   6  1   
  6   4   7  ar  
  7   4   8  1   
  8   5   9  ar  
  9   5  20  1   
 10   6  21  1   
 11   6  22  1   
 12   6  23  1   
 13   7   9  ar  
 14   7  24  1   
 15   8  25  1   
 16   8  26  1   
 17   8  27  1   
 18   9  10  1   
 19  10  11  1   
 20  11  12  1   
 21  11  28  1   
 22  11  29  1   
 23  12  13  1   
 24  12  30  1   
 25  12  31  1   
 26  13  14  1   
 27  13  32  1   
 28  13  33  1   
 29  14  15  1   
 30  14  34  1   
 31  14  35  1   
 32  15  16  1   
 33  15  17  1   
 34  16  18  2   
 35  16  36  1   
 36  17  19  2   
 37  17  37  1   
 38  18  19  1   
 39  19  38  1   
@<TRIPOS>SUBSTRUCTURE
  1 ****  12 GROUP 4 **** **** 0

# MOE 2024.06 (io_trps.svl 2023.06)
