@<TRIPOS>MOLECULE
NONAME
49 50 1 0 0 
SMALL
USER_CHARGES


@<TRIPOS>ATOM
  1 O        0.6370    -0.3160    -0.8630 O.3   1 <1>  -0.3630 
  2 C        0.3520    -1.5860    -0.4560 C.ar  1 <1>   0.0830 
  3 C        1.8970     0.2870    -0.6650 C.3   1 <1>   0.0400 
  4 C        1.1440    -2.4210     0.3450 C.ar  1 <1>   0.0830 
  5 C       -0.8710    -2.0580    -0.9030 C.ar  1 <1>  -0.1500 
  6 O        2.3440    -2.0570     0.8510 O.3   1 <1>  -0.5330 
  7 C        0.7060    -3.7040     0.6650 C.ar  1 <1>   0.0830 
  8 C       -1.3280    -3.3230    -0.5670 C.ar  1 <1>  -0.1430 
  9 O        1.5330    -4.4720     1.4340 O.3   1 <1>  -0.3630 
 10 C       -0.5310    -4.1510     0.2100 C.ar  1 <1>  -0.1500 
 11 C       -2.6930    -3.7760    -1.0490 C.3   1 <1>   0.4860 
 12 C        1.3800    -5.8730     1.5150 C.3   1 <1>   0.0400 
 13 N       -3.6770    -3.6610     0.0820 N.4   1 <1>  -0.9590 
 14 C       -5.0030    -4.3150    -0.1950 C.3   1 <1>   0.4230 
 15 C       -3.7930    -2.2070     0.4690 C.3   1 <1>   0.2630 
 16 C       -5.9450    -4.1580     1.0110 C.3   1 <1>  -0.1600 
 17 C       -4.8190    -5.8090    -0.5080 C.3   1 <1>  -0.1600 
 18 C       -7.2690    -4.8980     0.8100 C.3   1 <1>   0.3430 
 19 C       -6.1580    -6.5280    -0.6890 C.3   1 <1>   0.3430 
 20 N       -7.0100    -6.3340     0.5160 N.4   1 <1>  -0.9590 
 21 C       -8.3090    -7.0700     0.3540 C.3   1 <1>   0.2630 
 22 H        1.8960     1.2390    -1.1620 H     1 <1>   0.0800 
 23 H        2.6580    -0.3460    -1.0860 H     1 <1>   0.0800 
 24 H        2.0550     0.4260     0.3890 H     1 <1>   0.0800 
 25 H       -1.4550    -1.4000    -1.5230 H     1 <1>   0.1500 
 26 H        2.7080    -2.8000     1.3760 H     1 <1>   0.4500 
 27 H       -0.8680    -5.1380     0.4630 H     1 <1>   0.1500 
 28 H       -2.6090    -4.7950    -1.3840 H     1 <1>   0.0800 
 29 H       -3.0060    -3.1680    -1.8820 H     1 <1>   0.0800 
 30 H        2.2270    -6.2710     2.0450 H     1 <1>   0.0800 
 31 H        1.3500    -6.2820     0.5200 H     1 <1>   0.0800 
 32 H        0.4790    -6.0990     2.0560 H     1 <1>   0.0800 
 33 H       -3.2250    -4.1330     0.8780 H     1 <1>   0.4500 
 34 H       -5.4570    -3.8360    -1.0490 H     1 <1>   0.0800 
 35 H       -4.2330    -1.6340    -0.3320 H     1 <1>   0.0800 
 36 H       -2.8210    -1.7940     0.6880 H     1 <1>   0.0800 
 37 H       -4.3990    -2.0910     1.3530 H     1 <1>   0.0800 
 38 H       -6.1920    -3.1220     1.1590 H     1 <1>   0.0800 
 39 H       -5.4760    -4.5230     1.9080 H     1 <1>   0.0800 
 40 H       -4.2690    -6.2950     0.2790 H     1 <1>   0.0800 
 41 H       -4.2760    -5.9360    -1.4270 H     1 <1>   0.0800 
 42 H       -7.8160    -4.4530    -0.0070 H     1 <1>   0.0800 
 43 H       -7.8710    -4.8090     1.7010 H     1 <1>   0.0800 
 44 H       -5.9840    -7.5820    -0.8480 H     1 <1>   0.0800 
 45 H       -6.6660    -6.1420    -1.5590 H     1 <1>   0.0800 
 46 H       -6.5350    -6.7570     1.3300 H     1 <1>   0.4500 
 47 H       -8.8650    -6.6790    -0.4830 H     1 <1>   0.0800 
 48 H       -8.9120    -6.9680     1.2430 H     1 <1>   0.0800 
 49 H       -8.1290    -8.1200     0.1860 H     1 <1>   0.0800 
@<TRIPOS>BOND
  1   1   2  1   
  2   1   3  1   
  3   2   4  ar  
  4   2   5  ar  
  5   3  22  1   
  6   3  23  1   
  7   3  24  1   
  8   4   6  1   
  9   4   7  ar  
 10   5   8  ar  
 11   5  25  1   
 12   6  26  1   
 13   7   9  1   
 14   7  10  ar  
 15   8  10  ar  
 16   8  11  1   
 17   9  12  1   
 18  10  27  1   
 19  11  13  1   
 20  11  28  1   
 21  11  29  1   
 22  12  30  1   
 23  12  31  1   
 24  12  32  1   
 25  13  14  1   
 26  13  15  1   
 27  13  33  1   
 28  14  16  1   
 29  14  17  1   
 30  14  34  1   
 31  15  35  1   
 32  15  36  1   
 33  15  37  1   
 34  16  18  1   
 35  16  38  1   
 36  16  39  1   
 37  17  19  1   
 38  17  40  1   
 39  17  41  1   
 40  18  20  1   
 41  18  42  1   
 42  18  43  1   
 43  19  20  1   
 44  19  44  1   
 45  19  45  1   
 46  20  21  1   
 47  20  46  1   
 48  21  47  1   
 49  21  48  1   
 50  21  49  1   
@<TRIPOS>SUBSTRUCTURE
  1 ****   8 GROUP 4 **** **** 0

# MOE 2024.06 (io_trps.svl 2023.06)
