@<TRIPOS>MOLECULE
NONAME
40 41 1 0 0 
SMALL
USER_CHARGES


@<TRIPOS>ATOM
  1 CL       0.0060     1.5810    -1.0970 Cl    1 <1>  -0.1770 
  2 C       -1.6770     1.5960    -0.6080 C.ar  1 <1>   0.1770 
  3 C       -2.1700     0.6190     0.2480 C.ar  1 <1>   0.0830 
  4 C       -2.4850     2.6020    -1.0990 C.ar  1 <1>  -0.1500 
  5 O       -1.3110    -0.3430     0.6910 O.3   1 <1>  -0.3630 
  6 C       -3.5120     0.6690     0.6110 C.ar  1 <1>  -0.1500 
  7 C       -3.8250     2.6430    -0.7320 C.ar  1 <1>   0.0830 
  8 C       -1.7530    -1.3900     1.5280 C.3   1 <1>   0.0400 
  9 C       -4.3490     1.6700     0.1290 C.ar  1 <1>   0.1170 
 10 O       -4.6830     3.6120    -1.1780 O.3   1 <1>  -0.3630 
 11 N       -5.7140     1.7600     0.4680 N.am  1 <1>  -0.5470 
 12 C       -4.2400     4.6340    -2.0450 C.3   1 <1>   0.0400 
 13 C       -6.5660     0.9710     1.1920 C.2   1 <1>   0.5690 
 14 O       -6.2350    -0.0650     1.7140 O.2   1 <1>  -0.5700 
 15 C       -8.0080     1.4240     1.3650 C.3   1 <1>   0.1310 
 16 S       -8.5500     2.5370    -0.0240 S.3   1 <1>  -0.2860 
 17 C      -10.2170     2.9890     0.4670 C.2   1 <1>   0.2420 
 18 N      -10.7640     2.6060     1.5650 N.2   1 <1>  -0.3380 
 19 N      -11.0020     3.7620    -0.2810 N.pl3 1 <1>   0.0480 
 20 N      -11.9860     3.1470     1.5660 N.2   1 <1>  -0.3380 
 21 C      -12.1100     3.8250     0.4720 C.2   1 <1>   0.0060 
 22 C      -10.6970     4.3720    -1.5900 C.3   1 <1>   0.0160 
 23 C      -13.3620     4.5950     0.0980 C.3   1 <1>  -0.0600 
 24 H       -2.0440     3.3260    -1.7550 H     1 <1>   0.1500 
 25 H       -3.9150    -0.0690     1.2730 H     1 <1>   0.1500 
 26 H       -0.9150    -2.0320     1.7300 H     1 <1>   0.0800 
 27 H       -2.5230    -1.9440     1.0200 H     1 <1>   0.0800 
 28 H       -2.1220    -0.9720     2.4480 H     1 <1>   0.0800 
 29 H       -6.1580     2.5740     0.0310 H     1 <1>   0.3700 
 30 H       -5.0750     5.2770    -2.2600 H     1 <1>   0.0800 
 31 H       -3.8800     4.1900    -2.9560 H     1 <1>   0.0800 
 32 H       -3.4650     5.1980    -1.5570 H     1 <1>   0.0800 
 33 H       -8.1190     1.9760     2.2800 H     1 <1>   0.0800 
 34 H       -8.6700     0.5780     1.3690 H     1 <1>   0.0800 
 35 H      -11.5820     4.8160    -2.0060 H     1 <1>   0.0800 
 36 H      -10.3330     3.6130    -2.2590 H     1 <1>   0.0800 
 37 H       -9.9430     5.1260    -1.4620 H     1 <1>   0.0800 
 38 H      -13.7780     4.2040    -0.8130 H     1 <1>   0.0800 
 39 H      -13.1320     5.6370    -0.0300 H     1 <1>   0.0800 
 40 H      -14.0950     4.4990     0.8790 H     1 <1>   0.0800 
@<TRIPOS>BOND
  1   1   2  1   
  2   2   3  ar  
  3   2   4  ar  
  4   3   5  1   
  5   3   6  ar  
  6   4   7  ar  
  7   4  24  1   
  8   5   8  1   
  9   6   9  ar  
 10   6  25  1   
 11   7   9  ar  
 12   7  10  1   
 13   8  26  1   
 14   8  27  1   
 15   8  28  1   
 16   9  11  1   
 17  10  12  1   
 18  11  13  am  
 19  11  29  1   
 20  12  30  1   
 21  12  31  1   
 22  12  32  1   
 23  13  14  2   
 24  13  15  1   
 25  15  16  1   
 26  15  33  1   
 27  15  34  1   
 28  16  17  1   
 29  17  18  2   
 30  17  19  1   
 31  18  20  1   
 32  19  21  1   
 33  19  22  1   
 34  20  21  2   
 35  21  23  1   
 36  22  35  1   
 37  22  36  1   
 38  22  37  1   
 39  23  38  1   
 40  23  39  1   
 41  23  40  1   
@<TRIPOS>SUBSTRUCTURE
  1 ****  11 GROUP 4 **** **** 0

# MOE 2024.06 (io_trps.svl 2023.06)
