@<TRIPOS>MOLECULE
NONAME
54 56 1 0 0 
SMALL
USER_CHARGES


@<TRIPOS>ATOM
  1 S       -0.0650     0.2880    -0.3110 S.o2  1 <1>   1.4470 
  2 O       -0.1610     1.2330     0.7760 O.2   1 <1>  -0.6500 
  3 O       -0.3500     0.6960    -1.6670 O.2   1 <1>  -0.6500 
  4 N       -1.2330    -0.8490     0.0920 N.am  1 <1>  -0.9140 
  5 C        1.4880    -0.6450    -0.2340 C.ar  1 <1>  -0.0090 
  6 C       -2.5630    -0.4280    -0.3000 C.3   1 <1>   0.1960 
  7 C        2.3580    -0.5030     0.8440 C.ar  1 <1>  -0.1500 
  8 C        1.8320    -1.5400    -1.2540 C.ar  1 <1>  -0.1500 
  9 C       -3.5600    -1.5030     0.1270 C.3   1 <1>  -0.1600 
 10 C        3.5240    -1.2440     0.8680 C.ar  1 <1>   0.0830 
 11 C        3.0050    -2.2800    -1.2220 C.ar  1 <1>  -0.1500 
 12 C       -4.9610    -1.1470    -0.3720 C.3   1 <1>   0.3430 
 13 O        4.4900    -1.2530     1.8080 O.3   1 <1>  -0.2320 
 14 C        3.8550    -2.1200    -0.1400 C.ar  1 <1>   0.1170 
 15 N       -5.9510    -2.1650     0.0750 N.4   1 <1>  -0.9590 
 16 C        5.4190    -2.1210     1.4020 C.2   1 <1>   0.7800 
 17 N        5.0660    -2.6800     0.2030 N.am  1 <1>  -0.4770 
 18 C       -5.8220    -3.4670    -0.6430 C.3   1 <1>   0.3430 
 19 C       -7.3530    -1.6330    -0.0250 C.3   1 <1>   0.3430 
 20 O        6.4270    -2.3520     2.0420 O.2   1 <1>  -0.5700 
 21 C        5.8340    -3.6800    -0.5700 C.3   1 <1>   0.0600 
 22 C       -6.6210    -4.5510     0.1050 C.3   1 <1>  -0.0800 
 23 C       -8.4290    -2.7350     0.1080 C.3   1 <1>  -0.0800 
 24 C       -7.8810    -3.9940     0.8060 C.3   1 <1>  -0.1600 
 25 C       -5.7340    -5.2870     1.1210 C.3   1 <1>  -0.2400 
 26 C       -9.0510    -3.0800    -1.2570 C.3   1 <1>  -0.2400 
 27 H       -1.1950    -0.8530     1.1100 H     1 <1>   0.4200 
 28 H       -2.5980    -0.3080    -1.3720 H     1 <1>   0.0800 
 29 H       -2.7990     0.5200     0.1600 H     1 <1>   0.0800 
 30 H        2.1390     0.1730     1.6530 H     1 <1>   0.1500 
 31 H        1.1630    -1.6530    -2.0920 H     1 <1>   0.1500 
 32 H       -3.5640    -1.5730     1.2000 H     1 <1>   0.0800 
 33 H       -3.2440    -2.4390    -0.2960 H     1 <1>   0.0800 
 34 H        3.2570    -2.9620    -2.0150 H     1 <1>   0.1500 
 35 H       -4.9640    -1.0800    -1.4490 H     1 <1>   0.0800 
 36 H       -5.2350    -0.1820     0.0240 H     1 <1>   0.0800 
 37 H       -5.7850    -2.3770     1.0680 H     1 <1>   0.4500 
 38 H       -4.7910    -3.7710    -0.7110 H     1 <1>   0.0800 
 39 H       -6.2060    -3.3620    -1.6440 H     1 <1>   0.0800 
 40 H       -7.4880    -1.1340    -0.9710 H     1 <1>   0.0800 
 41 H       -7.5060    -0.9030     0.7530 H     1 <1>   0.0800 
 42 H        5.2470    -4.5740    -0.6880 H     1 <1>   0.0800 
 43 H        6.7450    -3.9240    -0.0500 H     1 <1>   0.0800 
 44 H        6.0780    -3.2800    -1.5380 H     1 <1>   0.0800 
 45 H       -6.9330    -5.2740    -0.6320 H     1 <1>   0.0800 
 46 H       -9.2250    -2.3360     0.7150 H     1 <1>   0.0800 
 47 H       -7.6440    -3.7310     1.8230 H     1 <1>   0.0800 
 48 H       -8.6400    -4.7570     0.8520 H     1 <1>   0.0800 
 49 H       -5.3660    -4.6180     1.8790 H     1 <1>   0.0800 
 50 H       -4.8920    -5.7420     0.6280 H     1 <1>   0.0800 
 51 H       -6.2960    -6.0690     1.6030 H     1 <1>   0.0800 
 52 H       -8.3280    -3.4740    -1.9470 H     1 <1>   0.0800 
 53 H       -9.4980    -2.2050    -1.6970 H     1 <1>   0.0800 
 54 H       -9.8290    -3.8150    -1.1320 H     1 <1>   0.0800 
@<TRIPOS>BOND
  1   1   2  2   
  2   1   3  2   
  3   1   4  am  
  4   1   5  1   
  5   4   6  1   
  6   4  27  1   
  7   5   7  ar  
  8   5   8  ar  
  9   6   9  1   
 10   6  28  1   
 11   6  29  1   
 12   7  10  ar  
 13   7  30  1   
 14   8  11  ar  
 15   8  31  1   
 16   9  12  1   
 17   9  32  1   
 18   9  33  1   
 19  10  13  1   
 20  10  14  ar  
 21  11  14  ar  
 22  11  34  1   
 23  12  15  1   
 24  12  35  1   
 25  12  36  1   
 26  13  16  1   
 27  14  17  1   
 28  15  18  1   
 29  15  19  1   
 30  15  37  1   
 31  16  17  am  
 32  16  20  2   
 33  17  21  1   
 34  18  22  1   
 35  18  38  1   
 36  18  39  1   
 37  19  23  1   
 38  19  40  1   
 39  19  41  1   
 40  21  42  1   
 41  21  43  1   
 42  21  44  1   
 43  22  24  1   
 44  22  25  1   
 45  22  45  1   
 46  23  24  1   
 47  23  26  1   
 48  23  46  1   
 49  24  47  1   
 50  24  48  1   
 51  25  49  1   
 52  25  50  1   
 53  25  51  1   
 54  26  52  1   
 55  26  53  1   
 56  26  54  1   
@<TRIPOS>SUBSTRUCTURE
  1 ****   4 GROUP 4 **** **** 0

# MOE 2024.06 (io_trps.svl 2023.06)
