@<TRIPOS>MOLECULE
NONAME
44 45 1 0 0 
SMALL
USER_CHARGES


@<TRIPOS>ATOM
  1 O       -4.7990     1.8750    -0.4170 O.3   1 <1>  -0.5600 
  2 C       -3.8080     2.8420    -0.5960 C.3   1 <1>   0.2000 
  3 C       -4.2750     0.6040    -0.6600 C.3   1 <1>   0.1200 
  4 C       -2.5350     2.1750    -0.0940 C.3   1 <1>  -0.1600 
  5 C       -4.2130     4.1170     0.1670 C.3   1 <1>   0.3430 
  6 C       -2.7680     0.7110    -0.4310 C.3   1 <1>  -0.1600 
  7 N       -5.6940     4.2540     0.1150 N.4   1 <1>  -0.9060 
  8 C       -6.3140     4.9650     1.2450 C.3   1 <1>   0.4860 
  9 C       -7.8030     4.9450     0.9900 C.ar  1 <1>  -0.1430 
 10 C       -8.3860     5.9400     0.2240 C.ar  1 <1>  -0.1500 
 11 C       -8.5970     3.9330     1.5010 C.ar  1 <1>  -0.1500 
 12 C       -9.7430     5.9400    -0.0520 C.ar  1 <1>   0.0820 
 13 C       -9.9560     3.9170     1.2410 C.ar  1 <1>  -0.1500 
 14 O      -10.1390     6.9880    -0.8320 O.3   1 <1>  -0.3630 
 15 C      -10.5500     4.9090     0.4620 C.ar  1 <1>   0.0820 
 16 C      -11.4760     7.2160    -1.2200 C.3   1 <1>   0.0400 
 17 O      -11.8880     4.8860     0.2010 O.3   1 <1>  -0.3630 
 18 C      -12.7000     3.7690     0.4820 C.3   1 <1>   0.2580 
 19 C      -14.0800     4.0470    -0.0810 C.2   1 <1>  -0.2880 
 20 C      -14.7110     3.3000    -0.9930 C.2   1 <1>  -0.3000 
 21 H       -3.7330     3.0380    -1.6530 H     1 <1>   0.0800 
 22 H       -4.4970     0.3320    -1.6790 H     1 <1>   0.0800 
 23 H       -4.7380    -0.0960     0.0150 H     1 <1>   0.0800 
 24 H       -2.4430     2.2920     0.9720 H     1 <1>   0.0800 
 25 H       -1.6550     2.5690    -0.5720 H     1 <1>   0.0800 
 26 H       -3.7230     4.9820    -0.2490 H     1 <1>   0.0800 
 27 H       -3.8970     4.0080     1.1920 H     1 <1>   0.0800 
 28 H       -2.2470     0.4320    -1.3310 H     1 <1>   0.0800 
 29 H       -2.4480     0.0620     0.3660 H     1 <1>   0.0800 
 30 H       -6.0450     3.2790     0.0980 H     1 <1>   0.4500 
 31 H       -6.0170     4.6590    -0.7700 H     1 <1>   0.4500 
 32 H       -5.9620     5.9830     1.2920 H     1 <1>   0.0800 
 33 H       -6.0890     4.4690     2.1750 H     1 <1>   0.0800 
 34 H       -7.7980     6.7470    -0.1790 H     1 <1>   0.1500 
 35 H       -8.1750     3.1480     2.1070 H     1 <1>   0.1500 
 36 H      -10.5360     3.1170     1.6630 H     1 <1>   0.1500 
 37 H      -11.5070     8.1130    -1.8100 H     1 <1>   0.0800 
 38 H      -12.0800     7.3380    -0.3380 H     1 <1>   0.0800 
 39 H      -11.8180     6.3820    -1.8070 H     1 <1>   0.0800 
 40 H      -12.7490     3.6400     1.5480 H     1 <1>   0.0800 
 41 H      -12.2650     2.9020     0.0160 H     1 <1>   0.0800 
 42 H      -14.5140     4.9380     0.3390 H     1 <1>   0.1500 
 43 H      -15.6920     3.5250    -1.3750 H     1 <1>   0.1500 
 44 H      -14.3060     2.4060    -1.4360 H     1 <1>   0.1500 
@<TRIPOS>BOND
  1   1   2  1   
  2   1   3  1   
  3   2   4  1   
  4   2   5  1   
  5   2  21  1   
  6   3   6  1   
  7   3  22  1   
  8   3  23  1   
  9   4   6  1   
 10   4  24  1   
 11   4  25  1   
 12   5   7  1   
 13   5  26  1   
 14   5  27  1   
 15   6  28  1   
 16   6  29  1   
 17   7   8  1   
 18   7  30  1   
 19   7  31  1   
 20   8   9  1   
 21   8  32  1   
 22   8  33  1   
 23   9  10  ar  
 24   9  11  ar  
 25  10  12  ar  
 26  10  34  1   
 27  11  13  ar  
 28  11  35  1   
 29  12  14  1   
 30  12  15  ar  
 31  13  15  ar  
 32  13  36  1   
 33  14  16  1   
 34  15  17  1   
 35  16  37  1   
 36  16  38  1   
 37  16  39  1   
 38  17  18  1   
 39  18  19  1   
 40  18  40  1   
 41  18  41  1   
 42  19  20  2   
 43  19  42  1   
 44  20  43  1   
 45  20  44  1   
@<TRIPOS>SUBSTRUCTURE
  1 ****   9 GROUP 4 **** **** 0

# MOE 2024.06 (io_trps.svl 2023.06)
