@<TRIPOS>MOLECULE
NONAME
38 40 1 0 0 
SMALL
USER_CHARGES


@<TRIPOS>ATOM
  1 O        0.7170    -0.8080     0.6180 O.3   1 <1>  -0.2800 
  2 C        1.5580    -0.9440    -0.3930 C.2   1 <1>  -0.0400 
  3 C       -0.3090    -1.6050     0.3980 C.2   1 <1>  -0.0100 
  4 C        1.0770    -1.8420    -1.2810 C.2   1 <1>  -0.1500 
  5 C        2.8650    -0.1560    -0.4380 C.3   1 <1>   0.3700 
  6 C       -0.1500    -2.2750    -0.7620 C.2   1 <1>  -0.1500 
  7 N        3.5970    -0.3370     0.8200 N.3   1 <1>  -0.9000 
  8 C        2.6760     1.3390    -0.7380 C.3   1 <1>  -0.0190 
  9 C        4.9420     0.2410     0.8100 C.3   1 <1>   0.3700 
 10 C        4.0650     1.9630    -0.8290 C.2   1 <1>   0.3280 
 11 C        1.7570     2.0980     0.2450 C.3   1 <1>  -0.2400 
 12 C        5.8860    -0.5840    -0.0650 C.2   1 <1>  -0.0400 
 13 C        4.8990     1.7430     0.4560 C.3   1 <1>  -0.0190 
 14 N        4.3710     2.5630    -1.9070 N.2   1 <1>  -0.5130 
 15 O        5.8620    -0.4680    -1.3810 O.3   1 <1>  -0.2800 
 16 C        6.8300    -1.4790     0.3040 C.2   1 <1>  -0.1500 
 17 C        6.3140     2.3630     0.5320 C.3   1 <1>  -0.2400 
 18 O        5.5530     3.1040    -2.1250 O.3   1 <1>  -0.3370 
 19 C        6.7760    -1.2760    -1.8750 C.2   1 <1>  -0.0100 
 20 C        7.4130    -1.9340    -0.8850 C.2   1 <1>  -0.1500 
 21 H       -1.1060    -1.6330     1.1190 H     1 <1>   0.1500 
 22 H        1.5160    -2.1800    -2.2030 H     1 <1>   0.1500 
 23 H        3.4410    -0.5790    -1.2430 H     1 <1>   0.0800 
 24 H       -0.8050    -2.9950    -1.2200 H     1 <1>   0.1500 
 25 H        3.6810    -1.3480     0.9660 H     1 <1>   0.3600 
 26 H        2.2190     1.4090    -1.7100 H     1 <1>   0.0800 
 27 H        5.3150     0.1630     1.8170 H     1 <1>   0.0800 
 28 H        2.0490     1.9240     1.2650 H     1 <1>   0.0800 
 29 H        0.7400     1.7710     0.1280 H     1 <1>   0.0800 
 30 H        1.7940     3.1540     0.0440 H     1 <1>   0.0800 
 31 H        4.3490     2.2150     1.2480 H     1 <1>   0.0800 
 32 H        7.1050    -1.8010     1.2930 H     1 <1>   0.1500 
 33 H        6.9720     1.9290    -0.2010 H     1 <1>   0.0800 
 34 H        6.7390     2.1860     1.5040 H     1 <1>   0.0800 
 35 H        6.2630     3.4290     0.3890 H     1 <1>   0.0800 
 36 H        6.2530     2.8450    -1.4960 H     1 <1>   0.4000 
 37 H        6.9070    -1.3200    -2.9430 H     1 <1>   0.1500 
 38 H        8.2050    -2.6590    -0.9570 H     1 <1>   0.1500 
@<TRIPOS>BOND
  1   1   2  1   
  2   1   3  1   
  3   2   4  2   
  4   2   5  1   
  5   3   6  2   
  6   3  21  1   
  7   4   6  1   
  8   4  22  1   
  9   5   7  1   
 10   5   8  1   
 11   5  23  1   
 12   6  24  1   
 13   7   9  1   
 14   7  25  1   
 15   8  10  1   
 16   8  11  1   
 17   8  26  1   
 18   9  12  1   
 19   9  13  1   
 20   9  27  1   
 21  10  13  1   
 22  10  14  2   
 23  11  28  1   
 24  11  29  1   
 25  11  30  1   
 26  12  15  1   
 27  12  16  2   
 28  13  17  1   
 29  13  31  1   
 30  14  18  1   
 31  15  19  1   
 32  16  20  1   
 33  16  32  1   
 34  17  33  1   
 35  17  34  1   
 36  17  35  1   
 37  18  36  1   
 38  19  20  2   
 39  19  37  1   
 40  20  38  1   
@<TRIPOS>SUBSTRUCTURE
  1 ****   5 GROUP 4 **** **** 0

# MOE 2024.06 (io_trps.svl 2023.06)
