@<TRIPOS>MOLECULE
NONAME
49 51 1 0 0 
SMALL
USER_CHARGES


@<TRIPOS>ATOM
  1 F       -1.2460    -0.4160    -0.1380 F     1 <1>  -0.1900 
  2 C       -2.4200    -0.9220    -0.4150 C.ar  1 <1>   0.1900 
  3 C       -3.1100    -1.5890     0.5800 C.ar  1 <1>  -0.1500 
  4 C       -2.9280    -0.7710    -1.6920 C.ar  1 <1>  -0.1500 
  5 C       -4.3520    -2.1220     0.2790 C.ar  1 <1>  -0.1500 
  6 C       -4.1700    -1.3100    -1.9750 C.ar  1 <1>  -0.1500 
  7 C       -4.8920    -1.9870    -0.9980 C.ar  1 <1>   0.1000 
  8 N       -6.1370    -2.5160    -1.3210 N.pl3 1 <1>  -0.8380 
  9 C       -6.2490    -3.9910    -1.5200 C.3   1 <1>   0.2090 
 10 C       -7.3550    -1.8820    -0.7360 C.3   1 <1>   0.2090 
 11 C       -6.8350    -4.7050    -0.2860 C.3   1 <1>   0.1100 
 12 C       -7.9150    -2.6750     0.4620 C.3   1 <1>   0.1100 
 13 N       -8.1200    -4.1140     0.1530 N.3   1 <1>  -0.8100 
 14 C       -8.6560    -4.8420     1.3430 C.3   1 <1>   0.1710 
 15 C      -10.1390    -4.5720     1.6080 C.2   1 <1>   0.5690 
 16 O      -10.5730    -4.7140     2.7250 O.2   1 <1>  -0.5700 
 17 N      -10.8790    -4.1750     0.5290 N.am  1 <1>  -0.5470 
 18 C      -12.2280    -3.8600     0.3510 C.ar  1 <1>   0.1170 
 19 C      -13.1950    -4.0310     1.3360 C.ar  1 <1>  -0.1500 
 20 C      -12.6370    -3.3530    -0.8760 C.ar  1 <1>  -0.1500 
 21 C      -14.5160    -3.7030     1.0990 C.ar  1 <1>  -0.1500 
 22 C      -13.9580    -3.0260    -1.1110 C.ar  1 <1>  -0.1500 
 23 C      -14.9410    -3.1910    -0.1290 C.ar  1 <1>   0.0860 
 24 C      -16.3310    -2.8530    -0.3610 C.2   1 <1>   0.6340 
 25 O      -17.2010    -2.9950     0.4750 O.2   1 <1>  -0.5700 
 26 O      -16.6690    -2.3590    -1.5580 O.3   1 <1>  -0.4300 
 27 C      -18.0030    -2.0030    -1.8670 C.3   1 <1>   0.0400 
 28 H       -2.6820    -1.6860     1.5600 H     1 <1>   0.1500 
 29 H       -2.3630    -0.2460    -2.4400 H     1 <1>   0.1500 
 30 H       -4.9070    -2.6460     1.0320 H     1 <1>   0.1500 
 31 H       -4.5980    -1.2130    -2.9560 H     1 <1>   0.1500 
 32 H       -5.2760    -4.3960    -1.7400 H     1 <1>   0.0800 
 33 H       -6.8820    -4.1780    -2.3690 H     1 <1>   0.0800 
 34 H       -8.1110    -1.8180    -1.4990 H     1 <1>   0.0800 
 35 H       -7.1210    -0.8790    -0.4230 H     1 <1>   0.0800 
 36 H       -6.1170    -4.6580     0.5140 H     1 <1>   0.0800 
 37 H       -6.9860    -5.7410    -0.5350 H     1 <1>   0.0800 
 38 H       -8.8500    -2.2300     0.7560 H     1 <1>   0.0800 
 39 H       -7.2330    -2.5730     1.2880 H     1 <1>   0.0800 
 40 H       -8.0910    -4.5840     2.2220 H     1 <1>   0.0800 
 41 H       -8.5560    -5.9010     1.1870 H     1 <1>   0.0800 
 42 H      -10.2730    -4.0590    -0.2900 H     1 <1>   0.3700 
 43 H      -12.9220    -4.4240     2.2980 H     1 <1>   0.1500 
 44 H      -11.9110    -3.2120    -1.6570 H     1 <1>   0.1500 
 45 H      -15.2420    -3.8470     1.8830 H     1 <1>   0.1500 
 46 H      -14.2370    -2.6350    -2.0740 H     1 <1>   0.1500 
 47 H      -18.0330    -1.6330    -2.8760 H     1 <1>   0.0800 
 48 H      -18.3260    -1.2380    -1.1820 H     1 <1>   0.0800 
 49 H      -18.6270    -2.8750    -1.7720 H     1 <1>   0.0800 
@<TRIPOS>BOND
  1   1   2  1   
  2   2   3  ar  
  3   2   4  ar  
  4   3   5  ar  
  5   3  28  1   
  6   4   6  ar  
  7   4  29  1   
  8   5   7  ar  
  9   5  30  1   
 10   6   7  ar  
 11   6  31  1   
 12   7   8  1   
 13   8   9  1   
 14   8  10  1   
 15   9  11  1   
 16   9  32  1   
 17   9  33  1   
 18  10  12  1   
 19  10  34  1   
 20  10  35  1   
 21  11  13  1   
 22  11  36  1   
 23  11  37  1   
 24  12  13  1   
 25  12  38  1   
 26  12  39  1   
 27  13  14  1   
 28  14  15  1   
 29  14  40  1   
 30  14  41  1   
 31  15  16  2   
 32  15  17  am  
 33  17  18  1   
 34  17  42  1   
 35  18  19  ar  
 36  18  20  ar  
 37  19  21  ar  
 38  19  43  1   
 39  20  22  ar  
 40  20  44  1   
 41  21  23  ar  
 42  21  45  1   
 43  22  23  ar  
 44  22  46  1   
 45  23  24  1   
 46  24  25  2   
 47  24  26  1   
 48  26  27  1   
 49  27  47  1   
 50  27  48  1   
 51  27  49  1   
@<TRIPOS>SUBSTRUCTURE
  1 ****  12 GROUP 4 **** **** 0

# MOE 2024.06 (io_trps.svl 2023.06)
