@<TRIPOS>MOLECULE
NONAME
54 55 1 0 0 
SMALL
USER_CHARGES


@<TRIPOS>ATOM
  1 O        7.2230    -7.7560    -1.0590 O.3   1 <1>  -0.5600 
  2 C        6.6560    -8.3290     0.0890 C.3   1 <1>   0.2000 
  3 C        7.3400    -6.3560    -1.1020 C.3   1 <1>   0.2000 
  4 C        5.2110    -7.8010     0.3040 C.3   1 <1>   0.3430 
  5 C        7.5790    -8.0960     1.2910 C.3   1 <1>  -0.2400 
  6 C        6.0860    -5.6590    -0.5110 C.3   1 <1>   0.3430 
  7 C        7.5470    -5.9970    -2.5720 C.3   1 <1>  -0.2400 
  8 N        4.9040    -6.5800    -0.5290 N.4   1 <1>  -0.9590 
  9 C        3.6360    -5.8820    -0.1410 C.3   1 <1>   0.3430 
 10 C        2.3890    -6.7310    -0.4020 C.3   1 <1>   0.1200 
 11 O        1.2850    -5.9820     0.0350 O.3   1 <1>  -0.3630 
 12 C        0.0200    -6.4790    -0.0210 C.ar  1 <1>   0.0830 
 13 C       -1.0020    -5.7090     0.5220 C.ar  1 <1>  -0.1430 
 14 C       -0.2860    -7.7100    -0.5910 C.ar  1 <1>  -0.1500 
 15 C       -2.3060    -6.1780     0.4910 C.ar  1 <1>  -0.1500 
 16 C       -0.7060    -4.3540     1.1500 C.3   1 <1>  -0.0970 
 17 C       -1.5920    -8.1610    -0.6120 C.ar  1 <1>  -0.1500 
 18 C       -2.6290    -7.4090    -0.0730 C.ar  1 <1>  -0.1430 
 19 C       -4.0720    -7.9610    -0.1230 C.3   1 <1>   0.1430 
 20 C       -4.1370    -9.2960     0.6350 C.3   1 <1>  -0.2400 
 21 C       -5.1070    -7.0180     0.5140 C.3   1 <1>  -0.2400 
 22 C       -4.4870    -8.1830    -1.5850 C.3   1 <1>  -0.2400 
 23 H        6.6080    -9.3900    -0.0900 H     1 <1>   0.0800 
 24 H        8.2170    -6.0720    -0.5450 H     1 <1>   0.0800 
 25 H        5.0830    -7.5760     1.3500 H     1 <1>   0.0800 
 26 H        4.5190    -8.5900     0.0600 H     1 <1>   0.0800 
 27 H        7.6170    -7.0620     1.5810 H     1 <1>   0.0800 
 28 H        8.5730    -8.4360     1.0570 H     1 <1>   0.0800 
 29 H        7.2290    -8.6640     2.1350 H     1 <1>   0.0800 
 30 H        5.8800    -4.7650    -1.0760 H     1 <1>   0.0800 
 31 H        6.2990    -5.3610     0.5030 H     1 <1>   0.0800 
 32 H        6.7020    -6.2990    -3.1650 H     1 <1>   0.0800 
 33 H        8.4280    -6.4890    -2.9450 H     1 <1>   0.0800 
 34 H        7.6870    -4.9360    -2.6830 H     1 <1>   0.0800 
 35 H        4.8460    -6.9110    -1.5040 H     1 <1>   0.4500 
 36 H        3.5430    -4.9700    -0.7070 H     1 <1>   0.0800 
 37 H        3.6700    -5.6290     0.9060 H     1 <1>   0.0800 
 38 H        2.4100    -7.6450     0.1630 H     1 <1>   0.0800 
 39 H        2.2670    -6.9240    -1.4530 H     1 <1>   0.0800 
 40 H        0.4670    -8.3360    -1.0270 H     1 <1>   0.1500 
 41 H       -3.0680    -5.5570     0.9200 H     1 <1>   0.1500 
 42 H       -0.0270    -4.4750     1.9750 H     1 <1>   0.0800 
 43 H       -1.6040    -3.8890     1.5140 H     1 <1>   0.0800 
 44 H       -0.2570    -3.7050     0.4210 H     1 <1>   0.0800 
 45 H       -1.7970    -9.1170    -1.0600 H     1 <1>   0.1500 
 46 H       -3.8150    -9.1570     1.6510 H     1 <1>   0.0800 
 47 H       -3.5050   -10.0340     0.1780 H     1 <1>   0.0800 
 48 H       -5.1420    -9.6790     0.6440 H     1 <1>   0.0800 
 49 H       -4.8780    -6.8500     1.5510 H     1 <1>   0.0800 
 50 H       -6.0930    -7.4440     0.4560 H     1 <1>   0.0800 
 51 H       -5.1230    -6.0730     0.0000 H     1 <1>   0.0800 
 52 H       -3.8570    -8.9100    -2.0620 H     1 <1>   0.0800 
 53 H       -4.4100    -7.2600    -2.1320 H     1 <1>   0.0800 
 54 H       -5.5020    -8.5320    -1.6430 H     1 <1>   0.0800 
@<TRIPOS>BOND
  1   1   2  1   
  2   1   3  1   
  3   2   4  1   
  4   2   5  1   
  5   2  23  1   
  6   3   6  1   
  7   3   7  1   
  8   3  24  1   
  9   4   8  1   
 10   4  25  1   
 11   4  26  1   
 12   5  27  1   
 13   5  28  1   
 14   5  29  1   
 15   6   8  1   
 16   6  30  1   
 17   6  31  1   
 18   7  32  1   
 19   7  33  1   
 20   7  34  1   
 21   8   9  1   
 22   8  35  1   
 23   9  10  1   
 24   9  36  1   
 25   9  37  1   
 26  10  11  1   
 27  10  38  1   
 28  10  39  1   
 29  11  12  1   
 30  12  13  ar  
 31  12  14  ar  
 32  13  15  ar  
 33  13  16  1   
 34  14  17  ar  
 35  14  40  1   
 36  15  18  ar  
 37  15  41  1   
 38  16  42  1   
 39  16  43  1   
 40  16  44  1   
 41  17  18  ar  
 42  17  45  1   
 43  18  19  1   
 44  19  20  1   
 45  19  21  1   
 46  19  22  1   
 47  20  46  1   
 48  20  47  1   
 49  20  48  1   
 50  21  49  1   
 51  21  50  1   
 52  21  51  1   
 53  22  52  1   
 54  22  53  1   
 55  22  54  1   
@<TRIPOS>SUBSTRUCTURE
  1 ****  10 GROUP 4 **** **** 0

# MOE 2024.06 (io_trps.svl 2023.06)
