@<TRIPOS>MOLECULE
NONAME
48 50 1 0 0 
SMALL
USER_CHARGES


@<TRIPOS>ATOM
  1 O       -2.7540     2.6870    -1.6150 O.2   1 <1>  -0.5700 
  2 C       -1.9360     2.2660    -0.8160 C.2   1 <1>   0.5440 
  3 N       -2.0010     0.9600    -0.4110 N.am  1 <1>  -0.5470 
  4 C       -0.9270     3.1550    -0.2790 C.ar  1 <1>   0.0860 
  5 C       -2.7290    -0.1100    -0.9630 C.ar  1 <1>   0.1170 
  6 C       -0.5510     3.1570     1.0750 C.ar  1 <1>   0.0830 
  7 C       -0.2970     4.0620    -1.1320 C.ar  1 <1>  -0.1500 
  8 C       -4.1250    -0.2760    -0.8250 C.ar  1 <1>   0.1000 
  9 C       -2.0000    -1.0590    -1.6660 C.ar  1 <1>  -0.1500 
 10 O       -1.1770     2.2970     1.9210 O.3   1 <1>  -0.3630 
 11 C        0.4320     4.0350     1.5260 C.ar  1 <1>  -0.1500 
 12 C        0.6740     4.9320    -0.6780 C.ar  1 <1>  -0.1500 
 13 N       -4.9870     0.6070    -0.1490 N.pl3 1 <1>  -0.8380 
 14 C       -4.7150    -1.3950    -1.4010 C.ar  1 <1>  -0.1500 
 15 C       -2.6120    -2.1630    -2.2330 C.ar  1 <1>  -0.1500 
 16 C       -0.7100     2.0590     3.2350 C.3   1 <1>   0.0400 
 17 C        1.0410     4.9170     0.6550 C.ar  1 <1>  -0.1500 
 18 C       -5.9500     1.3920    -0.9910 C.3   1 <1>   0.2090 
 19 C       -4.6620     1.1090     1.2270 C.3   1 <1>   0.2090 
 20 C       -3.9750    -2.3310    -2.0990 C.ar  1 <1>  -0.1500 
 21 C       -6.1370     2.8470    -0.5110 C.3   1 <1>   0.3430 
 22 C       -4.4750     2.6460     1.3120 C.3   1 <1>   0.3430 
 23 N       -4.8640     3.3790     0.0580 N.4   1 <1>  -0.9590 
 24 C       -4.8220     4.8590     0.1930 C.3   1 <1>   0.2630 
 25 H       -1.2900     0.6920     0.2710 H     1 <1>   0.3700 
 26 H       -0.5750     4.0800    -2.1730 H     1 <1>   0.1500 
 27 H       -0.9390    -0.9350    -1.7790 H     1 <1>   0.1500 
 28 H        0.7400     4.0560     2.5550 H     1 <1>   0.1500 
 29 H        1.1480     5.6200    -1.3590 H     1 <1>   0.1500 
 30 H       -5.7750    -1.5370    -1.2940 H     1 <1>   0.1500 
 31 H       -2.0280    -2.8860    -2.7770 H     1 <1>   0.1500 
 32 H       -1.2950     1.2650     3.6650 H     1 <1>   0.0800 
 33 H       -0.8260     2.9540     3.8200 H     1 <1>   0.0800 
 34 H        0.3240     1.7620     3.1930 H     1 <1>   0.0800 
 35 H        1.8020     5.5930     1.0090 H     1 <1>   0.1500 
 36 H       -6.9020     0.8920    -1.0020 H     1 <1>   0.0800 
 37 H       -5.5820     1.4110    -2.0030 H     1 <1>   0.0800 
 38 H       -3.7740     0.6220     1.5920 H     1 <1>   0.0800 
 39 H       -5.4630     0.8230     1.8850 H     1 <1>   0.0800 
 40 H       -4.4600    -3.1880    -2.5340 H     1 <1>   0.1500 
 41 H       -6.9110     2.8760     0.2370 H     1 <1>   0.0800 
 42 H       -6.4550     3.4490    -1.3460 H     1 <1>   0.0800 
 43 H       -3.4410     2.8490     1.5300 H     1 <1>   0.0800 
 44 H       -5.0540     3.0120     2.1420 H     1 <1>   0.0800 
 45 H       -4.1450     3.0850    -0.6440 H     1 <1>   0.4500 
 46 H       -5.5580     5.1930     0.9050 H     1 <1>   0.0800 
 47 H       -5.0210     5.3240    -0.7590 H     1 <1>   0.0800 
 48 H       -3.8460     5.1730     0.5260 H     1 <1>   0.0800 
@<TRIPOS>BOND
  1   1   2  2   
  2   2   3  am  
  3   2   4  1   
  4   3   5  1   
  5   3  25  1   
  6   4   6  ar  
  7   4   7  ar  
  8   5   8  ar  
  9   5   9  ar  
 10   6  10  1   
 11   6  11  ar  
 12   7  12  ar  
 13   7  26  1   
 14   8  13  1   
 15   8  14  ar  
 16   9  15  ar  
 17   9  27  1   
 18  10  16  1   
 19  11  17  ar  
 20  11  28  1   
 21  12  17  ar  
 22  12  29  1   
 23  13  18  1   
 24  13  19  1   
 25  14  20  ar  
 26  14  30  1   
 27  15  20  ar  
 28  15  31  1   
 29  16  32  1   
 30  16  33  1   
 31  16  34  1   
 32  17  35  1   
 33  18  21  1   
 34  18  36  1   
 35  18  37  1   
 36  19  22  1   
 37  19  38  1   
 38  19  39  1   
 39  20  40  1   
 40  21  23  1   
 41  21  41  1   
 42  21  42  1   
 43  22  23  1   
 44  22  43  1   
 45  22  44  1   
 46  23  24  1   
 47  23  45  1   
 48  24  46  1   
 49  24  47  1   
 50  24  48  1   
@<TRIPOS>SUBSTRUCTURE
  1 ****   2 GROUP 4 **** **** 0

# MOE 2024.06 (io_trps.svl 2023.06)
