@<TRIPOS>MOLECULE
NONAME
46 47 1 0 0 
SMALL
USER_CHARGES


@<TRIPOS>ATOM
  1 CL       0.2030     1.2120     2.1210 Cl    1 <1>  -0.1770 
  2 C        1.0760     2.3010     1.0660 C.ar  1 <1>   0.1770 
  3 C        0.4410     3.4010     0.5020 C.ar  1 <1>   0.0820 
  4 C        2.4080     2.0240     0.8160 C.ar  1 <1>  -0.1500 
  5 O       -0.8720     3.6160     0.7630 O.3   1 <1>  -0.3630 
  6 C        1.1860     4.2530    -0.3240 C.ar  1 <1>   0.0820 
  7 C        3.1390     2.8600    -0.0170 C.ar  1 <1>  -0.1440 
  8 C       -1.7790     2.9960    -0.1210 C.3   1 <1>   0.0400 
  9 O        0.7090     5.3780    -0.9190 O.3   1 <1>  -0.3630 
 10 C        2.5160     3.9630    -0.5840 C.ar  1 <1>  -0.1500 
 11 C        4.6000     2.5890    -0.2970 C.3   1 <1>   0.4860 
 12 C       -0.2060     6.2120    -0.2420 C.3   1 <1>   0.1200 
 13 N        5.3700     3.4790     0.5910 N.4   1 <1>  -0.9060 
 14 C       -0.1020     7.6100    -0.8420 C.3   1 <1>  -0.2400 
 15 C        6.8540     3.4520     0.3910 C.3   1 <1>   0.3430 
 16 C        7.4930     4.7900     0.8240 C.3   1 <1>   0.3430 
 17 O        6.5920     5.8210     0.5710 O.3   1 <1>  -0.6800 
 18 C        8.7720     5.0590     0.0490 C.ar  1 <1>  -0.1430 
 19 C       10.0000     4.9320     0.6830 C.ar  1 <1>  -0.1500 
 20 C        8.7370     5.4210    -1.2930 C.ar  1 <1>  -0.1500 
 21 C       11.1740     5.1580    -0.0130 C.ar  1 <1>  -0.1500 
 22 C        9.9120     5.6460    -1.9880 C.ar  1 <1>  -0.1500 
 23 C       11.1310     5.5140    -1.3490 C.ar  1 <1>  -0.1500 
 24 H        2.8460     1.1560     1.2770 H     1 <1>   0.1500 
 25 H       -2.7760     3.2630     0.1780 H     1 <1>   0.0800 
 26 H       -1.6520     1.9290    -0.0620 H     1 <1>   0.0800 
 27 H       -1.5860     3.3440    -1.1210 H     1 <1>   0.0800 
 28 H        3.0510     4.6300    -1.2390 H     1 <1>   0.1500 
 29 H        4.8210     2.8040    -1.3310 H     1 <1>   0.0800 
 30 H        4.8340     1.5560    -0.0960 H     1 <1>   0.0800 
 31 H        0.0440     6.2250     0.8060 H     1 <1>   0.0800 
 32 H       -1.1960     5.8160    -0.3780 H     1 <1>   0.0800 
 33 H        5.1070     3.3150     1.5680 H     1 <1>   0.4500 
 34 H        5.0930     4.4600     0.4040 H     1 <1>   0.4500 
 35 H        0.8940     7.9960    -0.7150 H     1 <1>   0.0800 
 36 H       -0.7910     8.2690    -0.3460 H     1 <1>   0.0800 
 37 H       -0.3470     7.5830    -1.8890 H     1 <1>   0.0800 
 38 H        7.0720     3.3140    -0.6550 H     1 <1>   0.0800 
 39 H        7.3050     2.6350     0.9300 H     1 <1>   0.0800 
 40 H        7.6920     4.7830     1.8820 H     1 <1>   0.0800 
 41 H        7.0780     6.6750     0.5990 H     1 <1>   0.4000 
 42 H       10.0640     4.6590     1.7230 H     1 <1>   0.1500 
 43 H        7.8010     5.5370    -1.8120 H     1 <1>   0.1500 
 44 H       12.1250     5.0590     0.4820 H     1 <1>   0.1500 
 45 H        9.8820     5.9280    -3.0270 H     1 <1>   0.1500 
 46 H       12.0460     5.6900    -1.8900 H     1 <1>   0.1500 
@<TRIPOS>BOND
  1   1   2  1   
  2   2   3  ar  
  3   2   4  ar  
  4   3   5  1   
  5   3   6  ar  
  6   4   7  ar  
  7   4  24  1   
  8   5   8  1   
  9   6   9  1   
 10   6  10  ar  
 11   7  10  ar  
 12   7  11  1   
 13   8  25  1   
 14   8  26  1   
 15   8  27  1   
 16   9  12  1   
 17  10  28  1   
 18  11  13  1   
 19  11  29  1   
 20  11  30  1   
 21  12  14  1   
 22  12  31  1   
 23  12  32  1   
 24  13  15  1   
 25  13  33  1   
 26  13  34  1   
 27  14  35  1   
 28  14  36  1   
 29  14  37  1   
 30  15  16  1   
 31  15  38  1   
 32  15  39  1   
 33  16  17  1   
 34  16  18  1   
 35  16  40  1   
 36  17  41  1   
 37  18  19  ar  
 38  18  20  ar  
 39  19  21  ar  
 40  19  42  1   
 41  20  22  ar  
 42  20  43  1   
 43  21  23  ar  
 44  21  44  1   
 45  22  23  ar  
 46  22  45  1   
 47  23  46  1   
@<TRIPOS>SUBSTRUCTURE
  1 ****  13 GROUP 4 **** **** 0

# MOE 2024.06 (io_trps.svl 2023.06)
