@<TRIPOS>MOLECULE
NONAME
50 51 1 0 0 
SMALL
USER_CHARGES


@<TRIPOS>ATOM
  1 O       -5.3660     0.4850    -0.3680 O.3   1 <1>  -0.5600 
  2 C       -6.2100     0.0600    -1.3950 C.3   1 <1>   0.2640 
  3 C       -4.0330     0.6650    -0.7340 C.3   1 <1>   0.1200 
  4 C       -7.6350     0.0760    -0.8720 C.ar  1 <1>  -0.1440 
  5 C       -3.2450     1.0880     0.5170 C.3   1 <1>   0.2000 
  6 C       -8.5310     1.0410    -1.3020 C.ar  1 <1>  -0.1500 
  7 C       -8.0590    -0.8740     0.0410 C.ar  1 <1>  -0.1500 
  8 O       -3.9970     2.0370     1.2130 O.3   1 <1>  -0.6800 
  9 C       -1.8410     1.6650     0.2150 C.3   1 <1>   0.3430 
 10 C       -9.8360     1.0730    -0.8390 C.ar  1 <1>   0.0830 
 11 C       -9.3630    -0.8670     0.5080 C.ar  1 <1>  -0.1500 
 12 N       -1.8640     3.1620     0.1790 N.4   1 <1>  -0.9590 
 13 O      -10.5920     2.0900    -1.3420 O.3   1 <1>  -0.3620 
 14 C      -10.2720     0.0950     0.0720 C.ar  1 <1>   0.0830 
 15 C       -2.2120     3.7280    -1.1540 C.3   1 <1>   0.3430 
 16 C       -0.6330     3.7630     0.7630 C.3   1 <1>   0.3430 
 17 C      -11.6270     2.6760    -0.5850 C.3   1 <1>   0.0400 
 18 O      -11.5700     0.0890     0.4990 O.3   1 <1>  -0.3630 
 19 C       -2.4160     5.2390    -1.0350 C.3   1 <1>  -0.1600 
 20 C       -0.8150     5.2750     0.9090 C.3   1 <1>  -0.1600 
 21 C      -12.0950    -0.9560     1.2880 C.3   1 <1>   0.0400 
 22 C       -1.1930     5.9340    -0.4240 C.3   1 <1>  -0.1600 
 23 H       -5.9290    -0.9370    -1.6870 H     1 <1>   0.0800 
 24 H       -6.1100     0.7270    -2.2330 H     1 <1>   0.0800 
 25 H       -3.9890     1.4230    -1.4940 H     1 <1>   0.0800 
 26 H       -3.6500    -0.2620    -1.1260 H     1 <1>   0.0800 
 27 H       -3.1410     0.2240     1.1520 H     1 <1>   0.0800 
 28 H       -8.2250     1.7940    -2.0060 H     1 <1>   0.1500 
 29 H       -7.3730    -1.6230     0.3940 H     1 <1>   0.1500 
 30 H       -4.9390     1.7330     1.1810 H     1 <1>   0.4000 
 31 H       -1.4520     1.2600    -0.7050 H     1 <1>   0.0800 
 32 H       -1.1880     1.3440     1.0100 H     1 <1>   0.0800 
 33 H       -9.6450    -1.6240     1.2120 H     1 <1>   0.1500 
 34 H       -2.6590     3.3890     0.8110 H     1 <1>   0.4500 
 35 H       -3.1200     3.2790    -1.5210 H     1 <1>   0.0800 
 36 H       -1.4190     3.5260    -1.8550 H     1 <1>   0.0800 
 37 H        0.2100     3.5620     0.1230 H     1 <1>   0.0800 
 38 H       -0.4360     3.3330     1.7330 H     1 <1>   0.0800 
 39 H      -11.8360     3.6460    -0.9980 H     1 <1>   0.0800 
 40 H      -11.3050     2.7710     0.4370 H     1 <1>   0.0800 
 41 H      -12.5020     2.0550    -0.6540 H     1 <1>   0.0800 
 42 H       -3.2860     5.4310    -0.4310 H     1 <1>   0.0800 
 43 H       -2.6080     5.6470    -2.0120 H     1 <1>   0.0800 
 44 H        0.1000     5.7060     1.2730 H     1 <1>   0.0800 
 45 H       -1.5780     5.4710     1.6430 H     1 <1>   0.0800 
 46 H      -13.1430    -0.7680     1.4360 H     1 <1>   0.0800 
 47 H      -11.5880    -0.9660     2.2370 H     1 <1>   0.0800 
 48 H      -11.9620    -1.8880     0.7680 H     1 <1>   0.0800 
 49 H       -1.4070     6.9790    -0.2670 H     1 <1>   0.0800 
 50 H       -0.3620     5.8690    -1.1070 H     1 <1>   0.0800 
@<TRIPOS>BOND
  1   1   2  1   
  2   1   3  1   
  3   2   4  1   
  4   2  23  1   
  5   2  24  1   
  6   3   5  1   
  7   3  25  1   
  8   3  26  1   
  9   4   6  ar  
 10   4   7  ar  
 11   5   8  1   
 12   5   9  1   
 13   5  27  1   
 14   6  10  ar  
 15   6  28  1   
 16   7  11  ar  
 17   7  29  1   
 18   8  30  1   
 19   9  12  1   
 20   9  31  1   
 21   9  32  1   
 22  10  13  1   
 23  10  14  ar  
 24  11  14  ar  
 25  11  33  1   
 26  12  15  1   
 27  12  16  1   
 28  12  34  1   
 29  13  17  1   
 30  14  18  1   
 31  15  19  1   
 32  15  35  1   
 33  15  36  1   
 34  16  20  1   
 35  16  37  1   
 36  16  38  1   
 37  17  39  1   
 38  17  40  1   
 39  17  41  1   
 40  18  21  1   
 41  19  22  1   
 42  19  42  1   
 43  19  43  1   
 44  20  22  1   
 45  20  44  1   
 46  20  45  1   
 47  21  46  1   
 48  21  47  1   
 49  21  48  1   
 50  22  49  1   
 51  22  50  1   
@<TRIPOS>SUBSTRUCTURE
  1 ****   1 GROUP 4 **** **** 0

# MOE 2024.06 (io_trps.svl 2023.06)
