@<TRIPOS>MOLECULE
NONAME
51 52 1 0 0 
SMALL
USER_CHARGES


@<TRIPOS>ATOM
  1 O        0.3010    -0.8410     1.4180 O.2   1 <1>  -0.5700 
  2 C        0.3430    -2.0000     1.0610 C.2   1 <1>   0.7800 
  3 O       -0.7720    -2.6320     0.7020 O.3   1 <1>  -0.4300 
  4 N        1.5220    -2.6940     0.9800 N.am  1 <1>  -0.6600 
  5 C       -2.0230    -1.9850     0.7730 C.3   1 <1>   0.1200 
  6 C        1.6310    -4.0580     0.3840 C.3   1 <1>   0.1400 
  7 C        2.8250    -2.0550     1.3300 C.3   1 <1>   0.1400 
  8 C       -3.0910    -2.9660     0.2990 C.3   1 <1>  -0.2400 
  9 C        2.5750    -4.0340    -0.8350 C.3   1 <1>   0.3430 
 10 C        3.7560    -2.0380     0.1060 C.3   1 <1>   0.3430 
 11 N        3.9070    -3.4100    -0.5110 N.4   1 <1>  -0.9590 
 12 C        4.8000    -3.3720    -1.7000 C.3   1 <1>   0.4860 
 13 C        6.1830    -2.9630    -1.2370 C.ar  1 <1>  -0.1430 
 14 C        6.6620    -1.6900    -1.4970 C.ar  1 <1>  -0.1500 
 15 C        6.9780    -3.8520    -0.5320 C.ar  1 <1>  -0.1500 
 16 C        7.9160    -1.2980    -1.0600 C.ar  1 <1>   0.0820 
 17 C        8.2360    -3.4860    -0.0830 C.ar  1 <1>   0.0820 
 18 O        8.2540    -0.0140    -1.3560 O.3   1 <1>  -0.3620 
 19 C        8.7320    -2.2070    -0.3740 C.ar  1 <1>   0.0820 
 20 O        8.8920    -4.4500     0.6190 O.3   1 <1>  -0.3630 
 21 C        8.9520     0.7720    -0.4120 C.3   1 <1>   0.0400 
 22 O       10.0040    -1.8660    -0.0350 O.3   1 <1>  -0.3630 
 23 C        9.7580    -4.1120     1.6820 C.3   1 <1>   0.0400 
 24 C       10.9640    -2.0980    -1.0410 C.3   1 <1>   0.0400 
 25 H       -1.9950    -1.1110     0.1440 H     1 <1>   0.0800 
 26 H       -2.1980    -1.6890     1.7950 H     1 <1>   0.0800 
 27 H        0.6660    -4.4200     0.0740 H     1 <1>   0.0800 
 28 H        2.0080    -4.7400     1.1270 H     1 <1>   0.0800 
 29 H        3.2850    -2.6020     2.1350 H     1 <1>   0.0800 
 30 H        2.6740    -1.0450     1.6720 H     1 <1>   0.0800 
 31 H       -2.9030    -3.2590    -0.7180 H     1 <1>   0.0800 
 32 H       -4.0570    -2.4970     0.3450 H     1 <1>   0.0800 
 33 H       -3.1040    -3.8350     0.9310 H     1 <1>   0.0800 
 34 H        2.0940    -3.4730    -1.6200 H     1 <1>   0.0800 
 35 H        2.7160    -5.0420    -1.1880 H     1 <1>   0.0800 
 36 H        4.7200    -1.6600     0.4060 H     1 <1>   0.0800 
 37 H        3.3470    -1.3550    -0.6210 H     1 <1>   0.0800 
 38 H        4.3820    -3.9950     0.1880 H     1 <1>   0.4500 
 39 H        4.4290    -2.6690    -2.4280 H     1 <1>   0.0800 
 40 H        4.8540    -4.3460    -2.1590 H     1 <1>   0.0800 
 41 H        6.0750    -0.9720    -2.0440 H     1 <1>   0.1500 
 42 H        6.6440    -4.8520    -0.3170 H     1 <1>   0.1500 
 43 H        8.7530     1.8070    -0.6240 H     1 <1>   0.0800 
 44 H       10.0050     0.5820    -0.5070 H     1 <1>   0.0800 
 45 H        8.6110     0.5270     0.5790 H     1 <1>   0.0800 
 46 H        9.8510    -4.9690     2.3250 H     1 <1>   0.0800 
 47 H       10.7220    -3.8580     1.2800 H     1 <1>   0.0800 
 48 H        9.3440    -3.2830     2.2290 H     1 <1>   0.0800 
 49 H       11.9260    -1.7970    -0.6670 H     1 <1>   0.0800 
 50 H       10.9720    -3.1480    -1.2800 H     1 <1>   0.0800 
 51 H       10.7080    -1.5180    -1.9100 H     1 <1>   0.0800 
@<TRIPOS>BOND
  1   1   2  2   
  2   2   3  1   
  3   2   4  am  
  4   3   5  1   
  5   4   6  1   
  6   4   7  1   
  7   5   8  1   
  8   5  25  1   
  9   5  26  1   
 10   6   9  1   
 11   6  27  1   
 12   6  28  1   
 13   7  10  1   
 14   7  29  1   
 15   7  30  1   
 16   8  31  1   
 17   8  32  1   
 18   8  33  1   
 19   9  11  1   
 20   9  34  1   
 21   9  35  1   
 22  10  11  1   
 23  10  36  1   
 24  10  37  1   
 25  11  12  1   
 26  11  38  1   
 27  12  13  1   
 28  12  39  1   
 29  12  40  1   
 30  13  14  ar  
 31  13  15  ar  
 32  14  16  ar  
 33  14  41  1   
 34  15  17  ar  
 35  15  42  1   
 36  16  18  1   
 37  16  19  ar  
 38  17  19  ar  
 39  17  20  1   
 40  18  21  1   
 41  19  22  1   
 42  20  23  1   
 43  21  43  1   
 44  21  44  1   
 45  21  45  1   
 46  22  24  1   
 47  23  46  1   
 48  23  47  1   
 49  23  48  1   
 50  24  49  1   
 51  24  50  1   
 52  24  51  1   
@<TRIPOS>SUBSTRUCTURE
  1 ****  10 GROUP 4 **** **** 0

# MOE 2024.06 (io_trps.svl 2023.06)
