@<TRIPOS>MOLECULE
NONAME
38 39 1 0 0 
SMALL
USER_CHARGES


@<TRIPOS>ATOM
  1 S       -1.7100     4.7450     0.1190 S.3   1 <1>  -0.2860 
  2 C       -3.4960     4.9040     0.1440 C.2   1 <1>   0.2420 
  3 C       -1.2860     3.5120     1.4380 C.3   1 <1>   0.1310 
  4 N       -4.1250     5.6350    -0.7040 N.2   1 <1>  -0.5650 
  5 N       -4.2680     4.2670     1.0540 N.pl3 1 <1>   0.0330 
  6 C        0.2180     3.3420     1.5380 C.2   1 <1>   0.6590 
  7 C       -5.4300     5.4810    -0.3410 C.ar  1 <1>   0.2270 
  8 C       -5.5410     4.6340     0.7510 C.ar  1 <1>  -0.1520 
  9 O        0.8210     3.6840     2.5230 O.2   1 <1>  -0.5700 
 10 O        0.8170     2.7710     0.5020 O.3   1 <1>  -0.4300 
 11 C       -6.5700     6.0420    -0.9090 C.ar  1 <1>  -0.1500 
 12 C       -6.7830     4.3240     1.3050 C.ar  1 <1>  -0.1500 
 13 C        2.2120     2.5720     0.4770 C.3   1 <1>   0.1200 
 14 C       -7.8080     5.7420    -0.3670 C.ar  1 <1>   0.0830 
 15 C       -7.9060     4.8840     0.7370 C.ar  1 <1>  -0.1500 
 16 C        2.5770     1.9110    -0.8520 C.3   1 <1>  -0.1600 
 17 O       -8.9840     6.2350    -0.8440 O.3   1 <1>  -0.3630 
 18 C        4.0880     1.6640    -0.9510 C.3   1 <1>  -0.1600 
 19 C       -8.9950     7.1080    -1.9520 C.3   1 <1>   0.0400 
 20 C        4.4520     1.0020    -2.2830 C.3   1 <1>  -0.2400 
 21 H       -1.7490     2.5810     1.1710 H     1 <1>   0.0800 
 22 H       -1.6770     3.8860     2.3650 H     1 <1>   0.0800 
 23 H       -3.9720     3.6570     1.8150 H     1 <1>   0.2700 
 24 H       -6.4340     6.6900    -1.7510 H     1 <1>   0.1500 
 25 H       -6.8590     3.6660     2.1530 H     1 <1>   0.1500 
 26 H        2.4820     1.9440     1.3090 H     1 <1>   0.0800 
 27 H        2.6930     3.5310     0.5760 H     1 <1>   0.0800 
 28 H       -8.8840     4.6740     1.1310 H     1 <1>   0.1500 
 29 H        2.2660     2.5510    -1.6600 H     1 <1>   0.0800 
 30 H        2.0560     0.9730    -0.9340 H     1 <1>   0.0800 
 31 H        4.4060     1.0280    -0.1420 H     1 <1>   0.0800 
 32 H        4.6150     2.6000    -0.8660 H     1 <1>   0.0800 
 33 H      -10.0160     7.3730    -2.1580 H     1 <1>   0.0800 
 34 H       -8.5710     6.6010    -2.8000 H     1 <1>   0.0800 
 35 H       -8.4300     7.9900    -1.7070 H     1 <1>   0.0800 
 36 H        3.9540     0.0530    -2.3800 H     1 <1>   0.0800 
 37 H        5.5140     0.8380    -2.3340 H     1 <1>   0.0800 
 38 H        4.1630     1.6310    -3.1070 H     1 <1>   0.0800 
@<TRIPOS>BOND
  1   1   2  1   
  2   1   3  1   
  3   2   4  2   
  4   2   5  1   
  5   3   6  1   
  6   3  21  1   
  7   3  22  1   
  8   4   7  1   
  9   5   8  1   
 10   5  23  1   
 11   6   9  2   
 12   6  10  1   
 13   7   8  ar  
 14   7  11  ar  
 15   8  12  ar  
 16  10  13  1   
 17  11  14  ar  
 18  11  24  1   
 19  12  15  ar  
 20  12  25  1   
 21  13  16  1   
 22  13  26  1   
 23  13  27  1   
 24  14  15  ar  
 25  14  17  1   
 26  15  28  1   
 27  16  18  1   
 28  16  29  1   
 29  16  30  1   
 30  17  19  1   
 31  18  20  1   
 32  18  31  1   
 33  18  32  1   
 34  19  33  1   
 35  19  34  1   
 36  19  35  1   
 37  20  36  1   
 38  20  37  1   
 39  20  38  1   
@<TRIPOS>SUBSTRUCTURE
  1 ****   2 GROUP 4 **** **** 0

# MOE 2024.06 (io_trps.svl 2023.06)
