@<TRIPOS>MOLECULE
NONAME
48 50 1 0 0 
SMALL
USER_CHARGES


@<TRIPOS>ATOM
  1 O       -0.9240     1.2630    -1.0990 O.2   1 <1>  -0.5700 
  2 C       -0.8880     2.2240    -0.3180 C.2   1 <1>   0.6160 
  3 N        0.0610     3.2070    -0.2770 N.am  1 <1>  -0.1570 
  4 C       -1.8560     2.4960     0.6550 C.2   1 <1>  -0.1240 
  5 N       -0.3680     4.1170     0.7430 N.pl3 1 <1>  -0.4890 
  6 C        1.4270     2.9350    -0.4850 C.ar  1 <1>   0.1170 
  7 C       -1.5170     3.6510     1.2830 C.2   1 <1>  -0.0380 
  8 C       -3.0210     1.5670     0.8700 C.3   1 <1>   0.4810 
  9 C        0.2980     5.4370     0.9050 C.3   1 <1>   0.1290 
 10 C        2.2950     2.7320     0.5840 C.ar  1 <1>  -0.1500 
 11 C        1.9340     2.8610    -1.7770 C.ar  1 <1>  -0.1500 
 12 C       -2.2440     4.3790     2.4000 C.3   1 <1>  -0.1020 
 13 N       -4.1780     1.9810     0.0150 N.4   1 <1>  -0.9590 
 14 C        3.6360     2.4720     0.3680 C.ar  1 <1>  -0.1500 
 15 C        3.2750     2.6000    -1.9980 C.ar  1 <1>  -0.1500 
 16 C       -5.4870     1.3780     0.3860 C.3   1 <1>   0.4230 
 17 C       -3.8480     1.7370    -1.4340 C.3   1 <1>   0.3430 
 18 C        4.1280     2.4070    -0.9250 C.ar  1 <1>  -0.1500 
 19 C       -6.6040     2.1330    -0.3590 C.3   1 <1>  -0.1600 
 20 C       -5.7410     1.4340     1.8930 C.3   1 <1>  -0.2400 
 21 C       -5.0890     1.7510    -2.3370 C.3   1 <1>  -0.1600 
 22 C       -6.2130     2.6200    -1.7660 C.3   1 <1>  -0.1600 
 23 H       -3.2920     1.6120     1.9110 H     1 <1>   0.0800 
 24 H       -2.7290     0.5550     0.6380 H     1 <1>   0.0800 
 25 H        0.4060     5.9050    -0.0580 H     1 <1>   0.0800 
 26 H        1.2730     5.3000     1.3380 H     1 <1>   0.0800 
 27 H       -0.2820     6.0780     1.5430 H     1 <1>   0.0800 
 28 H        1.9150     2.7780     1.5890 H     1 <1>   0.1500 
 29 H        1.2720     3.0060    -2.6120 H     1 <1>   0.1500 
 30 H       -3.1040     3.8280     2.7290 H     1 <1>   0.0800 
 31 H       -1.5820     4.5090     3.2380 H     1 <1>   0.0800 
 32 H       -2.5630     5.3480     2.0600 H     1 <1>   0.0800 
 33 H       -4.2900     2.9940     0.1250 H     1 <1>   0.4500 
 34 H        4.2980     2.3170     1.2020 H     1 <1>   0.1500 
 35 H        3.6540     2.5450    -3.0030 H     1 <1>   0.1500 
 36 H       -5.4980     0.3470     0.0670 H     1 <1>   0.0800 
 37 H       -3.3480     0.7870    -1.5460 H     1 <1>   0.0800 
 38 H       -3.1630     2.4990    -1.7700 H     1 <1>   0.0800 
 39 H        5.1710     2.2030    -1.0960 H     1 <1>   0.1500 
 40 H       -6.9380     2.9800     0.2180 H     1 <1>   0.0800 
 41 H       -7.4460     1.4670    -0.4410 H     1 <1>   0.0800 
 42 H       -5.6180     2.4330     2.2730 H     1 <1>   0.0800 
 43 H       -5.0990     0.7550     2.4240 H     1 <1>   0.0800 
 44 H       -6.7520     1.1250     2.0950 H     1 <1>   0.0800 
 45 H       -5.4430     0.7420    -2.4600 H     1 <1>   0.0800 
 46 H       -4.8070     2.1050    -3.3140 H     1 <1>   0.0800 
 47 H       -5.8760     3.6420    -1.7140 H     1 <1>   0.0800 
 48 H       -7.0720     2.5960    -2.4160 H     1 <1>   0.0800 
@<TRIPOS>BOND
  1   1   2  2   
  2   2   3  am  
  3   2   4  1   
  4   3   5  1   
  5   3   6  1   
  6   4   7  2   
  7   4   8  1   
  8   5   7  1   
  9   5   9  1   
 10   6  10  ar  
 11   6  11  ar  
 12   7  12  1   
 13   8  13  1   
 14   8  23  1   
 15   8  24  1   
 16   9  25  1   
 17   9  26  1   
 18   9  27  1   
 19  10  14  ar  
 20  10  28  1   
 21  11  15  ar  
 22  11  29  1   
 23  12  30  1   
 24  12  31  1   
 25  12  32  1   
 26  13  16  1   
 27  13  17  1   
 28  13  33  1   
 29  14  18  ar  
 30  14  34  1   
 31  15  18  ar  
 32  15  35  1   
 33  16  19  1   
 34  16  20  1   
 35  16  36  1   
 36  17  21  1   
 37  17  37  1   
 38  17  38  1   
 39  18  39  1   
 40  19  22  1   
 41  19  40  1   
 42  19  41  1   
 43  20  42  1   
 44  20  43  1   
 45  20  44  1   
 46  21  22  1   
 47  21  45  1   
 48  21  46  1   
 49  22  47  1   
 50  22  48  1   
@<TRIPOS>SUBSTRUCTURE
  1 ****   2 GROUP 4 **** **** 0

# MOE 2024.06 (io_trps.svl 2023.06)
