@<TRIPOS>MOLECULE
NONAME
45 46 1 0 0 
SMALL
USER_CHARGES


@<TRIPOS>ATOM
  1 S       -0.1440    -0.1620    -1.2170 S.o2  1 <1>   1.4470 
  2 O       -0.7370    -1.3670    -1.7550 O.2   1 <1>  -0.6500 
  3 O        0.1680     0.9180    -2.1290 O.2   1 <1>  -0.6500 
  4 N       -1.2190     0.4900    -0.0750 N.am  1 <1>  -0.8490 
  5 C        1.3240    -0.5930    -0.2230 C.ar  1 <1>  -0.0090 
  6 C       -2.5970     0.5170    -0.5740 C.3   1 <1>   0.1960 
  7 C       -0.7830     1.8030     0.4040 C.3   1 <1>   0.1960 
  8 C        1.3200    -1.5760     0.7700 C.ar  1 <1>  -0.1440 
  9 C        2.5110     0.0950    -0.4460 C.ar  1 <1>  -0.1500 
 10 C       -3.3600    -0.6540     0.0370 C.3   1 <1>  -0.2400 
 11 C       -1.3780     2.0720     1.7850 C.3   1 <1>  -0.2400 
 12 C        2.4720    -1.8380     1.4940 C.ar  1 <1>  -0.1500 
 13 C        0.0690    -2.3850     1.0950 C.3   1 <1>  -0.0970 
 14 C        3.6820    -0.1530     0.2640 C.ar  1 <1>   0.0860 
 15 C        3.6340    -1.1370     1.2470 C.ar  1 <1>  -0.1500 
 16 C        4.8930     0.5910    -0.0190 C.2   1 <1>   0.5440 
 17 O        4.8350     1.7680    -0.3050 O.2   1 <1>  -0.5700 
 18 N        6.0970    -0.0600     0.0220 N.am  1 <1>  -0.5470 
 19 C        7.4030     0.3370    -0.1520 C.ar  1 <1>   0.4270 
 20 N        8.2380    -0.6900    -0.1510 N.ar  1 <1>  -0.6200 
 21 C        7.8170     1.6610    -0.3010 C.ar  1 <1>  -0.1500 
 22 C        9.5190    -0.3980    -0.3110 C.ar  1 <1>   0.1600 
 23 C        9.1530     1.9500    -0.4660 C.ar  1 <1>  -0.1500 
 24 C       10.0230     0.8800    -0.4700 C.ar  1 <1>  -0.1500 
 25 H       -2.6170     0.4550    -1.6510 H     1 <1>   0.0800 
 26 H       -3.0920     1.4310    -0.2950 H     1 <1>   0.0800 
 27 H       -1.0630     2.5730    -0.2970 H     1 <1>   0.0800 
 28 H        0.2910     1.8200     0.4990 H     1 <1>   0.0800 
 29 H        2.5380     0.8610    -1.2050 H     1 <1>   0.1500 
 30 H       -2.9240    -1.5880    -0.2700 H     1 <1>   0.0800 
 31 H       -4.3810    -0.6320    -0.2960 H     1 <1>   0.0800 
 32 H       -3.3450    -0.5870     1.1090 H     1 <1>   0.0800 
 33 H       -2.4490     2.1390     1.7430 H     1 <1>   0.0800 
 34 H       -0.9980     3.0040     2.1630 H     1 <1>   0.0800 
 35 H       -1.0960     1.2880     2.4640 H     1 <1>   0.0800 
 36 H        2.4700    -2.5940     2.2620 H     1 <1>   0.1500 
 37 H       -0.7350    -1.7330     1.3880 H     1 <1>   0.0800 
 38 H        0.2470    -3.0710     1.9030 H     1 <1>   0.0800 
 39 H       -0.2400    -2.9570     0.2390 H     1 <1>   0.0800 
 40 H        4.5110    -1.3520     1.8330 H     1 <1>   0.1500 
 41 H        6.0530    -1.0690     0.1310 H     1 <1>   0.3700 
 42 H        7.1030     2.4600    -0.2880 H     1 <1>   0.1500 
 43 H       10.2080    -1.2250    -0.3150 H     1 <1>   0.1500 
 44 H        9.5000     2.9620    -0.5850 H     1 <1>   0.1500 
 45 H       11.0790     1.0360    -0.5950 H     1 <1>   0.1500 
@<TRIPOS>BOND
  1   1   2  2   
  2   1   3  2   
  3   1   4  am  
  4   1   5  1   
  5   4   6  1   
  6   4   7  1   
  7   5   8  ar  
  8   5   9  ar  
  9   6  10  1   
 10   6  25  1   
 11   6  26  1   
 12   7  11  1   
 13   7  27  1   
 14   7  28  1   
 15   8  12  ar  
 16   8  13  1   
 17   9  14  ar  
 18   9  29  1   
 19  10  30  1   
 20  10  31  1   
 21  10  32  1   
 22  11  33  1   
 23  11  34  1   
 24  11  35  1   
 25  12  15  ar  
 26  12  36  1   
 27  13  37  1   
 28  13  38  1   
 29  13  39  1   
 30  14  15  ar  
 31  14  16  1   
 32  15  40  1   
 33  16  17  2   
 34  16  18  am  
 35  18  19  1   
 36  18  41  1   
 37  19  20  ar  
 38  19  21  ar  
 39  20  22  ar  
 40  21  23  ar  
 41  21  42  1   
 42  22  24  ar  
 43  22  43  1   
 44  23  24  ar  
 45  23  44  1   
 46  24  45  1   
@<TRIPOS>SUBSTRUCTURE
  1 ****   9 GROUP 4 **** **** 0

# MOE 2024.06 (io_trps.svl 2023.06)
