@<TRIPOS>MOLECULE
NONAME
55 58 1 0 0 
SMALL
USER_CHARGES


@<TRIPOS>ATOM
  1 O       -1.7300    -1.5250     1.7320 O.2   1 <1>  -0.5700 
  2 C       -2.2590    -1.3620     0.6480 C.2   1 <1>   0.5440 
  3 N       -1.6320    -1.8640    -0.4750 N.am  1 <1>  -0.6600 
  4 C       -3.5270    -0.6630     0.5760 C.ar  1 <1>   0.0860 
  5 C       -2.3470    -2.2350    -1.7330 C.3   1 <1>   0.1400 
  6 C       -0.2140    -2.3350    -0.4470 C.3   1 <1>   0.1400 
  7 C       -3.7760     0.3200    -0.3830 C.ar  1 <1>  -0.1500 
  8 C       -4.5510    -0.9400     1.4820 C.ar  1 <1>  -0.1500 
  9 C       -2.1260    -3.7220    -2.0660 C.3   1 <1>   0.1200 
 10 C       -0.1270    -3.8170    -0.8430 C.3   1 <1>   0.1200 
 11 C       -4.9900     0.9760    -0.4470 C.ar  1 <1>  -0.1500 
 12 C       -5.7660    -0.2850     1.4210 C.ar  1 <1>  -0.1500 
 13 O       -0.7610    -4.0350    -2.0730 O.3   1 <1>  -0.5600 
 14 C       -6.0100     0.6800     0.4510 C.ar  1 <1>   0.1170 
 15 N       -7.2520     1.3200     0.4370 N.am  1 <1>  -0.5470 
 16 C       -7.9350     1.9720    -0.5600 C.2   1 <1>   0.5690 
 17 O       -7.5140     2.0300    -1.6910 O.2   1 <1>  -0.5700 
 18 C       -9.2840     2.6360    -0.1810 C.3   1 <1>   0.2040 
 19 C       -9.9240     1.7870     0.9500 C.ar  1 <1>  -0.1430 
 20 C       -9.0090     4.0930     0.2640 C.3   1 <1>  -0.1600 
 21 C      -10.2790     2.6980    -1.3710 C.3   1 <1>  -0.1600 
 22 C      -10.0980     2.2480     2.2540 C.ar  1 <1>  -0.1500 
 23 C      -10.3130     0.4810     0.6670 C.ar  1 <1>  -0.1500 
 24 C       -8.6400     4.9930    -0.9180 C.3   1 <1>   0.1200 
 25 C       -9.9070     3.7440    -2.4320 C.3   1 <1>   0.1200 
 26 C      -10.6460     1.4350     3.2310 C.ar  1 <1>  -0.1500 
 27 C      -10.8600    -0.3340     1.6420 C.ar  1 <1>  -0.1500 
 28 O       -9.6970     4.9760    -1.8190 O.3   1 <1>  -0.5600 
 29 C      -11.0280     0.1430     2.9270 C.ar  1 <1>  -0.1500 
 30 H       -1.9750    -1.6330    -2.5430 H     1 <1>   0.0800 
 31 H       -3.4030    -2.0560    -1.6390 H     1 <1>   0.0800 
 32 H        0.2150    -2.2020     0.5310 H     1 <1>   0.0800 
 33 H        0.3650    -1.7500    -1.1400 H     1 <1>   0.0800 
 34 H       -2.9990     0.5740    -1.0830 H     1 <1>   0.1500 
 35 H       -4.3770    -1.6810     2.2430 H     1 <1>   0.1500 
 36 H       -2.5190    -3.9470    -3.0410 H     1 <1>   0.0800 
 37 H       -2.6180    -4.3480    -1.3420 H     1 <1>   0.0800 
 38 H       -0.5950    -4.4340    -0.0960 H     1 <1>   0.0800 
 39 H        0.9010    -4.1140    -0.9450 H     1 <1>   0.0800 
 40 H       -5.1420     1.7290    -1.2000 H     1 <1>   0.1500 
 41 H       -6.5330    -0.5280     2.1340 H     1 <1>   0.1500 
 42 H       -7.8070     1.2020     1.2880 H     1 <1>   0.3700 
 43 H       -8.2130     4.1180     0.9870 H     1 <1>   0.0800 
 44 H       -9.8900     4.5150     0.7140 H     1 <1>   0.0800 
 45 H      -11.2580     2.9420    -0.9990 H     1 <1>   0.0800 
 46 H      -10.3450     1.7410    -1.8530 H     1 <1>   0.0800 
 47 H       -9.8170     3.2430     2.5480 H     1 <1>   0.1500 
 48 H      -10.1880     0.0730    -0.3210 H     1 <1>   0.1500 
 49 H       -7.7440     4.6640    -1.4190 H     1 <1>   0.0800 
 50 H       -8.5060     6.0100    -0.5920 H     1 <1>   0.0800 
 51 H      -10.7110     3.8630    -3.1370 H     1 <1>   0.0800 
 52 H       -9.0170     3.4740    -2.9750 H     1 <1>   0.0800 
 53 H      -10.7760     1.8100     4.2310 H     1 <1>   0.1500 
 54 H      -11.1570    -1.3400     1.3990 H     1 <1>   0.1500 
 55 H      -11.4560    -0.4880     3.6870 H     1 <1>   0.1500 
@<TRIPOS>BOND
  1   1   2  2   
  2   2   3  am  
  3   2   4  1   
  4   3   5  1   
  5   3   6  1   
  6   4   7  ar  
  7   4   8  ar  
  8   5   9  1   
  9   5  30  1   
 10   5  31  1   
 11   6  10  1   
 12   6  32  1   
 13   6  33  1   
 14   7  11  ar  
 15   7  34  1   
 16   8  12  ar  
 17   8  35  1   
 18   9  13  1   
 19   9  36  1   
 20   9  37  1   
 21  10  13  1   
 22  10  38  1   
 23  10  39  1   
 24  11  14  ar  
 25  11  40  1   
 26  12  14  ar  
 27  12  41  1   
 28  14  15  1   
 29  15  16  am  
 30  15  42  1   
 31  16  17  2   
 32  16  18  1   
 33  18  19  1   
 34  18  20  1   
 35  18  21  1   
 36  19  22  ar  
 37  19  23  ar  
 38  20  24  1   
 39  20  43  1   
 40  20  44  1   
 41  21  25  1   
 42  21  45  1   
 43  21  46  1   
 44  22  26  ar  
 45  22  47  1   
 46  23  27  ar  
 47  23  48  1   
 48  24  28  1   
 49  24  49  1   
 50  24  50  1   
 51  25  28  1   
 52  25  51  1   
 53  25  52  1   
 54  26  29  ar  
 55  26  53  1   
 56  27  29  ar  
 57  27  54  1   
 58  29  55  1   
@<TRIPOS>SUBSTRUCTURE
  1 ****  14 GROUP 4 **** **** 0

# MOE 2024.06 (io_trps.svl 2023.06)
