@<TRIPOS>MOLECULE
NONAME
34 34 1 0 0 
SMALL
USER_CHARGES


@<TRIPOS>ATOM
  1 O       -0.7400    -0.1770     1.8780 O.2   1 <1>  -0.5700 
  2 C       -0.8730    -1.1250     1.1360 C.2   1 <1>   0.5690 
  3 N       -1.8370    -1.1360     0.1510 N.am  1 <1>  -0.6600 
  4 C        0.0540    -2.3140     1.3670 C.3   1 <1>   0.0440 
  5 C       -2.7510     0.0280    -0.0070 C.3   1 <1>   0.1400 
  6 C       -1.9170    -2.1670    -0.9220 C.3   1 <1>   0.1400 
  7 C        1.1680    -2.4520     0.3220 C.ar  1 <1>  -0.1440 
  8 C       -3.9150    -0.0830     0.9760 C.3   1 <1>  -0.2400 
  9 C       -2.9690    -3.2150    -0.5700 C.3   1 <1>  -0.2400 
 10 C        1.5170    -3.6750    -0.2500 C.ar  1 <1>  -0.1440 
 11 C        1.8530    -1.3070    -0.0600 C.ar  1 <1>  -0.1500 
 12 C        2.5270    -3.7220    -1.2000 C.ar  1 <1>  -0.1500 
 13 C        0.8300    -4.9800     0.1320 C.3   1 <1>  -0.0970 
 14 C        2.8600    -1.3630    -1.0060 C.ar  1 <1>  -0.1500 
 15 C        3.1960    -2.5730    -1.5790 C.ar  1 <1>  -0.1500 
 16 H       -0.5560    -3.1910     1.4180 H     1 <1>   0.0800 
 17 H        0.5150    -2.1970     2.3300 H     1 <1>   0.0800 
 18 H       -3.1260     0.0750    -1.0150 H     1 <1>   0.0800 
 19 H       -2.2060     0.9370     0.1840 H     1 <1>   0.0800 
 20 H       -0.9640    -2.6430    -1.0590 H     1 <1>   0.0800 
 21 H       -2.1670    -1.6980    -1.8590 H     1 <1>   0.0800 
 22 H       -4.4870    -0.9730     0.7940 H     1 <1>   0.0800 
 23 H       -4.5610     0.7680     0.8670 H     1 <1>   0.0800 
 24 H       -3.5430    -0.0980     1.9860 H     1 <1>   0.0800 
 25 H       -2.7640    -3.6480     0.3920 H     1 <1>   0.0800 
 26 H       -2.9570    -3.9970    -1.3070 H     1 <1>   0.0800 
 27 H       -3.9490    -2.7760    -0.5640 H     1 <1>   0.0800 
 28 H        1.6070    -0.3540     0.3800 H     1 <1>   0.1500 
 29 H        2.8050    -4.6570    -1.6520 H     1 <1>   0.1500 
 30 H        0.8800    -5.1250     1.1960 H     1 <1>   0.0800 
 31 H        1.3060    -5.8200    -0.3400 H     1 <1>   0.0800 
 32 H       -0.2000    -4.9600    -0.1750 H     1 <1>   0.0800 
 33 H        3.3790    -0.4650    -1.2920 H     1 <1>   0.1500 
 34 H        3.9780    -2.6220    -2.3160 H     1 <1>   0.1500 
@<TRIPOS>BOND
  1   1   2  2   
  2   2   3  am  
  3   2   4  1   
  4   3   5  1   
  5   3   6  1   
  6   4   7  1   
  7   4  16  1   
  8   4  17  1   
  9   5   8  1   
 10   5  18  1   
 11   5  19  1   
 12   6   9  1   
 13   6  20  1   
 14   6  21  1   
 15   7  10  ar  
 16   7  11  ar  
 17   8  22  1   
 18   8  23  1   
 19   8  24  1   
 20   9  25  1   
 21   9  26  1   
 22   9  27  1   
 23  10  12  ar  
 24  10  13  1   
 25  11  14  ar  
 26  11  28  1   
 27  12  15  ar  
 28  12  29  1   
 29  13  30  1   
 30  13  31  1   
 31  13  32  1   
 32  14  15  ar  
 33  14  33  1   
 34  15  34  1   
@<TRIPOS>SUBSTRUCTURE
  1 ****   7 GROUP 4 **** **** 0

# MOE 2024.06 (io_trps.svl 2023.06)
