@<TRIPOS>MOLECULE
NONAME
50 52 1 0 0 
SMALL
USER_CHARGES


@<TRIPOS>ATOM
  1 CL       3.6970    -4.2850     2.5380 Cl    1 <1>  -0.1770 
  2 C        3.6770    -2.9880     1.3630 C.ar  1 <1>   0.1770 
  3 C        4.8530    -2.3890     0.9230 C.ar  1 <1>  -0.1440 
  4 C        2.4380    -2.5910     0.8960 C.ar  1 <1>  -0.1500 
  5 C        4.7660    -1.3580    -0.0180 C.ar  1 <1>   0.1170 
  6 C        6.2250    -2.8330     1.4410 C.3   1 <1>  -0.0970 
  7 C        2.3560    -1.5710    -0.0320 C.ar  1 <1>  -0.1500 
  8 N        5.9430    -0.7390    -0.4660 N.am  1 <1>  -0.5470 
  9 C        3.5140    -0.9630    -0.4810 C.ar  1 <1>  -0.1500 
 10 C        6.2550     0.0950    -1.5000 C.2   1 <1>   0.5690 
 11 O        5.4660     0.5150    -2.3110 O.2   1 <1>  -0.5700 
 12 C        7.7290     0.4940    -1.6040 C.3   1 <1>   0.1710 
 13 N        8.6400    -0.4570    -0.8970 N.3   1 <1>  -0.8100 
 14 C        9.9540     0.1620    -0.6100 C.3   1 <1>   0.1100 
 15 C        8.8500    -1.6910    -1.6990 C.3   1 <1>   0.1100 
 16 C       10.8960    -0.8060     0.1320 C.3   1 <1>   0.2090 
 17 C        9.7740    -2.6960    -0.9870 C.3   1 <1>   0.2090 
 18 N       11.0820    -2.0700    -0.6390 N.pl3 1 <1>  -0.8380 
 19 C       12.0440    -2.9490    -0.1200 C.ar  1 <1>   0.1000 
 20 C       11.9280    -3.6250     1.1100 C.ar  1 <1>   0.0830 
 21 C       13.1830    -3.1540    -0.8860 C.ar  1 <1>  -0.1500 
 22 O       10.8030    -3.4200     1.8660 O.3   1 <1>  -0.3620 
 23 C       12.9480    -4.4760     1.5240 C.ar  1 <1>  -0.1500 
 24 C       14.1910    -4.0010    -0.4670 C.ar  1 <1>  -0.1500 
 25 C       10.6390    -4.0330     3.1260 C.3   1 <1>   0.0400 
 26 C       14.0740    -4.6630     0.7400 C.ar  1 <1>  -0.1500 
 27 H        1.5500    -3.0770     1.2580 H     1 <1>   0.1500 
 28 H        6.1610    -3.6400     2.1450 H     1 <1>   0.0800 
 29 H        6.7180    -2.0110     1.9280 H     1 <1>   0.0800 
 30 H        6.8350    -3.1660     0.6200 H     1 <1>   0.0800 
 31 H        1.3980    -1.2500    -0.4050 H     1 <1>   0.1500 
 32 H        6.7990    -1.0090     0.0310 H     1 <1>   0.3700 
 33 H        3.4340    -0.1690    -1.2000 H     1 <1>   0.1500 
 34 H        7.8200     1.4700    -1.1630 H     1 <1>   0.0800 
 35 H        8.0030     0.5720    -2.6410 H     1 <1>   0.0800 
 36 H        9.8120     1.0360     0.0010 H     1 <1>   0.0800 
 37 H       10.4260     0.4660    -1.5280 H     1 <1>   0.0800 
 38 H        9.2910    -1.4390    -2.6490 H     1 <1>   0.0800 
 39 H        7.9050    -2.1690    -1.8890 H     1 <1>   0.0800 
 40 H       10.4820    -1.0270     1.1000 H     1 <1>   0.0800 
 41 H       11.8530    -0.3380     0.2760 H     1 <1>   0.0800 
 42 H        9.9490    -3.5410    -1.6290 H     1 <1>   0.0800 
 43 H        9.2900    -3.0490    -0.0940 H     1 <1>   0.0800 
 44 H       13.2670    -2.6350    -1.8230 H     1 <1>   0.1500 
 45 H       12.8920    -5.0080     2.4540 H     1 <1>   0.1500 
 46 H       15.0640    -4.1420    -1.0800 H     1 <1>   0.1500 
 47 H        9.6980    -3.7100     3.5330 H     1 <1>   0.0800 
 48 H       11.4420    -3.7240     3.7720 H     1 <1>   0.0800 
 49 H       10.6350    -5.1000     2.9970 H     1 <1>   0.0800 
 50 H       14.8570    -5.3230     1.0690 H     1 <1>   0.1500 
@<TRIPOS>BOND
  1   1   2  1   
  2   2   3  ar  
  3   2   4  ar  
  4   3   5  ar  
  5   3   6  1   
  6   4   7  ar  
  7   4  27  1   
  8   5   8  1   
  9   5   9  ar  
 10   6  28  1   
 11   6  29  1   
 12   6  30  1   
 13   7   9  ar  
 14   7  31  1   
 15   8  10  am  
 16   8  32  1   
 17   9  33  1   
 18  10  11  2   
 19  10  12  1   
 20  12  13  1   
 21  12  34  1   
 22  12  35  1   
 23  13  14  1   
 24  13  15  1   
 25  14  16  1   
 26  14  36  1   
 27  14  37  1   
 28  15  17  1   
 29  15  38  1   
 30  15  39  1   
 31  16  18  1   
 32  16  40  1   
 33  16  41  1   
 34  17  18  1   
 35  17  42  1   
 36  17  43  1   
 37  18  19  1   
 38  19  20  ar  
 39  19  21  ar  
 40  20  22  1   
 41  20  23  ar  
 42  21  24  ar  
 43  21  44  1   
 44  22  25  1   
 45  23  26  ar  
 46  23  45  1   
 47  24  26  ar  
 48  24  46  1   
 49  25  47  1   
 50  25  48  1   
 51  25  49  1   
 52  26  50  1   
@<TRIPOS>SUBSTRUCTURE
  1 ****  17 GROUP 4 **** **** 0

# MOE 2024.06 (io_trps.svl 2023.06)
