@<TRIPOS>MOLECULE
NONAME
58 60 1 0 0 
SMALL
USER_CHARGES


@<TRIPOS>ATOM
  1 O        0.0320    -2.9390     2.0630 O.2   1 <1>  -0.5700 
  2 C       -0.4050    -2.4260     1.0600 C.2   1 <1>   0.5690 
  3 N        0.3700    -1.7120     0.2060 N.am  1 <1>  -0.7300 
  4 C       -1.8930    -2.5750     0.7250 C.3   1 <1>   0.1710 
  5 C        1.8030    -1.4240     0.3520 C.3   1 <1>   0.2200 
  6 N       -2.4610    -1.4500    -0.0760 N.3   1 <1>  -0.8100 
  7 C        1.9630     0.0930     0.5200 C.3   1 <1>  -0.1600 
  8 C        2.5220    -2.0200    -0.8630 C.3   1 <1>  -0.1600 
  9 C       -3.8070    -1.7990    -0.5820 C.3   1 <1>   0.1100 
 10 C       -2.5460    -0.2130     0.7400 C.3   1 <1>   0.1100 
 11 C        3.3680     0.4840     1.0040 C.3   1 <1>  -0.1600 
 12 C        4.0330    -1.7410    -0.9280 C.3   1 <1>  -0.1600 
 13 C       -4.4410    -0.6660    -1.4140 C.3   1 <1>   0.2090 
 14 C       -3.1430     0.9760    -0.0390 C.3   1 <1>   0.2090 
 15 C        4.4050     0.6890    -0.1120 C.3   1 <1>  -0.1600 
 16 C        4.3450    -0.2840    -1.3000 C.3   1 <1>  -0.1600 
 17 N       -4.4420     0.6360    -0.6880 N.pl3 1 <1>  -0.8380 
 18 C       -5.6250     1.0530    -0.0750 C.ar  1 <1>   0.1000 
 19 C       -6.4080     2.0700    -0.6300 C.ar  1 <1>  -0.1430 
 20 C       -6.0370     0.4470     1.1060 C.ar  1 <1>  -0.1500 
 21 C       -7.5880     2.4600     0.0010 C.ar  1 <1>  -0.1430 
 22 C       -5.9250     2.7180    -1.9280 C.3   1 <1>  -0.0970 
 23 C       -7.2020     0.8350     1.7320 C.ar  1 <1>  -0.1500 
 24 C       -7.9750     1.8380     1.1790 C.ar  1 <1>  -0.1500 
 25 C       -8.4890     3.5540    -0.5560 C.3   1 <1>  -0.0970 
 26 H       -0.1150    -1.2700    -0.5800 H     1 <1>   0.3700 
 27 H       -2.4420    -2.6830     1.6430 H     1 <1>   0.0800 
 28 H       -1.9960    -3.4890     0.1700 H     1 <1>   0.0800 
 29 H        2.1650    -1.9130     1.2430 H     1 <1>   0.0800 
 30 H        1.2660     0.4110     1.2760 H     1 <1>   0.0800 
 31 H        1.7210     0.6080    -0.3930 H     1 <1>   0.0800 
 32 H        2.0600    -1.6630    -1.7660 H     1 <1>   0.0800 
 33 H        2.3850    -3.0870    -0.8280 H     1 <1>   0.0800 
 34 H       -4.4600    -2.0270     0.2420 H     1 <1>   0.0800 
 35 H       -3.7380    -2.6760    -1.2010 H     1 <1>   0.0800 
 36 H       -1.5630     0.0660     1.0780 H     1 <1>   0.0800 
 37 H       -3.1500    -0.3910     1.6110 H     1 <1>   0.0800 
 38 H        3.7270    -0.2630     1.6920 H     1 <1>   0.0800 
 39 H        3.2990     1.4040     1.5580 H     1 <1>   0.0800 
 40 H        4.4460    -2.3720    -1.6970 H     1 <1>   0.0800 
 41 H        4.5140    -2.0120    -0.0030 H     1 <1>   0.0800 
 42 H       -5.4520    -0.9310    -1.6690 H     1 <1>   0.0800 
 43 H       -3.8890    -0.5510    -2.3300 H     1 <1>   0.0800 
 44 H       -2.4470     1.2830    -0.7990 H     1 <1>   0.0800 
 45 H       -3.2860     1.8070     0.6310 H     1 <1>   0.0800 
 46 H        5.3830     0.6290     0.3330 H     1 <1>   0.0800 
 47 H        4.3010     1.6880    -0.5000 H     1 <1>   0.0800 
 48 H        3.6190     0.0670    -2.0130 H     1 <1>   0.0800 
 49 H        5.3010    -0.2540    -1.7950 H     1 <1>   0.0800 
 50 H       -5.4390    -0.3320     1.5330 H     1 <1>   0.1500 
 51 H       -5.9430     1.9880    -2.7160 H     1 <1>   0.0800 
 52 H       -4.9130     3.0570    -1.8040 H     1 <1>   0.0800 
 53 H       -6.5190     3.5580    -2.2290 H     1 <1>   0.0800 
 54 H       -7.5100     0.3590     2.6460 H     1 <1>   0.1500 
 55 H       -8.8820     2.1310     1.6760 H     1 <1>   0.1500 
 56 H       -7.9600     4.4900    -0.5720 H     1 <1>   0.0800 
 57 H       -9.3710     3.6750     0.0460 H     1 <1>   0.0800 
 58 H       -8.7970     3.3030    -1.5550 H     1 <1>   0.0800 
@<TRIPOS>BOND
  1   1   2  2   
  2   2   3  am  
  3   2   4  1   
  4   3   5  1   
  5   3  26  1   
  6   4   6  1   
  7   4  27  1   
  8   4  28  1   
  9   5   7  1   
 10   5   8  1   
 11   5  29  1   
 12   6   9  1   
 13   6  10  1   
 14   7  11  1   
 15   7  30  1   
 16   7  31  1   
 17   8  12  1   
 18   8  32  1   
 19   8  33  1   
 20   9  13  1   
 21   9  34  1   
 22   9  35  1   
 23  10  14  1   
 24  10  36  1   
 25  10  37  1   
 26  11  15  1   
 27  11  38  1   
 28  11  39  1   
 29  12  16  1   
 30  12  40  1   
 31  12  41  1   
 32  13  17  1   
 33  13  42  1   
 34  13  43  1   
 35  14  17  1   
 36  14  44  1   
 37  14  45  1   
 38  15  16  1   
 39  15  46  1   
 40  15  47  1   
 41  16  48  1   
 42  16  49  1   
 43  17  18  1   
 44  18  19  ar  
 45  18  20  ar  
 46  19  21  ar  
 47  19  22  1   
 48  20  23  ar  
 49  20  50  1   
 50  21  24  ar  
 51  21  25  1   
 52  22  51  1   
 53  22  52  1   
 54  22  53  1   
 55  23  24  ar  
 56  23  54  1   
 57  24  55  1   
 58  25  56  1   
 59  25  57  1   
 60  25  58  1   
@<TRIPOS>SUBSTRUCTURE
  1 ****  10 GROUP 4 **** **** 0

# MOE 2024.06 (io_trps.svl 2023.06)
