@<TRIPOS>MOLECULE
NONAME
35 36 1 0 0 
SMALL
USER_CHARGES


@<TRIPOS>ATOM
  1 O        0.1290    -0.0320     0.3220 O.2   1 <1>  -0.5700 
  2 C        1.0920     0.6890     0.1460 C.2   1 <1>   0.5440 
  3 N        0.9220     2.0500    -0.0280 N.am  1 <1>  -0.5390 
  4 C        2.4340     0.1280     0.1140 C.ar  1 <1>   0.0860 
  5 C       -0.1500     2.9360    -0.0300 C.2   1 <1>  -0.0290 
  6 C        2.6320    -1.2280    -0.1590 C.ar  1 <1>  -0.1500 
  7 C        3.5770     0.9000     0.3490 C.ar  1 <1>  -0.1500 
  8 C        0.0480     4.2880    -0.0890 C.2   1 <1>  -0.1240 
  9 C       -1.5390     2.2960     0.0390 C.3   1 <1>  -0.0220 
 10 C        3.8970    -1.7850    -0.2050 C.ar  1 <1>  -0.1500 
 11 C        4.8450     0.3490     0.3030 C.ar  1 <1>  -0.1500 
 12 C        1.3420     4.9220    -0.2020 C.2   1 <1>   0.4950 
 13 C       -1.1600     5.2390    -0.0390 C.3   1 <1>  -0.0220 
 14 C       -2.6840     3.2680    -0.2520 C.3   1 <1>  -0.1600 
 15 C        5.0080    -0.9950     0.0250 C.ar  1 <1>  -0.1500 
 16 O        2.3920     4.3210    -0.1550 O.2   1 <1>  -0.5700 
 17 C        1.4810     6.4210    -0.4030 C.3   1 <1>  -0.1790 
 18 C       -2.4460     4.5860     0.4740 C.3   1 <1>  -0.1600 
 19 H        1.8170     2.5450    -0.1450 H     1 <1>   0.3700 
 20 H        1.7730    -1.8520    -0.3380 H     1 <1>   0.1500 
 21 H        3.4860     1.9470     0.5790 H     1 <1>   0.1500 
 22 H       -1.6680     1.8740     1.0210 H     1 <1>   0.0800 
 23 H       -1.6020     1.4930    -0.6730 H     1 <1>   0.0800 
 24 H        4.0160    -2.8330    -0.4190 H     1 <1>   0.1500 
 25 H        5.7070     0.9680     0.4860 H     1 <1>   0.1500 
 26 H       -1.3370     5.6220    -1.0290 H     1 <1>   0.0800 
 27 H       -0.9530     6.0720     0.6090 H     1 <1>   0.0800 
 28 H       -3.6150     2.8300     0.0630 H     1 <1>   0.0800 
 29 H       -2.7400     3.4450    -1.3130 H     1 <1>   0.0800 
 30 H        5.9950    -1.4240    -0.0120 H     1 <1>   0.1500 
 31 H        0.8360     6.7600    -1.1910 H     1 <1>   0.0800 
 32 H        2.4940     6.6580    -0.6760 H     1 <1>   0.0800 
 33 H        1.2490     6.9370     0.5100 H     1 <1>   0.0800 
 34 H       -3.2790     5.2490     0.3170 H     1 <1>   0.0800 
 35 H       -2.3600     4.4010     1.5320 H     1 <1>   0.0800 
@<TRIPOS>BOND
  1   1   2  2   
  2   2   3  am  
  3   2   4  1   
  4   3   5  1   
  5   3  19  1   
  6   4   6  ar  
  7   4   7  ar  
  8   5   8  2   
  9   5   9  1   
 10   6  10  ar  
 11   6  20  1   
 12   7  11  ar  
 13   7  21  1   
 14   8  12  1   
 15   8  13  1   
 16   9  14  1   
 17   9  22  1   
 18   9  23  1   
 19  10  15  ar  
 20  10  24  1   
 21  11  15  ar  
 22  11  25  1   
 23  12  16  2   
 24  12  17  1   
 25  13  18  1   
 26  13  26  1   
 27  13  27  1   
 28  14  18  1   
 29  14  28  1   
 30  14  29  1   
 31  15  30  1   
 32  17  31  1   
 33  17  32  1   
 34  17  33  1   
 35  18  34  1   
 36  18  35  1   
@<TRIPOS>SUBSTRUCTURE
  1 ****   3 GROUP 4 **** **** 0

# MOE 2024.06 (io_trps.svl 2023.06)
