@<TRIPOS>MOLECULE
NONAME
52 55 1 0 0 
SMALL
USER_CHARGES


@<TRIPOS>ATOM
  1 O        2.1520     0.3150    -1.0480 O.3   1 <1>  -0.3630 
  2 C        1.6990    -0.9650    -0.9900 C.ar  1 <1>   0.0830 
  3 C        1.9490     1.1110     0.0980 C.3   1 <1>   0.0400 
  4 C        2.3560    -1.9610    -0.2190 C.ar  1 <1>   0.3100 
  5 C        0.5860    -1.2530    -1.7310 C.ar  1 <1>  -0.1500 
  6 N        3.4820    -1.6040     0.4550 N.ar  1 <1>  -0.6200 
  7 C        1.8200    -3.2810    -0.1960 C.ar  1 <1>   0.0000 
  8 C        0.0610    -2.5390    -1.7240 C.ar  1 <1>  -0.1500 
  9 C        4.0980    -2.5060     1.1550 C.ar  1 <1>   0.4100 
 10 C        0.6520    -3.5360    -0.9770 C.ar  1 <1>   0.0830 
 11 C        2.5110    -4.2330     0.6100 C.ar  1 <1>  -0.1440 
 12 N        5.2660    -2.1560     1.7990 N.pl3 1 <1>  -0.8380 
 13 C        3.6320    -3.8220     1.2620 C.ar  1 <1>  -0.1500 
 14 O        0.1280    -4.7920    -0.9770 O.3   1 <1>  -0.3630 
 15 C        2.0790    -5.6830     0.7980 C.3   1 <1>  -0.0970 
 16 C        5.4250    -0.7500     2.2970 C.3   1 <1>   0.2090 
 17 C        6.5380    -2.6830     1.2140 C.3   1 <1>   0.2090 
 18 C       -1.0160    -5.1570    -1.7190 C.3   1 <1>   0.0400 
 19 C        6.0310     0.1890     1.2320 C.3   1 <1>   0.2090 
 20 C        7.1090    -1.7350     0.1400 C.3   1 <1>   0.2090 
 21 N        7.3100    -0.3500     0.6690 N.pl3 1 <1>  -0.8380 
 22 C        7.9950     0.5130    -0.1780 C.ar  1 <1>   0.1000 
 23 C        7.4490     0.9410    -1.3840 C.ar  1 <1>  -0.1500 
 24 C        9.2590     0.9630     0.1790 C.ar  1 <1>  -0.1500 
 25 C        8.1500     1.8000    -2.2110 C.ar  1 <1>  -0.1500 
 26 C        9.9640     1.8220    -0.6450 C.ar  1 <1>  -0.1500 
 27 C        9.4100     2.2420    -1.8420 C.ar  1 <1>  -0.1500 
 28 H        2.2740     2.1110    -0.1270 H     1 <1>   0.0800 
 29 H        2.5260     0.7150     0.9140 H     1 <1>   0.0800 
 30 H        0.9020     1.1080     0.3440 H     1 <1>   0.0800 
 31 H        0.1180    -0.4850    -2.3190 H     1 <1>   0.1500 
 32 H       -0.8140    -2.7090    -2.3210 H     1 <1>   0.1500 
 33 H        4.2010    -4.4820     1.8870 H     1 <1>   0.1500 
 34 H        1.0860    -5.7210     1.2080 H     1 <1>   0.0800 
 35 H        2.7350    -6.2030     1.4710 H     1 <1>   0.0800 
 36 H        2.0930    -6.1980    -0.1460 H     1 <1>   0.0800 
 37 H        6.0660    -0.7550     3.1600 H     1 <1>   0.0800 
 38 H        4.4670    -0.3670     2.6020 H     1 <1>   0.0800 
 39 H        6.3640    -3.6480     0.7730 H     1 <1>   0.0800 
 40 H        7.2650    -2.8010     1.9980 H     1 <1>   0.0800 
 41 H       -1.2090    -6.1990    -1.5410 H     1 <1>   0.0800 
 42 H       -0.8210    -4.9960    -2.7640 H     1 <1>   0.0800 
 43 H       -1.8520    -4.5690    -1.3840 H     1 <1>   0.0800 
 44 H        6.2190     1.1510     1.6740 H     1 <1>   0.0800 
 45 H        5.3160     0.3220     0.4390 H     1 <1>   0.0800 
 46 H        6.4280    -1.7060    -0.6930 H     1 <1>   0.0800 
 47 H        8.0510    -2.1180    -0.2100 H     1 <1>   0.0800 
 48 H        6.4720     0.5970    -1.6680 H     1 <1>   0.1500 
 49 H        9.6770     0.6300     1.1110 H     1 <1>   0.1500 
 50 H        7.7160     2.1240    -3.1400 H     1 <1>   0.1500 
 51 H       10.9420     2.1620    -0.3540 H     1 <1>   0.1500 
 52 H        9.9560     2.9100    -2.4850 H     1 <1>   0.1500 
@<TRIPOS>BOND
  1   1   2  1   
  2   1   3  1   
  3   2   4  ar  
  4   2   5  ar  
  5   3  28  1   
  6   3  29  1   
  7   3  30  1   
  8   4   6  ar  
  9   4   7  ar  
 10   5   8  ar  
 11   5  31  1   
 12   6   9  ar  
 13   7  10  ar  
 14   7  11  ar  
 15   8  10  ar  
 16   8  32  1   
 17   9  12  1   
 18   9  13  ar  
 19  10  14  1   
 20  11  13  ar  
 21  11  15  1   
 22  12  16  1   
 23  12  17  1   
 24  13  33  1   
 25  14  18  1   
 26  15  34  1   
 27  15  35  1   
 28  15  36  1   
 29  16  19  1   
 30  16  37  1   
 31  16  38  1   
 32  17  20  1   
 33  17  39  1   
 34  17  40  1   
 35  18  41  1   
 36  18  42  1   
 37  18  43  1   
 38  19  21  1   
 39  19  44  1   
 40  19  45  1   
 41  20  21  1   
 42  20  46  1   
 43  20  47  1   
 44  21  22  1   
 45  22  23  ar  
 46  22  24  ar  
 47  23  25  ar  
 48  23  48  1   
 49  24  26  ar  
 50  24  49  1   
 51  25  27  ar  
 52  25  50  1   
 53  26  27  ar  
 54  26  51  1   
 55  27  52  1   
@<TRIPOS>SUBSTRUCTURE
  1 ****   6 GROUP 4 **** **** 0

# MOE 2024.06 (io_trps.svl 2023.06)
