@<TRIPOS>MOLECULE
NONAME
49 51 1 0 0 
SMALL
USER_CHARGES


@<TRIPOS>ATOM
  1 CL       0.9890    -0.5970     1.7070 Cl    1 <1>  -0.1770 
  2 C        2.2630     0.5100     1.2750 C.ar  1 <1>   0.1770 
  3 C        2.3060     1.7610     1.8590 C.ar  1 <1>  -0.1500 
  4 C        3.2170     0.1250     0.3530 C.ar  1 <1>  -0.1500 
  5 C        3.3220     2.6340     1.5120 C.ar  1 <1>  -0.1500 
  6 C        4.2270     1.0080     0.0130 C.ar  1 <1>  -0.1500 
  7 C        4.3100     2.2830     0.5860 C.ar  1 <1>   0.0860 
  8 C        5.3710     3.2170     0.2430 C.2   1 <1>   0.5440 
  9 O        5.2660     4.4040     0.4820 O.2   1 <1>  -0.5700 
 10 N        6.5240     2.7930    -0.3480 N.am  1 <1>  -0.7300 
 11 C        7.6860     3.6660    -0.6770 C.3   1 <1>   0.2010 
 12 C        8.9500     2.8720    -1.0370 C.2   1 <1>   0.5690 
 13 O        8.8530     1.6640    -1.1130 O.2   1 <1>  -0.5700 
 14 N       10.1440     3.5160    -1.2620 N.am  1 <1>  -0.6600 
 15 C       10.3440     4.9910    -1.2130 C.3   1 <1>   0.1400 
 16 C       11.3960     2.7560    -1.5300 C.3   1 <1>   0.1400 
 17 C       11.3470     5.3280    -0.1070 C.3   1 <1>  -0.1600 
 18 C       12.4240     3.0690    -0.4390 C.3   1 <1>  -0.1600 
 19 C       12.6800     4.5830    -0.3010 C.3   1 <1>  -0.0800 
 20 C       13.6460     4.8980     0.8550 C.3   1 <1>  -0.0160 
 21 C       15.0150     4.2650     0.6490 C.ar  1 <1>  -0.1430 
 22 C       15.9230     4.8380    -0.2290 C.ar  1 <1>  -0.1500 
 23 C       15.3690     3.1120     1.3340 C.ar  1 <1>  -0.1500 
 24 C       17.1680     4.2640    -0.4220 C.ar  1 <1>  -0.1500 
 25 C       16.6130     2.5370     1.1410 C.ar  1 <1>  -0.1500 
 26 C       17.5140     3.1130     0.2630 C.ar  1 <1>  -0.1500 
 27 H        1.5530     2.0440     2.5730 H     1 <1>   0.1500 
 28 H        3.1630    -0.8520    -0.0920 H     1 <1>   0.1500 
 29 H        3.3570     3.6120     1.9630 H     1 <1>   0.1500 
 30 H        4.9590     0.7010    -0.7140 H     1 <1>   0.1500 
 31 H        6.7370     1.7960    -0.4610 H     1 <1>   0.3700 
 32 H        7.8980     4.2910     0.1720 H     1 <1>   0.0800 
 33 H        7.4210     4.2940    -1.5070 H     1 <1>   0.0800 
 34 H        9.4200     5.5100    -1.0340 H     1 <1>   0.0800 
 35 H       10.7280     5.3210    -2.1640 H     1 <1>   0.0800 
 36 H       11.7830     3.0420    -2.4920 H     1 <1>   0.0800 
 37 H       11.2060     1.6960    -1.5500 H     1 <1>   0.0800 
 38 H       10.9140     5.0650     0.8430 H     1 <1>   0.0800 
 39 H       11.5220     6.3890    -0.1060 H     1 <1>   0.0800 
 40 H       13.3420     2.5630    -0.6820 H     1 <1>   0.0800 
 41 H       12.0680     2.6680     0.4940 H     1 <1>   0.0800 
 42 H       13.1290     4.9300    -1.2170 H     1 <1>   0.0800 
 43 H       13.2250     4.5540     1.7830 H     1 <1>   0.0800 
 44 H       13.7720     5.9640     0.9370 H     1 <1>   0.0800 
 45 H       15.6650     5.7330    -0.7660 H     1 <1>   0.1500 
 46 H       14.6760     2.6560     2.0180 H     1 <1>   0.1500 
 47 H       17.8680     4.7140    -1.1050 H     1 <1>   0.1500 
 48 H       16.8800     1.6420     1.6760 H     1 <1>   0.1500 
 49 H       18.4810     2.6660     0.1130 H     1 <1>   0.1500 
@<TRIPOS>BOND
  1   1   2  1   
  2   2   3  ar  
  3   2   4  ar  
  4   3   5  ar  
  5   3  27  1   
  6   4   6  ar  
  7   4  28  1   
  8   5   7  ar  
  9   5  29  1   
 10   6   7  ar  
 11   6  30  1   
 12   7   8  1   
 13   8   9  2   
 14   8  10  am  
 15  10  11  1   
 16  10  31  1   
 17  11  12  1   
 18  11  32  1   
 19  11  33  1   
 20  12  13  2   
 21  12  14  am  
 22  14  15  1   
 23  14  16  1   
 24  15  17  1   
 25  15  34  1   
 26  15  35  1   
 27  16  18  1   
 28  16  36  1   
 29  16  37  1   
 30  17  19  1   
 31  17  38  1   
 32  17  39  1   
 33  18  19  1   
 34  18  40  1   
 35  18  41  1   
 36  19  20  1   
 37  19  42  1   
 38  20  21  1   
 39  20  43  1   
 40  20  44  1   
 41  21  22  ar  
 42  21  23  ar  
 43  22  24  ar  
 44  22  45  1   
 45  23  25  ar  
 46  23  46  1   
 47  24  26  ar  
 48  24  47  1   
 49  25  26  ar  
 50  25  48  1   
 51  26  49  1   
@<TRIPOS>SUBSTRUCTURE
  1 ****  12 GROUP 4 **** **** 0

# MOE 2024.06 (io_trps.svl 2023.06)
