@<TRIPOS>MOLECULE
NONAME
46 47 1 0 0 
SMALL
USER_CHARGES


@<TRIPOS>ATOM
  1 S        0.5660    -0.6270    -0.0570 S.o2  1 <1>   1.3330 
  2 O        1.0950     0.1720     1.0240 O.2   1 <1>  -0.6500 
  3 O        1.2010    -0.5820    -1.3520 O.2   1 <1>  -0.6500 
  4 N        0.5300    -2.2350     0.4790 N.am  1 <1>  -0.8490 
  5 C       -1.1430    -0.1600    -0.2420 C.3   1 <1>  -0.1350 
  6 C        1.7190    -2.5990     1.2660 C.3   1 <1>   0.3390 
  7 C        0.2670    -3.2120    -0.6160 C.3   1 <1>   0.2570 
  8 C        2.9630    -2.8720     0.4210 C.ar  1 <1>  -0.1440 
  9 C       -1.2020    -3.2920    -1.0420 C.2   1 <1>   0.5690 
 10 C        3.7640    -1.8220    -0.0150 C.ar  1 <1>  -0.1500 
 11 C        3.3150    -4.1810     0.1000 C.ar  1 <1>  -0.1500 
 12 O       -1.4800    -3.3400    -2.2150 O.2   1 <1>  -0.5700 
 13 N       -2.1570    -3.3040    -0.0730 N.am  1 <1>  -0.7300 
 14 C        4.8940    -2.0670    -0.7760 C.ar  1 <1>  -0.1500 
 15 C        4.4440    -4.4390    -0.6600 C.ar  1 <1>  -0.1500 
 16 C       -3.6050    -3.4390    -0.2940 C.3   1 <1>   0.2200 
 17 C        5.2130    -3.3740    -1.0850 C.ar  1 <1>   0.1900 
 18 C       -4.3100    -2.1860     0.2360 C.3   1 <1>  -0.1600 
 19 C       -4.0970    -4.7010     0.4240 C.3   1 <1>  -0.1600 
 20 F        6.2780    -3.6130    -1.8010 F     1 <1>  -0.1900 
 21 C       -5.8370    -2.3220     0.1350 C.3   1 <1>  -0.1600 
 22 C       -5.6230    -4.8400     0.3200 C.3   1 <1>  -0.1600 
 23 C       -6.3310    -3.5860     0.8510 C.3   1 <1>  -0.1600 
 24 H       -1.2100     0.8910    -0.4440 H     1 <1>   0.0800 
 25 H       -1.6850    -0.3710     0.6580 H     1 <1>   0.0800 
 26 H       -1.5940    -0.6850    -1.0600 H     1 <1>   0.0800 
 27 H        1.4900    -3.4860     1.8300 H     1 <1>   0.0800 
 28 H        1.9390    -1.8340     1.9920 H     1 <1>   0.0800 
 29 H        0.5310    -4.1990    -0.2830 H     1 <1>   0.0800 
 30 H        0.8770    -2.9930    -1.4760 H     1 <1>   0.0800 
 31 H        3.5110    -0.8030     0.2310 H     1 <1>   0.1500 
 32 H        2.7150    -5.0070     0.4400 H     1 <1>   0.1500 
 33 H       -1.8640    -3.2150     0.9020 H     1 <1>   0.3700 
 34 H        5.5140    -1.2610    -1.1250 H     1 <1>   0.1500 
 35 H        4.7270    -5.4430    -0.9180 H     1 <1>   0.1500 
 36 H       -3.8050    -3.5360    -1.3490 H     1 <1>   0.0800 
 37 H       -3.9960    -1.3330    -0.3380 H     1 <1>   0.0800 
 38 H       -4.0410    -2.0280     1.2660 H     1 <1>   0.0800 
 39 H       -3.8210    -4.6570     1.4630 H     1 <1>   0.0800 
 40 H       -3.6330    -5.5640    -0.0190 H     1 <1>   0.0800 
 41 H       -6.1220    -2.3670    -0.9020 H     1 <1>   0.0800 
 42 H       -6.3070    -1.4550     0.5680 H     1 <1>   0.0800 
 43 H       -5.9470    -5.7010     0.8790 H     1 <1>   0.0800 
 44 H       -5.8980    -4.9940    -0.7100 H     1 <1>   0.0800 
 45 H       -7.3940    -3.6870     0.7120 H     1 <1>   0.0800 
 46 H       -6.1470    -3.4930     1.9080 H     1 <1>   0.0800 
@<TRIPOS>BOND
  1   1   2  2   
  2   1   3  2   
  3   1   4  am  
  4   1   5  1   
  5   4   6  1   
  6   4   7  1   
  7   5  24  1   
  8   5  25  1   
  9   5  26  1   
 10   6   8  1   
 11   6  27  1   
 12   6  28  1   
 13   7   9  1   
 14   7  29  1   
 15   7  30  1   
 16   8  10  ar  
 17   8  11  ar  
 18   9  12  2   
 19   9  13  am  
 20  10  14  ar  
 21  10  31  1   
 22  11  15  ar  
 23  11  32  1   
 24  13  16  1   
 25  13  33  1   
 26  14  17  ar  
 27  14  34  1   
 28  15  17  ar  
 29  15  35  1   
 30  16  18  1   
 31  16  19  1   
 32  16  36  1   
 33  17  20  1   
 34  18  21  1   
 35  18  37  1   
 36  18  38  1   
 37  19  22  1   
 38  19  39  1   
 39  19  40  1   
 40  21  23  1   
 41  21  41  1   
 42  21  42  1   
 43  22  23  1   
 44  22  43  1   
 45  22  44  1   
 46  23  45  1   
 47  23  46  1   
@<TRIPOS>SUBSTRUCTURE
  1 ****   7 GROUP 4 **** **** 0

# MOE 2024.06 (io_trps.svl 2023.06)
