@<TRIPOS>MOLECULE
NONAME
41 42 1 0 0 
SMALL
USER_CHARGES


@<TRIPOS>ATOM
  1 BR      -0.1540     0.4320     0.2440 Br    1 <1>  -0.1110 
  2 C        1.7490     0.2020     0.0520 C.ar  1 <1>   0.1110 
  3 C        2.2890    -1.0590     0.2130 C.ar  1 <1>  -0.1500 
  4 C        2.5280     1.3040    -0.2420 C.ar  1 <1>  -0.1500 
  5 C        3.6570    -1.2160     0.0730 C.ar  1 <1>  -0.1500 
  6 C        3.8950     1.1300    -0.3780 C.ar  1 <1>  -0.1500 
  7 C        4.4780    -0.1260    -0.2200 C.ar  1 <1>   0.1170 
  8 N        5.8690    -0.2410    -0.3810 N.am  1 <1>  -0.5470 
  9 C        6.7410    -1.1760     0.1010 C.2   1 <1>   0.5690 
 10 O        6.4230    -2.0960     0.8100 O.2   1 <1>  -0.5700 
 11 C        8.2040    -1.0420    -0.2660 C.3   1 <1>  -0.0990 
 12 C        8.9540    -2.3090     0.1560 C.3   1 <1>   0.3430 
 13 N       10.3990    -2.2630    -0.2200 N.4   1 <1>  -0.9590 
 14 C       10.9860    -3.6320    -0.1170 C.3   1 <1>   0.3430 
 15 C       11.1730    -1.2890     0.6090 C.3   1 <1>   0.3430 
 16 C       12.4260    -3.6180    -0.6300 C.3   1 <1>  -0.1600 
 17 C       12.6180    -1.2210     0.1130 C.3   1 <1>  -0.1600 
 18 C       13.2880    -2.6020     0.1330 C.3   1 <1>  -0.0800 
 19 C       14.6970    -2.5290    -0.4660 C.3   1 <1>  -0.2400 
 20 H        1.6540    -1.8960     0.4420 H     1 <1>   0.1500 
 21 H        2.0720     2.2700    -0.3610 H     1 <1>   0.1500 
 22 H        4.0780    -2.1970     0.1920 H     1 <1>   0.1500 
 23 H        4.5080     1.9830    -0.6040 H     1 <1>   0.1500 
 24 H        6.2800     0.5290    -0.9060 H     1 <1>   0.3700 
 25 H        8.5960    -0.1820     0.2420 H     1 <1>   0.0800 
 26 H        8.2820    -0.9070    -1.3290 H     1 <1>   0.0800 
 27 H        8.4820    -3.1540    -0.3220 H     1 <1>   0.0800 
 28 H        8.8530    -2.4460     1.2210 H     1 <1>   0.0800 
 29 H       10.4840    -1.9790    -1.2050 H     1 <1>   0.4500 
 30 H       10.4060    -4.3300    -0.7010 H     1 <1>   0.0800 
 31 H       10.9740    -3.9590     0.9110 H     1 <1>   0.0800 
 32 H       11.1620    -1.5990     1.6420 H     1 <1>   0.0800 
 33 H       10.7310    -0.3080     0.5440 H     1 <1>   0.0800 
 34 H       12.4270    -3.3940    -1.6830 H     1 <1>   0.0800 
 35 H       12.8460    -4.6020    -0.5110 H     1 <1>   0.0800 
 36 H       13.1700    -0.5480     0.7450 H     1 <1>   0.0800 
 37 H       12.6340    -0.8130    -0.8830 H     1 <1>   0.0800 
 38 H       13.3770    -2.9270     1.1580 H     1 <1>   0.0800 
 39 H       14.6650    -2.2080    -1.4930 H     1 <1>   0.0800 
 40 H       15.1720    -3.4940    -0.4260 H     1 <1>   0.0800 
 41 H       15.3050    -1.8350     0.0880 H     1 <1>   0.0800 
@<TRIPOS>BOND
  1   1   2  1   
  2   2   3  ar  
  3   2   4  ar  
  4   3   5  ar  
  5   3  20  1   
  6   4   6  ar  
  7   4  21  1   
  8   5   7  ar  
  9   5  22  1   
 10   6   7  ar  
 11   6  23  1   
 12   7   8  1   
 13   8   9  am  
 14   8  24  1   
 15   9  10  2   
 16   9  11  1   
 17  11  12  1   
 18  11  25  1   
 19  11  26  1   
 20  12  13  1   
 21  12  27  1   
 22  12  28  1   
 23  13  14  1   
 24  13  15  1   
 25  13  29  1   
 26  14  16  1   
 27  14  30  1   
 28  14  31  1   
 29  15  17  1   
 30  15  32  1   
 31  15  33  1   
 32  16  18  1   
 33  16  34  1   
 34  16  35  1   
 35  17  18  1   
 36  17  36  1   
 37  17  37  1   
 38  18  19  1   
 39  18  38  1   
 40  19  39  1   
 41  19  40  1   
 42  19  41  1   
@<TRIPOS>SUBSTRUCTURE
  1 ****   9 GROUP 4 **** **** 0

# MOE 2024.06 (io_trps.svl 2023.06)
