@<TRIPOS>MOLECULE
NONAME
35 36 1 0 0 
SMALL
USER_CHARGES


@<TRIPOS>ATOM
  1 F       -0.2140     0.5730    -0.5240 F     1 <1>  -0.1900 
  2 C       -1.4160     1.0460    -0.3230 C.ar  1 <1>   0.1900 
  3 C       -1.5570     2.3430     0.1290 C.ar  1 <1>  -0.1500 
  4 C       -2.5040     0.2320    -0.5680 C.ar  1 <1>  -0.1500 
  5 C       -2.8330     2.8360     0.3400 C.ar  1 <1>  -0.1500 
  6 C       -3.7740     0.7380    -0.3520 C.ar  1 <1>  -0.1500 
  7 C       -3.9560     2.0460     0.1010 C.ar  1 <1>   0.1170 
  8 N       -5.2240     2.6020     0.3460 N.am  1 <1>  -0.5470 
  9 C       -6.4450     2.2790    -0.1930 C.2   1 <1>   0.5690 
 10 O       -6.6010     1.4200    -1.0280 O.2   1 <1>  -0.5700 
 11 C       -7.7070     3.0330     0.2650 C.3   1 <1>   0.4040 
 12 N       -8.9920     2.3010    -0.0540 N.4   1 <1>  -0.9590 
 13 C      -10.1910     3.1850    -0.0070 C.3   1 <1>   0.3430 
 14 C       -9.1490     1.0680     0.7750 C.3   1 <1>   0.3430 
 15 C      -11.4160     2.4180    -0.5080 C.3   1 <1>  -0.1600 
 16 C      -10.3600     0.2720     0.2860 C.3   1 <1>  -0.1600 
 17 C      -11.6380     1.1200     0.2800 C.3   1 <1>  -0.1600 
 18 H       -0.6840     2.9460     0.3080 H     1 <1>   0.1500 
 19 H       -2.3560    -0.7740    -0.9200 H     1 <1>   0.1500 
 20 H       -2.9470     3.8470     0.6890 H     1 <1>   0.1500 
 21 H       -4.6190     0.1010    -0.5380 H     1 <1>   0.1500 
 22 H       -5.1860     3.4010     0.9790 H     1 <1>   0.3700 
 23 H       -7.7110     3.9860    -0.2350 H     1 <1>   0.0800 
 24 H       -7.6460     3.2100     1.3250 H     1 <1>   0.0800 
 25 H       -8.8750     1.9580    -1.0230 H     1 <1>   0.4500 
 26 H      -10.0370     4.0540    -0.6270 H     1 <1>   0.0800 
 27 H      -10.3640     3.5140     1.0050 H     1 <1>   0.0800 
 28 H       -9.2900     1.3360     1.8100 H     1 <1>   0.0800 
 29 H       -8.2660     0.4530     0.6960 H     1 <1>   0.0800 
 30 H      -11.2940     2.1940    -1.5540 H     1 <1>   0.0800 
 31 H      -12.2860     3.0440    -0.4140 H     1 <1>   0.0800 
 32 H      -10.5010    -0.5820     0.9270 H     1 <1>   0.0800 
 33 H      -10.1610    -0.1020    -0.7040 H     1 <1>   0.0800 
 34 H      -12.4460     0.5590    -0.1600 H     1 <1>   0.0800 
 35 H      -11.9180     1.3570     1.2930 H     1 <1>   0.0800 
@<TRIPOS>BOND
  1   1   2  1   
  2   2   3  ar  
  3   2   4  ar  
  4   3   5  ar  
  5   3  18  1   
  6   4   6  ar  
  7   4  19  1   
  8   5   7  ar  
  9   5  20  1   
 10   6   7  ar  
 11   6  21  1   
 12   7   8  1   
 13   8   9  am  
 14   8  22  1   
 15   9  10  2   
 16   9  11  1   
 17  11  12  1   
 18  11  23  1   
 19  11  24  1   
 20  12  13  1   
 21  12  14  1   
 22  12  25  1   
 23  13  15  1   
 24  13  26  1   
 25  13  27  1   
 26  14  16  1   
 27  14  28  1   
 28  14  29  1   
 29  15  17  1   
 30  15  30  1   
 31  15  31  1   
 32  16  17  1   
 33  16  32  1   
 34  16  33  1   
 35  17  34  1   
 36  17  35  1   
@<TRIPOS>SUBSTRUCTURE
  1 ****   9 GROUP 4 **** **** 0

# MOE 2024.06 (io_trps.svl 2023.06)
