@<TRIPOS>MOLECULE
NONAME
47 49 1 0 0 
SMALL
USER_CHARGES


@<TRIPOS>ATOM
  1 S        1.0700    -0.4630     0.8460 S.o2  1 <1>   1.4470 
  2 O        2.2460    -0.6470     1.6700 O.2   1 <1>  -0.6500 
  3 O        0.3440     0.7800     0.9510 O.2   1 <1>  -0.6500 
  4 N        1.6510    -0.5330    -0.7520 N.am  1 <1>  -0.8490 
  5 C       -0.0510    -1.8850     0.9530 C.ar  1 <1>  -0.0090 
  6 C        2.1660     0.7670    -1.2260 C.3   1 <1>   0.1960 
  7 C        2.6020    -1.6480    -0.9970 C.3   1 <1>   0.1960 
  8 C        0.1330    -2.8760     1.9140 C.ar  1 <1>  -0.1500 
  9 C       -1.1170    -2.0190     0.0680 C.ar  1 <1>  -0.1500 
 10 C        3.5190     1.1230    -0.5640 C.3   1 <1>   0.3430 
 11 C        4.0400    -1.2120    -1.3890 C.3   1 <1>   0.3430 
 12 C       -0.7110    -3.9710     1.9810 C.ar  1 <1>  -0.1500 
 13 C       -1.9690    -3.1090     0.1250 C.ar  1 <1>  -0.1500 
 14 N        4.5460     0.0160    -0.6620 N.4   1 <1>  -0.9590 
 15 C       -1.7560    -4.0840     1.0850 C.ar  1 <1>   0.1020 
 16 C        5.0900    -0.3270     0.6870 C.3   1 <1>   0.4860 
 17 S       -2.8060    -5.5390     1.2300 S.3   1 <1>  -0.3310 
 18 C        6.2960    -1.2250     0.4980 C.ar  1 <1>  -0.1440 
 19 C       -4.1280    -5.3750    -0.0490 C.3   1 <1>  -0.0100 
 20 C        6.2120    -2.5700     0.8280 C.ar  1 <1>  -0.1500 
 21 C        7.4850    -0.7180    -0.0070 C.ar  1 <1>  -0.1500 
 22 C        7.3000    -3.4030     0.6360 C.ar  1 <1>  -0.1500 
 23 C        8.5720    -1.5530    -0.1970 C.ar  1 <1>  -0.1500 
 24 C        8.4790    -2.8950     0.1210 C.ar  1 <1>  -0.1500 
 25 H        1.4510     1.5490    -1.0320 H     1 <1>   0.0800 
 26 H        2.2920     0.7290    -2.2950 H     1 <1>   0.0800 
 27 H        2.2100    -2.2550    -1.7960 H     1 <1>   0.0800 
 28 H        2.6610    -2.2920    -0.1350 H     1 <1>   0.0800 
 29 H        0.9420    -2.7940     2.6210 H     1 <1>   0.1500 
 30 H       -1.2830    -1.2580    -0.6760 H     1 <1>   0.1500 
 31 H        3.3300     1.3520     0.4730 H     1 <1>   0.0800 
 32 H        3.9050     2.0180    -1.0240 H     1 <1>   0.0800 
 33 H        4.0290    -0.9990    -2.4460 H     1 <1>   0.0800 
 34 H        4.7160    -2.0390    -1.2480 H     1 <1>   0.0800 
 35 H       -0.5660    -4.7360     2.7250 H     1 <1>   0.1500 
 36 H       -2.7810    -3.1830    -0.5720 H     1 <1>   0.1500 
 37 H        5.3580     0.3590    -1.1900 H     1 <1>   0.4500 
 38 H        4.3540    -0.8380     1.2800 H     1 <1>   0.0800 
 39 H        5.3880     0.5670     1.2100 H     1 <1>   0.0800 
 40 H       -4.7740    -6.2300     0.0420 H     1 <1>   0.0800 
 41 H       -3.6560    -5.3560    -1.0150 H     1 <1>   0.0800 
 42 H       -4.6680    -4.4660     0.1450 H     1 <1>   0.0800 
 43 H        5.3070    -2.9850     1.2400 H     1 <1>   0.1500 
 44 H        7.5890     0.3260    -0.2520 H     1 <1>   0.1500 
 45 H        7.2360    -4.4480     0.8920 H     1 <1>   0.1500 
 46 H        9.4970    -1.1620    -0.5890 H     1 <1>   0.1500 
 47 H        9.3260    -3.5440    -0.0260 H     1 <1>   0.1500 
@<TRIPOS>BOND
  1   1   2  2   
  2   1   3  2   
  3   1   4  am  
  4   1   5  1   
  5   4   6  1   
  6   4   7  1   
  7   5   8  ar  
  8   5   9  ar  
  9   6  10  1   
 10   6  25  1   
 11   6  26  1   
 12   7  11  1   
 13   7  27  1   
 14   7  28  1   
 15   8  12  ar  
 16   8  29  1   
 17   9  13  ar  
 18   9  30  1   
 19  10  14  1   
 20  10  31  1   
 21  10  32  1   
 22  11  14  1   
 23  11  33  1   
 24  11  34  1   
 25  12  15  ar  
 26  12  35  1   
 27  13  15  ar  
 28  13  36  1   
 29  14  16  1   
 30  14  37  1   
 31  15  17  1   
 32  16  18  1   
 33  16  38  1   
 34  16  39  1   
 35  17  19  1   
 36  18  20  ar  
 37  18  21  ar  
 38  19  40  1   
 39  19  41  1   
 40  19  42  1   
 41  20  22  ar  
 42  20  43  1   
 43  21  23  ar  
 44  21  44  1   
 45  22  24  ar  
 46  22  45  1   
 47  23  24  ar  
 48  23  46  1   
 49  24  47  1   
@<TRIPOS>SUBSTRUCTURE
  1 ****   7 GROUP 4 **** **** 0

# MOE 2024.06 (io_trps.svl 2023.06)
