@<TRIPOS>MOLECULE
NONAME
45 46 1 0 0 
SMALL
USER_CHARGES


@<TRIPOS>ATOM
  1 O       -0.4030    -7.5620     0.7370 O.3   1 <1>  -0.3630 
  2 C       -1.6410    -7.0730     0.4620 C.ar  1 <1>   0.0830 
  3 C        0.7570    -6.8840     0.3250 C.3   1 <1>   0.1200 
  4 C       -2.7160    -7.8080     0.9330 C.ar  1 <1>  -0.1500 
  5 C       -1.8730    -5.8980    -0.2510 C.ar  1 <1>  -0.1500 
  6 C        1.9540    -7.7140     0.8000 C.3   1 <1>   0.3430 
  7 C       -4.0110    -7.3820     0.6980 C.ar  1 <1>  -0.1500 
  8 C       -3.1710    -5.4730    -0.4850 C.ar  1 <1>  -0.1500 
  9 N        3.2730    -7.1350     0.3780 N.4   1 <1>  -0.9590 
 10 C       -4.2490    -6.2160    -0.0100 C.ar  1 <1>   0.0830 
 11 C        4.3740    -8.1110     0.6240 C.3   1 <1>   0.4860 
 12 C        3.5690    -5.8190     1.0340 C.3   1 <1>   0.2630 
 13 O       -5.5490    -5.8700    -0.1950 O.3   1 <1>  -0.3630 
 14 C        5.6180    -7.6160    -0.0850 C.ar  1 <1>  -0.1440 
 15 C       -5.9030    -4.7050    -0.9020 C.3   1 <1>   0.1200 
 16 C        5.7280    -7.7240    -1.4650 C.ar  1 <1>  -0.1500 
 17 C        6.6570    -7.0490     0.6400 C.ar  1 <1>  -0.1500 
 18 C       -7.4250    -4.6130    -0.9280 C.3   1 <1>  -0.2400 
 19 C        6.8570    -7.2550    -2.1120 C.ar  1 <1>  -0.1500 
 20 C        7.7860    -6.5810    -0.0100 C.ar  1 <1>  -0.1500 
 21 C        7.8850    -6.6810    -1.3860 C.ar  1 <1>  -0.1500 
 22 H        0.7490    -5.9090     0.7800 H     1 <1>   0.0800 
 23 H        0.7380    -6.8130    -0.7480 H     1 <1>   0.0800 
 24 H       -2.5410    -8.7150     1.4830 H     1 <1>   0.1500 
 25 H       -1.0690    -5.3010    -0.6330 H     1 <1>   0.1500 
 26 H        1.8520    -8.7050     0.3880 H     1 <1>   0.0800 
 27 H        1.9190    -7.7890     1.8750 H     1 <1>   0.0800 
 28 H       -4.8470    -7.9520     1.0620 H     1 <1>   0.1500 
 29 H       -3.3250    -4.5650    -1.0370 H     1 <1>   0.1500 
 30 H        3.2700    -6.9850    -0.6410 H     1 <1>   0.4500 
 31 H        4.1090    -9.0800     0.2320 H     1 <1>   0.0800 
 32 H        4.5620    -8.2100     1.6800 H     1 <1>   0.0800 
 33 H        3.6220    -5.9350     2.1050 H     1 <1>   0.0800 
 34 H        2.8010    -5.0990     0.8030 H     1 <1>   0.0800 
 35 H        4.5120    -5.4310     0.6830 H     1 <1>   0.0800 
 36 H       -5.5090    -4.7800    -1.9010 H     1 <1>   0.0800 
 37 H       -5.4800    -3.8560    -0.3940 H     1 <1>   0.0800 
 38 H        4.9470    -8.1750    -2.0540 H     1 <1>   0.1500 
 39 H        6.6080    -6.9650     1.7120 H     1 <1>   0.1500 
 40 H       -7.8380    -5.4750    -1.4220 H     1 <1>   0.0800 
 41 H       -7.7280    -3.7320    -1.4630 H     1 <1>   0.0800 
 42 H       -7.8080    -4.5570     0.0750 H     1 <1>   0.0800 
 43 H        6.9430    -7.3370    -3.1830 H     1 <1>   0.1500 
 44 H        8.5930    -6.1400     0.5520 H     1 <1>   0.1500 
 45 H        8.7640    -6.3180    -1.8910 H     1 <1>   0.1500 
@<TRIPOS>BOND
  1   1   2  1   
  2   1   3  1   
  3   2   4  ar  
  4   2   5  ar  
  5   3   6  1   
  6   3  22  1   
  7   3  23  1   
  8   4   7  ar  
  9   4  24  1   
 10   5   8  ar  
 11   5  25  1   
 12   6   9  1   
 13   6  26  1   
 14   6  27  1   
 15   7  10  ar  
 16   7  28  1   
 17   8  10  ar  
 18   8  29  1   
 19   9  11  1   
 20   9  12  1   
 21   9  30  1   
 22  10  13  1   
 23  11  14  1   
 24  11  31  1   
 25  11  32  1   
 26  12  33  1   
 27  12  34  1   
 28  12  35  1   
 29  13  15  1   
 30  14  16  ar  
 31  14  17  ar  
 32  15  18  1   
 33  15  36  1   
 34  15  37  1   
 35  16  19  ar  
 36  16  38  1   
 37  17  20  ar  
 38  17  39  1   
 39  18  40  1   
 40  18  41  1   
 41  18  42  1   
 42  19  21  ar  
 43  19  43  1   
 44  20  21  ar  
 45  20  44  1   
 46  21  45  1   
@<TRIPOS>SUBSTRUCTURE
  1 ****   3 GROUP 4 **** **** 0

# MOE 2024.06 (io_trps.svl 2023.06)
