@<TRIPOS>MOLECULE
NONAME
47 48 1 0 0 
SMALL
USER_CHARGES


@<TRIPOS>ATOM
  1 S       -0.2610     0.2900     0.8790 S.o2  1 <1>   1.4470 
  2 O       -0.5120     1.2420    -0.1830 O.2   1 <1>  -0.6500 
  3 O        0.1290     0.7720     2.1860 O.2   1 <1>  -0.6500 
  4 N        0.9710    -0.7360     0.3370 N.am  1 <1>  -0.8490 
  5 C       -1.6780    -0.8300     1.0570 C.ar  1 <1>  -0.0090 
  6 C        0.7960    -1.1570    -1.0530 C.3   1 <1>   0.1960 
  7 C        2.2980    -0.1430     0.5560 C.3   1 <1>   0.1960 
  8 C       -2.7970    -0.7160     0.2450 C.ar  1 <1>  -0.1500 
  9 C       -1.6670    -1.8460     2.0010 C.ar  1 <1>  -0.1500 
 10 C        1.7370    -2.3310    -1.3740 C.3   1 <1>  -0.1600 
 11 C        3.4220    -0.9010    -0.1770 C.3   1 <1>  -0.1600 
 12 C       -3.8920    -1.5730     0.3430 C.ar  1 <1>   0.0860 
 13 C       -2.7360    -2.7130     2.1270 C.ar  1 <1>  -0.1500 
 14 C        3.0200    -2.3400    -0.5220 C.3   1 <1>  -0.0800 
 15 C       -3.8450    -2.5850     1.3090 C.ar  1 <1>  -0.1440 
 16 C       -5.0220    -1.3800    -0.5470 C.2   1 <1>   0.5440 
 17 C        4.1550    -3.0870    -1.2300 C.3   1 <1>  -0.2400 
 18 C       -5.0040    -3.5600     1.4810 C.3   1 <1>  -0.0970 
 19 O       -5.4190    -2.2720    -1.2690 O.2   1 <1>  -0.5700 
 20 N       -5.6490    -0.1700    -0.5930 N.am  1 <1>  -0.7300 
 21 C       -6.8120     0.1470    -1.4310 C.3   1 <1>   0.2780 
 22 C       -7.6810     1.1040    -0.6440 C.2   1 <1>  -0.2880 
 23 C       -7.9390     2.3720    -0.9780 C.2   1 <1>  -0.3000 
 24 H        1.0100    -0.3260    -1.7060 H     1 <1>   0.0800 
 25 H       -0.2210    -1.4650    -1.2300 H     1 <1>   0.0800 
 26 H        2.5000    -0.1530     1.6140 H     1 <1>   0.0800 
 27 H        2.3000     0.8860     0.2330 H     1 <1>   0.0800 
 28 H       -2.8200     0.0620    -0.5000 H     1 <1>   0.1500 
 29 H       -0.8080    -1.9590     2.6430 H     1 <1>   0.1500 
 30 H        1.9820    -2.2780    -2.4200 H     1 <1>   0.0800 
 31 H        1.2100    -3.2550    -1.2180 H     1 <1>   0.0800 
 32 H        4.3050    -0.8960     0.4380 H     1 <1>   0.0800 
 33 H        3.6610    -0.3710    -1.0830 H     1 <1>   0.0800 
 34 H       -2.6950    -3.4910     2.8700 H     1 <1>   0.1500 
 35 H        2.8030    -2.8500     0.4040 H     1 <1>   0.0800 
 36 H        4.4180    -2.5970    -2.1510 H     1 <1>   0.0800 
 37 H        3.8540    -4.0970    -1.4500 H     1 <1>   0.0800 
 38 H        5.0260    -3.1240    -0.6010 H     1 <1>   0.0800 
 39 H       -5.9310    -3.0240     1.5820 H     1 <1>   0.0800 
 40 H       -4.8720    -4.1740     2.3530 H     1 <1>   0.0800 
 41 H       -5.0710    -4.2020     0.6200 H     1 <1>   0.0800 
 42 H       -5.3600     0.5850     0.0290 H     1 <1>   0.3700 
 43 H       -7.3610    -0.7490    -1.6710 H     1 <1>   0.0800 
 44 H       -6.4770     0.6040    -2.3460 H     1 <1>   0.0800 
 45 H       -8.0850     0.6440     0.2420 H     1 <1>   0.1500 
 46 H       -8.5630     3.0300    -0.3980 H     1 <1>   0.1500 
 47 H       -7.5510     2.8610    -1.8560 H     1 <1>   0.1500 
@<TRIPOS>BOND
  1   1   2  2   
  2   1   3  2   
  3   1   4  am  
  4   1   5  1   
  5   4   6  1   
  6   4   7  1   
  7   5   8  ar  
  8   5   9  ar  
  9   6  10  1   
 10   6  24  1   
 11   6  25  1   
 12   7  11  1   
 13   7  26  1   
 14   7  27  1   
 15   8  12  ar  
 16   8  28  1   
 17   9  13  ar  
 18   9  29  1   
 19  10  14  1   
 20  10  30  1   
 21  10  31  1   
 22  11  14  1   
 23  11  32  1   
 24  11  33  1   
 25  12  15  ar  
 26  12  16  1   
 27  13  15  ar  
 28  13  34  1   
 29  14  17  1   
 30  14  35  1   
 31  15  18  1   
 32  16  19  2   
 33  16  20  am  
 34  17  36  1   
 35  17  37  1   
 36  17  38  1   
 37  18  39  1   
 38  18  40  1   
 39  18  41  1   
 40  20  21  1   
 41  20  42  1   
 42  21  22  1   
 43  21  43  1   
 44  21  44  1   
 45  22  23  2   
 46  22  45  1   
 47  23  46  1   
 48  23  47  1   
@<TRIPOS>SUBSTRUCTURE
  1 ****   8 GROUP 4 **** **** 0

# MOE 2024.06 (io_trps.svl 2023.06)
