@<TRIPOS>MOLECULE
NONAME
48 51 1 0 0 
SMALL
USER_CHARGES


@<TRIPOS>ATOM
  1 CL       2.2470    -0.1050    -3.3220 Cl    1 <1>  -0.1770 
  2 C        2.3580    -1.0120    -1.8360 C.ar  1 <1>   0.1770 
  3 C        3.5550    -1.6170    -1.5030 C.ar  1 <1>  -0.1500 
  4 C        1.2530    -1.1080    -1.0130 C.ar  1 <1>  -0.1500 
  5 C        3.6590    -2.3310    -0.3180 C.ar  1 <1>  -0.1440 
  6 C        1.3520    -1.8240     0.1680 C.ar  1 <1>  -0.1500 
  7 C        2.5500    -2.4310     0.5120 C.ar  1 <1>  -0.1500 
  8 C        4.9790    -2.9860     0.0630 C.3   1 <1>   0.2540 
  9 N        6.0510    -1.9720     0.1310 N.3   1 <1>  -0.8100 
 10 C        5.7980    -0.9530     1.1820 C.3   1 <1>   0.1100 
 11 C        7.3850    -2.5860     0.3190 C.3   1 <1>   0.1100 
 12 C        6.8890     0.1450     1.2020 C.3   1 <1>   0.3430 
 13 C        8.5120    -1.5250     0.4050 C.3   1 <1>   0.3430 
 14 N        7.9700    -0.1410     0.1990 N.4   1 <1>  -0.9590 
 15 C        9.0440     0.8890     0.0900 C.3   1 <1>   0.3430 
 16 C        8.5180     2.2280    -0.4610 C.3   1 <1>  -0.0800 
 17 C        9.7750     3.1210    -1.0650 C.3   1 <1>   0.0580 
 18 C        7.7450     3.2200     0.7010 C.3   1 <1>  -0.1600 
 19 C       10.5260     4.5300    -0.8310 C.2   1 <1>  -0.2880 
 20 C        9.0540     3.8090    -0.1810 C.3   1 <1>  -0.1600 
 21 C        8.5570     4.6600     0.7150 C.3   1 <1>   0.0580 
 22 C        9.8880     5.3350     0.1020 C.2   1 <1>  -0.2880 
 23 H        4.3970    -1.5260    -2.1650 H     1 <1>   0.1500 
 24 H        0.3320    -0.6300    -1.2950 H     1 <1>   0.1500 
 25 H        0.4970    -1.9090     0.8180 H     1 <1>   0.1500 
 26 H        2.6090    -2.9840     1.4330 H     1 <1>   0.1500 
 27 H        5.2240    -3.7190    -0.6880 H     1 <1>   0.0800 
 28 H        4.8870    -3.4920     1.0090 H     1 <1>   0.0800 
 29 H        5.7500    -1.4250     2.1490 H     1 <1>   0.0800 
 30 H        4.8470    -0.4760     1.0110 H     1 <1>   0.0800 
 31 H        7.5910    -3.2450    -0.5080 H     1 <1>   0.0800 
 32 H        7.3930    -3.1830     1.2170 H     1 <1>   0.0800 
 33 H        7.3080     0.2150     2.1920 H     1 <1>   0.0800 
 34 H        6.4210     1.0880     0.9760 H     1 <1>   0.0800 
 35 H        9.2540    -1.7460    -0.3450 H     1 <1>   0.0800 
 36 H        8.9900    -1.5930     1.3680 H     1 <1>   0.0800 
 37 H        7.4550    -0.2140    -0.6930 H     1 <1>   0.4500 
 38 H        9.8020     0.5270    -0.5860 H     1 <1>   0.0800 
 39 H        9.5090     1.0490     1.0500 H     1 <1>   0.0800 
 40 H        7.8340     2.0090    -1.2700 H     1 <1>   0.0800 
 41 H        9.5420     3.1680    -2.1210 H     1 <1>   0.0800 
 42 H        7.7830     2.7830     1.6880 H     1 <1>   0.0800 
 43 H        6.7050     3.3710     0.4480 H     1 <1>   0.0800 
 44 H       11.4250     4.7360    -1.3900 H     1 <1>   0.1500 
 45 H        8.4110     4.2880    -1.0320 H     1 <1>   0.0800 
 46 H        9.7880     3.3780     0.6920 H     1 <1>   0.0800 
 47 H        7.7890     5.3690     0.4340 H     1 <1>   0.0800 
 48 H       10.1700     6.3180     0.4440 H     1 <1>   0.1500 
@<TRIPOS>BOND
  1   1   2  1   
  2   2   3  ar  
  3   2   4  ar  
  4   3   5  ar  
  5   3  23  1   
  6   4   6  ar  
  7   4  24  1   
  8   5   7  ar  
  9   5   8  1   
 10   6   7  ar  
 11   6  25  1   
 12   7  26  1   
 13   8   9  1   
 14   8  27  1   
 15   8  28  1   
 16   9  10  1   
 17   9  11  1   
 18  10  12  1   
 19  10  29  1   
 20  10  30  1   
 21  11  13  1   
 22  11  31  1   
 23  11  32  1   
 24  12  14  1   
 25  12  33  1   
 26  12  34  1   
 27  13  14  1   
 28  13  35  1   
 29  13  36  1   
 30  14  15  1   
 31  14  37  1   
 32  15  16  1   
 33  15  38  1   
 34  15  39  1   
 35  16  17  1   
 36  16  18  1   
 37  16  40  1   
 38  17  19  1   
 39  17  20  1   
 40  17  41  1   
 41  18  21  1   
 42  18  42  1   
 43  18  43  1   
 44  19  22  2   
 45  19  44  1   
 46  20  21  1   
 47  20  45  1   
 48  20  46  1   
 49  21  22  1   
 50  21  47  1   
 51  22  48  1   
@<TRIPOS>SUBSTRUCTURE
  1 ****  12 GROUP 4 **** **** 0

# MOE 2024.06 (io_trps.svl 2023.06)
