@<TRIPOS>MOLECULE
NONAME
49 51 1 0 0 
SMALL
USER_CHARGES


@<TRIPOS>ATOM
  1 F       -0.2320    -2.3720    -1.7000 F     1 <1>  -0.1900 
  2 C       -0.8180    -2.5160    -0.5340 C.ar  1 <1>   0.1900 
  3 C       -0.0800    -2.3440     0.6450 C.ar  1 <1>   0.1000 
  4 C       -2.1530    -2.8530    -0.5500 C.ar  1 <1>  -0.1500 
  5 N        1.2730    -2.0070     0.7160 N.pl3 1 <1>  -0.8380 
  6 C       -0.7830    -2.5370     1.8280 C.ar  1 <1>  -0.1500 
  7 C       -2.8560    -3.0460     0.6450 C.ar  1 <1>   0.0860 
  8 C        2.2480    -2.9350     1.3740 C.3   1 <1>   0.2090 
  9 C        1.8950    -0.9800    -0.1830 C.3   1 <1>   0.2090 
 10 C       -2.1230    -2.8780     1.8270 C.ar  1 <1>  -0.1500 
 11 C       -4.2570    -3.4030     0.7040 C.2   1 <1>   0.4230 
 12 C        3.2290    -3.5420     0.3540 C.3   1 <1>   0.1400 
 13 C        2.8810    -1.6240    -1.1760 C.3   1 <1>   0.1400 
 14 O       -4.8230    -3.6510     1.7390 O.2   1 <1>  -0.5700 
 15 C       -5.1070    -3.4830    -0.5610 C.3   1 <1>  -0.0990 
 16 N        3.8850    -2.4680    -0.4530 N.am  1 <1>  -0.6600 
 17 C       -4.9710    -4.8370    -1.2740 C.3   1 <1>  -0.2400 
 18 C        5.2180    -2.1740    -0.3010 C.2   1 <1>   0.5690 
 19 O        5.9370    -2.8580     0.3900 O.2   1 <1>  -0.5700 
 20 C        5.8550    -0.9690    -0.9860 C.3   1 <1>   0.0440 
 21 C        5.3040     0.3680    -0.4920 C.ar  1 <1>  -0.1430 
 22 C        5.1450     0.6000     0.8660 C.ar  1 <1>  -0.1500 
 23 C        4.9520     1.3600    -1.3960 C.ar  1 <1>  -0.1500 
 24 C        4.6260     1.8020     1.3150 C.ar  1 <1>  -0.1500 
 25 C        4.4340     2.5620    -0.9480 C.ar  1 <1>  -0.1500 
 26 C        4.2680     2.7840     0.4080 C.ar  1 <1>  -0.1500 
 27 H       -2.6330    -2.9670    -1.5020 H     1 <1>   0.1500 
 28 H       -0.2650    -2.4090     2.7610 H     1 <1>   0.1500 
 29 H        1.7200    -3.7300     1.8700 H     1 <1>   0.0800 
 30 H        2.8060    -2.3910     2.1160 H     1 <1>   0.0800 
 31 H        2.4230    -0.2610     0.4190 H     1 <1>   0.0800 
 32 H        1.1300    -0.4510    -0.7220 H     1 <1>   0.0800 
 33 H       -2.6250    -3.0170     2.7700 H     1 <1>   0.1500 
 34 H        2.6890    -4.1990    -0.3040 H     1 <1>   0.0800 
 35 H        3.9630    -4.1300     0.8750 H     1 <1>   0.0800 
 36 H        3.3560    -0.8570    -1.7550 H     1 <1>   0.0800 
 37 H        2.3320    -2.2470    -1.8580 H     1 <1>   0.0800 
 38 H       -4.8530    -2.6800    -1.2280 H     1 <1>   0.0800 
 39 H       -6.1370    -3.3430    -0.2820 H     1 <1>   0.0800 
 40 H       -3.9550    -5.0140    -1.5780 H     1 <1>   0.0800 
 41 H       -5.6020    -4.8610    -2.1450 H     1 <1>   0.0800 
 42 H       -5.2740    -5.6300    -0.6120 H     1 <1>   0.0800 
 43 H        5.7120    -1.0700    -2.0450 H     1 <1>   0.0800 
 44 H        6.9130    -0.9900    -0.8010 H     1 <1>   0.0800 
 45 H        5.4220    -0.1550     1.5820 H     1 <1>   0.1500 
 46 H        5.0790     1.2040    -2.4530 H     1 <1>   0.1500 
 47 H        4.5020     1.9730     2.3700 H     1 <1>   0.1500 
 48 H        4.1610     3.3280    -1.6540 H     1 <1>   0.1500 
 49 H        3.8650     3.7180     0.7570 H     1 <1>   0.1500 
@<TRIPOS>BOND
  1   1   2  1   
  2   2   3  ar  
  3   2   4  ar  
  4   3   5  1   
  5   3   6  ar  
  6   4   7  ar  
  7   4  27  1   
  8   5   8  1   
  9   5   9  1   
 10   6  10  ar  
 11   6  28  1   
 12   7  10  ar  
 13   7  11  1   
 14   8  12  1   
 15   8  29  1   
 16   8  30  1   
 17   9  13  1   
 18   9  31  1   
 19   9  32  1   
 20  10  33  1   
 21  11  14  2   
 22  11  15  1   
 23  12  16  1   
 24  12  34  1   
 25  12  35  1   
 26  13  16  1   
 27  13  36  1   
 28  13  37  1   
 29  15  17  1   
 30  15  38  1   
 31  15  39  1   
 32  16  18  am  
 33  17  40  1   
 34  17  41  1   
 35  17  42  1   
 36  18  19  2   
 37  18  20  1   
 38  20  21  1   
 39  20  43  1   
 40  20  44  1   
 41  21  22  ar  
 42  21  23  ar  
 43  22  24  ar  
 44  22  45  1   
 45  23  25  ar  
 46  23  46  1   
 47  24  26  ar  
 48  24  47  1   
 49  25  26  ar  
 50  25  48  1   
 51  26  49  1   
@<TRIPOS>SUBSTRUCTURE
  1 ****   5 GROUP 4 **** **** 0

# MOE 2024.06 (io_trps.svl 2023.06)
