@<TRIPOS>MOLECULE
ka-06991
29 29 1 0 0 
SMALL
USER_CHARGES


@<TRIPOS>ATOM
  1 O        0.2590     0.0180     0.3060 O.3   1 <1>  -0.3630 
  2 C        1.6140    -0.0380     0.2820 C.ar  1 <1>   0.0830 
  3 C       -0.5210    -0.6850    -0.6350 C.3   1 <1>   0.0400 
  4 C        2.3430    -0.7830    -0.6400 C.ar  1 <1>  -0.1500 
  5 C        2.2870     0.6980     1.2420 C.ar  1 <1>  -0.1500 
  6 C        3.7270    -0.7840    -0.5920 C.ar  1 <1>  -0.1500 
  7 C        3.6700     0.6950     1.2880 C.ar  1 <1>  -0.1500 
  8 C        4.4030    -0.0470     0.3710 C.ar  1 <1>  -0.1430 
  9 C        5.9270    -0.0610     0.4100 C.3   1 <1>   0.3430 
 10 O        6.3100    -0.3940     1.6930 O.3   1 <1>  -0.6800 
 11 C        6.5360     1.2950     0.0320 C.3   1 <1>  -0.1600 
 12 C        8.0740     1.2830     0.0100 C.3   1 <1>  -0.1600 
 13 C        8.6300     2.6400    -0.4300 C.3   1 <1>  -0.2400 
 14 H       -1.5570    -0.4870    -0.4230 H     1 <1>   0.0800 
 15 H       -0.3220    -1.7370    -0.5360 H     1 <1>   0.0800 
 16 H       -0.2760    -0.3350    -1.6220 H     1 <1>   0.0800 
 17 H        1.8540    -1.3640    -1.3980 H     1 <1>   0.1500 
 18 H        1.7210     1.2720     1.9530 H     1 <1>   0.1500 
 19 H        4.2760    -1.3640    -1.3130 H     1 <1>   0.1500 
 20 H        4.1770     1.2730     2.0410 H     1 <1>   0.1500 
 21 H        6.3040    -0.8270    -0.2460 H     1 <1>   0.0800 
 22 H        5.6610    -1.0300     2.0460 H     1 <1>   0.4000 
 23 H        6.1870     2.0430     0.7210 H     1 <1>   0.0800 
 24 H        6.1740     1.5610    -0.9450 H     1 <1>   0.0800 
 25 H        8.4210     0.5200    -0.6660 H     1 <1>   0.0800 
 26 H        8.4470     1.0500     0.9930 H     1 <1>   0.0800 
 27 H        8.2900     2.8850    -1.4210 H     1 <1>   0.0800 
 28 H        9.7060     2.6130    -0.4340 H     1 <1>   0.0800 
 29 H        8.3110     3.4130     0.2480 H     1 <1>   0.0800 
@<TRIPOS>BOND
  1   1   2  1   
  2   1   3  1   
  3   2   4  ar  
  4   2   5  ar  
  5   3  14  1   
  6   3  15  1   
  7   3  16  1   
  8   4   6  ar  
  9   4  17  1   
 10   5   7  ar  
 11   5  18  1   
 12   6   8  ar  
 13   6  19  1   
 14   7   8  ar  
 15   7  20  1   
 16   8   9  1   
 17   9  10  1   
 18   9  11  1   
 19   9  21  1   
 20  10  22  1   
 21  11  12  1   
 22  11  23  1   
 23  11  24  1   
 24  12  13  1   
 25  12  25  1   
 26  12  26  1   
 27  13  27  1   
 28  13  28  1   
 29  13  29  1   
@<TRIPOS>SUBSTRUCTURE
  1 ****   8 GROUP 4 **** **** 0

# MOE 2024.06 (io_trps.svl 2023.06)
