@<TRIPOS>MOLECULE
NONAME
47 48 1 0 0 
SMALL
USER_CHARGES


@<TRIPOS>ATOM
  1 O       -0.5080    -1.8700    -0.8970 O.2   1 <1>  -0.5700 
  2 C       -0.9920    -1.9350     0.2050 C.2   1 <1>   0.5690 
  3 N       -2.0680    -1.2070     0.5660 N.am  1 <1>  -0.7300 
  4 C       -0.3730    -2.8460     1.2320 C.3   1 <1>  -0.1790 
  5 C       -2.6910    -0.1920    -0.2940 C.3   1 <1>   0.5070 
  6 C       -2.0980     1.1490     0.1390 C.ar  1 <1>  -0.1440 
  7 C       -4.2260    -0.2440    -0.2120 C.ar  1 <1>  -0.1440 
  8 C       -0.9870     1.6400    -0.5310 C.ar  1 <1>  -0.1500 
  9 C       -2.6190     1.8770     1.1990 C.ar  1 <1>  -0.1500 
 10 C       -4.9100    -1.3580     0.2670 C.ar  1 <1>  -0.1500 
 11 C       -4.9710     0.8450    -0.6530 C.ar  1 <1>  -0.1500 
 12 C       -0.3930     2.8480    -0.1690 C.ar  1 <1>   0.0830 
 13 C       -2.0510     3.0840     1.5610 C.ar  1 <1>  -0.1500 
 14 C       -6.2930    -1.3680     0.3250 C.ar  1 <1>  -0.1500 
 15 C       -6.3540     0.8380    -0.5980 C.ar  1 <1>  -0.1500 
 16 O        0.7240     3.2950    -0.8140 O.3   1 <1>  -0.3620 
 17 C       -0.9520     3.5890     0.8860 C.ar  1 <1>   0.0830 
 18 C       -7.0250    -0.2740    -0.1020 C.ar  1 <1>   0.0830 
 19 C        1.5450     2.4190    -1.5580 C.3   1 <1>   0.0400 
 20 O       -0.5120     4.7960     1.3460 O.3   1 <1>  -0.3630 
 21 O       -8.3750    -0.3660    -0.0070 O.3   1 <1>  -0.3630 
 22 C        0.2030     5.6920     0.5230 C.3   1 <1>   0.0400 
 23 C       -9.2140     0.6820    -0.4320 C.3   1 <1>   0.1200 
 24 C      -10.6590     0.2550    -0.1950 C.3   1 <1>  -0.2400 
 25 H       -2.3860    -1.1790     1.5320 H     1 <1>   0.3700 
 26 H       -1.1170    -3.5140     1.6230 H     1 <1>   0.0800 
 27 H        0.0420    -2.2600     2.0310 H     1 <1>   0.0800 
 28 H        0.4110    -3.4230     0.7790 H     1 <1>   0.0800 
 29 H       -2.4180    -0.3810    -1.3190 H     1 <1>   0.0800 
 30 H       -0.5880     1.0540    -1.3380 H     1 <1>   0.1500 
 31 H       -3.4720     1.5120     1.7460 H     1 <1>   0.1500 
 32 H       -4.3820    -2.2350     0.5940 H     1 <1>   0.1500 
 33 H       -4.4740     1.7160    -1.0450 H     1 <1>   0.1500 
 34 H       -2.4620     3.6490     2.3770 H     1 <1>   0.1500 
 35 H       -6.8160    -2.2300     0.6980 H     1 <1>   0.1500 
 36 H       -6.8870     1.7030    -0.9440 H     1 <1>   0.1500 
 37 H        2.4480     2.9430    -1.8110 H     1 <1>   0.0800 
 38 H        1.0280     2.1320    -2.4560 H     1 <1>   0.0800 
 39 H        1.7770     1.5590    -0.9550 H     1 <1>   0.0800 
 40 H        0.1750     6.6630     0.9820 H     1 <1>   0.0800 
 41 H       -0.2630     5.7270    -0.4460 H     1 <1>   0.0800 
 42 H        1.2210     5.3550     0.4470 H     1 <1>   0.0800 
 43 H       -9.0350     0.8580    -1.4790 H     1 <1>   0.0800 
 44 H       -8.9780     1.5610     0.1420 H     1 <1>   0.0800 
 45 H      -10.8780    -0.6340    -0.7600 H     1 <1>   0.0800 
 46 H      -11.3270     1.0360    -0.5110 H     1 <1>   0.0800 
 47 H      -10.8210     0.0650     0.8500 H     1 <1>   0.0800 
@<TRIPOS>BOND
  1   1   2  2   
  2   2   3  am  
  3   2   4  1   
  4   3   5  1   
  5   3  25  1   
  6   4  26  1   
  7   4  27  1   
  8   4  28  1   
  9   5   6  1   
 10   5   7  1   
 11   5  29  1   
 12   6   8  ar  
 13   6   9  ar  
 14   7  10  ar  
 15   7  11  ar  
 16   8  12  ar  
 17   8  30  1   
 18   9  13  ar  
 19   9  31  1   
 20  10  14  ar  
 21  10  32  1   
 22  11  15  ar  
 23  11  33  1   
 24  12  16  1   
 25  12  17  ar  
 26  13  17  ar  
 27  13  34  1   
 28  14  18  ar  
 29  14  35  1   
 30  15  18  ar  
 31  15  36  1   
 32  16  19  1   
 33  17  20  1   
 34  18  21  1   
 35  19  37  1   
 36  19  38  1   
 37  19  39  1   
 38  20  22  1   
 39  21  23  1   
 40  22  40  1   
 41  22  41  1   
 42  22  42  1   
 43  23  24  1   
 44  23  43  1   
 45  23  44  1   
 46  24  45  1   
 47  24  46  1   
 48  24  47  1   
@<TRIPOS>SUBSTRUCTURE
  1 ****   6 GROUP 4 **** **** 0

# MOE 2024.06 (io_trps.svl 2023.06)
