@<TRIPOS>MOLECULE
NONAME
39 39 1 0 0 
SMALL
USER_CHARGES


@<TRIPOS>ATOM
  1 O       -0.7010    -0.2190    -1.1420 O.2   1 <1>  -0.5700 
  2 C       -0.9870    -0.9820    -0.2370 C.2   1 <1>   0.6900 
  3 N       -2.2700    -1.0570     0.2520 N.am  1 <1>  -0.6600 
  4 N       -0.0290    -1.7800     0.2940 N.am  1 <1>  -0.7300 
  5 C       -3.3300    -0.1530    -0.2780 C.3   1 <1>   0.1400 
  6 C       -2.6290    -1.8310     1.4710 C.3   1 <1>   0.1400 
  7 C        1.3690    -1.8650    -0.1540 C.3   1 <1>   0.2200 
  8 C       -4.2880    -0.9360    -1.1720 C.3   1 <1>  -0.2400 
  9 C       -2.8550    -3.3020     1.1200 C.3   1 <1>  -0.2400 
 10 C        1.5240    -3.1710    -0.9420 C.3   1 <1>  -0.1600 
 11 C        2.2670    -1.7450     1.0840 C.3   1 <1>  -0.1600 
 12 C        2.9530    -3.4800    -1.4180 C.3   1 <1>  -0.1600 
 13 C        3.7390    -1.4970     0.7190 C.3   1 <1>  -0.1600 
 14 C        3.8730    -3.9170    -0.2680 C.3   1 <1>  -0.1600 
 15 C        4.5690    -2.7660     0.4750 C.3   1 <1>  -0.1600 
 16 H       -0.3330    -2.4950     0.9440 H     1 <1>   0.3700 
 17 H       -2.8870     0.6440    -0.8500 H     1 <1>   0.0800 
 18 H       -3.8670     0.2980     0.5390 H     1 <1>   0.0800 
 19 H       -3.5240    -1.4250     1.9110 H     1 <1>   0.0800 
 20 H       -1.8410    -1.7400     2.1990 H     1 <1>   0.0800 
 21 H        1.5760    -1.0370    -0.8120 H     1 <1>   0.0800 
 22 H       -3.7380    -1.4270    -1.9540 H     1 <1>   0.0800 
 23 H       -4.9920    -0.2600    -1.6220 H     1 <1>   0.0800 
 24 H       -4.8340    -1.6620    -0.6000 H     1 <1>   0.0800 
 25 H       -3.6720    -3.4020     0.4300 H     1 <1>   0.0800 
 26 H       -3.0970    -3.8520     2.0110 H     1 <1>   0.0800 
 27 H       -1.9740    -3.7320     0.6810 H     1 <1>   0.0800 
 28 H        0.8940    -3.0970    -1.8120 H     1 <1>   0.0800 
 29 H        1.1640    -3.9940    -0.3500 H     1 <1>   0.0800 
 30 H        2.1750    -2.6140     1.7110 H     1 <1>   0.0800 
 31 H        1.9290    -0.8910     1.6460 H     1 <1>   0.0800 
 32 H        3.3710    -2.6400    -1.9450 H     1 <1>   0.0800 
 33 H        2.8900    -4.2960    -2.1180 H     1 <1>   0.0800 
 34 H        4.2050    -0.9490     1.5200 H     1 <1>   0.0800 
 35 H        3.7870    -0.8650    -0.1520 H     1 <1>   0.0800 
 36 H        4.6400    -4.5590    -0.6670 H     1 <1>   0.0800 
 37 H        3.3120    -4.5090     0.4340 H     1 <1>   0.0800 
 38 H        4.9070    -3.1450     1.4250 H     1 <1>   0.0800 
 39 H        5.4490    -2.4820    -0.0760 H     1 <1>   0.0800 
@<TRIPOS>BOND
  1   1   2  2   
  2   2   3  am  
  3   2   4  am  
  4   3   5  1   
  5   3   6  1   
  6   4   7  1   
  7   4  16  1   
  8   5   8  1   
  9   5  17  1   
 10   5  18  1   
 11   6   9  1   
 12   6  19  1   
 13   6  20  1   
 14   7  10  1   
 15   7  11  1   
 16   7  21  1   
 17   8  22  1   
 18   8  23  1   
 19   8  24  1   
 20   9  25  1   
 21   9  26  1   
 22   9  27  1   
 23  10  12  1   
 24  10  28  1   
 25  10  29  1   
 26  11  13  1   
 27  11  30  1   
 28  11  31  1   
 29  12  14  1   
 30  12  32  1   
 31  12  33  1   
 32  13  15  1   
 33  13  34  1   
 34  13  35  1   
 35  14  15  1   
 36  14  36  1   
 37  14  37  1   
 38  15  38  1   
 39  15  39  1   
@<TRIPOS>SUBSTRUCTURE
  1 ****   4 GROUP 4 **** **** 0

# MOE 2024.06 (io_trps.svl 2023.06)
