@<TRIPOS>MOLECULE
NONAME
47 49 1 0 0 
SMALL
USER_CHARGES


@<TRIPOS>ATOM
  1 F        0.3350    -0.3770     0.4380 F     1 <1>  -0.3400 
  2 C        0.4810     0.6190     1.3010 C.3   1 <1>   1.1640 
  3 F       -0.7000     0.7640     1.8890 F     1 <1>  -0.3400 
  4 F        1.3190     0.1970     2.2350 F     1 <1>  -0.3400 
  5 C        0.9040     1.9220     0.5930 C.ar  1 <1>  -0.1440 
  6 C        0.1510     2.4800    -0.4500 C.ar  1 <1>  -0.1440 
  7 C        2.0710     2.5710     0.9930 C.ar  1 <1>  -0.1500 
  8 C        0.5930     3.6410    -1.0730 C.ar  1 <1>  -0.1500 
  9 C       -1.1540     1.8660    -0.9520 C.3   1 <1>   0.4870 
 10 C        2.4900     3.7330     0.3750 C.ar  1 <1>  -0.1500 
 11 C        1.7530     4.2670    -0.6610 C.ar  1 <1>  -0.1500 
 12 N       -2.2730     2.7930    -0.6420 N.4   1 <1>  -0.9590 
 13 C       -2.4890     2.9620     0.8440 C.3   1 <1>   0.3430 
 14 C       -3.5570     2.3700    -1.3090 C.3   1 <1>   0.3430 
 15 C       -3.6300     3.9480     1.1620 C.3   1 <1>   0.2090 
 16 C       -4.7130     3.3510    -1.0240 C.3   1 <1>   0.2090 
 17 N       -4.8840     3.5750     0.4420 N.pl3 1 <1>  -0.8380 
 18 C       -5.9950     4.3640     0.7760 C.ar  1 <1>   0.1000 
 19 C       -6.1120     5.7310     0.4590 C.ar  1 <1>   0.0830 
 20 C       -7.0310     3.7450     1.4590 C.ar  1 <1>  -0.1500 
 21 O       -5.0810     6.3340    -0.2140 O.3   1 <1>  -0.3630 
 22 C       -7.2590     6.4260     0.8330 C.ar  1 <1>  -0.1500 
 23 C       -8.1660     4.4430     1.8270 C.ar  1 <1>  -0.1500 
 24 C       -5.1110     7.7150    -0.5070 C.3   1 <1>   0.0400 
 25 C       -8.2800     5.7840     1.5140 C.ar  1 <1>  -0.1500 
 26 H        2.6790     2.1790     1.7940 H     1 <1>   0.1500 
 27 H        0.0470     4.0770    -1.8930 H     1 <1>   0.1500 
 28 H       -1.3380     0.9060    -0.5000 H     1 <1>   0.0800 
 29 H       -1.0820     1.7230    -2.0180 H     1 <1>   0.0800 
 30 H        3.3960     4.2200     0.6980 H     1 <1>   0.1500 
 31 H        2.0900     5.1680    -1.1480 H     1 <1>   0.1500 
 32 H       -2.0210     3.7210    -1.0020 H     1 <1>   0.4500 
 33 H       -1.5840     3.3170     1.3100 H     1 <1>   0.0800 
 34 H       -2.7380     2.0110     1.2850 H     1 <1>   0.0800 
 35 H       -3.8500     1.3980    -0.9480 H     1 <1>   0.0800 
 36 H       -3.4150     2.3010    -2.3740 H     1 <1>   0.0800 
 37 H       -3.3300     4.9440     0.8900 H     1 <1>   0.0800 
 38 H       -3.8200     3.9420     2.2220 H     1 <1>   0.0800 
 39 H       -5.6280     2.9490    -1.4250 H     1 <1>   0.0800 
 40 H       -4.5220     4.2860    -1.5200 H     1 <1>   0.0800 
 41 H       -6.9430     2.7020     1.7030 H     1 <1>   0.1500 
 42 H       -7.3870     7.4670     0.6080 H     1 <1>   0.1500 
 43 H       -8.9590     3.9430     2.3570 H     1 <1>   0.1500 
 44 H       -4.1980     7.9730    -1.0110 H     1 <1>   0.0800 
 45 H       -5.1860     8.2670     0.4140 H     1 <1>   0.0800 
 46 H       -5.9510     7.9200    -1.1480 H     1 <1>   0.0800 
 47 H       -9.1630     6.3290     1.8000 H     1 <1>   0.1500 
@<TRIPOS>BOND
  1   1   2  1   
  2   2   3  1   
  3   2   4  1   
  4   2   5  1   
  5   5   6  ar  
  6   5   7  ar  
  7   6   8  ar  
  8   6   9  1   
  9   7  10  ar  
 10   7  26  1   
 11   8  11  ar  
 12   8  27  1   
 13   9  12  1   
 14   9  28  1   
 15   9  29  1   
 16  10  11  ar  
 17  10  30  1   
 18  11  31  1   
 19  12  13  1   
 20  12  14  1   
 21  12  32  1   
 22  13  15  1   
 23  13  33  1   
 24  13  34  1   
 25  14  16  1   
 26  14  35  1   
 27  14  36  1   
 28  15  17  1   
 29  15  37  1   
 30  15  38  1   
 31  16  17  1   
 32  16  39  1   
 33  16  40  1   
 34  17  18  1   
 35  18  19  ar  
 36  18  20  ar  
 37  19  21  1   
 38  19  22  ar  
 39  20  23  ar  
 40  20  41  1   
 41  21  24  1   
 42  22  25  ar  
 43  22  42  1   
 44  23  25  ar  
 45  23  43  1   
 46  24  44  1   
 47  24  45  1   
 48  24  46  1   
 49  25  47  1   
@<TRIPOS>SUBSTRUCTURE
  1 ****  13 GROUP 4 **** **** 0

# MOE 2024.06 (io_trps.svl 2023.06)
