@<TRIPOS>MOLECULE
NONAME
36 37 1 0 0 
SMALL
USER_CHARGES


@<TRIPOS>ATOM
  1 O       -0.0310    -0.1570     1.0310 O.2   1 <1>  -0.5700 
  2 C        0.2380    -1.2880     0.7600 C.2   1 <1>   0.4480 
  3 C       -0.4840    -2.1510    -0.2520 C.3   1 <1>   0.2300 
  4 C        1.4160    -2.0580     1.3240 C.3   1 <1>   0.3910 
  5 C       -1.9230    -2.4860     0.1380 C.ar  1 <1>  -0.1440 
  6 C        0.3950    -3.3970    -0.2830 C.cat 1 <1>   0.6040 
  7 N        1.4090    -3.3370     0.5550 N.pl3 1 <1>  -0.8330 
  8 C       -2.2030    -3.2690     1.2520 C.ar  1 <1>  -0.1500 
  9 C       -2.9730    -2.0080    -0.6330 C.ar  1 <1>  -0.1500 
 10 N        0.1430    -4.4190    -1.0650 N.pl3 1 <1>  -0.7540 
 11 C        2.4760    -4.3360     0.8410 C.3   1 <1>   0.3290 
 12 C       -3.5120    -3.5770     1.5780 C.ar  1 <1>  -0.1500 
 13 C       -4.2810    -2.3170    -0.3050 C.ar  1 <1>  -0.1500 
 14 C        3.7470    -3.9590     0.0780 C.3   1 <1>  -0.1600 
 15 C       -4.5510    -3.1040     0.8000 C.ar  1 <1>  -0.1500 
 16 C        4.8620    -4.9890     0.3040 C.3   1 <1>  -0.1600 
 17 C        6.1280    -4.6030    -0.4660 C.3   1 <1>  -0.2400 
 18 H       -0.4480    -1.6640    -1.2090 H     1 <1>   0.0800 
 19 H        1.2730    -2.2380     2.3760 H     1 <1>   0.0800 
 20 H        2.3280    -1.5090     1.1620 H     1 <1>   0.0800 
 21 H       -1.4200    -3.6510     1.8830 H     1 <1>   0.1500 
 22 H       -2.7940    -1.3850    -1.4930 H     1 <1>   0.1500 
 23 H        0.7190    -5.2600    -1.1050 H     1 <1>   0.4500 
 24 H       -0.6770    -4.4710    -1.6790 H     1 <1>   0.4500 
 25 H        2.1530    -5.3180     0.5390 H     1 <1>   0.0800 
 26 H        2.6740    -4.3670     1.9000 H     1 <1>   0.0800 
 27 H       -3.7280    -4.1840     2.4420 H     1 <1>   0.1500 
 28 H       -5.0930    -1.9420    -0.9050 H     1 <1>   0.1500 
 29 H        4.0950    -2.9950     0.4070 H     1 <1>   0.0800 
 30 H        3.5300    -3.9030    -0.9740 H     1 <1>   0.0800 
 31 H       -5.5700    -3.3420     1.0550 H     1 <1>   0.1500 
 32 H        4.5400    -5.9630    -0.0240 H     1 <1>   0.0800 
 33 H        5.1000    -5.0530     1.3530 H     1 <1>   0.0800 
 34 H        5.9330    -4.5570    -1.5230 H     1 <1>   0.0800 
 35 H        6.8990    -5.3340    -0.2960 H     1 <1>   0.0800 
 36 H        6.4950    -3.6450    -0.1400 H     1 <1>   0.0800 
@<TRIPOS>BOND
  1   1   2  2   
  2   2   3  1   
  3   2   4  1   
  4   3   5  1   
  5   3   6  1   
  6   3  18  1   
  7   4   7  1   
  8   4  19  1   
  9   4  20  1   
 10   5   8  ar  
 11   5   9  ar  
 12   6   7  ar  
 13   6  10  ar  
 14   7  11  1   
 15   8  12  ar  
 16   8  21  1   
 17   9  13  ar  
 18   9  22  1   
 19  10  23  1   
 20  10  24  1   
 21  11  14  1   
 22  11  25  1   
 23  11  26  1   
 24  12  15  ar  
 25  12  27  1   
 26  13  15  ar  
 27  13  28  1   
 28  14  16  1   
 29  14  29  1   
 30  14  30  1   
 31  15  31  1   
 32  16  17  1   
 33  16  32  1   
 34  16  33  1   
 35  17  34  1   
 36  17  35  1   
 37  17  36  1   
@<TRIPOS>SUBSTRUCTURE
  1 ****   6 GROUP 4 **** **** 0

# MOE 2024.06 (io_trps.svl 2023.06)
