@<TRIPOS>MOLECULE
NONAME
40 40 1 0 0 
SMALL
USER_CHARGES


@<TRIPOS>ATOM
  1 O        0.5920    -0.6900    -0.2270 O.3   1 <1>  -0.6800 
  2 C        1.6520     0.0320    -0.7440 C.3   1 <1>   0.1200 
  3 C        2.5390     0.4630     0.4320 C.3   1 <1>   0.3430 
  4 N        3.7290     1.2630    -0.0160 N.4   1 <1>  -0.9590 
  5 C        4.9740     0.6580     0.5530 C.3   1 <1>   0.3430 
  6 C        3.6020     2.7080     0.3430 C.3   1 <1>   0.3430 
  7 C        6.2500     1.2390    -0.0800 C.3   1 <1>  -0.0800 
  8 C        2.4640     3.3750    -0.4320 C.3   1 <1>  -0.1600 
  9 C        7.2210     0.0990    -0.4380 C.3   1 <1>  -0.1600 
 10 C        6.9450     2.2400     0.8670 C.3   1 <1>  -0.1600 
 11 C        2.4570     4.8890    -0.1920 C.3   1 <1>  -0.2400 
 12 C        8.5150     0.6390    -1.0600 C.3   1 <1>  -0.1600 
 13 C        8.2360     2.7890     0.2470 C.3   1 <1>  -0.1600 
 14 C        9.1940     1.6540    -0.1340 C.3   1 <1>  -0.1600 
 15 H       -0.0180    -0.9990    -0.9310 H     1 <1>   0.4000 
 16 H        1.2510     0.8820    -1.2680 H     1 <1>   0.0800 
 17 H        2.1920    -0.6080    -1.4210 H     1 <1>   0.0800 
 18 H        2.8680    -0.4280     0.9410 H     1 <1>   0.0800 
 19 H        1.9470     1.0400     1.1230 H     1 <1>   0.0800 
 20 H        3.8040     1.1980    -1.0390 H     1 <1>   0.4500 
 21 H        4.9590    -0.4040     0.3650 H     1 <1>   0.0800 
 22 H        5.0030     0.7960     1.6220 H     1 <1>   0.0800 
 23 H        4.5170     3.2210     0.0950 H     1 <1>   0.0800 
 24 H        3.4350     2.8150     1.4030 H     1 <1>   0.0800 
 25 H        6.0020     1.7440    -0.9980 H     1 <1>   0.0800 
 26 H        1.5130     2.9820    -0.1160 H     1 <1>   0.0800 
 27 H        2.5850     3.1990    -1.4870 H     1 <1>   0.0800 
 28 H        6.7570    -0.5780    -1.1360 H     1 <1>   0.0800 
 29 H        7.4710    -0.4620     0.4480 H     1 <1>   0.0800 
 30 H        7.1920     1.7490     1.7940 H     1 <1>   0.0800 
 31 H        6.2990     3.0660     1.1000 H     1 <1>   0.0800 
 32 H        2.3140     5.1110     0.8520 H     1 <1>   0.0800 
 33 H        1.6520     5.3460    -0.7440 H     1 <1>   0.0800 
 34 H        3.3810     5.3350    -0.5180 H     1 <1>   0.0800 
 35 H        8.2940     1.1110    -2.0030 H     1 <1>   0.0800 
 36 H        9.1910    -0.1760    -1.2540 H     1 <1>   0.0800 
 37 H        8.7240     3.4470     0.9470 H     1 <1>   0.0800 
 38 H        8.0000     3.3650    -0.6320 H     1 <1>   0.0800 
 39 H       10.0620     2.0640    -0.6230 H     1 <1>   0.0800 
 40 H        9.5300     1.1540     0.7600 H     1 <1>   0.0800 
@<TRIPOS>BOND
  1   1   2  1   
  2   1  15  1   
  3   2   3  1   
  4   2  16  1   
  5   2  17  1   
  6   3   4  1   
  7   3  18  1   
  8   3  19  1   
  9   4   5  1   
 10   4   6  1   
 11   4  20  1   
 12   5   7  1   
 13   5  21  1   
 14   5  22  1   
 15   6   8  1   
 16   6  23  1   
 17   6  24  1   
 18   7   9  1   
 19   7  10  1   
 20   7  25  1   
 21   8  11  1   
 22   8  26  1   
 23   8  27  1   
 24   9  12  1   
 25   9  28  1   
 26   9  29  1   
 27  10  13  1   
 28  10  30  1   
 29  10  31  1   
 30  11  32  1   
 31  11  33  1   
 32  11  34  1   
 33  12  14  1   
 34  12  35  1   
 35  12  36  1   
 36  13  14  1   
 37  13  37  1   
 38  13  38  1   
 39  14  39  1   
 40  14  40  1   
@<TRIPOS>SUBSTRUCTURE
  1 ****   5 GROUP 4 **** **** 0

# MOE 2024.06 (io_trps.svl 2023.06)
