@<TRIPOS>MOLECULE
NONAME
60 63 1 0 0 
SMALL
USER_CHARGES


@<TRIPOS>ATOM
  1 O       -2.8750     1.9240     1.3890 O.2   1 <1>  -0.5700 
  2 C       -2.0710     1.5500     0.5690 C.2   1 <1>   0.5690 
  3 N       -2.1610     0.3580    -0.0920 N.am  1 <1>  -0.5470 
  4 C       -0.8790     2.4550     0.2330 C.3   1 <1>  -0.0190 
  5 C       -3.0850    -0.7050    -0.0480 C.ar  1 <1>   0.1170 
  6 C       -0.0140     2.7350     1.4730 C.3   1 <1>  -0.2400 
  7 C       -1.3390     3.7790    -0.3980 C.3   1 <1>  -0.2400 
  8 C       -2.9570    -1.7280    -0.9950 C.ar  1 <1>   0.0830 
  9 C       -4.1080    -0.7930     0.8880 C.ar  1 <1>  -0.1500 
 10 O       -1.9310    -1.6170    -1.8940 O.3   1 <1>  -0.3620 
 11 C       -3.8470    -2.7960    -0.9960 C.ar  1 <1>  -0.1500 
 12 C       -4.9870    -1.8600     0.8810 C.ar  1 <1>  -0.1500 
 13 C       -1.6710    -2.6280    -2.8430 C.3   1 <1>   0.0400 
 14 C       -4.8700    -2.8750    -0.0610 C.ar  1 <1>   0.1170 
 15 N       -5.7610    -3.9600    -0.1160 N.am  1 <1>  -0.5470 
 16 C       -6.5200    -4.5360     0.8640 C.2   1 <1>   0.5690 
 17 O       -6.4570    -4.2230     2.0270 O.2   1 <1>  -0.5700 
 18 C       -7.4620    -5.6570     0.4650 C.3   1 <1>  -0.0990 
 19 C       -8.8640    -5.1990    -0.0010 C.3   1 <1>   0.0000 
 20 C       -9.5890    -4.4060     1.1130 C.3   1 <1>  -0.1600 
 21 C       -9.7110    -6.4500    -0.3360 C.3   1 <1>  -0.1600 
 22 C       -8.7900    -4.3100    -1.2670 C.3   1 <1>  -0.1600 
 23 C      -11.0030    -3.9960     0.6600 C.3   1 <1>  -0.0800 
 24 C      -11.1260    -6.0520    -0.7950 C.3   1 <1>  -0.0800 
 25 C      -10.2010    -3.9020    -1.7310 C.3   1 <1>  -0.0800 
 26 C      -11.8170    -5.2600     0.3300 C.3   1 <1>  -0.1600 
 27 C      -10.8960    -3.1190    -0.6010 C.3   1 <1>  -0.1600 
 28 C      -11.0190    -5.1670    -2.0490 C.3   1 <1>  -0.1600 
 29 H       -1.4440     0.1910    -0.7980 H     1 <1>   0.3700 
 30 H       -0.2620     1.9460    -0.4860 H     1 <1>   0.0800 
 31 H       -0.5890     3.2620     2.2160 H     1 <1>   0.0800 
 32 H        0.8420     3.3300     1.2120 H     1 <1>   0.0800 
 33 H        0.3260     1.8100     1.9030 H     1 <1>   0.0800 
 34 H       -1.9500     4.3290     0.2960 H     1 <1>   0.0800 
 35 H       -1.9200     3.5850    -1.2820 H     1 <1>   0.0800 
 36 H       -0.4920     4.3840    -0.6690 H     1 <1>   0.0800 
 37 H       -4.2290    -0.0300     1.6340 H     1 <1>   0.1500 
 38 H       -3.7620    -3.5840    -1.7160 H     1 <1>   0.1500 
 39 H       -5.7710    -1.8960     1.6160 H     1 <1>   0.1500 
 40 H       -0.8080    -2.3380    -3.4150 H     1 <1>   0.0800 
 41 H       -2.5220    -2.7240    -3.4940 H     1 <1>   0.0800 
 42 H       -1.4720    -3.5510    -2.3270 H     1 <1>   0.0800 
 43 H       -5.8750    -4.3730    -1.0390 H     1 <1>   0.3700 
 44 H       -7.5730    -6.3030     1.3180 H     1 <1>   0.0800 
 45 H       -6.9980    -6.2390    -0.3090 H     1 <1>   0.0800 
 46 H       -9.0320    -3.5200     1.3630 H     1 <1>   0.0800 
 47 H       -9.6570    -5.0040     2.0050 H     1 <1>   0.0800 
 48 H       -9.7870    -7.0830     0.5320 H     1 <1>   0.0800 
 49 H       -9.2340    -7.0210    -1.1130 H     1 <1>   0.0800 
 50 H       -8.2940    -4.8380    -2.0610 H     1 <1>   0.0800 
 51 H       -8.2320    -3.4140    -1.0610 H     1 <1>   0.0800 
 52 H      -11.4900    -3.4450     1.4460 H     1 <1>   0.0800 
 53 H      -11.6980    -6.9360    -1.0210 H     1 <1>   0.0800 
 54 H      -10.1310    -3.2840    -2.6100 H     1 <1>   0.0800 
 55 H      -12.8110    -4.9840     0.0230 H     1 <1>   0.0800 
 56 H      -11.9060    -5.8750     1.2090 H     1 <1>   0.0800 
 57 H      -10.3360    -2.2270    -0.3770 H     1 <1>   0.0800 
 58 H      -11.8780    -2.8160    -0.9180 H     1 <1>   0.0800 
 59 H      -12.0040    -4.8880    -2.3830 H     1 <1>   0.0800 
 60 H      -10.5480    -5.7160    -2.8450 H     1 <1>   0.0800 
@<TRIPOS>BOND
  1   1   2  2   
  2   2   3  am  
  3   2   4  1   
  4   3   5  1   
  5   3  29  1   
  6   4   6  1   
  7   4   7  1   
  8   4  30  1   
  9   5   8  ar  
 10   5   9  ar  
 11   6  31  1   
 12   6  32  1   
 13   6  33  1   
 14   7  34  1   
 15   7  35  1   
 16   7  36  1   
 17   8  10  1   
 18   8  11  ar  
 19   9  12  ar  
 20   9  37  1   
 21  10  13  1   
 22  11  14  ar  
 23  11  38  1   
 24  12  14  ar  
 25  12  39  1   
 26  13  40  1   
 27  13  41  1   
 28  13  42  1   
 29  14  15  1   
 30  15  16  am  
 31  15  43  1   
 32  16  17  2   
 33  16  18  1   
 34  18  19  1   
 35  18  44  1   
 36  18  45  1   
 37  19  20  1   
 38  19  21  1   
 39  19  22  1   
 40  20  23  1   
 41  20  46  1   
 42  20  47  1   
 43  21  24  1   
 44  21  48  1   
 45  21  49  1   
 46  22  25  1   
 47  22  50  1   
 48  22  51  1   
 49  23  26  1   
 50  23  27  1   
 51  23  52  1   
 52  24  26  1   
 53  24  28  1   
 54  24  53  1   
 55  25  27  1   
 56  25  28  1   
 57  25  54  1   
 58  26  55  1   
 59  26  56  1   
 60  27  57  1   
 61  27  58  1   
 62  28  59  1   
 63  28  60  1   
@<TRIPOS>SUBSTRUCTURE
  1 ****  14 GROUP 4 **** **** 0

# MOE 2024.06 (io_trps.svl 2023.06)
