@<TRIPOS>MOLECULE
NONAME
48 49 1 0 0 
SMALL
USER_CHARGES


@<TRIPOS>ATOM
  1 O       -5.2010    -1.5610    -0.5350 O.3   1 <1>  -0.3630 
  2 C       -6.5370    -1.6590    -0.3580 C.ar  1 <1>   0.0830 
  3 C       -4.4110    -2.1270     0.4860 C.3   1 <1>   0.1200 
  4 C       -7.2200    -0.6440     0.3080 C.ar  1 <1>  -0.1440 
  5 C       -7.2140    -2.7740    -0.8480 C.ar  1 <1>  -0.1440 
  6 C       -2.9430    -2.0920     0.0450 C.3   1 <1>   0.2000 
  7 C       -8.5840    -0.7740     0.5130 C.ar  1 <1>  -0.1500 
  8 C       -6.5110     0.6060     0.8080 C.3   1 <1>  -0.0960 
  9 C       -8.5770    -2.8820    -0.6300 C.ar  1 <1>  -0.1500 
 10 C       -6.4960    -3.8710    -1.6230 C.3   1 <1>  -0.0960 
 11 O       -2.8460    -2.6190    -1.2450 O.3   1 <1>  -0.6800 
 12 C       -2.0230    -2.8960     0.9880 C.3   1 <1>   0.3430 
 13 C       -9.2590    -1.8900     0.0510 C.ar  1 <1>  -0.1500 
 14 N       -0.7780    -3.3130     0.2730 N.4   1 <1>  -0.9590 
 15 C       -0.1910    -4.5660     0.8220 C.3   1 <1>   0.3430 
 16 C        0.2170    -2.2110     0.1510 C.3   1 <1>   0.3430 
 17 C        0.9500    -5.0380    -0.0800 C.3   1 <1>  -0.1600 
 18 C        1.3630    -2.6520    -0.7600 C.3   1 <1>  -0.1600 
 19 C        2.0180    -3.9490    -0.2640 C.3   1 <1>  -0.0800 
 20 C        3.1010    -4.4150    -1.2410 C.3   1 <1>  -0.2400 
 21 H       -4.7390    -3.1390     0.6500 H     1 <1>   0.0800 
 22 H       -4.5600    -1.5570     1.3860 H     1 <1>   0.0800 
 23 H       -2.6160    -1.0670     0.0050 H     1 <1>   0.0800 
 24 H       -9.1310    -0.0070     1.0320 H     1 <1>   0.1500 
 25 H       -6.0260     0.4050     1.7440 H     1 <1>   0.0800 
 26 H       -7.2130     1.4080     0.9500 H     1 <1>   0.0800 
 27 H       -5.7780     0.9310     0.0910 H     1 <1>   0.0800 
 28 H       -9.1190    -3.7380    -0.9920 H     1 <1>   0.1500 
 29 H       -5.8090    -3.4380    -2.3280 H     1 <1>   0.0800 
 30 H       -7.1990    -4.4720    -2.1710 H     1 <1>   0.0800 
 31 H       -5.9540    -4.5070    -0.9480 H     1 <1>   0.0800 
 32 H       -3.5930    -2.2560    -1.7790 H     1 <1>   0.4000 
 33 H       -2.5600    -3.7750     1.3030 H     1 <1>   0.0800 
 34 H       -1.7870    -2.3190     1.8670 H     1 <1>   0.0800 
 35 H      -10.3190    -1.9820     0.2150 H     1 <1>   0.1500 
 36 H       -1.1150    -3.5050    -0.6910 H     1 <1>   0.4500 
 37 H       -0.9440    -5.3350     0.8750 H     1 <1>   0.0800 
 38 H        0.1870    -4.3870     1.8150 H     1 <1>   0.0800 
 39 H        0.6070    -1.9610     1.1240 H     1 <1>   0.0800 
 40 H       -0.2520    -1.3350    -0.2680 H     1 <1>   0.0800 
 41 H        0.5480    -5.3290    -1.0350 H     1 <1>   0.0800 
 42 H        1.4010    -5.9110     0.3590 H     1 <1>   0.0800 
 43 H        2.1000    -1.8690    -0.7940 H     1 <1>   0.0800 
 44 H        0.9860    -2.7830    -1.7600 H     1 <1>   0.0800 
 45 H        2.4850    -3.7580     0.6900 H     1 <1>   0.0800 
 46 H        2.6840    -4.6190    -2.2120 H     1 <1>   0.0800 
 47 H        3.5740    -5.3120    -0.8790 H     1 <1>   0.0800 
 48 H        3.8600    -3.6590    -1.3490 H     1 <1>   0.0800 
@<TRIPOS>BOND
  1   1   2  1   
  2   1   3  1   
  3   2   4  ar  
  4   2   5  ar  
  5   3   6  1   
  6   3  21  1   
  7   3  22  1   
  8   4   7  ar  
  9   4   8  1   
 10   5   9  ar  
 11   5  10  1   
 12   6  11  1   
 13   6  12  1   
 14   6  23  1   
 15   7  13  ar  
 16   7  24  1   
 17   8  25  1   
 18   8  26  1   
 19   8  27  1   
 20   9  13  ar  
 21   9  28  1   
 22  10  29  1   
 23  10  30  1   
 24  10  31  1   
 25  11  32  1   
 26  12  14  1   
 27  12  33  1   
 28  12  34  1   
 29  13  35  1   
 30  14  15  1   
 31  14  16  1   
 32  14  36  1   
 33  15  17  1   
 34  15  37  1   
 35  15  38  1   
 36  16  18  1   
 37  16  39  1   
 38  16  40  1   
 39  17  19  1   
 40  17  41  1   
 41  17  42  1   
 42  18  19  1   
 43  18  43  1   
 44  18  44  1   
 45  19  20  1   
 46  19  45  1   
 47  20  46  1   
 48  20  47  1   
 49  20  48  1   
@<TRIPOS>SUBSTRUCTURE
  1 ****   6 GROUP 4 **** **** 0

# MOE 2024.06 (io_trps.svl 2023.06)
