@<TRIPOS>MOLECULE
NONAME
39 40 1 0 0 
SMALL
USER_CHARGES


@<TRIPOS>ATOM
  1 O        0.2220     0.0710    -0.1380 O.2   1 <1>  -0.5700 
  2 C        0.1290    -1.0090     0.4110 C.2   1 <1>   0.6900 
  3 N       -1.0700    -1.5920     0.6890 N.am  1 <1>  -0.5470 
  4 N        1.2450    -1.6930     0.7550 N.am  1 <1>  -0.7300 
  5 C       -2.3880    -1.1520     0.4870 C.ar  1 <1>   0.1170 
  6 C        2.6350    -1.3010     0.4260 C.3   1 <1>   0.1400 
  7 C       -3.4030    -2.1010     0.4170 C.ar  1 <1>  -0.1500 
  8 C       -2.7330     0.1910     0.3730 C.ar  1 <1>  -0.1500 
  9 C        3.3680    -2.4830    -0.2280 C.3   1 <1>   0.2000 
 10 C       -4.7230    -1.7270     0.2340 C.ar  1 <1>  -0.1500 
 11 C       -4.0500     0.5710     0.1890 C.ar  1 <1>  -0.1500 
 12 O        3.1720    -3.6470     0.5170 O.3   1 <1>  -0.5600 
 13 C        4.8790    -2.3250    -0.2960 C.3   1 <1>  -0.1600 
 14 C       -5.0540    -0.3800     0.1180 C.ar  1 <1>   0.0830 
 15 C        4.2030    -4.5560     0.2830 C.3   1 <1>   0.1200 
 16 C        5.3590    -3.7650    -0.3280 C.3   1 <1>  -0.1600 
 17 O       -6.3210     0.0790    -0.0640 O.3   1 <1>  -0.3630 
 18 C       -7.4040    -0.8130    -0.1820 C.3   1 <1>   0.1200 
 19 C       -8.6710     0.0100    -0.3940 C.3   1 <1>  -0.2400 
 20 H       -0.9820    -2.5250     1.0730 H     1 <1>   0.3700 
 21 H        1.1890    -2.6590     1.0830 H     1 <1>   0.3700 
 22 H        3.1400    -1.0180     1.3320 H     1 <1>   0.0800 
 23 H        2.6400    -0.4560    -0.2410 H     1 <1>   0.0800 
 24 H       -3.1590    -3.1430     0.5020 H     1 <1>   0.1500 
 25 H       -1.9730     0.9480     0.4300 H     1 <1>   0.1500 
 26 H        2.9710    -2.6600    -1.2130 H     1 <1>   0.0800 
 27 H       -5.4730    -2.4920     0.1840 H     1 <1>   0.1500 
 28 H       -4.3070     1.6110     0.1000 H     1 <1>   0.1500 
 29 H        5.2380    -1.8360     0.5930 H     1 <1>   0.0800 
 30 H        5.1860    -1.7650    -1.1620 H     1 <1>   0.0800 
 31 H        3.8430    -5.3130    -0.3930 H     1 <1>   0.0800 
 32 H        4.4760    -5.0030     1.2240 H     1 <1>   0.0800 
 33 H        6.2680    -3.9000     0.2310 H     1 <1>   0.0800 
 34 H        5.5180    -4.0920    -1.3400 H     1 <1>   0.0800 
 35 H       -7.4720    -1.3880     0.7250 H     1 <1>   0.0800 
 36 H       -7.2250    -1.4580    -1.0240 H     1 <1>   0.0800 
 37 H       -8.8310     0.6640     0.4450 H     1 <1>   0.0800 
 38 H       -9.5190    -0.6430    -0.4880 H     1 <1>   0.0800 
 39 H       -8.5850     0.5950    -1.2920 H     1 <1>   0.0800 
@<TRIPOS>BOND
  1   1   2  2   
  2   2   3  am  
  3   2   4  am  
  4   3   5  1   
  5   3  20  1   
  6   4   6  1   
  7   4  21  1   
  8   5   7  ar  
  9   5   8  ar  
 10   6   9  1   
 11   6  22  1   
 12   6  23  1   
 13   7  10  ar  
 14   7  24  1   
 15   8  11  ar  
 16   8  25  1   
 17   9  12  1   
 18   9  13  1   
 19   9  26  1   
 20  10  14  ar  
 21  10  27  1   
 22  11  14  ar  
 23  11  28  1   
 24  12  15  1   
 25  13  16  1   
 26  13  29  1   
 27  13  30  1   
 28  14  17  1   
 29  15  16  1   
 30  15  31  1   
 31  15  32  1   
 32  16  33  1   
 33  16  34  1   
 34  17  18  1   
 35  18  19  1   
 36  18  35  1   
 37  18  36  1   
 38  19  37  1   
 39  19  38  1   
 40  19  39  1   
@<TRIPOS>SUBSTRUCTURE
  1 ****   3 GROUP 4 **** **** 0

# MOE 2024.06 (io_trps.svl 2023.06)
