@<TRIPOS>MOLECULE
NONAME
46 47 1 0 0 
SMALL
USER_CHARGES


@<TRIPOS>ATOM
  1 CL       0.2220     0.6140    -0.5250 Cl    1 <1>  -0.1770 
  2 C       -1.3020     1.4480    -0.7180 C.ar  1 <1>   0.1770 
  3 C       -1.5380     2.6910    -0.1270 C.ar  1 <1>   0.0860 
  4 C       -2.2650     0.8100    -1.4760 C.ar  1 <1>  -0.1500 
  5 C       -0.5670     3.4030     0.6800 C.2   1 <1>   0.5440 
  6 C       -2.7980     3.2530    -0.3370 C.ar  1 <1>  -0.1500 
  7 C       -3.5010     1.4020    -1.6570 C.ar  1 <1>  -0.1500 
  8 O       -0.9340     4.0150     1.6640 O.2   1 <1>  -0.5700 
  9 N        0.7540     3.4330     0.3470 N.am  1 <1>  -0.7300 
 10 C       -3.7920     2.6340    -1.0840 C.ar  1 <1>  -0.0090 
 11 C        1.8260     4.0830     1.1170 C.3   1 <1>   0.2200 
 12 S       -5.4150     3.4160    -1.3280 S.o2  1 <1>   1.4470 
 13 C        2.7440     4.8190     0.1480 C.3   1 <1>  -0.1600 
 14 C        2.7270     3.0030     1.7010 C.3   1 <1>  -0.1600 
 15 O       -6.4340     2.3930    -1.4270 O.2   1 <1>  -0.6500 
 16 O       -5.2950     4.3970    -2.3840 O.2   1 <1>  -0.6500 
 17 N       -5.6790     4.2340     0.1360 N.am  1 <1>  -0.8490 
 18 C        3.6810     3.7520    -0.4310 C.3   1 <1>  -0.1600 
 19 C        3.6660     2.5830     0.5640 C.3   1 <1>  -0.1600 
 20 C       -6.0290     3.3280     1.2290 C.3   1 <1>   0.1960 
 21 C       -6.6300     5.3400    -0.0010 C.3   1 <1>   0.1960 
 22 C       -5.6250     3.9540     2.5630 C.3   1 <1>  -0.2400 
 23 C       -5.8450     6.6440    -0.0950 C.3   1 <1>  -0.2400 
 24 H       -2.0480    -0.1460    -1.9190 H     1 <1>   0.1500 
 25 H       -3.0060     4.2140     0.1080 H     1 <1>   0.1500 
 26 H       -4.2530     0.9030    -2.2490 H     1 <1>   0.1500 
 27 H        1.0990     2.8270    -0.3990 H     1 <1>   0.3700 
 28 H        1.4180     4.7350     1.8730 H     1 <1>   0.0800 
 29 H        3.3270     5.5290     0.7070 H     1 <1>   0.0800 
 30 H        2.1940     5.3480    -0.6100 H     1 <1>   0.0800 
 31 H        2.1650     2.1790     2.1040 H     1 <1>   0.0800 
 32 H        3.3100     3.4400     2.4930 H     1 <1>   0.0800 
 33 H        4.6750     4.1450    -0.5600 H     1 <1>   0.0800 
 34 H        3.3140     3.4190    -1.3870 H     1 <1>   0.0800 
 35 H        3.2830     1.7000     0.0810 H     1 <1>   0.0800 
 36 H        4.6520     2.3720     0.9390 H     1 <1>   0.0800 
 37 H       -5.4900     2.4010     1.1230 H     1 <1>   0.0800 
 38 H       -7.0830     3.1000     1.2090 H     1 <1>   0.0800 
 39 H       -7.2840     5.3950     0.8520 H     1 <1>   0.0800 
 40 H       -7.2470     5.2100    -0.8760 H     1 <1>   0.0800 
 41 H       -4.5730     4.1780     2.5600 H     1 <1>   0.0800 
 42 H       -5.8210     3.2590     3.3600 H     1 <1>   0.0800 
 43 H       -6.1790     4.8530     2.7570 H     1 <1>   0.0800 
 44 H       -5.2370     6.7750     0.7820 H     1 <1>   0.0800 
 45 H       -6.5260     7.4720    -0.1690 H     1 <1>   0.0800 
 46 H       -5.2160     6.6440    -0.9670 H     1 <1>   0.0800 
@<TRIPOS>BOND
  1   1   2  1   
  2   2   3  ar  
  3   2   4  ar  
  4   3   5  1   
  5   3   6  ar  
  6   4   7  ar  
  7   4  24  1   
  8   5   8  2   
  9   5   9  am  
 10   6  10  ar  
 11   6  25  1   
 12   7  10  ar  
 13   7  26  1   
 14   9  11  1   
 15   9  27  1   
 16  10  12  1   
 17  11  13  1   
 18  11  14  1   
 19  11  28  1   
 20  12  15  2   
 21  12  16  2   
 22  12  17  am  
 23  13  18  1   
 24  13  29  1   
 25  13  30  1   
 26  14  19  1   
 27  14  31  1   
 28  14  32  1   
 29  17  20  1   
 30  17  21  1   
 31  18  19  1   
 32  18  33  1   
 33  18  34  1   
 34  19  35  1   
 35  19  36  1   
 36  20  22  1   
 37  20  37  1   
 38  20  38  1   
 39  21  23  1   
 40  21  39  1   
 41  21  40  1   
 42  22  41  1   
 43  22  42  1   
 44  22  43  1   
 45  23  44  1   
 46  23  45  1   
 47  23  46  1   
@<TRIPOS>SUBSTRUCTURE
  1 ****   6 GROUP 4 **** **** 0

# MOE 2024.06 (io_trps.svl 2023.06)
