@<TRIPOS>MOLECULE
NONAME
43 44 1 0 0 
SMALL
USER_CHARGES


@<TRIPOS>ATOM
  1 O        0.4250     0.4650     0.5980 O.2   1 <1>  -0.5700 
  2 C        0.2430     1.5430     0.0970 C.2   1 <1>   0.6590 
  3 O       -0.9590     1.9870    -0.2300 O.3   1 <1>  -0.4300 
  4 C        1.3990     2.4830    -0.2000 C.3   1 <1>  -0.0190 
  5 C       -2.1190     1.2190    -0.0010 C.3   1 <1>   0.1200 
  6 C        2.7190     1.6870    -0.2100 C.3   1 <1>   0.3430 
  7 C        1.4470     3.6660     0.7870 C.3   1 <1>  -0.1600 
  8 C       -3.3210     2.0230    -0.4850 C.3   1 <1>  -0.2400 
  9 N        3.8970     2.4860     0.2800 N.4   1 <1>  -0.9590 
 10 C        2.6330     4.6010     0.4750 C.3   1 <1>  -0.1600 
 11 C        3.8330     3.9030    -0.1810 C.3   1 <1>   0.3430 
 12 C        5.1720     1.7990    -0.0940 C.3   1 <1>   0.3430 
 13 C        6.3730     2.3440     0.6830 C.3   1 <1>  -0.0170 
 14 C        7.5940     1.5260     0.3120 C.ar  1 <1>  -0.1440 
 15 C        8.4070     1.9190    -0.7410 C.ar  1 <1>  -0.1500 
 16 C        7.9000     0.3710     1.0160 C.ar  1 <1>  -0.1500 
 17 C        9.5110     1.1610    -1.0900 C.ar  1 <1>  -0.1500 
 18 C        9.0050    -0.3860     0.6660 C.ar  1 <1>  -0.1500 
 19 C        9.8100     0.0070    -0.3870 C.ar  1 <1>  -0.1500 
 20 H        1.2380     2.8700    -1.1900 H     1 <1>   0.0800 
 21 H       -2.1910     1.0140     1.0550 H     1 <1>   0.0800 
 22 H       -2.0300     0.2920    -0.5430 H     1 <1>   0.0800 
 23 H        2.8990     1.3390    -1.2140 H     1 <1>   0.0800 
 24 H        2.6170     0.8150     0.4180 H     1 <1>   0.0800 
 25 H        1.5470     3.2800     1.7890 H     1 <1>   0.0800 
 26 H        0.5250     4.2220     0.7490 H     1 <1>   0.0800 
 27 H       -3.3940     2.9480     0.0590 H     1 <1>   0.0800 
 28 H       -4.2220     1.4600    -0.3210 H     1 <1>   0.0800 
 29 H       -3.2340     2.2270    -1.5370 H     1 <1>   0.0800 
 30 H        3.8330     2.5040     1.3080 H     1 <1>   0.4500 
 31 H        2.9520     5.0830     1.3830 H     1 <1>   0.0800 
 32 H        2.3050     5.3830    -0.1890 H     1 <1>   0.0800 
 33 H        3.7200     3.9240    -1.2530 H     1 <1>   0.0800 
 34 H        4.7370     4.4330     0.0730 H     1 <1>   0.0800 
 35 H        5.3540     1.9040    -1.1510 H     1 <1>   0.0800 
 36 H        5.0880     0.7450     0.1210 H     1 <1>   0.0800 
 37 H        6.2010     2.2630     1.7410 H     1 <1>   0.0800 
 38 H        6.5530     3.3750     0.4390 H     1 <1>   0.0800 
 39 H        8.1970     2.8150    -1.2990 H     1 <1>   0.1500 
 40 H        7.2910     0.0480     1.8420 H     1 <1>   0.1500 
 41 H       10.1420     1.4680    -1.9060 H     1 <1>   0.1500 
 42 H        9.2410    -1.2820     1.2140 H     1 <1>   0.1500 
 43 H       10.6690    -0.5820    -0.6580 H     1 <1>   0.1500 
@<TRIPOS>BOND
  1   1   2  2   
  2   2   3  1   
  3   2   4  1   
  4   3   5  1   
  5   4   6  1   
  6   4   7  1   
  7   4  20  1   
  8   5   8  1   
  9   5  21  1   
 10   5  22  1   
 11   6   9  1   
 12   6  23  1   
 13   6  24  1   
 14   7  10  1   
 15   7  25  1   
 16   7  26  1   
 17   8  27  1   
 18   8  28  1   
 19   8  29  1   
 20   9  11  1   
 21   9  12  1   
 22   9  30  1   
 23  10  11  1   
 24  10  31  1   
 25  10  32  1   
 26  11  33  1   
 27  11  34  1   
 28  12  13  1   
 29  12  35  1   
 30  12  36  1   
 31  13  14  1   
 32  13  37  1   
 33  13  38  1   
 34  14  15  ar  
 35  14  16  ar  
 36  15  17  ar  
 37  15  39  1   
 38  16  18  ar  
 39  16  40  1   
 40  17  19  ar  
 41  17  41  1   
 42  18  19  ar  
 43  18  42  1   
 44  19  43  1   
@<TRIPOS>SUBSTRUCTURE
  1 ****   9 GROUP 4 **** **** 0

# MOE 2024.06 (io_trps.svl 2023.06)
