@<TRIPOS>MOLECULE
NONAME
34 34 1 0 0 
SMALL
USER_CHARGES


@<TRIPOS>ATOM
  1 BR      -0.3670     0.3490    -0.0010 Br    1 <1>  -0.1110 
  2 C        1.4200     1.0650    -0.0010 C.ar  1 <1>   0.1110 
  3 C        1.5860     2.4360    -0.0010 C.ar  1 <1>  -0.1500 
  4 C        2.4890     0.1870    -0.0020 C.ar  1 <1>  -0.1500 
  5 C        2.8780     2.9250    -0.0010 C.ar  1 <1>   0.1770 
  6 C        3.7790     0.6950    -0.0020 C.ar  1 <1>  -0.1500 
  7 CL       3.1110     4.6600    -0.0010 Cl    1 <1>  -0.1770 
  8 C        3.9840     2.0760    -0.0020 C.ar  1 <1>   0.0830 
  9 O        5.2190     2.6470    -0.0020 O.3   1 <1>  -0.3630 
 10 C        6.4010     1.8870    -0.0030 C.3   1 <1>   0.1200 
 11 C        7.5630     2.8850    -0.0030 C.3   1 <1>   0.3430 
 12 N        8.8930     2.2020    -0.0030 N.4   1 <1>  -0.9060 
 13 C       10.0100     3.1770    -0.0030 C.3   1 <1>   0.3430 
 14 C       11.3320     2.4150    -0.0040 C.3   1 <1>  -0.1600 
 15 C       12.5210     3.3850    -0.0040 C.3   1 <1>  -0.1600 
 16 C       13.8490     2.6230    -0.0040 C.3   1 <1>  -0.2400 
 17 H        0.7410     3.1000    -0.0010 H     1 <1>   0.1500 
 18 H        2.3080    -0.8740    -0.0020 H     1 <1>   0.1500 
 19 H        4.5970     0.0000    -0.0030 H     1 <1>   0.1500 
 20 H        6.4080     1.2800    -0.8910 H     1 <1>   0.0800 
 21 H        6.4080     1.2800     0.8860 H     1 <1>   0.0800 
 22 H        7.4780     3.5100     0.8710 H     1 <1>   0.0800 
 23 H        7.4770     3.5100    -0.8770 H     1 <1>   0.0800 
 24 H        8.9840     1.5990    -0.8310 H     1 <1>   0.4500 
 25 H        8.9840     1.5990     0.8250 H     1 <1>   0.4500 
 26 H        9.9560     3.8060     0.8720 H     1 <1>   0.0800 
 27 H        9.9550     3.8060    -0.8790 H     1 <1>   0.0800 
 28 H       11.3950     1.7920    -0.8800 H     1 <1>   0.0800 
 29 H       11.3950     1.7920     0.8730 H     1 <1>   0.0800 
 30 H       12.4840     4.0170     0.8680 H     1 <1>   0.0800 
 31 H       12.4830     4.0170    -0.8760 H     1 <1>   0.0800 
 32 H       13.9340     2.0020     0.8710 H     1 <1>   0.0800 
 33 H       14.6710     3.3180    -0.0050 H     1 <1>   0.0800 
 34 H       13.9330     2.0020    -0.8790 H     1 <1>   0.0800 
@<TRIPOS>BOND
  1   1   2  1   
  2   2   3  ar  
  3   2   4  ar  
  4   3   5  ar  
  5   3  17  1   
  6   4   6  ar  
  7   4  18  1   
  8   5   7  1   
  9   5   8  ar  
 10   6   8  ar  
 11   6  19  1   
 12   8   9  1   
 13   9  10  1   
 14  10  11  1   
 15  10  20  1   
 16  10  21  1   
 17  11  12  1   
 18  11  22  1   
 19  11  23  1   
 20  12  13  1   
 21  12  24  1   
 22  12  25  1   
 23  13  14  1   
 24  13  26  1   
 25  13  27  1   
 26  14  15  1   
 27  14  28  1   
 28  14  29  1   
 29  15  16  1   
 30  15  30  1   
 31  15  31  1   
 32  16  32  1   
 33  16  33  1   
 34  16  34  1   
@<TRIPOS>SUBSTRUCTURE
  1 ****  10 GROUP 4 **** **** 0

# MOE 2024.06 (io_trps.svl 2023.06)
