@<TRIPOS>MOLECULE
NONAME
50 52 1 0 0 
SMALL
USER_CHARGES


@<TRIPOS>ATOM
  1 N       -0.0590     0.7860     0.9720 N.3   1 <1>  -0.8100 
  2 C       -0.8770     0.6000     2.1910 C.3   1 <1>   0.1100 
  3 C        0.2550     2.2220     0.7570 C.3   1 <1>   0.1100 
  4 C        1.1510    -0.0650     0.9820 C.3   1 <1>   0.2540 
  5 C       -2.1910     1.4190     2.1400 C.3   1 <1>   0.3430 
  6 C       -1.0050     3.1190     0.7950 C.3   1 <1>   0.3430 
  7 C        1.9530     0.0980    -0.3060 C.ar  1 <1>  -0.1440 
  8 N       -2.2480     2.2920     0.9190 N.4   1 <1>  -0.9590 
  9 C        1.5260    -0.4380    -1.5200 C.ar  1 <1>  -0.1440 
 10 C        3.1470     0.8050    -0.2580 C.ar  1 <1>  -0.1500 
 11 C       -3.4960     3.0610     0.7530 C.3   1 <1>   0.4810 
 12 C        2.2940    -0.2470    -2.6590 C.ar  1 <1>  -0.1500 
 13 C        0.2340    -1.2360    -1.6330 C.3   1 <1>  -0.0970 
 14 C        3.9070     0.9890    -1.3980 C.ar  1 <1>  -0.1500 
 15 C       -4.6090     2.0730     0.5040 C.2   1 <1>  -0.2880 
 16 C        3.4790     0.4640    -2.6010 C.ar  1 <1>  -0.1500 
 17 C       -5.1500     1.8170    -0.7000 C.2   1 <1>  -0.1780 
 18 C       -6.2130     0.8880    -1.0140 C.ar  1 <1>   0.0280 
 19 C       -6.4280     0.4980    -2.3340 C.ar  1 <1>  -0.1500 
 20 C       -7.0530     0.3520    -0.0390 C.ar  1 <1>  -0.1500 
 21 C       -7.4320    -0.3930    -2.6690 C.ar  1 <1>  -0.1500 
 22 C       -8.0580    -0.5400    -0.3670 C.ar  1 <1>  -0.1500 
 23 C       -8.2490    -0.9150    -1.6840 C.ar  1 <1>  -0.1500 
 24 H       -1.1240    -0.4430     2.3010 H     1 <1>   0.0800 
 25 H       -0.3100     0.8920     3.0590 H     1 <1>   0.0800 
 26 H        0.9570     2.5620     1.4990 H     1 <1>   0.0800 
 27 H        0.7220     2.3450    -0.2070 H     1 <1>   0.0800 
 28 H        1.7670     0.1880     1.8280 H     1 <1>   0.0800 
 29 H        0.8640    -1.0970     1.0860 H     1 <1>   0.0800 
 30 H       -2.2690     2.0200     3.0310 H     1 <1>   0.0800 
 31 H       -3.0220     0.7330     2.1340 H     1 <1>   0.0800 
 32 H       -1.0380     3.7050    -0.1090 H     1 <1>   0.0800 
 33 H       -0.9300     3.7980     1.6270 H     1 <1>   0.0800 
 34 H       -2.1800     1.6190     0.1390 H     1 <1>   0.4500 
 35 H        3.4980     1.2180     0.6710 H     1 <1>   0.1500 
 36 H       -3.7030     3.6600     1.6250 H     1 <1>   0.0800 
 37 H       -3.4070     3.7130    -0.1010 H     1 <1>   0.0800 
 38 H        1.9770    -0.6550    -3.6020 H     1 <1>   0.1500 
 39 H        0.0660    -1.5560    -2.6460 H     1 <1>   0.0800 
 40 H       -0.6010    -0.6340    -1.3270 H     1 <1>   0.0800 
 41 H        0.2860    -2.1100    -1.0100 H     1 <1>   0.0800 
 42 H        4.8320     1.5380    -1.3510 H     1 <1>   0.1500 
 43 H       -4.9380     1.5810     1.4010 H     1 <1>   0.1500 
 44 H        4.0670     0.6030    -3.4920 H     1 <1>   0.1500 
 45 H       -4.7820     2.3360    -1.5700 H     1 <1>   0.1500 
 46 H       -5.8040     0.8920    -3.1160 H     1 <1>   0.1500 
 47 H       -6.9340     0.6340     0.9890 H     1 <1>   0.1500 
 48 H       -7.5790    -0.6800    -3.6960 H     1 <1>   0.1500 
 49 H       -8.6950    -0.9430     0.4020 H     1 <1>   0.1500 
 50 H       -9.0310    -1.6090    -1.9410 H     1 <1>   0.1500 
@<TRIPOS>BOND
  1   1   2  1   
  2   1   3  1   
  3   1   4  1   
  4   2   5  1   
  5   2  24  1   
  6   2  25  1   
  7   3   6  1   
  8   3  26  1   
  9   3  27  1   
 10   4   7  1   
 11   4  28  1   
 12   4  29  1   
 13   5   8  1   
 14   5  30  1   
 15   5  31  1   
 16   6   8  1   
 17   6  32  1   
 18   6  33  1   
 19   7   9  ar  
 20   7  10  ar  
 21   8  11  1   
 22   8  34  1   
 23   9  12  ar  
 24   9  13  1   
 25  10  14  ar  
 26  10  35  1   
 27  11  15  1   
 28  11  36  1   
 29  11  37  1   
 30  12  16  ar  
 31  12  38  1   
 32  13  39  1   
 33  13  40  1   
 34  13  41  1   
 35  14  16  ar  
 36  14  42  1   
 37  15  17  2   
 38  15  43  1   
 39  16  44  1   
 40  17  18  1   
 41  17  45  1   
 42  18  19  ar  
 43  18  20  ar  
 44  19  21  ar  
 45  19  46  1   
 46  20  22  ar  
 47  20  47  1   
 48  21  23  ar  
 49  21  48  1   
 50  22  23  ar  
 51  22  49  1   
 52  23  50  1   
@<TRIPOS>SUBSTRUCTURE
  1 ****   8 GROUP 4 **** **** 0

# MOE 2024.06 (io_trps.svl 2023.06)
