@<TRIPOS>MOLECULE
NONAME
42 45 1 0 0 
SMALL
USER_CHARGES


@<TRIPOS>ATOM
  1 O       -0.5420    -1.9500     3.5990 O.2   1 <1>  -0.5700 
  2 C       -0.6080    -2.0900     2.4100 C.2   1 <1>   0.6590 
  3 O       -1.7300    -2.2500     1.7400 O.3   1 <1>  -0.4300 
  4 C        0.5650    -2.0990     1.4630 C.3   1 <1>  -0.0190 
  5 C       -1.4940    -2.3450     0.3560 C.3   1 <1>   0.2000 
  6 C        0.9950    -3.5640     1.1770 C.3   1 <1>  -0.0190 
  7 C       -0.1210    -1.6810     0.1530 C.3   1 <1>  -0.0800 
  8 C       -1.2100    -3.8170    -0.0100 C.3   1 <1>  -0.1600 
  9 C        2.5030    -3.8140     1.1540 C.2   1 <1>   0.5690 
 10 C        0.3250    -3.8430    -0.1900 C.3   1 <1>  -0.0800 
 11 C        0.5350    -2.5290    -0.9230 C.3   1 <1>  -0.1600 
 12 O        2.8860    -4.9170     1.4570 O.2   1 <1>  -0.5700 
 13 N        3.3460    -2.8050     0.7820 N.am  1 <1>  -0.5470 
 14 C        4.7420    -2.7090     0.6280 C.ar  1 <1>   0.1170 
 15 C        5.2520    -1.5390     0.0570 C.ar  1 <1>   0.0820 
 16 C        5.6270    -3.7080     1.0180 C.ar  1 <1>  -0.1500 
 17 O        4.3480    -0.5770    -0.3080 O.3   1 <1>  -0.3630 
 18 C        6.6240    -1.3910    -0.1180 C.ar  1 <1>  -0.1500 
 19 C        6.9910    -3.5580     0.8420 C.ar  1 <1>  -0.1500 
 20 C        4.7770     0.6350    -0.8900 C.3   1 <1>   0.0400 
 21 C        7.4950    -2.3940     0.2710 C.ar  1 <1>   0.0820 
 22 O        8.8190    -2.1660     0.0620 O.3   1 <1>  -0.3630 
 23 C        9.7860    -3.1300     0.4150 C.3   1 <1>   0.0400 
 24 H        1.3480    -1.4400     1.7930 H     1 <1>   0.0800 
 25 H       -2.3040    -1.9020    -0.1980 H     1 <1>   0.0800 
 26 H        0.5860    -4.2280     1.9210 H     1 <1>   0.0800 
 27 H       -0.1680    -0.6210    -0.0320 H     1 <1>   0.0800 
 28 H       -1.6870    -4.0560    -0.9450 H     1 <1>   0.0800 
 29 H       -1.5540    -4.5050     0.7440 H     1 <1>   0.0800 
 30 H        0.6950    -4.7200    -0.6960 H     1 <1>   0.0800 
 31 H        1.5690    -2.2840    -1.0900 H     1 <1>   0.0800 
 32 H        0.0030    -2.4880    -1.8600 H     1 <1>   0.0800 
 33 H        2.8960    -1.9380     0.4890 H     1 <1>   0.3700 
 34 H        5.2590    -4.6130     1.4640 H     1 <1>   0.1500 
 35 H        7.0510    -0.5100    -0.5540 H     1 <1>   0.1500 
 36 H        7.6380    -4.3550     1.1560 H     1 <1>   0.1500 
 37 H        3.9090     1.2360    -1.0940 H     1 <1>   0.0800 
 38 H        5.2940     0.4190    -1.8090 H     1 <1>   0.0800 
 39 H        5.4210     1.1480    -0.1980 H     1 <1>   0.0800 
 40 H       10.7540    -2.7410     0.1570 H     1 <1>   0.0800 
 41 H        9.5960    -4.0330    -0.1380 H     1 <1>   0.0800 
 42 H        9.7330    -3.3070     1.4740 H     1 <1>   0.0800 
@<TRIPOS>BOND
  1   1   2  2   
  2   2   3  1   
  3   2   4  1   
  4   3   5  1   
  5   4   6  1   
  6   4   7  1   
  7   4  24  1   
  8   5   7  1   
  9   5   8  1   
 10   5  25  1   
 11   6   9  1   
 12   6  10  1   
 13   6  26  1   
 14   7  11  1   
 15   7  27  1   
 16   8  10  1   
 17   8  28  1   
 18   8  29  1   
 19   9  12  2   
 20   9  13  am  
 21  10  11  1   
 22  10  30  1   
 23  11  31  1   
 24  11  32  1   
 25  13  14  1   
 26  13  33  1   
 27  14  15  ar  
 28  14  16  ar  
 29  15  17  1   
 30  15  18  ar  
 31  16  19  ar  
 32  16  34  1   
 33  17  20  1   
 34  18  21  ar  
 35  18  35  1   
 36  19  21  ar  
 37  19  36  1   
 38  20  37  1   
 39  20  38  1   
 40  20  39  1   
 41  21  22  1   
 42  22  23  1   
 43  23  40  1   
 44  23  41  1   
 45  23  42  1   
@<TRIPOS>SUBSTRUCTURE
  1 ****  13 GROUP 4 **** **** 0

# MOE 2024.06 (io_trps.svl 2023.06)
