@<TRIPOS>MOLECULE
NONAME
39 40 1 0 0 
SMALL
USER_CHARGES


@<TRIPOS>ATOM
  1 CL      -1.0910     0.4730    -0.1540 Cl    1 <1>  -0.1770 
  2 C       -0.0010     1.7820    -0.5700 C.ar  1 <1>   0.1770 
  3 C       -0.4090     3.1110    -0.4470 C.ar  1 <1>   0.1170 
  4 C        1.2510     1.4460    -1.0470 C.ar  1 <1>  -0.1500 
  5 N       -1.6810     3.4500     0.0410 N.am  1 <1>  -0.5470 
  6 C        0.4820     4.1120    -0.8370 C.ar  1 <1>  -0.1430 
  7 C        2.1310     2.4450    -1.4270 C.ar  1 <1>  -0.1430 
  8 C       -2.1770     3.2580     1.2970 C.2   1 <1>   0.5690 
  9 C        1.7380     3.7700    -1.3190 C.ar  1 <1>  -0.1500 
 10 C        0.1010     5.5830    -0.7270 C.3   1 <1>  -0.0960 
 11 C        3.5130     2.0990    -1.9510 C.3   1 <1>  -0.0960 
 12 O       -1.5280     2.7770     2.1940 O.2   1 <1>  -0.5700 
 13 C       -3.6100     3.6810     1.5870 C.3   1 <1>   0.1310 
 14 S       -4.2330     4.8650     0.3340 S.3   1 <1>  -0.4600 
 15 C       -5.9440     5.1800     0.8600 C.3   1 <1>   0.1500 
 16 C       -6.8220     4.0240     0.3910 C.3   1 <1>  -0.1600 
 17 C       -6.4560     6.3890     0.0880 C.3   1 <1>  -0.1600 
 18 C       -7.1630     4.3360    -1.0690 C.3   1 <1>  -0.1600 
 19 C       -6.9450     5.8430    -1.2580 C.3   1 <1>  -0.1600 
 20 H        1.5250     0.4100    -1.1190 H     1 <1>   0.1500 
 21 H       -2.2830     4.0010    -0.5760 H     1 <1>   0.3700 
 22 H        2.4250     4.5440    -1.6140 H     1 <1>   0.1500 
 23 H       -0.7390     5.7960    -1.3630 H     1 <1>   0.0800 
 24 H        0.9180     6.2190    -1.0190 H     1 <1>   0.0800 
 25 H       -0.1630     5.8180     0.2890 H     1 <1>   0.0800 
 26 H        3.5410     1.0850    -2.3080 H     1 <1>   0.0800 
 27 H        4.2380     2.2090    -1.1650 H     1 <1>   0.0800 
 28 H        3.7780     2.7520    -2.7640 H     1 <1>   0.0800 
 29 H       -3.6640     4.1660     2.5430 H     1 <1>   0.0800 
 30 H       -4.2520     2.8210     1.5730 H     1 <1>   0.0800 
 31 H       -5.9440     5.3250     1.9270 H     1 <1>   0.0800 
 32 H       -7.7290     4.0270     0.9690 H     1 <1>   0.0800 
 33 H       -6.3460     3.0660     0.4990 H     1 <1>   0.0800 
 34 H       -5.7020     7.1470    -0.0290 H     1 <1>   0.0800 
 35 H       -7.2910     6.8090     0.6200 H     1 <1>   0.0800 
 36 H       -8.1750     4.0510    -1.2990 H     1 <1>   0.0800 
 37 H       -6.4950     3.7960    -1.7190 H     1 <1>   0.0800 
 38 H       -6.1910     6.0040    -2.0100 H     1 <1>   0.0800 
 39 H       -7.8520     6.3360    -1.5660 H     1 <1>   0.0800 
@<TRIPOS>BOND
  1   1   2  1   
  2   2   3  ar  
  3   2   4  ar  
  4   3   5  1   
  5   3   6  ar  
  6   4   7  ar  
  7   4  20  1   
  8   5   8  am  
  9   5  21  1   
 10   6   9  ar  
 11   6  10  1   
 12   7   9  ar  
 13   7  11  1   
 14   8  12  2   
 15   8  13  1   
 16   9  22  1   
 17  10  23  1   
 18  10  24  1   
 19  10  25  1   
 20  11  26  1   
 21  11  27  1   
 22  11  28  1   
 23  13  14  1   
 24  13  29  1   
 25  13  30  1   
 26  14  15  1   
 27  15  16  1   
 28  15  17  1   
 29  15  31  1   
 30  16  18  1   
 31  16  32  1   
 32  16  33  1   
 33  17  19  1   
 34  17  34  1   
 35  17  35  1   
 36  18  19  1   
 37  18  36  1   
 38  18  37  1   
 39  19  38  1   
 40  19  39  1   
@<TRIPOS>SUBSTRUCTURE
  1 ****   5 GROUP 4 **** **** 0

# MOE 2024.06 (io_trps.svl 2023.06)
