@<TRIPOS>MOLECULE
NONAME
44 46 1 0 0 
SMALL
USER_CHARGES


@<TRIPOS>ATOM
  1 S       -0.1090    -0.3450    -0.0520 S.3   1 <1>  -0.3310 
  2 C       -1.5720     0.6630    -0.1940 C.ar  1 <1>   0.7220 
  3 C        1.2700     0.8790     0.0140 C.3   1 <1>   0.2140 
  4 N       -2.6870     0.0040    -0.2460 N.ar  1 <1>  -0.6200 
  5 N       -1.3850     1.9480    -0.2320 N.ar  1 <1>  -0.6200 
  6 C        2.5800     0.1200     0.1450 C.ar  1 <1>  -0.1440 
  7 C       -3.7410     0.7800    -0.3480 C.ar  1 <1>   0.7200 
  8 C       -2.5130     2.6010    -0.3320 C.ar  1 <1>   0.7200 
  9 C        3.1610    -0.0660     1.3910 C.ar  1 <1>  -0.1500 
 10 C        3.2070    -0.3910    -0.9810 C.ar  1 <1>  -0.1500 
 11 N       -3.7060     2.0890    -0.3970 N.ar  1 <1>  -0.6200 
 12 N       -4.9730     0.1680    -0.4110 N.pl3 1 <1>  -0.8380 
 13 N       -2.4710     3.9500    -0.3820 N.pl3 1 <1>  -0.8690 
 14 C        4.3580    -0.7510     1.5080 C.ar  1 <1>  -0.1500 
 15 C        4.4050    -1.0760    -0.8650 C.ar  1 <1>  -0.1500 
 16 C       -5.1600    -1.3180    -0.4620 C.3   1 <1>   0.2090 
 17 C       -6.2660     0.9190    -0.5000 C.3   1 <1>   0.2090 
 18 C       -1.2660     4.7790    -0.5490 C.3   1 <1>   0.2090 
 19 C        4.9810    -1.2550     0.3800 C.ar  1 <1>  -0.1500 
 20 C       -6.2690    -1.7650     0.5070 C.3   1 <1>   0.1200 
 21 C       -7.3070     0.3350     0.4720 C.3   1 <1>   0.1200 
 22 C       -1.6130     6.2080    -0.1550 C.3   1 <1>  -0.2400 
 23 O       -7.4520    -1.0470     0.2890 O.3   1 <1>  -0.5600 
 24 H        1.0930     1.5180     0.8600 H     1 <1>   0.0800 
 25 H        1.2350     1.4520    -0.8950 H     1 <1>   0.0800 
 26 H        2.6810     0.3170     2.2740 H     1 <1>   0.1500 
 27 H        2.7620    -0.2610    -1.9520 H     1 <1>   0.1500 
 28 H       -3.3680     4.3920    -0.5750 H     1 <1>   0.4000 
 29 H        4.8040    -0.8930     2.4770 H     1 <1>   0.1500 
 30 H        4.8870    -1.4710    -1.7420 H     1 <1>   0.1500 
 31 H       -4.2550    -1.8400    -0.2090 H     1 <1>   0.0800 
 32 H       -5.4330    -1.6030    -1.4630 H     1 <1>   0.0800 
 33 H       -6.6440     0.8500    -1.5050 H     1 <1>   0.0800 
 34 H       -6.1310     1.9600    -0.2690 H     1 <1>   0.0800 
 35 H       -0.9430     4.7410    -1.5760 H     1 <1>   0.0800 
 36 H       -0.4750     4.4050     0.0800 H     1 <1>   0.0800 
 37 H        5.9110    -1.7870     0.4710 H     1 <1>   0.1500 
 38 H       -5.9560    -1.6130     1.5260 H     1 <1>   0.0800 
 39 H       -6.4860    -2.8080     0.3640 H     1 <1>   0.0800 
 40 H       -8.2660     0.7910     0.3030 H     1 <1>   0.0800 
 41 H       -7.0100     0.5190     1.4900 H     1 <1>   0.0800 
 42 H       -2.3850     6.5970    -0.7950 H     1 <1>   0.0800 
 43 H       -0.7420     6.8300    -0.2550 H     1 <1>   0.0800 
 44 H       -1.9410     6.2410     0.8680 H     1 <1>   0.0800 
@<TRIPOS>BOND
  1   1   2  1   
  2   1   3  1   
  3   2   4  ar  
  4   2   5  ar  
  5   3   6  1   
  6   3  24  1   
  7   3  25  1   
  8   4   7  ar  
  9   5   8  ar  
 10   6   9  ar  
 11   6  10  ar  
 12   7  11  ar  
 13   7  12  1   
 14   8  11  ar  
 15   8  13  1   
 16   9  14  ar  
 17   9  26  1   
 18  10  15  ar  
 19  10  27  1   
 20  12  16  1   
 21  12  17  1   
 22  13  18  1   
 23  13  28  1   
 24  14  19  ar  
 25  14  29  1   
 26  15  19  ar  
 27  15  30  1   
 28  16  20  1   
 29  16  31  1   
 30  16  32  1   
 31  17  21  1   
 32  17  33  1   
 33  17  34  1   
 34  18  22  1   
 35  18  35  1   
 36  18  36  1   
 37  19  37  1   
 38  20  23  1   
 39  20  38  1   
 40  20  39  1   
 41  21  23  1   
 42  21  40  1   
 43  21  41  1   
 44  22  42  1   
 45  22  43  1   
 46  22  44  1   
@<TRIPOS>SUBSTRUCTURE
  1 ****   2 GROUP 4 **** **** 0

# MOE 2024.06 (io_trps.svl 2023.06)
