@<TRIPOS>MOLECULE
NONAME
31 32 1 0 0 
SMALL
USER_CHARGES


@<TRIPOS>ATOM
  1 CL      -0.2650    -0.1710     0.0290 Cl    1 <1>  -0.1770 
  2 C        1.3340    -0.8650     0.1050 C.ar  1 <1>   0.1770 
  3 C        2.1910    -0.7060    -0.9710 C.ar  1 <1>  -0.1500 
  4 C        1.7170    -1.5610     1.2380 C.ar  1 <1>  -0.1500 
  5 C        3.4620    -1.2550    -0.9150 C.ar  1 <1>  -0.1500 
  6 C        2.9870    -2.1110     1.2940 C.ar  1 <1>  -0.1500 
  7 C        3.8490    -1.9540     0.2210 C.ar  1 <1>   0.1020 
  8 S        5.4810    -2.6980     0.3800 S.3   1 <1>  -0.3320 
  9 C        6.4110    -2.2900    -1.1780 C.3   1 <1>   0.1310 
 10 C        7.8000    -2.9160    -1.1760 C.2   1 <1>   0.5690 
 11 O        8.0250    -3.7400    -2.0320 O.2   1 <1>  -0.5700 
 12 N        8.7650    -2.5420    -0.2710 N.am  1 <1>  -0.6600 
 13 C       10.1010    -3.2110    -0.2380 C.3   1 <1>   0.1400 
 14 C        8.6000    -1.5210     0.8090 C.3   1 <1>   0.1400 
 15 C       11.2290    -2.1740    -0.1260 C.3   1 <1>   0.1200 
 16 C        9.8190    -0.5830     0.8660 C.3   1 <1>   0.1200 
 17 O       11.0070    -1.3150     0.9570 O.3   1 <1>  -0.5600 
 18 H        1.8610    -0.1600    -1.8370 H     1 <1>   0.1500 
 19 H        1.0300    -1.6700     2.0580 H     1 <1>   0.1500 
 20 H        4.1200    -1.1310    -1.7520 H     1 <1>   0.1500 
 21 H        3.3090    -2.6580     2.1630 H     1 <1>   0.1500 
 22 H        6.4770    -1.2220    -1.2520 H     1 <1>   0.0800 
 23 H        5.8380    -2.6840    -1.9960 H     1 <1>   0.0800 
 24 H       10.2520    -3.8010    -1.1250 H     1 <1>   0.0800 
 25 H       10.1420    -3.8720     0.6090 H     1 <1>   0.0800 
 26 H        8.4990    -2.0240     1.7550 H     1 <1>   0.0800 
 27 H        7.7170    -0.9310     0.6520 H     1 <1>   0.0800 
 28 H       11.2940    -1.5870    -1.0260 H     1 <1>   0.0800 
 29 H       12.1710    -2.6670     0.0340 H     1 <1>   0.0800 
 30 H        9.7580     0.0510     1.7330 H     1 <1>   0.0800 
 31 H        9.8630     0.0360    -0.0130 H     1 <1>   0.0800 
@<TRIPOS>BOND
  1   1   2  1   
  2   2   3  ar  
  3   2   4  ar  
  4   3   5  ar  
  5   3  18  1   
  6   4   6  ar  
  7   4  19  1   
  8   5   7  ar  
  9   5  20  1   
 10   6   7  ar  
 11   6  21  1   
 12   7   8  1   
 13   8   9  1   
 14   9  10  1   
 15   9  22  1   
 16   9  23  1   
 17  10  11  2   
 18  10  12  am  
 19  12  13  1   
 20  12  14  1   
 21  13  15  1   
 22  13  24  1   
 23  13  25  1   
 24  14  16  1   
 25  14  26  1   
 26  14  27  1   
 27  15  17  1   
 28  15  28  1   
 29  15  29  1   
 30  16  17  1   
 31  16  30  1   
 32  16  31  1   
@<TRIPOS>SUBSTRUCTURE
  1 ****   8 GROUP 4 **** **** 0

# MOE 2024.06 (io_trps.svl 2023.06)
