@<TRIPOS>MOLECULE
NONAME
40 41 1 0 0 
SMALL
USER_CHARGES


@<TRIPOS>ATOM
  1 O       -0.5140     0.4490     0.1020 O.2   1 <1>  -0.5700 
  2 C       -0.4050     1.6380     0.3310 C.2   1 <1>   0.7150 
  3 N       -1.5240     2.3440     0.6530 N.am  1 <1>  -0.7300 
  4 C        0.8560     2.3190     0.2640 C.2   1 <1>  -0.2370 
  5 C       -2.8850     1.7760     0.7930 C.3   1 <1>   0.1400 
  6 N        2.0420     1.7430    -0.0790 N.pl3 1 <1>   0.3140 
  7 C        1.1580     3.6260     0.5110 C.2   1 <1>  -0.1500 
  8 C       -3.6200     1.8440    -0.5450 C.3   1 <1>  -0.0160 
  9 N        3.0560     2.6220    -0.0590 N.2   1 <1>  -0.7070 
 10 C        2.3030     0.3400    -0.4460 C.3   1 <1>   0.0160 
 11 C        2.5170     3.7460     0.2960 C.2   1 <1>   0.1390 
 12 C       -5.0140     1.2540    -0.4030 C.ar  1 <1>  -0.1430 
 13 C       -6.1120     2.0740    -0.1960 C.ar  1 <1>  -0.1500 
 14 C       -5.1900    -0.1170    -0.4730 C.ar  1 <1>  -0.1500 
 15 C       -7.3870     1.5320    -0.0560 C.ar  1 <1>   0.0820 
 16 C       -6.4510    -0.6700    -0.3340 C.ar  1 <1>  -0.1500 
 17 O       -8.4930     2.3060     0.1480 O.3   1 <1>  -0.3630 
 18 C       -7.5580     0.1470    -0.1240 C.ar  1 <1>   0.0820 
 19 C       -8.4310     3.7140     0.1360 C.3   1 <1>   0.0400 
 20 O       -8.8200    -0.3530     0.0200 O.3   1 <1>  -0.3630 
 21 C       -9.0800    -1.7380    -0.0320 C.3   1 <1>   0.0400 
 22 H       -1.4280     3.3460     0.8090 H     1 <1>   0.3700 
 23 H       -3.4290     2.3240     1.5420 H     1 <1>   0.0800 
 24 H       -2.8160     0.7490     1.1130 H     1 <1>   0.0800 
 25 H        0.5070     4.4250     0.8130 H     1 <1>   0.1500 
 26 H       -3.0710     1.2850    -1.2830 H     1 <1>   0.0800 
 27 H       -3.6860     2.8650    -0.8750 H     1 <1>   0.0800 
 28 H        2.0290    -0.2960     0.3750 H     1 <1>   0.0800 
 29 H        3.3470     0.2180    -0.6640 H     1 <1>   0.0800 
 30 H        1.7220     0.0870    -1.3120 H     1 <1>   0.0800 
 31 H        3.0810     4.6580     0.4050 H     1 <1>   0.1500 
 32 H       -5.9590     3.1340    -0.1440 H     1 <1>   0.1500 
 33 H       -4.3440    -0.7630    -0.6340 H     1 <1>   0.1500 
 34 H       -6.5460    -1.7360    -0.3930 H     1 <1>   0.1500 
 35 H       -9.4280     4.0900     0.2770 H     1 <1>   0.0800 
 36 H       -8.0490     4.0380    -0.8150 H     1 <1>   0.0800 
 37 H       -7.8000     4.0410     0.9430 H     1 <1>   0.0800 
 38 H      -10.1360    -1.8830     0.1060 H     1 <1>   0.0800 
 39 H       -8.5370    -2.2230     0.7600 H     1 <1>   0.0800 
 40 H       -8.7810    -2.1120    -0.9950 H     1 <1>   0.0800 
@<TRIPOS>BOND
  1   1   2  2   
  2   2   3  am  
  3   2   4  1   
  4   3   5  1   
  5   3  22  1   
  6   4   6  1   
  7   4   7  2   
  8   5   8  1   
  9   5  23  1   
 10   5  24  1   
 11   6   9  1   
 12   6  10  1   
 13   7  11  1   
 14   7  25  1   
 15   8  12  1   
 16   8  26  1   
 17   8  27  1   
 18   9  11  2   
 19  10  28  1   
 20  10  29  1   
 21  10  30  1   
 22  11  31  1   
 23  12  13  ar  
 24  12  14  ar  
 25  13  15  ar  
 26  13  32  1   
 27  14  16  ar  
 28  14  33  1   
 29  15  17  1   
 30  15  18  ar  
 31  16  18  ar  
 32  16  34  1   
 33  17  19  1   
 34  18  20  1   
 35  19  35  1   
 36  19  36  1   
 37  19  37  1   
 38  20  21  1   
 39  21  38  1   
 40  21  39  1   
 41  21  40  1   
@<TRIPOS>SUBSTRUCTURE
  1 ****   8 GROUP 4 **** **** 0

# MOE 2024.06 (io_trps.svl 2023.06)
