@<TRIPOS>MOLECULE
NONAME
23 23 1 0 0 
SMALL
USER_CHARGES


@<TRIPOS>ATOM
  1 S        0.2100     0.7550    -1.7060 S.o   1 <1>   0.2960 
  2 O        0.0190    -0.7400    -2.2140 O.2   1 <1>  -0.5000 
  3 C       -1.3850     1.2440    -0.9070 C.2   1 <1>   0.0510 
  4 C        1.4160     0.7690    -0.2400 C.3   1 <1>   0.1940 
  5 S       -2.4350    -0.0480    -0.3560 S.3   1 <1>  -0.0800 
  6 C       -1.9010     2.4600    -0.6540 C.2   1 <1>  -0.1500 
  7 C        1.6030     2.1910     0.3080 C.3   1 <1>  -0.2400 
  8 C        2.7850     0.2520    -0.7030 C.3   1 <1>  -0.2400 
  9 C        0.9310    -0.1370     0.9020 C.3   1 <1>  -0.2400 
 10 C       -3.6000     1.1320     0.2310 C.2   1 <1>  -0.1100 
 11 C       -3.1740     2.3910     0.0000 C.2   1 <1>  -0.1500 
 12 H       -1.4460     3.4030    -0.9000 H     1 <1>   0.1500 
 13 H        2.3250     2.2000     1.1050 H     1 <1>   0.0800 
 14 H        1.9450     2.8480    -0.4710 H     1 <1>   0.0800 
 15 H        0.6740     2.5720     0.6920 H     1 <1>   0.0800 
 16 H        3.1690     0.8710    -1.4940 H     1 <1>   0.0800 
 17 H        2.6880    -0.7510    -1.0810 H     1 <1>   0.0800 
 18 H        3.4930     0.2470     0.1060 H     1 <1>   0.0800 
 19 H        0.0140     0.2360     1.3210 H     1 <1>   0.0800 
 20 H        1.6630    -0.1910     1.6880 H     1 <1>   0.0800 
 21 H        0.7520    -1.1310     0.5300 H     1 <1>   0.0800 
 22 H       -4.4940     0.7520     0.6930 H     1 <1>   0.1500 
 23 H       -3.7090     3.2870     0.2640 H     1 <1>   0.1500 
@<TRIPOS>BOND
  1   1   2  2   
  2   1   3  1   
  3   1   4  1   
  4   3   5  1   
  5   3   6  2   
  6   4   7  1   
  7   4   8  1   
  8   4   9  1   
  9   5  10  1   
 10   6  11  1   
 11   6  12  1   
 12   7  13  1   
 13   7  14  1   
 14   7  15  1   
 15   8  16  1   
 16   8  17  1   
 17   8  18  1   
 18   9  19  1   
 19   9  20  1   
 20   9  21  1   
 21  10  11  2   
 22  10  22  1   
 23  11  23  1   
@<TRIPOS>SUBSTRUCTURE
  1 ****   3 GROUP 4 **** **** 0

# MOE 2024.06 (io_trps.svl 2023.06)
