@<TRIPOS>MOLECULE
NONAME
35 35 1 0 0 
SMALL
USER_CHARGES


@<TRIPOS>ATOM
  1 F        0.5350     0.0740     0.6020 F     1 <1>  -0.3400 
  2 C        0.7410     0.8250    -0.4730 C.3   1 <1>   1.0200 
  3 F        1.5270     0.1010    -1.2590 F     1 <1>  -0.3400 
  4 F       -0.4210     0.9020    -1.1050 F     1 <1>  -0.3400 
  5 C        1.3800     2.1830    -0.1450 C.3   1 <1>   0.2200 
  6 N        2.7780     2.0760     0.4830 N.am  1 <1>  -0.7300 
  7 C        0.3850     3.0100     0.6820 C.3   1 <1>   1.0200 
  8 C        3.8790     2.6660    -0.0350 C.2   1 <1>   0.7800 
  9 F        0.8830     4.2000     0.9900 F     1 <1>  -0.3400 
 10 F       -0.7630     3.2560     0.0660 F     1 <1>  -0.3400 
 11 F        0.0750     2.4480     1.8440 F     1 <1>  -0.3400 
 12 O        3.8120     3.3280    -1.0490 O.2   1 <1>  -0.5700 
 13 O        5.0210     2.4710     0.6260 O.3   1 <1>  -0.2330 
 14 C        6.2180     3.0460     0.3320 C.ar  1 <1>   0.0830 
 15 C        7.3720     2.2640     0.3470 C.ar  1 <1>  -0.1430 
 16 C        6.2920     4.4040     0.0460 C.ar  1 <1>  -0.1500 
 17 C        8.5960     2.8590     0.0490 C.ar  1 <1>  -0.1440 
 18 C        7.3040     0.7720     0.6750 C.3   1 <1>  -0.0970 
 19 C        7.5070     4.9920    -0.2450 C.ar  1 <1>  -0.1430 
 20 C        8.6510     4.2140    -0.2410 C.ar  1 <1>  -0.1500 
 21 C        9.8940     2.0620     0.0270 C.3   1 <1>  -0.0970 
 22 C        7.5970     6.4730    -0.5650 C.3   1 <1>  -0.0970 
 23 H        1.4760     2.6950    -1.0840 H     1 <1>   0.0800 
 24 H        2.8830     1.5470     1.3530 H     1 <1>   0.3700 
 25 H        5.3990     5.0010     0.0500 H     1 <1>   0.1500 
 26 H        6.3690     0.4970     1.1250 H     1 <1>   0.0800 
 27 H        8.0810     0.5040     1.3660 H     1 <1>   0.0800 
 28 H        7.4260     0.1990    -0.2270 H     1 <1>   0.0800 
 29 H        9.5950     4.6740    -0.4690 H     1 <1>   0.1500 
 30 H        9.7870     1.1960    -0.6010 H     1 <1>   0.0800 
 31 H       10.1480     1.7490     1.0230 H     1 <1>   0.0800 
 32 H       10.7030     2.6540    -0.3590 H     1 <1>   0.0800 
 33 H        6.6220     6.8800    -0.7660 H     1 <1>   0.0800 
 34 H        8.2140     6.6260    -1.4310 H     1 <1>   0.0800 
 35 H        8.0270     7.0000     0.2680 H     1 <1>   0.0800 
@<TRIPOS>BOND
  1   1   2  1   
  2   2   3  1   
  3   2   4  1   
  4   2   5  1   
  5   5   6  1   
  6   5   7  1   
  7   5  23  1   
  8   6   8  am  
  9   6  24  1   
 10   7   9  1   
 11   7  10  1   
 12   7  11  1   
 13   8  12  2   
 14   8  13  1   
 15  13  14  1   
 16  14  15  ar  
 17  14  16  ar  
 18  15  17  ar  
 19  15  18  1   
 20  16  19  ar  
 21  16  25  1   
 22  17  20  ar  
 23  17  21  1   
 24  18  26  1   
 25  18  27  1   
 26  18  28  1   
 27  19  20  ar  
 28  19  22  1   
 29  20  29  1   
 30  21  30  1   
 31  21  31  1   
 32  21  32  1   
 33  22  33  1   
 34  22  34  1   
 35  22  35  1   
@<TRIPOS>SUBSTRUCTURE
  1 ****   8 GROUP 4 **** **** 0

# MOE 2024.06 (io_trps.svl 2023.06)
