@<TRIPOS>MOLECULE
NONAME
43 44 1 0 0 
SMALL
USER_CHARGES


@<TRIPOS>ATOM
  1 BR       0.0630     1.8150    -0.1820 Br    1 <1>  -0.1110 
  2 C       -1.8620     1.7580    -0.1650 C.ar  1 <1>   0.1110 
  3 C       -2.5640     2.7260    -0.8560 C.ar  1 <1>  -0.1500 
  4 C       -2.4950     0.7510     0.5380 C.ar  1 <1>  -0.1500 
  5 C       -3.9470     2.6770    -0.8390 C.ar  1 <1>  -0.1500 
  6 C       -3.8780     0.7170     0.5460 C.ar  1 <1>  -0.1500 
  7 C       -4.6210     1.6750    -0.1440 C.ar  1 <1>   0.1170 
  8 N       -6.0220     1.6940    -0.1620 N.am  1 <1>  -0.5470 
  9 C       -6.9730     0.7580     0.1480 C.2   1 <1>   0.5690 
 10 O       -6.6860    -0.3730     0.4690 O.2   1 <1>  -0.5700 
 11 C       -8.4670     1.1580     0.0310 C.3   1 <1>   0.2810 
 12 N       -8.8240     2.5230     0.5450 N.am  1 <1>  -0.6600 
 13 C       -9.4140     0.2190     0.7980 C.3   1 <1>  -0.1600 
 14 C       -8.4900     3.6790    -0.0990 C.2   1 <1>   0.7800 
 15 C       -9.9260     2.4480     1.5290 C.3   1 <1>   0.1400 
 16 C      -10.5720     1.0960     1.2660 C.3   1 <1>  -0.1600 
 17 O       -7.7500     3.6780    -1.0640 O.2   1 <1>  -0.5700 
 18 O       -8.9920     4.8150     0.3870 O.3   1 <1>  -0.4300 
 19 C       -8.7620     6.1250    -0.0840 C.3   1 <1>   0.2800 
 20 C       -9.5710     7.0300     0.8460 C.3   1 <1>  -0.2400 
 21 C       -7.2740     6.4780     0.0360 C.3   1 <1>  -0.2400 
 22 C       -9.2860     6.2730    -1.5170 C.3   1 <1>  -0.2400 
 23 H       -2.0400     3.4970    -1.3930 H     1 <1>   0.1500 
 24 H       -1.9190     0.0130     1.0670 H     1 <1>   0.1500 
 25 H       -4.5120     3.4220    -1.3710 H     1 <1>   0.1500 
 26 H       -4.3780    -0.0600     1.0950 H     1 <1>   0.1500 
 27 H       -6.4280     2.5660    -0.5260 H     1 <1>   0.3700 
 28 H       -8.7280     1.1230    -1.0120 H     1 <1>   0.0800 
 29 H       -8.9100    -0.1790     1.6620 H     1 <1>   0.0800 
 30 H       -9.7390    -0.6020     0.1850 H     1 <1>   0.0800 
 31 H      -10.6340     3.2500     1.4040 H     1 <1>   0.0800 
 32 H       -9.5120     2.4820     2.5230 H     1 <1>   0.0800 
 33 H      -11.0540     0.7050     2.1450 H     1 <1>   0.0800 
 34 H      -11.3000     1.1980     0.4800 H     1 <1>   0.0800 
 35 H       -9.2340     6.9210     1.8610 H     1 <1>   0.0800 
 36 H      -10.6160     6.7800     0.7940 H     1 <1>   0.0800 
 37 H       -9.4550     8.0600     0.5600 H     1 <1>   0.0800 
 38 H       -6.6820     5.9150    -0.6600 H     1 <1>   0.0800 
 39 H       -6.9240     6.2880     1.0350 H     1 <1>   0.0800 
 40 H       -7.1270     7.5200    -0.1830 H     1 <1>   0.0800 
 41 H       -8.6950     5.7030    -2.2090 H     1 <1>   0.0800 
 42 H       -9.2350     7.3030    -1.8200 H     1 <1>   0.0800 
 43 H      -10.3100     5.9510    -1.5760 H     1 <1>   0.0800 
@<TRIPOS>BOND
  1   1   2  1   
  2   2   3  ar  
  3   2   4  ar  
  4   3   5  ar  
  5   3  23  1   
  6   4   6  ar  
  7   4  24  1   
  8   5   7  ar  
  9   5  25  1   
 10   6   7  ar  
 11   6  26  1   
 12   7   8  1   
 13   8   9  am  
 14   8  27  1   
 15   9  10  2   
 16   9  11  1   
 17  11  12  1   
 18  11  13  1   
 19  11  28  1   
 20  12  14  am  
 21  12  15  1   
 22  13  16  1   
 23  13  29  1   
 24  13  30  1   
 25  14  17  2   
 26  14  18  1   
 27  15  16  1   
 28  15  31  1   
 29  15  32  1   
 30  16  33  1   
 31  16  34  1   
 32  18  19  1   
 33  19  20  1   
 34  19  21  1   
 35  19  22  1   
 36  20  35  1   
 37  20  36  1   
 38  20  37  1   
 39  21  38  1   
 40  21  39  1   
 41  21  40  1   
 42  22  41  1   
 43  22  42  1   
 44  22  43  1   
@<TRIPOS>SUBSTRUCTURE
  1 ****   8 GROUP 4 **** **** 0

# MOE 2024.06 (io_trps.svl 2023.06)
