@<TRIPOS>MOLECULE
NONAME
42 43 1 0 0 
SMALL
USER_CHARGES


@<TRIPOS>ATOM
  1 F        4.8580    -8.8220     2.1500 F     1 <1>  -0.1900 
  2 C        5.6220    -8.0520     1.4200 C.ar  1 <1>   0.1900 
  3 C        5.0670    -6.9690     0.7530 C.ar  1 <1>  -0.1440 
  4 C        6.9680    -8.3600     1.3490 C.ar  1 <1>  -0.1500 
  5 C        5.9110    -6.1800    -0.0140 C.ar  1 <1>  -0.1500 
  6 C        3.5850    -6.6420     0.8480 C.3   1 <1>   0.2640 
  7 C        7.7950    -7.5580     0.5810 C.ar  1 <1>  -0.1500 
  8 C        7.2650    -6.4720    -0.0980 C.ar  1 <1>  -0.1500 
  9 O        2.9930    -6.8830    -0.4130 O.3   1 <1>  -0.3620 
 10 C        1.6520    -6.7230    -0.5080 C.ar  1 <1>   0.0830 
 11 C        0.7330    -7.5220     0.1830 C.ar  1 <1>   0.0830 
 12 C        1.1900    -5.7180    -1.3400 C.ar  1 <1>  -0.1500 
 13 O        1.0900    -8.5540     0.9850 O.3   1 <1>  -0.3620 
 14 C       -0.6220    -7.2680     0.0620 C.ar  1 <1>  -0.1500 
 15 C       -0.1680    -5.4770    -1.4650 C.ar  1 <1>  -0.1500 
 16 C        1.8200    -9.6140     0.4010 C.3   1 <1>   0.0400 
 17 C       -1.0810    -6.2460    -0.7570 C.ar  1 <1>  -0.1430 
 18 C       -2.5640    -5.9760    -0.8700 C.3   1 <1>   0.4860 
 19 N       -2.9190    -5.0980     0.2640 N.4   1 <1>  -0.9060 
 20 C       -4.3490    -4.7370     0.3140 C.3   1 <1>   0.3430 
 21 C       -4.5670    -3.8420     1.5230 C.3   1 <1>  -0.2400 
 22 H        7.3550    -9.2080     1.8830 H     1 <1>   0.1500 
 23 H        5.5150    -5.3360    -0.5530 H     1 <1>   0.1500 
 24 H        3.4450    -5.6040     1.0900 H     1 <1>   0.0800 
 25 H        3.0960    -7.2440     1.5910 H     1 <1>   0.0800 
 26 H        8.8470    -7.7780     0.5100 H     1 <1>   0.1500 
 27 H        7.9080    -5.8510    -0.6980 H     1 <1>   0.1500 
 28 H        1.9030    -5.1260    -1.8870 H     1 <1>   0.1500 
 29 H       -1.3000    -7.8960     0.6140 H     1 <1>   0.1500 
 30 H       -0.4920    -4.6870    -2.1220 H     1 <1>   0.1500 
 31 H        1.8700   -10.4200     1.1110 H     1 <1>   0.0800 
 32 H        2.8150    -9.2830     0.1640 H     1 <1>   0.0800 
 33 H        1.3140    -9.9400    -0.4910 H     1 <1>   0.0800 
 34 H       -3.1120    -6.9040    -0.8170 H     1 <1>   0.0800 
 35 H       -2.7820    -5.4920    -1.8080 H     1 <1>   0.0800 
 36 H       -2.3360    -4.2550     0.2080 H     1 <1>   0.4500 
 37 H       -2.6380    -5.5710     1.1310 H     1 <1>   0.4500 
 38 H       -4.9570    -5.6250     0.4030 H     1 <1>   0.0800 
 39 H       -4.6350    -4.2120    -0.5850 H     1 <1>   0.0800 
 40 H       -4.3140    -4.3540     2.4350 H     1 <1>   0.0800 
 41 H       -5.6060    -3.5670     1.5780 H     1 <1>   0.0800 
 42 H       -3.9910    -2.9370     1.4430 H     1 <1>   0.0800 
@<TRIPOS>BOND
  1   1   2  1   
  2   2   3  ar  
  3   2   4  ar  
  4   3   5  ar  
  5   3   6  1   
  6   4   7  ar  
  7   4  22  1   
  8   5   8  ar  
  9   5  23  1   
 10   6   9  1   
 11   6  24  1   
 12   6  25  1   
 13   7   8  ar  
 14   7  26  1   
 15   8  27  1   
 16   9  10  1   
 17  10  11  ar  
 18  10  12  ar  
 19  11  13  1   
 20  11  14  ar  
 21  12  15  ar  
 22  12  28  1   
 23  13  16  1   
 24  14  17  ar  
 25  14  29  1   
 26  15  17  ar  
 27  15  30  1   
 28  16  31  1   
 29  16  32  1   
 30  16  33  1   
 31  17  18  1   
 32  18  19  1   
 33  18  34  1   
 34  18  35  1   
 35  19  20  1   
 36  19  36  1   
 37  19  37  1   
 38  20  21  1   
 39  20  38  1   
 40  20  39  1   
 41  21  40  1   
 42  21  41  1   
 43  21  42  1   
@<TRIPOS>SUBSTRUCTURE
  1 ****  10 GROUP 4 **** **** 0

# MOE 2024.06 (io_trps.svl 2023.06)
