@<TRIPOS>MOLECULE
NONAME
40 41 1 0 0 
SMALL
USER_CHARGES


@<TRIPOS>ATOM
  1 S       -0.0430     0.2450    -0.6970 S.o2  1 <1>   1.4470 
  2 O       -0.4410     0.4840    -2.0680 O.2   1 <1>  -0.6500 
  3 O       -0.3280    -1.0370    -0.0900 O.2   1 <1>  -0.6500 
  4 N       -0.8280     1.4120     0.2470 N.am  1 <1>  -0.8490 
  5 C        1.7120     0.6470    -0.4700 C.ar  1 <1>  -0.0090 
  6 C       -2.2450     1.0740     0.4450 C.3   1 <1>   0.1960 
  7 C       -0.7280     2.7650    -0.3250 C.3   1 <1>   0.1960 
  8 C        2.5300     0.9560    -1.5500 C.ar  1 <1>  -0.1500 
  9 C        2.2800     0.6630     0.7980 C.ar  1 <1>  -0.1500 
 10 C       -2.9580     2.1420     1.2950 C.3   1 <1>   0.1200 
 11 C       -1.4680     3.7900     0.5540 C.3   1 <1>   0.1200 
 12 C        3.8650     1.2760    -1.3710 C.ar  1 <1>  -0.1500 
 13 C        3.6140     0.9820     0.9840 C.ar  1 <1>  -0.1500 
 14 O       -2.8040     3.4130     0.7270 O.3   1 <1>  -0.5600 
 15 C        4.4160     1.2920    -0.1010 C.ar  1 <1>  -0.1430 
 16 C        5.8820     1.6400     0.0990 C.3   1 <1>  -0.0170 
 17 C        6.7480     0.3770     0.0310 C.3   1 <1>  -0.1600 
 18 C        8.2350     0.7000     0.2300 C.3   1 <1>  -0.1600 
 19 C        9.0870    -0.5690     0.1600 C.3   1 <1>  -0.2400 
 20 H       -2.3240     0.1240     0.9450 H     1 <1>   0.0800 
 21 H       -2.7420     0.9900    -0.5080 H     1 <1>   0.0800 
 22 H       -1.1540     2.7870    -1.3140 H     1 <1>   0.0800 
 23 H        0.3070     3.0520    -0.4000 H     1 <1>   0.0800 
 24 H        2.1190     0.9460    -2.5460 H     1 <1>   0.1500 
 25 H        1.6670     0.4230     1.6500 H     1 <1>   0.1500 
 26 H       -2.5540     2.1600     2.2920 H     1 <1>   0.0800 
 27 H       -4.0110     1.9320     1.3510 H     1 <1>   0.0800 
 28 H       -1.4580     4.7580     0.0870 H     1 <1>   0.0800 
 29 H       -1.0020     3.8650     1.5210 H     1 <1>   0.0800 
 30 H        4.4760     1.5090    -2.2270 H     1 <1>   0.1500 
 31 H        4.0270     0.9840     1.9780 H     1 <1>   0.1500 
 32 H        6.0120     2.1190     1.0530 H     1 <1>   0.0800 
 33 H        6.1940     2.3360    -0.6610 H     1 <1>   0.0800 
 34 H        6.6070    -0.0960    -0.9260 H     1 <1>   0.0800 
 35 H        6.4250    -0.3130     0.7910 H     1 <1>   0.0800 
 36 H        8.3800     1.1700     1.1880 H     1 <1>   0.0800 
 37 H        8.5630     1.3870    -0.5320 H     1 <1>   0.0800 
 38 H        8.7920    -1.2640     0.9270 H     1 <1>   0.0800 
 39 H       10.1250    -0.3240     0.3020 H     1 <1>   0.0800 
 40 H        8.9760    -1.0450    -0.7990 H     1 <1>   0.0800 
@<TRIPOS>BOND
  1   1   2  2   
  2   1   3  2   
  3   1   4  am  
  4   1   5  1   
  5   4   6  1   
  6   4   7  1   
  7   5   8  ar  
  8   5   9  ar  
  9   6  10  1   
 10   6  20  1   
 11   6  21  1   
 12   7  11  1   
 13   7  22  1   
 14   7  23  1   
 15   8  12  ar  
 16   8  24  1   
 17   9  13  ar  
 18   9  25  1   
 19  10  14  1   
 20  10  26  1   
 21  10  27  1   
 22  11  14  1   
 23  11  28  1   
 24  11  29  1   
 25  12  15  ar  
 26  12  30  1   
 27  13  15  ar  
 28  13  31  1   
 29  15  16  1   
 30  16  17  1   
 31  16  32  1   
 32  16  33  1   
 33  17  18  1   
 34  17  34  1   
 35  17  35  1   
 36  18  19  1   
 37  18  36  1   
 38  18  37  1   
 39  19  38  1   
 40  19  39  1   
 41  19  40  1   
@<TRIPOS>SUBSTRUCTURE
  1 ****   5 GROUP 4 **** **** 0

# MOE 2024.06 (io_trps.svl 2023.06)
