@<TRIPOS>MOLECULE
NONAME
38 39 1 0 0 
SMALL
USER_CHARGES


@<TRIPOS>ATOM
  1 S        0.3860    -0.4910     0.5790 S.o2  1 <1>   1.4470 
  2 O        1.5880    -0.8070     1.3210 O.2   1 <1>  -0.6500 
  3 O       -0.8620    -1.1090     0.9680 O.2   1 <1>  -0.6500 
  4 N        0.6690    -0.9670    -1.0250 N.am  1 <1>  -0.8490 
  5 C        0.2060     1.3100     0.4630 C.ar  1 <1>  -0.0090 
  6 C        1.1760    -2.3640    -1.1160 C.3   1 <1>   0.2570 
  7 C       -0.5040    -0.7850    -1.8900 C.3   1 <1>   0.1160 
  8 C       -0.8730     1.9680     1.0440 C.ar  1 <1>  -0.1500 
  9 C        1.1490     2.0780    -0.2110 C.ar  1 <1>  -0.1500 
 10 C        2.7010    -2.4940    -1.2540 C.2   1 <1>   0.5690 
 11 C       -1.0140     3.3420     0.9540 C.ar  1 <1>  -0.1500 
 12 C        1.0170     3.4520    -0.3070 C.ar  1 <1>  -0.1500 
 13 O        3.1410    -3.0720    -2.2220 O.2   1 <1>  -0.5700 
 14 N        3.5120    -1.9800    -0.2900 N.am  1 <1>  -0.5790 
 15 C       -0.0640     4.0940     0.2710 C.ar  1 <1>   0.0830 
 16 C        4.9780    -2.0120    -0.2730 C.3   1 <1>   0.0490 
 17 O       -0.1240     5.4400     0.1300 O.3   1 <1>  -0.3630 
 18 C        5.6580    -2.1220     1.0510 C.3   1 <1>  -0.2000 
 19 C        5.6930    -0.8300     0.2910 C.3   1 <1>  -0.2000 
 20 C       -1.1750     6.1940     0.6900 C.3   1 <1>   0.0400 
 21 H        0.7550    -2.8470    -1.9800 H     1 <1>   0.0800 
 22 H        0.8590    -2.9330    -0.2580 H     1 <1>   0.0800 
 23 H       -0.8370     0.2390    -1.8560 H     1 <1>   0.0800 
 24 H       -1.3120    -1.4240    -1.5740 H     1 <1>   0.0800 
 25 H       -0.2490    -1.0180    -2.9100 H     1 <1>   0.0800 
 26 H       -1.6150     1.3950     1.5760 H     1 <1>   0.1500 
 27 H        1.9970     1.5940    -0.6670 H     1 <1>   0.1500 
 28 H       -1.8640     3.8070     1.4170 H     1 <1>   0.1500 
 29 H        1.7520     4.0360    -0.8330 H     1 <1>   0.1500 
 30 H        3.0710    -1.4910     0.5030 H     1 <1>   0.3700 
 31 H        5.4060    -2.5220    -1.1220 H     1 <1>   0.1000 
 32 H        6.5630    -2.6990     1.1190 H     1 <1>   0.1000 
 33 H        5.0530    -2.1910     1.9380 H     1 <1>   0.1000 
 34 H        5.1150     0.0030     0.6500 H     1 <1>   0.1000 
 35 H        6.6230    -0.5280    -0.1580 H     1 <1>   0.1000 
 36 H       -1.0060     7.2290     0.4530 H     1 <1>   0.0800 
 37 H       -1.1710     6.0590     1.7580 H     1 <1>   0.0800 
 38 H       -2.1060     5.8680     0.2630 H     1 <1>   0.0800 
@<TRIPOS>BOND
  1   1   2  2   
  2   1   3  2   
  3   1   4  am  
  4   1   5  1   
  5   4   6  1   
  6   4   7  1   
  7   5   8  ar  
  8   5   9  ar  
  9   6  10  1   
 10   6  21  1   
 11   6  22  1   
 12   7  23  1   
 13   7  24  1   
 14   7  25  1   
 15   8  11  ar  
 16   8  26  1   
 17   9  12  ar  
 18   9  27  1   
 19  10  13  2   
 20  10  14  am  
 21  11  15  ar  
 22  11  28  1   
 23  12  15  ar  
 24  12  29  1   
 25  14  16  1   
 26  14  30  1   
 27  15  17  1   
 28  16  18  1   
 29  16  19  1   
 30  16  31  1   
 31  17  20  1   
 32  18  19  1   
 33  18  32  1   
 34  18  33  1   
 35  19  34  1   
 36  19  35  1   
 37  20  36  1   
 38  20  37  1   
 39  20  38  1   
@<TRIPOS>SUBSTRUCTURE
  1 ****   1 GROUP 4 **** **** 0

# MOE 2024.06 (io_trps.svl 2023.06)
