@<TRIPOS>MOLECULE
NONAME
40 40 1 0 0 
SMALL
USER_CHARGES


@<TRIPOS>ATOM
  1 O        5.4280    -4.2850     0.0170 O.3   1 <1>  -0.3630 
  2 C        6.7840    -4.1850     0.0000 C.ar  1 <1>   0.0830 
  3 C        4.7810    -5.5300    -0.0170 C.3   1 <1>   0.1200 
  4 C        7.3360    -2.9070     0.0330 C.ar  1 <1>  -0.1440 
  5 C        7.6250    -5.2950    -0.0500 C.ar  1 <1>  -0.1500 
  6 C        3.2770    -5.2530     0.0140 C.3   1 <1>   0.3430 
  7 C        8.7140    -2.7570     0.0170 C.ar  1 <1>  -0.1500 
  8 C        6.4490    -1.6720     0.0890 C.3   1 <1>  -0.0960 
  9 C        8.9980    -5.1290    -0.0660 C.ar  1 <1>  -0.1500 
 10 N        2.4770    -6.5150    -0.0200 N.4   1 <1>  -0.9060 
 11 C        9.5490    -3.8600    -0.0340 C.ar  1 <1>  -0.1430 
 12 C        1.0190    -6.2480     0.0100 C.3   1 <1>   0.3430 
 13 C       11.0560    -3.6750    -0.0510 C.3   1 <1>  -0.0970 
 14 C        0.2720    -7.5780    -0.0270 C.3   1 <1>  -0.1600 
 15 C       -1.2450    -7.3520     0.0020 C.3   1 <1>  -0.1600 
 16 C       -1.9980    -8.6850    -0.0350 C.3   1 <1>  -0.2400 
 17 H        5.0910    -6.0900     0.8480 H     1 <1>   0.0800 
 18 H        5.0660    -6.0280    -0.9270 H     1 <1>   0.0800 
 19 H        7.2430    -6.2960    -0.0760 H     1 <1>   0.1500 
 20 H        3.0230    -4.6410    -0.8370 H     1 <1>   0.0800 
 21 H        3.0480    -4.7020     0.9120 H     1 <1>   0.0800 
 22 H        9.1450    -1.7720     0.0440 H     1 <1>   0.1500 
 23 H        5.8390    -1.7000     0.9730 H     1 <1>   0.0800 
 24 H        5.8110    -1.6410    -0.7750 H     1 <1>   0.0800 
 25 H        7.0370    -0.7720     0.1100 H     1 <1>   0.0800 
 26 H        9.6390    -5.9920    -0.1030 H     1 <1>   0.1500 
 27 H        2.7210    -7.1090     0.7840 H     1 <1>   0.4500 
 28 H        2.6980    -7.0500    -0.8700 H     1 <1>   0.4500 
 29 H        0.7330    -5.6490    -0.8410 H     1 <1>   0.0800 
 30 H        0.7570    -5.7110     0.9090 H     1 <1>   0.0800 
 31 H       11.3180    -2.7840    -0.5930 H     1 <1>   0.0800 
 32 H       11.5350    -4.5130    -0.5250 H     1 <1>   0.0800 
 33 H       11.4220    -3.5900     0.9570 H     1 <1>   0.0800 
 34 H        0.5480    -8.1760     0.8250 H     1 <1>   0.0800 
 35 H        0.5240    -8.1140    -0.9260 H     1 <1>   0.0800 
 36 H       -1.5480    -6.7590    -0.8460 H     1 <1>   0.0800 
 37 H       -1.5250    -6.8210     0.8970 H     1 <1>   0.0800 
 38 H       -1.7660    -9.2300    -0.9330 H     1 <1>   0.0800 
 39 H       -3.0600    -8.5080    -0.0140 H     1 <1>   0.0800 
 40 H       -1.7420    -9.2920     0.8150 H     1 <1>   0.0800 
@<TRIPOS>BOND
  1   1   2  1   
  2   1   3  1   
  3   2   4  ar  
  4   2   5  ar  
  5   3   6  1   
  6   3  17  1   
  7   3  18  1   
  8   4   7  ar  
  9   4   8  1   
 10   5   9  ar  
 11   5  19  1   
 12   6  10  1   
 13   6  20  1   
 14   6  21  1   
 15   7  11  ar  
 16   7  22  1   
 17   8  23  1   
 18   8  24  1   
 19   8  25  1   
 20   9  11  ar  
 21   9  26  1   
 22  10  12  1   
 23  10  27  1   
 24  10  28  1   
 25  11  13  1   
 26  12  14  1   
 27  12  29  1   
 28  12  30  1   
 29  13  31  1   
 30  13  32  1   
 31  13  33  1   
 32  14  15  1   
 33  14  34  1   
 34  14  35  1   
 35  15  16  1   
 36  15  36  1   
 37  15  37  1   
 38  16  38  1   
 39  16  39  1   
 40  16  40  1   
@<TRIPOS>SUBSTRUCTURE
  1 ****   3 GROUP 4 **** **** 0

# MOE 2024.06 (io_trps.svl 2023.06)
