@<TRIPOS>MOLECULE
NONAME
42 44 1 0 0 
SMALL
USER_CHARGES


@<TRIPOS>ATOM
  1 S        0.1790     0.1400    -0.2660 S.o2  1 <1>   1.4470 
  2 O        0.0390    -1.2320     0.1600 O.2   1 <1>  -0.6500 
  3 O        0.8790     0.4630    -1.4880 O.2   1 <1>  -0.6500 
  4 N        0.9970     0.8730     1.0030 N.am  1 <1>  -0.9140 
  5 C       -1.4280     0.9760    -0.2420 C.ar  1 <1>  -0.0090 
  6 C        2.4300     0.5460     1.0640 C.3   1 <1>   0.1960 
  7 C       -2.6130     0.2620    -0.0970 C.ar  1 <1>  -0.1500 
  8 C       -1.5160     2.3600    -0.3720 C.ar  1 <1>  -0.1500 
  9 C        3.2990     1.3440     0.0730 C.3   1 <1>   0.2000 
 10 C       -3.8240     0.9250    -0.0780 C.ar  1 <1>  -0.1440 
 11 C       -2.7340     3.0190    -0.3530 C.ar  1 <1>  -0.1500 
 12 O        4.6330     1.2210     0.4410 O.3   1 <1>  -0.5600 
 13 C        3.0580     2.8490     0.0660 C.3   1 <1>  -0.1600 
 14 C       -3.9110     2.2960    -0.1950 C.ar  1 <1>   0.1170 
 15 C       -5.1940     0.3130     0.0590 C.3   1 <1>  -0.0170 
 16 C        5.3760     2.2430    -0.1390 C.3   1 <1>   0.1200 
 17 C        4.4190     3.4210    -0.3020 C.3   1 <1>  -0.1600 
 18 N       -5.2470     2.7240    -0.1420 N.am  1 <1>  -0.4770 
 19 C       -6.1280     1.5230    -0.0750 C.3   1 <1>   0.1400 
 20 C       -5.8450     3.9650    -0.1010 C.2   1 <1>   0.5690 
 21 O       -7.0470     4.0850    -0.1030 O.2   1 <1>  -0.5700 
 22 C       -5.0350     5.2370    -0.0370 C.3   1 <1>  -0.1790 
 23 H        0.5800     0.4340     1.8220 H     1 <1>   0.4200 
 24 H        2.5770    -0.5080     0.8940 H     1 <1>   0.0800 
 25 H        2.7800     0.7770     2.0550 H     1 <1>   0.0800 
 26 H       -2.5840    -0.8110    -0.0020 H     1 <1>   0.1500 
 27 H       -0.6080     2.9280    -0.4930 H     1 <1>   0.1500 
 28 H        3.2100     0.9440    -0.9230 H     1 <1>   0.0800 
 29 H       -2.7440     4.0830    -0.4670 H     1 <1>   0.1500 
 30 H        2.7690     3.1770     1.0490 H     1 <1>   0.0800 
 31 H        2.2900     3.1170    -0.6380 H     1 <1>   0.0800 
 32 H       -5.3120    -0.1500     1.0220 H     1 <1>   0.0800 
 33 H       -5.3850    -0.4060    -0.7170 H     1 <1>   0.0800 
 34 H        5.7320     1.8960    -1.0940 H     1 <1>   0.0800 
 35 H        6.2070     2.4750     0.5040 H     1 <1>   0.0800 
 36 H        4.6920     4.2320     0.3510 H     1 <1>   0.0800 
 37 H        4.4360     3.7680    -1.3200 H     1 <1>   0.0800 
 38 H       -6.7880     1.5970     0.7720 H     1 <1>   0.0800 
 39 H       -6.7090     1.4590    -0.9790 H     1 <1>   0.0800 
 40 H       -4.3330     5.1850     0.7730 H     1 <1>   0.0800 
 41 H       -5.6900     6.0720     0.1350 H     1 <1>   0.0800 
 42 H       -4.5270     5.3910    -0.9690 H     1 <1>   0.0800 
@<TRIPOS>BOND
  1   1   2  2   
  2   1   3  2   
  3   1   4  am  
  4   1   5  1   
  5   4   6  1   
  6   4  23  1   
  7   5   7  ar  
  8   5   8  ar  
  9   6   9  1   
 10   6  24  1   
 11   6  25  1   
 12   7  10  ar  
 13   7  26  1   
 14   8  11  ar  
 15   8  27  1   
 16   9  12  1   
 17   9  13  1   
 18   9  28  1   
 19  10  14  ar  
 20  10  15  1   
 21  11  14  ar  
 22  11  29  1   
 23  12  16  1   
 24  13  17  1   
 25  13  30  1   
 26  13  31  1   
 27  14  18  1   
 28  15  19  1   
 29  15  32  1   
 30  15  33  1   
 31  16  17  1   
 32  16  34  1   
 33  16  35  1   
 34  17  36  1   
 35  17  37  1   
 36  18  19  1   
 37  18  20  am  
 38  19  38  1   
 39  19  39  1   
 40  20  21  2   
 41  20  22  1   
 42  22  40  1   
 43  22  41  1   
 44  22  42  1   
@<TRIPOS>SUBSTRUCTURE
  1 ****   8 GROUP 4 **** **** 0

# MOE 2024.06 (io_trps.svl 2023.06)
