@<TRIPOS>MOLECULE
NONAME
41 42 1 0 0 
SMALL
USER_CHARGES


@<TRIPOS>ATOM
  1 CL      -0.3530    -0.6730     0.1590 Cl    1 <1>  -0.1770 
  2 C       -1.3410     0.7730     0.2480 C.ar  1 <1>   0.1770 
  3 C       -0.9030     2.0340    -0.1800 C.ar  1 <1>   0.0830 
  4 C       -2.6170     0.6030     0.7540 C.ar  1 <1>  -0.1500 
  5 O        0.3270     2.3380    -0.6770 O.3   1 <1>  -0.3630 
  6 C       -1.7880     3.0990    -0.1030 C.ar  1 <1>  -0.1500 
  7 C       -3.4820     1.6810     0.8330 C.ar  1 <1>  -0.1500 
  8 C        1.4870     1.6660    -0.2540 C.3   1 <1>   0.1200 
  9 C       -3.0670     2.9280     0.4010 C.ar  1 <1>  -0.1500 
 10 C        2.6780     2.5920    -0.5060 C.3   1 <1>  -0.1600 
 11 C        4.0020     1.9310    -0.0930 C.3   1 <1>  -0.1600 
 12 C        5.1770     2.8750    -0.3540 C.3   1 <1>   0.3430 
 13 N        6.4490     2.2790     0.1380 N.4   1 <1>  -0.9590 
 14 C        7.5040     3.3290     0.2560 C.3   1 <1>   0.3430 
 15 C        6.9120     1.1400    -0.7140 C.3   1 <1>   0.3430 
 16 C        8.7560     2.7340     0.9040 C.3   1 <1>  -0.1600 
 17 C        8.1520     0.4980    -0.0890 C.3   1 <1>  -0.1600 
 18 C        9.2760     1.5190     0.1250 C.3   1 <1>  -0.1600 
 19 H       -2.9340    -0.3720     1.0790 H     1 <1>   0.1500 
 20 H       -1.4690     4.0690    -0.4390 H     1 <1>   0.1500 
 21 H       -4.4760     1.5490     1.2270 H     1 <1>   0.1500 
 22 H        1.5810     0.7630    -0.8310 H     1 <1>   0.0800 
 23 H        1.3910     1.4370     0.7940 H     1 <1>   0.0800 
 24 H       -3.7390     3.7680     0.4560 H     1 <1>   0.1500 
 25 H        2.5310     3.4990     0.0570 H     1 <1>   0.0800 
 26 H        2.7050     2.8370    -1.5540 H     1 <1>   0.0800 
 27 H        4.1200     1.0220    -0.6570 H     1 <1>   0.0800 
 28 H        3.9570     1.6890     0.9550 H     1 <1>   0.0800 
 29 H        4.9920     3.8030     0.1630 H     1 <1>   0.0800 
 30 H        5.2510     3.0890    -1.4090 H     1 <1>   0.0800 
 31 H        6.2870     1.9080     1.0830 H     1 <1>   0.4500 
 32 H        7.1450     4.1480     0.8580 H     1 <1>   0.0800 
 33 H        7.7520     3.7090    -0.7220 H     1 <1>   0.0800 
 34 H        7.1520     1.4990    -1.7020 H     1 <1>   0.0800 
 35 H        6.1360     0.3980    -0.8020 H     1 <1>   0.0800 
 36 H        8.5350     2.4530     1.9190 H     1 <1>   0.0800 
 37 H        9.5240     3.4870     0.9410 H     1 <1>   0.0800 
 38 H        8.5040    -0.2870    -0.7360 H     1 <1>   0.0800 
 39 H        7.8850     0.0430     0.8490 H     1 <1>   0.0800 
 40 H       10.0910     1.0610     0.6610 H     1 <1>   0.0800 
 41 H        9.6550     1.8410    -0.8310 H     1 <1>   0.0800 
@<TRIPOS>BOND
  1   1   2  1   
  2   2   3  ar  
  3   2   4  ar  
  4   3   5  1   
  5   3   6  ar  
  6   4   7  ar  
  7   4  19  1   
  8   5   8  1   
  9   6   9  ar  
 10   6  20  1   
 11   7   9  ar  
 12   7  21  1   
 13   8  10  1   
 14   8  22  1   
 15   8  23  1   
 16   9  24  1   
 17  10  11  1   
 18  10  25  1   
 19  10  26  1   
 20  11  12  1   
 21  11  27  1   
 22  11  28  1   
 23  12  13  1   
 24  12  29  1   
 25  12  30  1   
 26  13  14  1   
 27  13  15  1   
 28  13  31  1   
 29  14  16  1   
 30  14  32  1   
 31  14  33  1   
 32  15  17  1   
 33  15  34  1   
 34  15  35  1   
 35  16  18  1   
 36  16  36  1   
 37  16  37  1   
 38  17  18  1   
 39  17  38  1   
 40  17  39  1   
 41  18  40  1   
 42  18  41  1   
@<TRIPOS>SUBSTRUCTURE
  1 ****  10 GROUP 4 **** **** 0

# MOE 2024.06 (io_trps.svl 2023.06)
