@<TRIPOS>MOLECULE
NONAME
39 39 1 0 0 
SMALL
USER_CHARGES


@<TRIPOS>ATOM
  1 I       -0.1430     1.1390    -0.8340 I     1 <1>  -0.0810 
  2 C        1.8840     0.7660    -0.3170 C.ar  1 <1>   0.0810 
  3 C        2.6460     1.8040     0.1840 C.ar  1 <1>  -0.1500 
  4 C        2.3930    -0.5070    -0.4920 C.ar  1 <1>  -0.1500 
  5 C        3.9650     1.5500     0.5150 C.ar  1 <1>  -0.1500 
  6 C        3.7140    -0.7390    -0.1540 C.ar  1 <1>  -0.1500 
  7 C        4.5290     0.2830     0.3470 C.ar  1 <1>   0.0860 
  8 C        5.9170     0.0430     0.6980 C.2   1 <1>   0.5440 
  9 O        6.3130     0.3720     1.7980 O.2   1 <1>  -0.5700 
 10 N        6.8050    -0.5620    -0.1700 N.am  1 <1>  -0.6600 
 11 C        8.2100    -0.9500     0.2650 C.3   1 <1>   0.1400 
 12 C        6.5300    -0.7370    -1.6270 C.3   1 <1>   0.0600 
 13 P        8.6430    -2.6980     0.4080 P.3   1 <1>   1.2420 
 14 O       10.0830    -2.9470     0.4360 O.2   1 <1>  -0.7000 
 15 O        7.9100    -3.4370    -0.8210 O.3   1 <1>  -0.5510 
 16 O        7.8860    -3.3070     1.6900 O.3   1 <1>  -0.5510 
 17 C        8.0680    -4.7980    -1.0230 C.3   1 <1>   0.1200 
 18 C        6.5320    -3.1360     1.9080 C.3   1 <1>   0.1200 
 19 C        9.2300    -5.0240    -1.9880 C.3   1 <1>  -0.2400 
 20 C        6.1130    -4.1120     3.0000 C.3   1 <1>  -0.2400 
 21 H        2.2210     2.7840     0.3150 H     1 <1>   0.1500 
 22 H        1.7720    -1.2960    -0.8790 H     1 <1>   0.1500 
 23 H        4.5780     2.3400     0.9160 H     1 <1>   0.1500 
 24 H        4.1260    -1.7250    -0.2740 H     1 <1>   0.1500 
 25 H        8.4300    -0.4690     1.1990 H     1 <1>   0.0800 
 26 H        8.8800    -0.4980    -0.4410 H     1 <1>   0.0800 
 27 H        5.7650    -0.0550    -1.9560 H     1 <1>   0.0800 
 28 H        6.2070    -1.7460    -1.8200 H     1 <1>   0.0800 
 29 H        7.4200    -0.5420    -2.2000 H     1 <1>   0.0800 
 30 H        7.1560    -5.1700    -1.4550 H     1 <1>   0.0800 
 31 H        8.2370    -5.2870    -0.0770 H     1 <1>   0.0800 
 32 H        5.9980    -3.3340     0.9940 H     1 <1>   0.0800 
 33 H        6.3610    -2.1240     2.2280 H     1 <1>   0.0800 
 34 H        9.0530    -4.5060    -2.9130 H     1 <1>   0.0800 
 35 H        9.3260    -6.0740    -2.1960 H     1 <1>   0.0800 
 36 H       10.1540    -4.6830    -1.5550 H     1 <1>   0.0800 
 37 H        6.2990    -5.1230     2.6860 H     1 <1>   0.0800 
 38 H        5.0630    -4.0010     3.2040 H     1 <1>   0.0800 
 39 H        6.6600    -3.9100     3.9040 H     1 <1>   0.0800 
@<TRIPOS>BOND
  1   1   2  1   
  2   2   3  ar  
  3   2   4  ar  
  4   3   5  ar  
  5   3  21  1   
  6   4   6  ar  
  7   4  22  1   
  8   5   7  ar  
  9   5  23  1   
 10   6   7  ar  
 11   6  24  1   
 12   7   8  1   
 13   8   9  2   
 14   8  10  am  
 15  10  11  1   
 16  10  12  1   
 17  11  13  1   
 18  11  25  1   
 19  11  26  1   
 20  12  27  1   
 21  12  28  1   
 22  12  29  1   
 23  13  14  2   
 24  13  15  1   
 25  13  16  1   
 26  15  17  1   
 27  16  18  1   
 28  17  19  1   
 29  17  30  1   
 30  17  31  1   
 31  18  20  1   
 32  18  32  1   
 33  18  33  1   
 34  19  34  1   
 35  19  35  1   
 36  19  36  1   
 37  20  37  1   
 38  20  38  1   
 39  20  39  1   
@<TRIPOS>SUBSTRUCTURE
  1 ****  10 GROUP 4 **** **** 0

# MOE 2024.06 (io_trps.svl 2023.06)
