@<TRIPOS>MOLECULE
NONAME
39 40 1 0 0 
SMALL
USER_CHARGES


@<TRIPOS>ATOM
  1 BR      -1.6730     0.4750     1.6440 Br    1 <1>  -0.1110 
  2 C       -0.7850     1.9070     0.7070 C.ar  1 <1>   0.1110 
  3 C       -1.3840     2.4710    -0.4100 C.ar  1 <1>  -0.1440 
  4 C        0.4370     2.3340     1.1910 C.ar  1 <1>  -0.1500 
  5 C       -0.7150     3.5000    -1.0590 C.ar  1 <1>  -0.1500 
  6 C       -2.7280     1.9810    -0.9090 C.3   1 <1>   0.4870 
  7 C        1.0860     3.3650     0.5350 C.ar  1 <1>  -0.1500 
  8 C        0.5100     3.9430    -0.5850 C.ar  1 <1>  -0.1500 
  9 N       -3.7880     2.4180     0.0410 N.4   1 <1>  -0.9590 
 10 C       -5.1150     1.7820    -0.2810 C.3   1 <1>   0.3430 
 11 C       -3.8810     3.9230     0.1250 C.3   1 <1>   0.3430 
 12 C       -6.2250     2.2300     0.6900 C.3   1 <1>   0.1400 
 13 C       -4.9820     4.3790     1.1000 C.3   1 <1>   0.1400 
 14 N       -6.2770     3.7200     0.7620 N.am  1 <1>  -0.6600 
 15 C       -7.3790     4.4530     0.4040 C.2   1 <1>   0.7800 
 16 O       -7.3530     5.6650     0.3340 O.2   1 <1>  -0.5700 
 17 O       -8.4910     3.7880     0.0980 O.3   1 <1>  -0.4300 
 18 C       -9.6670     4.4770    -0.2660 C.3   1 <1>   0.1200 
 19 C      -10.7520     3.4430    -0.5530 C.3   1 <1>  -0.2400 
 20 H        0.8740     1.8720     2.0600 H     1 <1>   0.1500 
 21 H       -1.1290     3.9680    -1.9370 H     1 <1>   0.1500 
 22 H       -2.7080     0.9050    -0.9730 H     1 <1>   0.0800 
 23 H       -2.9220     2.3770    -1.8920 H     1 <1>   0.0800 
 24 H        2.0400     3.7150     0.8930 H     1 <1>   0.1500 
 25 H        1.0280     4.7420    -1.0930 H     1 <1>   0.1500 
 26 H       -3.4920     2.0820     0.9690 H     1 <1>   0.4500 
 27 H       -5.0280     0.7090    -0.2410 H     1 <1>   0.0800 
 28 H       -5.4130     2.0540    -1.2800 H     1 <1>   0.0800 
 29 H       -4.1030     4.3290    -0.8480 H     1 <1>   0.0800 
 30 H       -2.9380     4.3340     0.4470 H     1 <1>   0.0800 
 31 H       -6.0360     1.8350     1.6730 H     1 <1>   0.0800 
 32 H       -7.1670     1.8280     0.3560 H     1 <1>   0.0800 
 33 H       -5.0750     5.4510     1.0500 H     1 <1>   0.0800 
 34 H       -4.7060     4.1270     2.1090 H     1 <1>   0.0800 
 35 H       -9.4600     5.0720    -1.1400 H     1 <1>   0.0800 
 36 H       -9.9530     5.1200     0.5500 H     1 <1>   0.0800 
 37 H      -10.4520     2.8030    -1.3630 H     1 <1>   0.0800 
 38 H      -11.6620     3.9430    -0.8320 H     1 <1>   0.0800 
 39 H      -10.9430     2.8520     0.3250 H     1 <1>   0.0800 
@<TRIPOS>BOND
  1   1   2  1   
  2   2   3  ar  
  3   2   4  ar  
  4   3   5  ar  
  5   3   6  1   
  6   4   7  ar  
  7   4  20  1   
  8   5   8  ar  
  9   5  21  1   
 10   6   9  1   
 11   6  22  1   
 12   6  23  1   
 13   7   8  ar  
 14   7  24  1   
 15   8  25  1   
 16   9  10  1   
 17   9  11  1   
 18   9  26  1   
 19  10  12  1   
 20  10  27  1   
 21  10  28  1   
 22  11  13  1   
 23  11  29  1   
 24  11  30  1   
 25  12  14  1   
 26  12  31  1   
 27  12  32  1   
 28  13  14  1   
 29  13  33  1   
 30  13  34  1   
 31  14  15  am  
 32  15  16  2   
 33  15  17  1   
 34  17  18  1   
 35  18  19  1   
 36  18  35  1   
 37  18  36  1   
 38  19  37  1   
 39  19  38  1   
 40  19  39  1   
@<TRIPOS>SUBSTRUCTURE
  1 ****  11 GROUP 4 **** **** 0

# MOE 2024.06 (io_trps.svl 2023.06)
