@<TRIPOS>MOLECULE
NONAME
43 45 1 0 0 
SMALL
USER_CHARGES


@<TRIPOS>ATOM
  1 F       -1.5900     2.4440    -2.0200 F     1 <1>  -0.1900 
  2 C       -0.9950     2.8420    -0.9260 C.ar  1 <1>   0.1900 
  3 C       -1.5540     2.5080     0.2980 C.ar  1 <1>  -0.1440 
  4 C        0.1580     3.5940    -1.0390 C.ar  1 <1>  -0.1500 
  5 C       -0.9170     2.9510     1.4490 C.ar  1 <1>  -0.1500 
  6 C       -2.8230     1.6830     0.3650 C.3   1 <1>   0.4870 
  7 C        0.7780     4.0300     0.1180 C.ar  1 <1>  -0.1500 
  8 C        0.2410     3.7090     1.3550 C.ar  1 <1>  -0.1500 
  9 N       -3.9380     2.4590    -0.2390 N.4   1 <1>  -0.9590 
 10 C       -4.2130     3.7390     0.5180 C.3   1 <1>   0.3430 
 11 C       -5.1880     1.6270    -0.3840 C.3   1 <1>   0.3430 
 12 C       -5.3820     4.5450    -0.0840 C.3   1 <1>   0.2090 
 13 C       -6.3630     2.4240    -0.9930 C.3   1 <1>   0.2090 
 14 N       -6.5940     3.6880    -0.2340 N.pl3 1 <1>  -0.8380 
 15 C       -7.7880     4.3480    -0.4960 C.ar  1 <1>   0.1000 
 16 C       -8.7930     4.3490     0.4620 C.ar  1 <1>  -0.1500 
 17 C       -8.0060     5.0100    -1.6980 C.ar  1 <1>  -0.1500 
 18 C      -10.0060     4.9940     0.2420 C.ar  1 <1>  -0.1430 
 19 C       -9.2020     5.6580    -1.9340 C.ar  1 <1>  -0.1500 
 20 C      -10.1960     5.6500    -0.9700 C.ar  1 <1>  -0.1500 
 21 C      -11.1200     4.9990     1.3000 C.3   1 <1>   1.1630 
 22 F      -11.2610     6.1900     1.8680 F     1 <1>  -0.3400 
 23 F      -10.9100     4.1360     2.2880 F     1 <1>  -0.3400 
 24 F      -12.3050     4.6900     0.7860 F     1 <1>  -0.3400 
 25 H        0.5630     3.8320    -2.0080 H     1 <1>   0.1500 
 26 H       -1.3040     2.7130     2.4270 H     1 <1>   0.1500 
 27 H       -3.0500     1.4380     1.3900 H     1 <1>   0.0800 
 28 H       -2.6740     0.7650    -0.1810 H     1 <1>   0.0800 
 29 H        1.6800     4.6180     0.0590 H     1 <1>   0.1500 
 30 H        0.7340     4.0500     2.2510 H     1 <1>   0.1500 
 31 H       -3.6180     2.7240    -1.1820 H     1 <1>   0.4500 
 32 H       -3.3300     4.3580     0.5280 H     1 <1>   0.0800 
 33 H       -4.4630     3.5060     1.5400 H     1 <1>   0.0800 
 34 H       -5.4990     1.2710     0.5840 H     1 <1>   0.0800 
 35 H       -4.9900     0.7690    -1.0050 H     1 <1>   0.0800 
 36 H       -5.0960     4.9430    -1.0430 H     1 <1>   0.0800 
 37 H       -5.6140     5.3760     0.5610 H     1 <1>   0.0800 
 38 H       -7.2570     1.8240    -0.9610 H     1 <1>   0.0800 
 39 H       -6.1560     2.6530    -2.0240 H     1 <1>   0.0800 
 40 H       -8.6040     3.8330     1.3860 H     1 <1>   0.1500 
 41 H       -7.2390     5.0180    -2.4490 H     1 <1>   0.1500 
 42 H       -9.3650     6.1690    -2.8670 H     1 <1>   0.1500 
 43 H      -11.1240     6.1620    -1.1710 H     1 <1>   0.1500 
@<TRIPOS>BOND
  1   1   2  1   
  2   2   3  ar  
  3   2   4  ar  
  4   3   5  ar  
  5   3   6  1   
  6   4   7  ar  
  7   4  25  1   
  8   5   8  ar  
  9   5  26  1   
 10   6   9  1   
 11   6  27  1   
 12   6  28  1   
 13   7   8  ar  
 14   7  29  1   
 15   8  30  1   
 16   9  10  1   
 17   9  11  1   
 18   9  31  1   
 19  10  12  1   
 20  10  32  1   
 21  10  33  1   
 22  11  13  1   
 23  11  34  1   
 24  11  35  1   
 25  12  14  1   
 26  12  36  1   
 27  12  37  1   
 28  13  14  1   
 29  13  38  1   
 30  13  39  1   
 31  14  15  1   
 32  15  16  ar  
 33  15  17  ar  
 34  16  18  ar  
 35  16  40  1   
 36  17  19  ar  
 37  17  41  1   
 38  18  20  ar  
 39  18  21  1   
 40  19  20  ar  
 41  19  42  1   
 42  20  43  1   
 43  21  22  1   
 44  21  23  1   
 45  21  24  1   
@<TRIPOS>SUBSTRUCTURE
  1 ****  12 GROUP 4 **** **** 0

# MOE 2024.06 (io_trps.svl 2023.06)
