@<TRIPOS>MOLECULE
NONAME
55 58 1 0 0 
SMALL
USER_CHARGES


@<TRIPOS>ATOM
  1 F       -2.6380    -2.9050    -2.9710 F     1 <1>  -0.3400 
  2 C       -3.2970    -3.4030    -1.9320 C.3   1 <1>   1.0200 
  3 F       -3.5690    -2.3660    -1.1470 F     1 <1>  -0.3400 
  4 F       -4.4660    -3.8170    -2.4190 F     1 <1>  -0.3400 
  5 C       -2.4900    -4.5070    -1.2330 C.3   1 <1>   0.1760 
  6 N       -3.1840    -4.9410    -0.0010 N.pl3 1 <1>   0.3140 
  7 C       -1.0240    -4.0960    -0.9210 C.3   1 <1>  -0.1600 
  8 N       -4.5110    -5.1570     0.1130 N.2   1 <1>  -0.7070 
  9 C       -2.5260    -5.2850     1.1290 C.2   1 <1>  -0.0680 
 10 C       -0.3350    -5.0830     0.0290 C.3   1 <1>   0.4330 
 11 C       -4.6920    -5.6100     1.3460 C.2   1 <1>   0.2030 
 12 N       -1.1380    -5.1730     1.2660 N.pl3 1 <1>  -0.8530 
 13 C       -3.4590    -5.7090     2.0040 C.2   1 <1>  -0.1500 
 14 C        1.0830    -4.6310     0.3550 C.ar  1 <1>  -0.1430 
 15 C       -5.9730    -5.9190     1.9800 C.2   1 <1>   0.7160 
 16 C        2.1610    -5.2500    -0.2610 C.ar  1 <1>  -0.1500 
 17 C        1.3250    -3.6000     1.2530 C.ar  1 <1>  -0.1500 
 18 O       -6.0380    -6.0500     3.1900 O.2   1 <1>  -0.5700 
 19 N       -7.1680    -5.9880     1.2780 N.am  1 <1>  -0.6600 
 20 C        3.4600    -4.8530     0.0070 C.ar  1 <1>   0.0830 
 21 C        2.6200    -3.1970     1.5290 C.ar  1 <1>  -0.1500 
 22 C       -8.3800    -5.3190     1.8260 C.3   1 <1>   0.1400 
 23 C       -7.2480    -6.2250    -0.1920 C.3   1 <1>   0.1400 
 24 O        4.4450    -5.5180    -0.6470 O.3   1 <1>  -0.3630 
 25 C        3.6890    -3.8190     0.9100 C.ar  1 <1>  -0.1500 
 26 C       -8.5870    -3.9690     1.1060 C.3   1 <1>   0.3430 
 27 C       -7.4340    -4.8820    -0.9260 C.3   1 <1>   0.3430 
 28 C        5.8040    -5.2010    -0.4420 C.3   1 <1>   0.0400 
 29 N       -8.6200    -4.1070    -0.4000 N.4   1 <1>  -0.9590 
 30 C       -8.6820    -2.7650    -1.0520 C.3   1 <1>   0.2630 
 31 H       -2.4700    -5.3550    -1.8900 H     1 <1>   0.0800 
 32 H       -1.0070    -3.1190    -0.4700 H     1 <1>   0.0800 
 33 H       -0.4600    -4.0360    -1.8350 H     1 <1>   0.0800 
 34 H       -0.3000    -6.0590    -0.4260 H     1 <1>   0.0800 
 35 H       -0.6930    -5.7650     1.9790 H     1 <1>   0.4000 
 36 H       -3.3170    -6.0480     3.0150 H     1 <1>   0.1500 
 37 H        2.0130    -6.0520    -0.9610 H     1 <1>   0.1500 
 38 H        0.5010    -3.1080     1.7440 H     1 <1>   0.1500 
 39 H        2.7930    -2.3970     2.2280 H     1 <1>   0.1500 
 40 H       -8.2700    -5.1450     2.8840 H     1 <1>   0.0800 
 41 H       -9.2380    -5.9540     1.6880 H     1 <1>   0.0800 
 42 H       -8.0790    -6.8760    -0.4030 H     1 <1>   0.0800 
 43 H       -6.3610    -6.7220    -0.5430 H     1 <1>   0.0800 
 44 H        4.6840    -3.4880     1.1410 H     1 <1>   0.1500 
 45 H       -7.7760    -3.3160     1.3870 H     1 <1>   0.0800 
 46 H       -9.5030    -3.5210     1.4540 H     1 <1>   0.0800 
 47 H       -7.5530    -5.0690    -1.9810 H     1 <1>   0.0800 
 48 H       -6.5370    -4.2980    -0.8000 H     1 <1>   0.0800 
 49 H        6.3950    -5.8540    -1.0570 H     1 <1>   0.0800 
 50 H        6.0460    -5.3560     0.5950 H     1 <1>   0.0800 
 51 H        5.9700    -4.1770    -0.7290 H     1 <1>   0.0800 
 52 H       -9.4670    -4.6380    -0.6460 H     1 <1>   0.4500 
 53 H       -7.7990    -2.1930    -0.8140 H     1 <1>   0.0800 
 54 H       -9.5480    -2.2210    -0.7120 H     1 <1>   0.0800 
 55 H       -8.7420    -2.8710    -2.1240 H     1 <1>   0.0800 
@<TRIPOS>BOND
  1   1   2  1   
  2   2   3  1   
  3   2   4  1   
  4   2   5  1   
  5   5   6  1   
  6   5   7  1   
  7   5  31  1   
  8   6   8  1   
  9   6   9  1   
 10   7  10  1   
 11   7  32  1   
 12   7  33  1   
 13   8  11  2   
 14   9  12  1   
 15   9  13  2   
 16  10  12  1   
 17  10  14  1   
 18  10  34  1   
 19  11  13  1   
 20  11  15  1   
 21  12  35  1   
 22  13  36  1   
 23  14  16  ar  
 24  14  17  ar  
 25  15  18  2   
 26  15  19  am  
 27  16  20  ar  
 28  16  37  1   
 29  17  21  ar  
 30  17  38  1   
 31  19  22  1   
 32  19  23  1   
 33  20  24  1   
 34  20  25  ar  
 35  21  25  ar  
 36  21  39  1   
 37  22  26  1   
 38  22  40  1   
 39  22  41  1   
 40  23  27  1   
 41  23  42  1   
 42  23  43  1   
 43  24  28  1   
 44  25  44  1   
 45  26  29  1   
 46  26  45  1   
 47  26  46  1   
 48  27  29  1   
 49  27  47  1   
 50  27  48  1   
 51  28  49  1   
 52  28  50  1   
 53  28  51  1   
 54  29  30  1   
 55  29  52  1   
 56  30  53  1   
 57  30  54  1   
 58  30  55  1   
@<TRIPOS>SUBSTRUCTURE
  1 ****   6 GROUP 4 **** **** 0

# MOE 2024.06 (io_trps.svl 2023.06)
