@<TRIPOS>MOLECULE
NONAME
41 42 1 0 0 
SMALL
USER_CHARGES


@<TRIPOS>ATOM
  1 O       -0.8360     3.6370     0.1400 O.2   1 <1>  -0.5700 
  2 C       -0.1790     2.6980    -0.2410 C.2   1 <1>   0.5690 
  3 N       -0.6690     1.4430    -0.4660 N.am  1 <1>  -0.5470 
  4 C        1.3170     2.8940    -0.4970 C.3   1 <1>   0.1710 
  5 C       -1.9420     0.8680    -0.3490 C.ar  1 <1>   0.1170 
  6 N        2.1080     1.6310    -0.4070 N.3   1 <1>  -0.8100 
  7 C       -3.0990     1.6090    -0.1330 C.ar  1 <1>  -0.1500 
  8 C       -2.0570    -0.5120    -0.4610 C.ar  1 <1>  -0.1500 
  9 C        2.2190     1.1340     0.9910 C.3   1 <1>   0.1100 
 10 C        3.4440     1.7620    -1.0120 C.3   1 <1>   0.1100 
 11 C       -4.3300     0.9880    -0.0280 C.ar  1 <1>  -0.1500 
 12 C       -3.2880    -1.1360    -0.3570 C.ar  1 <1>  -0.1500 
 13 C        3.4920     0.2920     1.2660 C.3   1 <1>   0.2000 
 14 C        4.2080     0.4110    -0.9930 C.3   1 <1>   0.2000 
 15 C       -4.4330    -0.3890    -0.1380 C.ar  1 <1>  -0.1430 
 16 O        3.8940    -0.3890     0.1170 O.3   1 <1>  -0.5600 
 17 C        3.2710    -0.7550     2.3540 C.3   1 <1>  -0.2400 
 18 C        5.7240     0.6010    -1.0150 C.3   1 <1>  -0.2400 
 19 C       -5.7850    -1.0690    -0.0240 C.3   1 <1>  -0.0970 
 20 H        0.0930     0.8000    -0.7100 H     1 <1>   0.3700 
 21 H        1.6980     3.6200     0.1990 H     1 <1>   0.0800 
 22 H        1.4140     3.3030    -1.4860 H     1 <1>   0.0800 
 23 H       -3.0460     2.6780    -0.0470 H     1 <1>   0.1500 
 24 H       -1.1780    -1.1060    -0.6310 H     1 <1>   0.1500 
 25 H        1.3510     0.5370     1.2110 H     1 <1>   0.0800 
 26 H        2.2160     1.9600     1.6820 H     1 <1>   0.0800 
 27 H        4.0100     2.5040    -0.4740 H     1 <1>   0.0800 
 28 H        3.3550     2.0940    -2.0320 H     1 <1>   0.0800 
 29 H       -5.2100     1.5850     0.1390 H     1 <1>   0.1500 
 30 H       -3.3500    -2.2060    -0.4480 H     1 <1>   0.1500 
 31 H        4.2980     0.9420     1.5610 H     1 <1>   0.0800 
 32 H        3.9160    -0.1550    -1.8600 H     1 <1>   0.0800 
 33 H        2.5010    -1.4440     2.0550 H     1 <1>   0.0800 
 34 H        2.9760    -0.2800     3.2710 H     1 <1>   0.0800 
 35 H        4.1830    -1.2980     2.5260 H     1 <1>   0.0800 
 36 H        6.0530     1.1460    -0.1500 H     1 <1>   0.0800 
 37 H        6.0130     1.1440    -1.8960 H     1 <1>   0.0800 
 38 H        6.2080    -0.3600    -1.0350 H     1 <1>   0.0800 
 39 H       -5.6750    -2.0630     0.3700 H     1 <1>   0.0800 
 40 H       -6.2450    -1.1280    -0.9940 H     1 <1>   0.0800 
 41 H       -6.4300    -0.5140     0.6340 H     1 <1>   0.0800 
@<TRIPOS>BOND
  1   1   2  2   
  2   2   3  am  
  3   2   4  1   
  4   3   5  1   
  5   3  20  1   
  6   4   6  1   
  7   4  21  1   
  8   4  22  1   
  9   5   7  ar  
 10   5   8  ar  
 11   6   9  1   
 12   6  10  1   
 13   7  11  ar  
 14   7  23  1   
 15   8  12  ar  
 16   8  24  1   
 17   9  13  1   
 18   9  25  1   
 19   9  26  1   
 20  10  14  1   
 21  10  27  1   
 22  10  28  1   
 23  11  15  ar  
 24  11  29  1   
 25  12  15  ar  
 26  12  30  1   
 27  13  16  1   
 28  13  17  1   
 29  13  31  1   
 30  14  16  1   
 31  14  18  1   
 32  14  32  1   
 33  15  19  1   
 34  17  33  1   
 35  17  34  1   
 36  17  35  1   
 37  18  36  1   
 38  18  37  1   
 39  18  38  1   
 40  19  39  1   
 41  19  40  1   
 42  19  41  1   
@<TRIPOS>SUBSTRUCTURE
  1 ****   3 GROUP 4 **** **** 0

# MOE 2024.06 (io_trps.svl 2023.06)
