@<TRIPOS>MOLECULE
NONAME
36 37 1 0 0 
SMALL
USER_CHARGES


@<TRIPOS>ATOM
  1 S        0.0240     0.2870    -0.3660 S.3   1 <1>  -0.2860 
  2 C        0.1500     1.4750     0.9820 C.2   1 <1>   0.2420 
  3 C        1.7120    -0.4470    -0.4920 C.3   1 <1>   0.1500 
  4 N        1.1980     1.6610     1.6860 N.2   1 <1>  -0.3380 
  5 N       -0.8510     2.2610     1.3560 N.pl3 1 <1>   0.5930 
  6 C        2.5820     0.5170    -1.2980 C.3   1 <1>  -0.2400 
  7 C        1.5650    -1.8040    -1.1780 C.3   1 <1>  -0.2400 
  8 N        0.8500     2.6120     2.5490 N.2   1 <1>   0.0000 
  9 N       -0.3700     2.9810     2.3650 N.2   1 <1>  -0.4180 
 10 C       -2.1690     2.3620     0.8280 C.ar  1 <1>  -0.0230 
 11 C       -3.2000     1.5820     1.3550 C.ar  1 <1>  -0.1440 
 12 C       -2.4390     3.2360    -0.2280 C.ar  1 <1>  -0.1430 
 13 C       -4.4760     1.6800     0.8260 C.ar  1 <1>  -0.1500 
 14 C       -2.9520     0.6160     2.5080 C.3   1 <1>  -0.0970 
 15 C       -3.7230     3.3170    -0.7410 C.ar  1 <1>  -0.1500 
 16 C       -1.3450     4.1080    -0.8340 C.3   1 <1>  -0.0970 
 17 C       -4.7440     2.5440    -0.2200 C.ar  1 <1>  -0.1430 
 18 C       -6.1470     2.6400    -0.7940 C.3   1 <1>  -0.0970 
 19 H        2.0880    -0.5670     0.5100 H     1 <1>   0.0800 
 20 H        2.1640     0.6730    -2.2760 H     1 <1>   0.0800 
 21 H        3.5740     0.1160    -1.4040 H     1 <1>   0.0800 
 22 H        2.6520     1.4640    -0.7920 H     1 <1>   0.0800 
 23 H        1.1400    -1.6850    -2.1590 H     1 <1>   0.0800 
 24 H        0.9250    -2.4420    -0.5960 H     1 <1>   0.0800 
 25 H        2.5260    -2.2770    -1.2710 H     1 <1>   0.0800 
 26 H       -5.2720     1.0780     1.2280 H     1 <1>   0.1500 
 27 H       -2.5510     1.1440     3.3560 H     1 <1>   0.0800 
 28 H       -2.2560    -0.1480     2.2100 H     1 <1>   0.0800 
 29 H       -3.8650     0.1380     2.8150 H     1 <1>   0.0800 
 30 H       -3.9340     3.9860    -1.5560 H     1 <1>   0.1500 
 31 H       -0.5880     3.4920    -1.2860 H     1 <1>   0.0800 
 32 H       -0.8930     4.7200    -0.0730 H     1 <1>   0.0800 
 33 H       -1.7450     4.7580    -1.5910 H     1 <1>   0.0800 
 34 H       -6.2610     1.9320    -1.5940 H     1 <1>   0.0800 
 35 H       -6.3300     3.6290    -1.1750 H     1 <1>   0.0800 
 36 H       -6.8790     2.4290    -0.0350 H     1 <1>   0.0800 
@<TRIPOS>BOND
  1   1   2  1   
  2   1   3  1   
  3   2   4  2   
  4   2   5  1   
  5   3   6  1   
  6   3   7  1   
  7   3  19  1   
  8   4   8  1   
  9   5   9  1   
 10   5  10  1   
 11   6  20  1   
 12   6  21  1   
 13   6  22  1   
 14   7  23  1   
 15   7  24  1   
 16   7  25  1   
 17   8   9  2   
 18  10  11  ar  
 19  10  12  ar  
 20  11  13  ar  
 21  11  14  1   
 22  12  15  ar  
 23  12  16  1   
 24  13  17  ar  
 25  13  26  1   
 26  14  27  1   
 27  14  28  1   
 28  14  29  1   
 29  15  17  ar  
 30  15  30  1   
 31  16  31  1   
 32  16  32  1   
 33  16  33  1   
 34  17  18  1   
 35  18  34  1   
 36  18  35  1   
 37  18  36  1   
@<TRIPOS>SUBSTRUCTURE
  1 ****  10 GROUP 4 **** **** 0

# MOE 2024.06 (io_trps.svl 2023.06)
