@<TRIPOS>MOLECULE
NONAME
41 44 1 0 0 
SMALL
USER_CHARGES


@<TRIPOS>ATOM
  1 O        2.5020    -2.3460    -0.7100 O.3   1 <1>  -0.5650 
  2 C        2.6160    -1.2710    -1.5940 C.3   1 <1>   0.1110 
  3 C        1.7820    -2.0740     0.4560 C.3   1 <1>   0.1110 
  4 C        3.2380    -0.0510    -0.8880 C.3   1 <1>   0.1010 
  5 C        2.3900    -0.8710     1.2000 C.3   1 <1>   0.1010 
  6 N        2.4620     0.3180     0.3210 N.3   1 <1>  -0.8130 
  7 C        3.0740     1.4520     1.0410 C.3   1 <1>   0.1010 
  8 C        2.7880     2.8110     0.3710 C.3   1 <1>   0.1590 
  9 N        1.3400     3.1930     0.3690 N.pl3 1 <1>  -0.6120 
 10 C        0.2950     2.4810    -0.0270 C.cat 1 <1>   1.0690 
 11 C        0.7840     4.4080     0.7090 C.2   1 <1>   0.7280 
 12 N        0.0230     1.2590    -0.4720 N.pl3 1 <1>  -0.7040 
 13 N       -0.7970     3.2140     0.0700 N.pl3 1 <1>  -0.4640 
 14 N       -0.4930     4.4540     0.5460 N.2   1 <1>  -0.2500 
 15 C        1.6190     5.5610     1.2200 C.3   1 <1>  -0.1880 
 16 C       -1.3480     1.1830    -0.6510 C.ar  1 <1>   0.3020 
 17 C       -1.8770     2.4230    -0.3160 C.ar  1 <1>   0.3020 
 18 C       -2.1760     0.1490    -1.0680 C.ar  1 <1>  -0.1180 
 19 C       -3.2410     2.6650    -0.3940 C.ar  1 <1>  -0.1180 
 20 C       -3.5360     0.3860    -1.1450 C.ar  1 <1>  -0.1590 
 21 C       -4.0650     1.6360    -0.8120 C.ar  1 <1>  -0.1590 
 22 H        1.6390    -1.0380    -1.9790 H     1 <1>   0.0710 
 23 H        3.2420    -1.5870    -2.4100 H     1 <1>   0.0710 
 24 H        1.8240    -2.9530     1.0760 H     1 <1>   0.0710 
 25 H        0.7570    -1.8860     0.1920 H     1 <1>   0.0710 
 26 H        3.2630     0.7720    -1.5790 H     1 <1>   0.0710 
 27 H        4.2530    -0.2920    -0.6180 H     1 <1>   0.0710 
 28 H        3.3760    -1.1380     1.5450 H     1 <1>   0.0710 
 29 H        1.7840    -0.6510     2.0620 H     1 <1>   0.0710 
 30 H        4.1390     1.3000     1.1050 H     1 <1>   0.0710 
 31 H        2.6960     1.4880     2.0500 H     1 <1>   0.0710 
 32 H        3.1540     2.7990    -0.6410 H     1 <1>   0.0710 
 33 H        3.3510     3.5580     0.9020 H     1 <1>   0.0710 
 34 H        0.7580     0.5330    -0.4160 H     1 <1>   0.4440 
 35 H        2.3560     5.8360     0.4890 H     1 <1>   0.0710 
 36 H        2.1090     5.2840     2.1360 H     1 <1>   0.0710 
 37 H        0.9910     6.4130     1.4120 H     1 <1>   0.0710 
 38 H       -1.7610    -0.8110    -1.3230 H     1 <1>   0.1410 
 39 H       -3.6340     3.6320    -0.1320 H     1 <1>   0.1410 
 40 H       -4.2030    -0.3970    -1.4670 H     1 <1>   0.1410 
 41 H       -5.1300     1.7930    -0.8820 H     1 <1>   0.1410 
@<TRIPOS>BOND
  1   1   2  1   
  2   1   3  1   
  3   2   4  1   
  4   2  22  1   
  5   2  23  1   
  6   3   5  1   
  7   3  24  1   
  8   3  25  1   
  9   4   6  1   
 10   4  26  1   
 11   4  27  1   
 12   5   6  1   
 13   5  28  1   
 14   5  29  1   
 15   6   7  1   
 16   7   8  1   
 17   7  30  1   
 18   7  31  1   
 19   8   9  1   
 20   8  32  1   
 21   8  33  1   
 22   9  10  ar  
 23   9  11  1   
 24  10  12  ar  
 25  10  13  ar  
 26  11  14  2   
 27  11  15  1   
 28  12  16  1   
 29  12  34  1   
 30  13  14  1   
 31  13  17  1   
 32  15  35  1   
 33  15  36  1   
 34  15  37  1   
 35  16  17  ar  
 36  16  18  ar  
 37  17  19  ar  
 38  18  20  ar  
 39  18  38  1   
 40  19  21  ar  
 41  19  39  1   
 42  20  21  ar  
 43  20  40  1   
 44  21  41  1   
@<TRIPOS>SUBSTRUCTURE
  1 ****  12 GROUP 4 **** **** 0

# MOE 2024.06 (io_trps.svl 2023.06)
