@<TRIPOS>MOLECULE
NONAME
45 47 1 0 0 
SMALL
USER_CHARGES


@<TRIPOS>ATOM
  1 O       -1.3750    -0.4630     0.4130 O.3   1 <1>  -0.5600 
  2 C       -1.6780    -1.5260    -0.4420 C.3   1 <1>   0.1200 
  3 C       -2.2480     0.6260     0.3320 C.3   1 <1>   0.1200 
  4 C       -3.0880    -2.0690    -0.1380 C.3   1 <1>   0.3430 
  5 C       -3.6850     0.1850     0.6690 C.3   1 <1>   0.3430 
  6 N       -4.1250    -0.9780    -0.1840 N.4   1 <1>  -0.9590 
  7 C       -5.4590    -1.5070     0.2140 C.3   1 <1>   0.3430 
  8 C       -6.5670    -0.5180    -0.1570 C.3   1 <1>  -0.1600 
  9 C       -7.9440    -1.1150     0.1690 C.3   1 <1>  -0.1600 
 10 C       -9.0850    -0.1610    -0.1940 C.3   1 <1>   0.1200 
 11 O      -10.2900    -0.7990     0.1490 O.3   1 <1>  -0.3630 
 12 C      -11.4950    -0.2100    -0.0480 C.ar  1 <1>   0.0820 
 13 C      -12.6100    -0.9110     0.3290 C.ar  1 <1>  -0.1500 
 14 C      -11.6440     1.0710    -0.6140 C.ar  1 <1>  -0.1500 
 15 C      -13.9060    -0.3860     0.1670 C.ar  1 <1>   0.0000 
 16 C      -12.8930     1.6030    -0.7830 C.ar  1 <1>  -0.1500 
 17 C      -14.0520     0.8970    -0.4010 C.ar  1 <1>   0.0000 
 18 C      -15.0650    -1.0930     0.5490 C.ar  1 <1>  -0.1500 
 19 C      -15.3490     1.4230    -0.5630 C.ar  1 <1>  -0.1500 
 20 C      -16.3120    -0.5580     0.3800 C.ar  1 <1>  -0.1500 
 21 C      -16.4560     0.7150    -0.1830 C.ar  1 <1>  -0.1500 
 22 H       -0.9410    -2.2940    -0.2790 H     1 <1>   0.0800 
 23 H       -1.5990    -1.1870    -1.4610 H     1 <1>   0.0800 
 24 H       -2.1890     1.0460    -0.6580 H     1 <1>   0.0800 
 25 H       -1.9120     1.3660     1.0380 H     1 <1>   0.0800 
 26 H       -3.0710    -2.5150     0.8420 H     1 <1>   0.0800 
 27 H       -3.3310    -2.8410    -0.8500 H     1 <1>   0.0800 
 28 H       -4.3510     1.0200     0.5300 H     1 <1>   0.0800 
 29 H       -3.7170    -0.0940     1.7090 H     1 <1>   0.0800 
 30 H       -4.1830    -0.6500    -1.1570 H     1 <1>   0.4500 
 31 H       -5.4790    -1.7000     1.2760 H     1 <1>   0.0800 
 32 H       -5.6440    -2.4380    -0.2970 H     1 <1>   0.0800 
 33 H       -6.5230    -0.3010    -1.2100 H     1 <1>   0.0800 
 34 H       -6.4510     0.3980     0.3960 H     1 <1>   0.0800 
 35 H       -8.0060    -1.3320     1.2230 H     1 <1>   0.0800 
 36 H       -8.0820    -2.0320    -0.3780 H     1 <1>   0.0800 
 37 H       -9.0990     0.0420    -1.2520 H     1 <1>   0.0800 
 38 H       -9.0180     0.7560     0.3650 H     1 <1>   0.0800 
 39 H      -12.4980    -1.8870     0.7610 H     1 <1>   0.1500 
 40 H      -10.7870     1.6390    -0.9180 H     1 <1>   0.1500 
 41 H      -13.0130     2.5800    -1.2150 H     1 <1>   0.1500 
 42 H      -14.9460    -2.0710     0.9810 H     1 <1>   0.1500 
 43 H      -15.4550     2.4010    -0.9960 H     1 <1>   0.1500 
 44 H      -17.1920    -1.1030     0.6740 H     1 <1>   0.1500 
 45 H      -17.4440     1.1220    -0.3100 H     1 <1>   0.1500 
@<TRIPOS>BOND
  1   1   2  1   
  2   1   3  1   
  3   2   4  1   
  4   2  22  1   
  5   2  23  1   
  6   3   5  1   
  7   3  24  1   
  8   3  25  1   
  9   4   6  1   
 10   4  26  1   
 11   4  27  1   
 12   5   6  1   
 13   5  28  1   
 14   5  29  1   
 15   6   7  1   
 16   6  30  1   
 17   7   8  1   
 18   7  31  1   
 19   7  32  1   
 20   8   9  1   
 21   8  33  1   
 22   8  34  1   
 23   9  10  1   
 24   9  35  1   
 25   9  36  1   
 26  10  11  1   
 27  10  37  1   
 28  10  38  1   
 29  11  12  1   
 30  12  13  ar  
 31  12  14  ar  
 32  13  15  ar  
 33  13  39  1   
 34  14  16  ar  
 35  14  40  1   
 36  15  17  ar  
 37  15  18  ar  
 38  16  17  ar  
 39  16  41  1   
 40  17  19  ar  
 41  18  20  ar  
 42  18  42  1   
 43  19  21  ar  
 44  19  43  1   
 45  20  21  ar  
 46  20  44  1   
 47  21  45  1   
@<TRIPOS>SUBSTRUCTURE
  1 ****  10 GROUP 4 **** **** 0

# MOE 2024.06 (io_trps.svl 2023.06)
