@<TRIPOS>MOLECULE
NONAME
55 57 1 0 0 
SMALL
USER_CHARGES


@<TRIPOS>ATOM
  1 O       -1.8950    -2.9680     0.4460 O.3   1 <1>  -0.3630 
  2 C       -3.2260    -2.8010     0.2430 C.ar  1 <1>   0.0830 
  3 C       -1.3230    -4.2560     0.5210 C.3   1 <1>   0.1200 
  4 C       -3.6970    -1.5010     0.2230 C.ar  1 <1>  -0.1500 
  5 C       -4.1200    -3.8480     0.0580 C.ar  1 <1>  -0.1500 
  6 C        0.1840    -4.0990     0.7560 C.3   1 <1>   0.2000 
  7 C       -5.0410    -1.2230     0.0220 C.ar  1 <1>  -0.1440 
  8 C       -5.4600    -3.5770    -0.1410 C.ar  1 <1>  -0.1500 
  9 O        0.7040    -3.2280    -0.2030 O.3   1 <1>  -0.6800 
 10 C        0.9430    -5.4410     0.6760 C.3   1 <1>   0.3430 
 11 C       -5.9420    -2.2730    -0.1630 C.ar  1 <1>  -0.1440 
 12 C       -5.4700     0.2390     0.0160 C.3   1 <1>  -0.0970 
 13 N        2.3820    -5.2100     0.3420 N.4   1 <1>  -0.9590 
 14 C       -7.4440    -2.0480    -0.3900 C.3   1 <1>   0.0630 
 15 C        3.0220    -6.3610    -0.3500 C.3   1 <1>   0.4860 
 16 C        3.2030    -4.7420     1.4940 C.3   1 <1>   0.3430 
 17 C       -8.2710    -2.6860     0.7310 C.3   1 <1>  -0.2400 
 18 C       -7.8800    -2.5840    -1.7590 C.3   1 <1>  -0.2400 
 19 C        4.4680    -6.0470    -0.7010 C.ar  1 <1>  -0.1430 
 20 C        4.5170    -4.1490     0.9840 C.3   1 <1>  -0.0170 
 21 C        5.1740    -5.0260    -0.0720 C.ar  1 <1>  -0.1430 
 22 C        5.0990    -6.8150    -1.6700 C.ar  1 <1>  -0.1500 
 23 C        6.4940    -4.7860    -0.4180 C.ar  1 <1>  -0.1500 
 24 C        6.4160    -6.5700    -2.0110 C.ar  1 <1>  -0.1500 
 25 C        7.1150    -5.5560    -1.3840 C.ar  1 <1>  -0.1500 
 26 H       -1.5140    -4.7660    -0.4070 H     1 <1>   0.0800 
 27 H       -1.7860    -4.7850     1.3360 H     1 <1>   0.0800 
 28 H       -2.9950    -0.7010     0.3670 H     1 <1>   0.1500 
 29 H       -3.8050    -4.8720     0.0650 H     1 <1>   0.1500 
 30 H        0.3400    -3.6520     1.7230 H     1 <1>   0.0800 
 31 H       -6.1360    -4.4000    -0.2820 H     1 <1>   0.1500 
 32 H        0.0660    -2.4840    -0.3230 H     1 <1>   0.4000 
 33 H        0.4900    -6.0300    -0.1040 H     1 <1>   0.0800 
 34 H        0.8450    -5.9850     1.6010 H     1 <1>   0.0800 
 35 H       -4.6320     0.8920     0.1760 H     1 <1>   0.0800 
 36 H       -6.1850     0.4150     0.7990 H     1 <1>   0.0800 
 37 H       -5.9120     0.4880    -0.9320 H     1 <1>   0.0800 
 38 H        2.3580    -4.4220    -0.3330 H     1 <1>   0.4500 
 39 H       -7.6680    -0.9980    -0.3820 H     1 <1>   0.0800 
 40 H        2.4820    -6.5890    -1.2550 H     1 <1>   0.0800 
 41 H        3.0000    -7.2300     0.2870 H     1 <1>   0.0800 
 42 H        3.4150    -5.5710     2.1490 H     1 <1>   0.0800 
 43 H        2.6710    -3.9890     2.0520 H     1 <1>   0.0800 
 44 H       -8.1620    -3.7550     0.7320 H     1 <1>   0.0800 
 45 H       -9.3120    -2.4480     0.6080 H     1 <1>   0.0800 
 46 H       -7.9440    -2.3080     1.6840 H     1 <1>   0.0800 
 47 H       -7.7610    -3.6500    -1.8120 H     1 <1>   0.0800 
 48 H       -7.2820    -2.1340    -2.5310 H     1 <1>   0.0800 
 49 H       -8.9120    -2.3440    -1.9410 H     1 <1>   0.0800 
 50 H        5.1860    -4.0190     1.8170 H     1 <1>   0.0800 
 51 H        4.3270    -3.1770     0.5650 H     1 <1>   0.0800 
 52 H        4.5760    -7.6120    -2.1720 H     1 <1>   0.1500 
 53 H        7.0500    -3.9960     0.0580 H     1 <1>   0.1500 
 54 H        6.9020    -7.1690    -2.7640 H     1 <1>   0.1500 
 55 H        8.1410    -5.3650    -1.6490 H     1 <1>   0.1500 
@<TRIPOS>BOND
  1   1   2  1   
  2   1   3  1   
  3   2   4  ar  
  4   2   5  ar  
  5   3   6  1   
  6   3  26  1   
  7   3  27  1   
  8   4   7  ar  
  9   4  28  1   
 10   5   8  ar  
 11   5  29  1   
 12   6   9  1   
 13   6  10  1   
 14   6  30  1   
 15   7  11  ar  
 16   7  12  1   
 17   8  11  ar  
 18   8  31  1   
 19   9  32  1   
 20  10  13  1   
 21  10  33  1   
 22  10  34  1   
 23  11  14  1   
 24  12  35  1   
 25  12  36  1   
 26  12  37  1   
 27  13  15  1   
 28  13  16  1   
 29  13  38  1   
 30  14  17  1   
 31  14  18  1   
 32  14  39  1   
 33  15  19  1   
 34  15  40  1   
 35  15  41  1   
 36  16  20  1   
 37  16  42  1   
 38  16  43  1   
 39  17  44  1   
 40  17  45  1   
 41  17  46  1   
 42  18  47  1   
 43  18  48  1   
 44  18  49  1   
 45  19  21  ar  
 46  19  22  ar  
 47  20  21  1   
 48  20  50  1   
 49  20  51  1   
 50  21  23  ar  
 51  22  24  ar  
 52  22  52  1   
 53  23  25  ar  
 54  23  53  1   
 55  24  25  ar  
 56  24  54  1   
 57  25  55  1   
@<TRIPOS>SUBSTRUCTURE
  1 ****   6 GROUP 4 **** **** 0

# MOE 2024.06 (io_trps.svl 2023.06)
