@<TRIPOS>MOLECULE
NONAME
43 46 1 0 0 
SMALL
USER_CHARGES


@<TRIPOS>ATOM
  1 O       -0.6270     1.0850    -1.6920 O.2   1 <1>  -0.5700 
  2 C       -0.8400     2.1790    -1.2370 C.2   1 <1>   0.5690 
  3 N        0.1070     3.0630    -0.7620 N.am  1 <1>  -0.2370 
  4 C       -2.2520     2.7330    -1.1320 C.3   1 <1>  -0.0190 
  5 C        1.4920     2.7940    -0.7300 C.ar  1 <1>   0.1170 
  6 C       -0.4620     4.2330    -0.3020 C.2   1 <1>   0.5690 
  7 C       -1.9750     4.2360    -0.4450 C.3   1 <1>  -0.0190 
  8 C       -3.2720     1.9120    -0.1230 C.3   1 <1>   0.0580 
  9 C        1.9800     1.5990    -0.2130 C.ar  1 <1>  -0.1500 
 10 C        2.4150     3.7160    -1.2120 C.ar  1 <1>  -0.1500 
 11 O        0.1260     5.1750     0.1630 O.2   1 <1>  -0.5700 
 12 C       -2.8310     4.2960     0.9670 C.3   1 <1>   0.0580 
 13 C       -4.1750     2.1750     1.2030 C.2   1 <1>  -0.2880 
 14 C       -3.0130     3.1040     0.4060 C.3   1 <1>  -0.1600 
 15 C        3.3360     1.3360    -0.1810 C.ar  1 <1>  -0.1500 
 16 C        3.7710     3.4500    -1.1790 C.ar  1 <1>  -0.1500 
 17 C       -3.9430     3.4280     1.7770 C.2   1 <1>  -0.2880 
 18 C        4.2750     2.2530    -0.6630 C.ar  1 <1>   0.0860 
 19 C        5.7010     1.9900    -0.6360 C.2   1 <1>   0.6340 
 20 O        6.5270     2.7670    -1.0720 O.2   1 <1>  -0.5700 
 21 O        6.1130     0.8350    -0.1030 O.3   1 <1>  -0.4300 
 22 C        7.4720     0.4770    -0.0010 C.3   1 <1>   0.2000 
 23 C        7.5370    -1.0470     0.0360 C.3   1 <1>  -0.2400 
 24 C        8.0400     1.0920     1.2780 C.3   1 <1>  -0.2400 
 25 H       -2.6710     2.8210    -2.1210 H     1 <1>   0.0800 
 26 H       -2.2640     5.0340    -1.1090 H     1 <1>   0.0800 
 27 H       -2.7010     1.0370     0.1580 H     1 <1>   0.0800 
 28 H        1.2910     0.8630     0.1640 H     1 <1>   0.1500 
 29 H        2.0710     4.6530    -1.6130 H     1 <1>   0.1500 
 30 H       -2.0690     4.4510     1.7200 H     1 <1>   0.0800 
 31 H       -4.8520     1.4000     1.5280 H     1 <1>   0.1500 
 32 H       -3.9190     3.5770    -0.2620 H     1 <1>   0.0800 
 33 H       -2.1180     2.6600     1.0160 H     1 <1>   0.0800 
 34 H        3.6750     0.3980     0.2240 H     1 <1>   0.1500 
 35 H        4.4620     4.1850    -1.5590 H     1 <1>   0.1500 
 36 H       -4.3960     3.8620     2.6540 H     1 <1>   0.1500 
 37 H        7.9990     0.8420    -0.8690 H     1 <1>   0.0800 
 38 H        6.9920    -1.4260     0.8830 H     1 <1>   0.0800 
 39 H        8.5590    -1.3690     0.1130 H     1 <1>   0.0800 
 40 H        7.1200    -1.4530    -0.8680 H     1 <1>   0.0800 
 41 H        7.4870     0.7540     2.1360 H     1 <1>   0.0800 
 42 H        7.9960     2.1650     1.2230 H     1 <1>   0.0800 
 43 H        9.0690     0.8050     1.3960 H     1 <1>   0.0800 
@<TRIPOS>BOND
  1   1   2  2   
  2   2   3  am  
  3   2   4  1   
  4   3   5  1   
  5   3   6  am  
  6   4   7  1   
  7   4   8  1   
  8   4  25  1   
  9   5   9  ar  
 10   5  10  ar  
 11   6   7  1   
 12   6  11  2   
 13   7  12  1   
 14   7  26  1   
 15   8  13  1   
 16   8  14  1   
 17   8  27  1   
 18   9  15  ar  
 19   9  28  1   
 20  10  16  ar  
 21  10  29  1   
 22  12  14  1   
 23  12  17  1   
 24  12  30  1   
 25  13  17  2   
 26  13  31  1   
 27  14  32  1   
 28  14  33  1   
 29  15  18  ar  
 30  15  34  1   
 31  16  18  ar  
 32  16  35  1   
 33  17  36  1   
 34  18  19  1   
 35  19  20  2   
 36  19  21  1   
 37  21  22  1   
 38  22  23  1   
 39  22  24  1   
 40  22  37  1   
 41  23  38  1   
 42  23  39  1   
 43  23  40  1   
 44  24  41  1   
 45  24  42  1   
 46  24  43  1   
@<TRIPOS>SUBSTRUCTURE
  1 ****   5 GROUP 4 **** **** 0

# MOE 2024.06 (io_trps.svl 2023.06)
