@<TRIPOS>MOLECULE
NONAME
51 53 1 0 0 
SMALL
USER_CHARGES


@<TRIPOS>ATOM
  1 S       -0.3570     0.7410    -0.9310 S.o2  1 <1>   1.5760 
  2 O       -1.0110     1.3310    -2.0750 O.2   1 <1>  -0.6500 
  3 O       -0.0100    -0.6620    -0.9240 O.2   1 <1>  -0.6500 
  4 N        1.0180     1.6200    -0.4820 N.am  1 <1>  -0.8490 
  5 N       -1.3550     1.0370     0.3980 N.am  1 <1>  -0.8490 
  6 C        2.1010     1.5510    -1.4940 C.3   1 <1>   0.2760 
  7 C        1.5330     1.0990     0.8090 C.3   1 <1>   0.1960 
  8 C       -2.5100     0.1300     0.4010 C.3   1 <1>   0.1960 
  9 C       -1.8340     2.4280     0.4260 C.3   1 <1>   0.1960 
 10 C        3.3990     2.2300    -0.9870 C.3   1 <1>   0.1960 
 11 C        1.7010     2.2480    -2.8010 C.3   1 <1>  -0.2400 
 12 C        2.8080     1.8140     1.2810 C.3   1 <1>   0.1960 
 13 C       -3.4310     0.4160     1.6020 C.3   1 <1>   0.1200 
 14 C       -2.7600     2.6630     1.6320 C.3   1 <1>   0.1200 
 15 N        3.8730     1.6770     0.2900 N.am  1 <1>  -0.8490 
 16 O       -3.8290     1.7580     1.6160 O.3   1 <1>  -0.5600 
 17 S        5.2820     2.4370     0.8140 S.o2  1 <1>   1.5760 
 18 O        5.6760     1.8580     2.0780 O.2   1 <1>  -0.6500 
 19 O        5.1070     3.8640     0.6730 O.2   1 <1>  -0.6500 
 20 N        6.3480     1.8960    -0.3690 N.am  1 <1>  -0.8490 
 21 C        7.5730     2.7110    -0.4210 C.3   1 <1>   0.1960 
 22 C        6.6720     0.4730    -0.2410 C.3   1 <1>   0.1960 
 23 C        8.7680     1.9900    -1.0870 C.3   1 <1>   0.1200 
 24 C        7.5510    -0.0090    -1.4180 C.3   1 <1>   0.1200 
 25 O        8.3390     1.0070    -1.9850 O.3   1 <1>  -0.5600 
 26 H        2.3310     0.5180    -1.7060 H     1 <1>   0.0800 
 27 H        1.7470     0.0460     0.7260 H     1 <1>   0.0800 
 28 H        0.7920     1.2220     1.5780 H     1 <1>   0.0800 
 29 H       -2.1690    -0.8890     0.4570 H     1 <1>   0.0800 
 30 H       -3.0740     0.2430    -0.5110 H     1 <1>   0.0800 
 31 H       -2.3770     2.6580    -0.4760 H     1 <1>   0.0800 
 32 H       -0.9950     3.0990     0.4880 H     1 <1>   0.0800 
 33 H        3.2180     3.2870    -0.8860 H     1 <1>   0.0800 
 34 H        4.1660     2.1000    -1.7320 H     1 <1>   0.0800 
 35 H        1.2380     3.1970    -2.5970 H     1 <1>   0.0800 
 36 H        1.0330     1.6360    -3.3770 H     1 <1>   0.0800 
 37 H        2.5660     2.4150    -3.4170 H     1 <1>   0.0800 
 38 H        3.1260     1.3750     2.2120 H     1 <1>   0.0800 
 39 H        2.5910     2.8550     1.4570 H     1 <1>   0.0800 
 40 H       -2.9230     0.1980     2.5260 H     1 <1>   0.0800 
 41 H       -4.3180    -0.1890     1.5430 H     1 <1>   0.0800 
 42 H       -3.1710     3.6560     1.5990 H     1 <1>   0.0800 
 43 H       -2.2190     2.5390     2.5540 H     1 <1>   0.0800 
 44 H        7.8690     3.0010     0.5740 H     1 <1>   0.0800 
 45 H        7.3580     3.6140    -0.9670 H     1 <1>   0.0800 
 46 H        5.7690    -0.1130    -0.2140 H     1 <1>   0.0800 
 47 H        7.1950     0.3020     0.6860 H     1 <1>   0.0800 
 48 H        9.3820     1.5150    -0.3410 H     1 <1>   0.0800 
 49 H        9.3740     2.6950    -1.6270 H     1 <1>   0.0800 
 50 H        6.9220    -0.3930    -2.2010 H     1 <1>   0.0800 
 51 H        8.2030    -0.8000    -1.0920 H     1 <1>   0.0800 
@<TRIPOS>BOND
  1   1   2  2   
  2   1   3  2   
  3   1   4  am  
  4   1   5  am  
  5   4   6  1   
  6   4   7  1   
  7   5   8  1   
  8   5   9  1   
  9   6  10  1   
 10   6  11  1   
 11   6  26  1   
 12   7  12  1   
 13   7  27  1   
 14   7  28  1   
 15   8  13  1   
 16   8  29  1   
 17   8  30  1   
 18   9  14  1   
 19   9  31  1   
 20   9  32  1   
 21  10  15  1   
 22  10  33  1   
 23  10  34  1   
 24  11  35  1   
 25  11  36  1   
 26  11  37  1   
 27  12  15  1   
 28  12  38  1   
 29  12  39  1   
 30  13  16  1   
 31  13  40  1   
 32  13  41  1   
 33  14  16  1   
 34  14  42  1   
 35  14  43  1   
 36  15  17  am  
 37  17  18  2   
 38  17  19  2   
 39  17  20  am  
 40  20  21  1   
 41  20  22  1   
 42  21  23  1   
 43  21  44  1   
 44  21  45  1   
 45  22  24  1   
 46  22  46  1   
 47  22  47  1   
 48  23  25  1   
 49  23  48  1   
 50  23  49  1   
 51  24  25  1   
 52  24  50  1   
 53  24  51  1   
@<TRIPOS>SUBSTRUCTURE
  1 ****   7 GROUP 4 **** **** 0

# MOE 2024.06 (io_trps.svl 2023.06)
