@<TRIPOS>MOLECULE
NONAME
34 36 1 0 0 
SMALL
USER_CHARGES


@<TRIPOS>ATOM
  1 S       -0.0540    -2.2010    -0.7280 S.2   1 <1>  -0.0240 
  2 S        1.1190    -3.8870    -0.9050 S.3   1 <1>  -0.0070 
  3 C       -1.4700    -3.0660    -0.3570 C.2   1 <1>   0.1420 
  4 C       -0.1290    -4.9960    -0.5590 C.2   1 <1>  -0.1100 
  5 S       -2.8580    -2.1030     0.0680 S.3   1 <1>  -0.2590 
  6 C       -1.3910    -4.4690    -0.3720 C.2   1 <1>  -0.0220 
  7 C        0.2240    -6.4790    -0.4560 C.3   1 <1>   0.5670 
  8 C       -2.3680    -0.3190    -0.0260 C.3   1 <1>   0.0240 
  9 C       -2.4890    -5.4190    -0.1890 C.ar  1 <1>   0.0860 
 10 N       -0.8510    -7.1750     0.2630 N.pl3 1 <1>  -0.8610 
 11 C        0.3360    -7.0990    -1.8440 C.3   1 <1>  -0.2130 
 12 C        1.4920    -6.7130     0.3620 C.3   1 <1>  -0.2130 
 13 C       -2.1730    -6.7390     0.1820 C.ar  1 <1>   0.1310 
 14 C       -3.8360    -5.1240    -0.3960 C.ar  1 <1>  -0.1200 
 15 C       -3.1850    -7.6550     0.4450 C.ar  1 <1>  -0.1200 
 16 C       -4.8350    -6.0490    -0.1530 C.ar  1 <1>  -0.1200 
 17 C       -4.5160    -7.3210     0.2870 C.ar  1 <1>  -0.1140 
 18 C       -5.6220    -8.3230     0.5760 C.3   1 <1>  -0.0650 
 19 H       -1.5710    -0.1520     0.6760 H     1 <1>   0.1120 
 20 H       -3.2300     0.2680     0.2360 H     1 <1>   0.1120 
 21 H       -2.0560    -0.1070    -1.0330 H     1 <1>   0.1120 
 22 H       -0.6990    -8.1830     0.3460 H     1 <1>   0.4220 
 23 H       -0.5850    -6.9600    -2.3800 H     1 <1>   0.1120 
 24 H        0.5530    -8.1490    -1.7780 H     1 <1>   0.1120 
 25 H        1.1220    -6.6210    -2.3990 H     1 <1>   0.1120 
 26 H        1.6630    -7.7630     0.5070 H     1 <1>   0.1120 
 27 H        2.3500    -6.3000    -0.1340 H     1 <1>   0.1120 
 28 H        1.3920    -6.2390     1.3230 H     1 <1>   0.1120 
 29 H       -4.1360    -4.1640    -0.7650 H     1 <1>   0.1800 
 30 H       -2.9160    -8.6430     0.7710 H     1 <1>   0.1800 
 31 H       -5.8640    -5.7720    -0.3080 H     1 <1>   0.1800 
 32 H       -5.2250    -9.2270     1.0030 H     1 <1>   0.1120 
 33 H       -6.1390    -8.5720    -0.3330 H     1 <1>   0.1120 
 34 H       -6.3270    -7.9030     1.2720 H     1 <1>   0.1120 
@<TRIPOS>BOND
  1   1   2  1   
  2   1   3  2   
  3   2   4  1   
  4   3   5  1   
  5   3   6  1   
  6   4   6  2   
  7   4   7  1   
  8   5   8  1   
  9   6   9  1   
 10   7  10  1   
 11   7  11  1   
 12   7  12  1   
 13   8  19  1   
 14   8  20  1   
 15   8  21  1   
 16   9  13  ar  
 17   9  14  ar  
 18  10  13  1   
 19  10  22  1   
 20  11  23  1   
 21  11  24  1   
 22  11  25  1   
 23  12  26  1   
 24  12  27  1   
 25  12  28  1   
 26  13  15  ar  
 27  14  16  ar  
 28  14  29  1   
 29  15  17  ar  
 30  15  30  1   
 31  16  17  ar  
 32  16  31  1   
 33  17  18  1   
 34  18  32  1   
 35  18  33  1   
 36  18  34  1   
@<TRIPOS>SUBSTRUCTURE
  1 ****   9 GROUP 4 **** **** 0

# MOE 2024.06 (io_trps.svl 2023.06)
