@<TRIPOS>MOLECULE
NONAME
31 32 1 0 0 
SMALL
USER_CHARGES


@<TRIPOS>ATOM
  1 N        0.4080     0.3890    -0.9650 N.ar  1 <1>  -0.6200 
  2 C        1.2230     1.2390    -0.3590 C.ar  1 <1>   0.7200 
  3 C       -0.8170     0.3450    -0.4970 C.ar  1 <1>   0.1600 
  4 N        0.9370     2.0380     0.6650 N.ar  1 <1>  -0.6200 
  5 N        2.4740     1.2580    -0.8690 N.pl3 1 <1>  -0.8690 
  6 C       -1.2260     1.1280     0.5550 C.ar  1 <1>  -0.1500 
  7 C       -0.2940     1.9720     1.1090 C.ar  1 <1>   0.1600 
  8 C        3.6730     1.7880    -0.2040 C.3   1 <1>   0.2890 
  9 C        4.4930     2.5260    -1.2670 C.3   1 <1>  -0.1600 
 10 C        4.3970     0.6160     0.4710 C.3   1 <1>  -0.1600 
 11 C        5.8430     3.0820    -0.7830 C.3   1 <1>  -0.1600 
 12 C        5.4820     1.0820     1.4550 C.3   1 <1>  -0.1600 
 13 C        6.8870     1.9780    -0.5640 C.3   1 <1>  -0.1600 
 14 C        6.8630     1.3300     0.8300 C.3   1 <1>  -0.1600 
 15 H       -1.5110    -0.3330    -0.9660 H     1 <1>   0.1500 
 16 H        2.6290     0.5310    -1.5610 H     1 <1>   0.4000 
 17 H       -2.2320     1.0830     0.9280 H     1 <1>   0.1500 
 18 H       -0.5650     2.6050     1.9360 H     1 <1>   0.1500 
 19 H        3.3790     2.4980     0.5520 H     1 <1>   0.0800 
 20 H        3.8980     3.3520    -1.6130 H     1 <1>   0.0800 
 21 H        4.6600     1.8740    -2.1050 H     1 <1>   0.0800 
 22 H        4.8120    -0.0500    -0.2640 H     1 <1>   0.0800 
 23 H        3.6650     0.0680     1.0380 H     1 <1>   0.0800 
 24 H        5.7170     3.6730     0.1090 H     1 <1>   0.0800 
 25 H        6.2150     3.7400    -1.5500 H     1 <1>   0.0800 
 26 H        5.5970     0.3320     2.2190 H     1 <1>   0.0800 
 27 H        5.1480     1.9770     1.9520 H     1 <1>   0.0800 
 28 H        7.8670     2.3980    -0.7110 H     1 <1>   0.0800 
 29 H        6.7650     1.2160    -1.3140 H     1 <1>   0.0800 
 30 H        7.3850     0.3910     0.7640 H     1 <1>   0.0800 
 31 H        7.4250     1.9500     1.5080 H     1 <1>   0.0800 
@<TRIPOS>BOND
  1   1   2  ar  
  2   1   3  ar  
  3   2   4  ar  
  4   2   5  1   
  5   3   6  ar  
  6   3  15  1   
  7   4   7  ar  
  8   5   8  1   
  9   5  16  1   
 10   6   7  ar  
 11   6  17  1   
 12   7  18  1   
 13   8   9  1   
 14   8  10  1   
 15   8  19  1   
 16   9  11  1   
 17   9  20  1   
 18   9  21  1   
 19  10  12  1   
 20  10  22  1   
 21  10  23  1   
 22  11  13  1   
 23  11  24  1   
 24  11  25  1   
 25  12  14  1   
 26  12  26  1   
 27  12  27  1   
 28  13  14  1   
 29  13  28  1   
 30  13  29  1   
 31  14  30  1   
 32  14  31  1   
@<TRIPOS>SUBSTRUCTURE
  1 ****   8 GROUP 4 **** **** 0

# MOE 2024.06 (io_trps.svl 2023.06)
