@<TRIPOS>MOLECULE
NONAME
34 35 1 0 0 
SMALL
USER_CHARGES


@<TRIPOS>ATOM
  1 CL      -0.0350     0.6190     0.6570 Cl    1 <1>  -0.1770 
  2 C        0.9430     2.0130     0.2550 C.ar  1 <1>   0.1770 
  3 C        0.3730     3.1480    -0.2980 C.ar  1 <1>   0.1900 
  4 C        2.3030     1.9730     0.4980 C.ar  1 <1>  -0.1500 
  5 F       -0.9150     3.1900    -0.5300 F     1 <1>  -0.1900 
  6 C        1.1410     4.2520    -0.6150 C.ar  1 <1>  -0.1500 
  7 C        3.1010     3.0700     0.1850 C.ar  1 <1>   0.1170 
  8 C        2.5040     4.2050    -0.3680 C.ar  1 <1>  -0.1500 
  9 N        4.4760     3.0010     0.4550 N.am  1 <1>  -0.5470 
 10 C        5.5260     3.6270    -0.1480 C.2   1 <1>   0.6900 
 11 O        5.3820     4.3070    -1.1440 O.2   1 <1>  -0.5700 
 12 N        6.7520     3.4530     0.4000 N.am  1 <1>  -0.7300 
 13 C        7.9990     4.0320    -0.1280 C.3   1 <1>   0.2200 
 14 C        9.0400     2.9170    -0.2700 C.3   1 <1>  -0.1600 
 15 C        8.4820     5.1260     0.8290 C.3   1 <1>  -0.1600 
 16 C       10.3980     3.4800    -0.7170 C.3   1 <1>  -0.1600 
 17 C        9.8390     5.6930     0.3840 C.3   1 <1>  -0.1600 
 18 C       10.8850     4.5790     0.2370 C.3   1 <1>  -0.1600 
 19 H        2.7330     1.0870     0.9240 H     1 <1>   0.1500 
 20 H        0.6830     5.1250    -1.0450 H     1 <1>   0.1500 
 21 H        3.1080     5.0620    -0.6080 H     1 <1>   0.1500 
 22 H        4.7570     2.2910     1.1220 H     1 <1>   0.3700 
 23 H        6.8410     3.0140     1.3110 H     1 <1>   0.3700 
 24 H        7.8200     4.4680    -1.0980 H     1 <1>   0.0800 
 25 H        8.6970     2.2010    -0.9960 H     1 <1>   0.0800 
 26 H        9.1650     2.4150     0.6730 H     1 <1>   0.0800 
 27 H        8.5810     4.7230     1.8210 H     1 <1>   0.0800 
 28 H        7.7570     5.9210     0.8530 H     1 <1>   0.0800 
 29 H       10.3040     3.8860    -1.7100 H     1 <1>   0.0800 
 30 H       11.1240     2.6860    -0.7550 H     1 <1>   0.0800 
 31 H       10.1810     6.4180     1.1030 H     1 <1>   0.0800 
 32 H        9.7200     6.1970    -0.5600 H     1 <1>   0.0800 
 33 H       11.8050     4.9960    -0.1350 H     1 <1>   0.0800 
 34 H       11.0860     4.1490     1.2030 H     1 <1>   0.0800 
@<TRIPOS>BOND
  1   1   2  1   
  2   2   3  ar  
  3   2   4  ar  
  4   3   5  1   
  5   3   6  ar  
  6   4   7  ar  
  7   4  19  1   
  8   6   8  ar  
  9   6  20  1   
 10   7   8  ar  
 11   7   9  1   
 12   8  21  1   
 13   9  10  am  
 14   9  22  1   
 15  10  11  2   
 16  10  12  am  
 17  12  13  1   
 18  12  23  1   
 19  13  14  1   
 20  13  15  1   
 21  13  24  1   
 22  14  16  1   
 23  14  25  1   
 24  14  26  1   
 25  15  17  1   
 26  15  27  1   
 27  15  28  1   
 28  16  18  1   
 29  16  29  1   
 30  16  30  1   
 31  17  18  1   
 32  17  31  1   
 33  17  32  1   
 34  18  33  1   
 35  18  34  1   
@<TRIPOS>SUBSTRUCTURE
  1 ****  10 GROUP 4 **** **** 0

# MOE 2024.06 (io_trps.svl 2023.06)
