@<TRIPOS>MOLECULE
NONAME
37 37 1 0 0 
SMALL
USER_CHARGES


@<TRIPOS>ATOM
  1 O        0.3030     0.0940     0.5110 O.2   1 <1>  -0.5700 
  2 C        0.1400     1.2130     0.0690 C.2   1 <1>   0.7800 
  3 O        1.1840     2.0070    -0.1510 O.3   1 <1>  -0.4300 
  4 N       -1.0670     1.7640    -0.2280 N.am  1 <1>  -0.5470 
  5 C        2.4970     1.5660     0.1290 C.3   1 <1>   0.1200 
  6 C       -2.3770     1.2660    -0.1370 C.ar  1 <1>   0.1170 
  7 C        3.4970     2.6870    -0.1970 C.3   1 <1>  -0.0800 
  8 C       -3.4330     2.1680    -0.1440 C.ar  1 <1>  -0.1500 
  9 C       -2.6650    -0.0920    -0.0540 C.ar  1 <1>  -0.1500 
 10 C        4.9310     2.1960     0.0370 C.3   1 <1>  -0.2400 
 11 C        3.2370     3.9450     0.6440 C.3   1 <1>  -0.2400 
 12 C       -4.7530     1.7350    -0.0650 C.ar  1 <1>   0.0830 
 13 C       -3.9710    -0.5390     0.0260 C.ar  1 <1>  -0.1500 
 14 O       -5.8090     2.6010    -0.0670 O.3   1 <1>  -0.3630 
 15 C       -5.0270     0.3680     0.0210 C.ar  1 <1>   0.0830 
 16 C       -5.6300     3.9990    -0.0740 C.3   1 <1>   0.0400 
 17 O       -6.3350    -0.0240     0.0990 O.3   1 <1>  -0.3620 
 18 C       -6.6870    -1.3820     0.2330 C.3   1 <1>   0.0400 
 19 H       -0.9760     2.7270    -0.5360 H     1 <1>   0.3700 
 20 H        2.6930     0.6940    -0.4730 H     1 <1>   0.0800 
 21 H        2.5500     1.2980     1.1710 H     1 <1>   0.0800 
 22 H        3.3950     2.9350    -1.2400 H     1 <1>   0.0800 
 23 H       -3.2040     3.2120    -0.2110 H     1 <1>   0.1500 
 24 H       -1.8700    -0.8140    -0.0540 H     1 <1>   0.1500 
 25 H        5.0800     1.9340     1.0700 H     1 <1>   0.0800 
 26 H        5.6360     2.9650    -0.2260 H     1 <1>   0.0800 
 27 H        5.1350     1.3320    -0.5700 H     1 <1>   0.0800 
 28 H        3.3150     3.7220     1.6940 H     1 <1>   0.0800 
 29 H        2.2530     4.3330     0.4480 H     1 <1>   0.0800 
 30 H        3.9530     4.7110     0.4010 H     1 <1>   0.0800 
 31 H       -4.1410    -1.5960     0.0890 H     1 <1>   0.1500 
 32 H       -6.6020     4.4570    -0.0410 H     1 <1>   0.0800 
 33 H       -5.1250     4.2810    -0.9800 H     1 <1>   0.0800 
 34 H       -5.0630     4.2820     0.7940 H     1 <1>   0.0800 
 35 H       -7.7590    -1.4420     0.2930 H     1 <1>   0.0800 
 36 H       -6.2490    -1.7690     1.1360 H     1 <1>   0.0800 
 37 H       -6.3390    -1.9210    -0.6300 H     1 <1>   0.0800 
@<TRIPOS>BOND
  1   1   2  2   
  2   2   3  1   
  3   2   4  am  
  4   3   5  1   
  5   4   6  1   
  6   4  19  1   
  7   5   7  1   
  8   5  20  1   
  9   5  21  1   
 10   6   8  ar  
 11   6   9  ar  
 12   7  10  1   
 13   7  11  1   
 14   7  22  1   
 15   8  12  ar  
 16   8  23  1   
 17   9  13  ar  
 18   9  24  1   
 19  10  25  1   
 20  10  26  1   
 21  10  27  1   
 22  11  28  1   
 23  11  29  1   
 24  11  30  1   
 25  12  14  1   
 26  12  15  ar  
 27  13  15  ar  
 28  13  31  1   
 29  14  16  1   
 30  15  17  1   
 31  16  32  1   
 32  16  33  1   
 33  16  34  1   
 34  17  18  1   
 35  18  35  1   
 36  18  36  1   
 37  18  37  1   
@<TRIPOS>SUBSTRUCTURE
  1 ****   6 GROUP 4 **** **** 0

# MOE 2024.06 (io_trps.svl 2023.06)
