@<TRIPOS>MOLECULE
NONAME
40 41 1 0 0 
SMALL
USER_CHARGES


@<TRIPOS>ATOM
  1 O       -0.5850    -0.2460    -0.5080 O.2   1 <1>  -0.5700 
  2 C       -0.9210    -1.3470    -0.1150 C.2   1 <1>   0.6900 
  3 N       -2.2320    -1.6440     0.1390 N.am  1 <1>  -0.6600 
  4 N       -0.0200    -2.3510     0.0840 N.am  1 <1>  -0.5470 
  5 C       -3.1820    -0.6850     0.7680 C.3   1 <1>   0.2200 
  6 C       -2.9070    -2.6250    -0.7480 C.3   1 <1>   0.1400 
  7 C        1.3580    -2.4540    -0.1560 C.ar  1 <1>   0.1170 
  8 C       -3.8950     0.1150    -0.3300 C.3   1 <1>  -0.1600 
  9 C       -2.5110     0.2190     1.8070 C.3   1 <1>  -0.2400 
 10 C       -3.6400    -1.8770    -1.8690 C.3   1 <1>  -0.1600 
 11 C        2.1160    -3.3870     0.5560 C.ar  1 <1>  -0.1440 
 12 C        1.9980    -1.6650    -1.1070 C.ar  1 <1>  -0.1500 
 13 C       -4.6100    -0.8200    -1.3180 C.3   1 <1>  -0.1600 
 14 C        3.4750    -3.5080     0.3090 C.ar  1 <1>  -0.1500 
 15 C        1.4780    -4.2800     1.6140 C.3   1 <1>  -0.0970 
 16 C        3.3530    -1.7920    -1.3450 C.ar  1 <1>  -0.1500 
 17 C        4.1010    -2.7150    -0.6370 C.ar  1 <1>  -0.1440 
 18 C        5.5900    -2.8590    -0.8960 C.3   1 <1>  -0.0970 
 19 H       -0.4270    -3.1200     0.6000 H     1 <1>   0.3700 
 20 H       -3.9230    -1.2650     1.2910 H     1 <1>   0.0800 
 21 H       -3.6070    -3.2040    -0.1700 H     1 <1>   0.0800 
 22 H       -2.1850    -3.2980    -1.1790 H     1 <1>   0.0800 
 23 H       -3.1700     0.7150    -0.8530 H     1 <1>   0.0800 
 24 H       -4.6120     0.7810     0.1170 H     1 <1>   0.0800 
 25 H       -1.8450     0.9210     1.3390 H     1 <1>   0.0800 
 26 H       -1.9640    -0.3740     2.5160 H     1 <1>   0.0800 
 27 H       -3.2600     0.7780     2.3370 H     1 <1>   0.0800 
 28 H       -4.1780    -2.5810    -2.4770 H     1 <1>   0.0800 
 29 H       -2.9070    -1.3960    -2.4950 H     1 <1>   0.0800 
 30 H        1.4340    -0.9460    -1.6710 H     1 <1>   0.1500 
 31 H       -5.0200    -0.2440    -2.1300 H     1 <1>   0.0800 
 32 H       -5.4250    -1.3120    -0.8150 H     1 <1>   0.0800 
 33 H        4.0580    -4.2270     0.8570 H     1 <1>   0.1500 
 34 H        0.7610    -4.9370     1.1570 H     1 <1>   0.0800 
 35 H        0.9860    -3.6770     2.3560 H     1 <1>   0.0800 
 36 H        2.2190    -4.8810     2.1090 H     1 <1>   0.0800 
 37 H        3.8190    -1.1670    -2.0860 H     1 <1>   0.1500 
 38 H        5.7590    -3.6360    -1.6190 H     1 <1>   0.0800 
 39 H        6.1050    -3.1110     0.0140 H     1 <1>   0.0800 
 40 H        5.9970    -1.9390    -1.2720 H     1 <1>   0.0800 
@<TRIPOS>BOND
  1   1   2  2   
  2   2   3  am  
  3   2   4  am  
  4   3   5  1   
  5   3   6  1   
  6   4   7  1   
  7   4  19  1   
  8   5   8  1   
  9   5   9  1   
 10   5  20  1   
 11   6  10  1   
 12   6  21  1   
 13   6  22  1   
 14   7  11  ar  
 15   7  12  ar  
 16   8  13  1   
 17   8  23  1   
 18   8  24  1   
 19   9  25  1   
 20   9  26  1   
 21   9  27  1   
 22  10  13  1   
 23  10  28  1   
 24  10  29  1   
 25  11  14  ar  
 26  11  15  1   
 27  12  16  ar  
 28  12  30  1   
 29  13  31  1   
 30  13  32  1   
 31  14  17  ar  
 32  14  33  1   
 33  15  34  1   
 34  15  35  1   
 35  15  36  1   
 36  16  17  ar  
 37  16  37  1   
 38  17  18  1   
 39  18  38  1   
 40  18  39  1   
 41  18  40  1   
@<TRIPOS>SUBSTRUCTURE
  1 ****   4 GROUP 4 **** **** 0

# MOE 2024.06 (io_trps.svl 2023.06)
