@<TRIPOS>MOLECULE
NONAME
41 43 1 0 0 
SMALL
USER_CHARGES


@<TRIPOS>ATOM
  1 O        0.1710     0.3000     0.6700 O.co2 1 <1>  -0.9000 
  2 C       -0.2370     1.2610     0.0050 C.2   1 <1>   0.9060 
  3 O        0.0780     1.4130    -1.1770 O.co2 1 <1>  -0.9000 
  4 C       -1.2020     2.2250     0.6870 C.3   1 <1>  -0.1860 
  5 C       -2.8370     1.7780     0.6830 C.3   1 <1>  -0.0190 
  6 C       -1.1010     3.7440     0.0710 C.3   1 <1>  -0.0800 
  7 C       -3.2570     0.3550     0.2680 C.2   1 <1>   0.5690 
  8 C       -3.6510     2.9590    -0.1210 C.3   1 <1>  -0.0800 
  9 C       -2.3780     3.3590    -0.0010 C.3   1 <1>  -0.1600 
 10 C       -1.9380     4.9260    -0.6870 C.3   1 <1>  -0.1600 
 11 O       -4.4080     0.1600    -0.0510 O.2   1 <1>  -0.5700 
 12 N       -2.3800    -0.6740     0.3300 N.am  1 <1>  -0.7300 
 13 C       -3.5500     4.4840    -0.6950 C.3   1 <1>  -0.1600 
 14 C       -2.6130    -2.0490    -0.1400 C.3   1 <1>   0.1400 
 15 C       -1.6750    -2.9960     0.6060 C.3   1 <1>  -0.0170 
 16 C       -1.8750    -4.4280     0.1330 C.ar  1 <1>  -0.1440 
 17 C       -1.1000    -4.9370    -0.8980 C.ar  1 <1>  -0.1500 
 18 C       -2.8350    -5.2350     0.7250 C.ar  1 <1>  -0.1500 
 19 C       -1.2810    -6.2380    -1.3320 C.ar  1 <1>  -0.1500 
 20 C       -3.0170    -6.5370     0.2920 C.ar  1 <1>  -0.1500 
 21 C       -2.2400    -7.0400    -0.7370 C.ar  1 <1>  -0.1500 
 22 H       -0.8750     2.2480     1.7130 H     1 <1>   0.0800 
 23 H       -3.1600     1.8230     1.7120 H     1 <1>   0.0800 
 24 H       -0.7140     4.2830     0.9250 H     1 <1>   0.0800 
 25 H       -3.9880     2.4370    -1.0080 H     1 <1>   0.0800 
 26 H       -2.1530     2.8770    -1.0520 H     1 <1>   0.0800 
 27 H       -2.5870     3.8340     1.0520 H     1 <1>   0.0800 
 28 H       -1.5770     5.0280    -1.7000 H     1 <1>   0.0800 
 29 H       -1.8050     5.8750    -0.1940 H     1 <1>   0.0800 
 30 H       -1.3780    -0.4510     0.5070 H     1 <1>   0.3700 
 31 H       -4.1230     5.1530    -0.0710 H     1 <1>   0.0800 
 32 H       -3.9510     4.5460    -1.6940 H     1 <1>   0.0800 
 33 H       -2.4130    -2.0950    -1.1970 H     1 <1>   0.0800 
 34 H       -3.6390    -2.3230     0.0310 H     1 <1>   0.0800 
 35 H       -1.8680    -2.9310     1.6610 H     1 <1>   0.0800 
 36 H       -0.6560    -2.6930     0.4330 H     1 <1>   0.0800 
 37 H       -0.3540    -4.3160    -1.3640 H     1 <1>   0.1500 
 38 H       -3.4430    -4.8480     1.5240 H     1 <1>   0.1500 
 39 H       -0.6760    -6.6250    -2.1330 H     1 <1>   0.1500 
 40 H       -3.7640    -7.1570     0.7550 H     1 <1>   0.1500 
 41 H       -2.3810    -8.0520    -1.0740 H     1 <1>   0.1500 
@<TRIPOS>BOND
  1   1   2  ar  
  2   2   3  ar  
  3   2   4  1   
  4   4   5  1   
  5   4   6  1   
  6   4  22  1   
  7   5   7  1   
  8   5   8  1   
  9   5  23  1   
 10   6   9  1   
 11   6  10  1   
 12   6  24  1   
 13   7  11  2   
 14   7  12  am  
 15   8   9  1   
 16   8  13  1   
 17   8  25  1   
 18   9  26  1   
 19   9  27  1   
 20  10  13  1   
 21  10  28  1   
 22  10  29  1   
 23  12  14  1   
 24  12  30  1   
 25  13  31  1   
 26  13  32  1   
 27  14  15  1   
 28  14  33  1   
 29  14  34  1   
 30  15  16  1   
 31  15  35  1   
 32  15  36  1   
 33  16  17  ar  
 34  16  18  ar  
 35  17  19  ar  
 36  17  37  1   
 37  18  20  ar  
 38  18  38  1   
 39  19  21  ar  
 40  19  39  1   
 41  20  21  ar  
 42  20  40  1   
 43  21  41  1   
@<TRIPOS>SUBSTRUCTURE
  1 ****  12 GROUP 4 **** **** 0

# MOE 2024.06 (io_trps.svl 2023.06)
