@<TRIPOS>MOLECULE
NONAME
41 44 1 0 0 
SMALL
USER_CHARGES


@<TRIPOS>ATOM
  1 O       -0.3220    -0.4280     0.0050 O.2   1 <1>  -0.5700 
  2 C       -0.9980    -1.4430    -0.0230 C.2   1 <1>   0.6900 
  3 N       -0.3960    -2.6730     0.2190 N.am  1 <1>  -0.4200 
  4 N       -2.3520    -1.3690    -0.2990 N.am  1 <1>  -0.4230 
  5 C       -1.1280    -3.8450     0.1450 C.2   1 <1>   0.7150 
  6 C        1.0650    -2.7230     0.5210 C.3   1 <1>   0.0600 
  7 C       -3.0930    -2.5430    -0.3550 C.2   1 <1>   0.2900 
  8 C       -3.0500    -0.0810    -0.5560 C.3   1 <1>   0.0600 
  9 O       -0.5930    -4.9270     0.3190 O.2   1 <1>  -0.5700 
 10 C       -2.5100    -3.7420    -0.1440 C.2   1 <1>  -0.2370 
 11 N       -4.4020    -2.6410    -0.6100 N.2   1 <1>  -0.5650 
 12 N       -3.5050    -4.6620    -0.2720 N.pl3 1 <1>   0.0480 
 13 C       -4.6090    -3.9270    -0.5470 C.2   1 <1>   0.2490 
 14 C       -3.4050    -6.1320    -0.1200 C.3   1 <1>   0.0960 
 15 O       -5.8030    -4.5370    -0.7340 O.3   1 <1>  -0.1450 
 16 C       -3.5130    -6.5270     1.3550 C.3   1 <1>  -0.2400 
 17 C       -6.9920    -3.8780    -0.7130 C.ar  1 <1>   0.0820 
 18 C       -7.2730    -2.9040     0.2440 C.ar  1 <1>  -0.1500 
 19 C       -7.9470    -4.2290    -1.6670 C.ar  1 <1>  -0.1500 
 20 C       -8.5150    -2.3030     0.2040 C.ar  1 <1>   0.0820 
 21 C       -9.1910    -3.6100    -1.6880 C.ar  1 <1>  -0.1500 
 22 O       -9.0020    -1.3530     1.0100 O.3   1 <1>  -0.3630 
 23 C       -9.4460    -2.6450    -0.7340 C.ar  1 <1>   0.0820 
 24 C      -10.3210    -1.0660     0.5520 C.3   1 <1>   0.4000 
 25 O      -10.5610    -1.9250    -0.5620 O.3   1 <1>  -0.3630 
 26 H        1.3490    -1.8790     1.1250 H     1 <1>   0.0800 
 27 H        1.6210    -2.6980    -0.4000 H     1 <1>   0.0800 
 28 H        1.3150    -3.6210     1.0590 H     1 <1>   0.0800 
 29 H       -2.3810     0.7530    -0.4420 H     1 <1>   0.0800 
 30 H       -3.8650     0.0280     0.1380 H     1 <1>   0.0800 
 31 H       -3.4430    -0.0820    -1.5570 H     1 <1>   0.0800 
 32 H       -2.4650    -6.4620    -0.5250 H     1 <1>   0.0800 
 33 H       -4.1960    -6.5960    -0.6830 H     1 <1>   0.0800 
 34 H       -2.7070    -6.0900     1.9190 H     1 <1>   0.0800 
 35 H       -3.4490    -7.5960     1.4490 H     1 <1>   0.0800 
 36 H       -4.4540    -6.2030     1.7640 H     1 <1>   0.0800 
 37 H       -6.5560    -2.6200     0.9920 H     1 <1>   0.1500 
 38 H       -7.7120    -4.9860    -2.3930 H     1 <1>   0.1500 
 39 H       -9.9380    -3.8650    -2.4170 H     1 <1>   0.1500 
 40 H      -10.3770    -0.0400     0.2350 H     1 <1>   0.0800 
 41 H      -11.0280    -1.2820     1.3330 H     1 <1>   0.0800 
@<TRIPOS>BOND
  1   1   2  2   
  2   2   3  am  
  3   2   4  am  
  4   3   5  am  
  5   3   6  1   
  6   4   7  1   
  7   4   8  1   
  8   5   9  2   
  9   5  10  1   
 10   6  26  1   
 11   6  27  1   
 12   6  28  1   
 13   7  10  2   
 14   7  11  1   
 15   8  29  1   
 16   8  30  1   
 17   8  31  1   
 18  10  12  1   
 19  11  13  2   
 20  12  13  1   
 21  12  14  1   
 22  13  15  1   
 23  14  16  1   
 24  14  32  1   
 25  14  33  1   
 26  15  17  1   
 27  16  34  1   
 28  16  35  1   
 29  16  36  1   
 30  17  18  ar  
 31  17  19  ar  
 32  18  20  ar  
 33  18  37  1   
 34  19  21  ar  
 35  19  38  1   
 36  20  22  1   
 37  20  23  ar  
 38  21  23  ar  
 39  21  39  1   
 40  22  24  1   
 41  23  25  1   
 42  24  25  1   
 43  24  40  1   
 44  24  41  1   
@<TRIPOS>SUBSTRUCTURE
  1 ****  11 GROUP 4 **** **** 0

# MOE 2024.06 (io_trps.svl 2023.06)
