@<TRIPOS>MOLECULE
NONAME
35 35 1 0 0 
SMALL
USER_CHARGES


@<TRIPOS>ATOM
  1 O       -0.0200     0.2990    -0.0650 O.2   1 <1>  -0.5700 
  2 C        0.0590     1.5070     0.0520 C.2   1 <1>   0.5440 
  3 N       -1.0820     2.2130     0.3210 N.am  1 <1>  -0.7300 
  4 C        1.3380     2.1830    -0.0680 C.ar  1 <1>   0.0860 
  5 C       -2.4330     1.6330     0.4420 C.3   1 <1>   0.1400 
  6 C        2.5310     1.5180     0.2260 C.ar  1 <1>  -0.1500 
  7 C        1.4370     3.5150    -0.4800 C.ar  1 <1>  -0.1500 
  8 C       -3.4360     2.6090    -0.1600 C.3   1 <1>  -0.2400 
  9 C        3.7590     2.1460     0.1320 C.ar  1 <1>  -0.1500 
 10 C        2.6610     4.1510    -0.5750 C.ar  1 <1>  -0.1500 
 11 C        3.8310     3.4770    -0.2680 C.ar  1 <1>   0.0830 
 12 O        4.9850     4.1700    -0.3820 O.3   1 <1>  -0.3630 
 13 C        6.2360     3.5860    -0.0860 C.3   1 <1>   0.1200 
 14 C        7.3460     4.6300    -0.2810 C.3   1 <1>  -0.0800 
 15 C        8.7200     3.9910    -0.0470 C.3   1 <1>  -0.2400 
 16 C        7.1670     5.8330     0.6570 C.3   1 <1>  -0.2400 
 17 H       -1.0060     3.2010     0.5580 H     1 <1>   0.3700 
 18 H       -2.6540     1.4600     1.4810 H     1 <1>   0.0800 
 19 H       -2.4760     0.6900    -0.0790 H     1 <1>   0.0800 
 20 H        2.4830     0.4870     0.5340 H     1 <1>   0.1500 
 21 H        0.5470     4.0590    -0.7380 H     1 <1>   0.1500 
 22 H       -3.4200     3.5440     0.3710 H     1 <1>   0.0800 
 23 H       -4.4250     2.1950    -0.0910 H     1 <1>   0.0800 
 24 H       -3.2110     2.7780    -1.1980 H     1 <1>   0.0800 
 25 H        4.6430     1.5870     0.3720 H     1 <1>   0.1500 
 26 H        2.7220     5.1770    -0.8910 H     1 <1>   0.1500 
 27 H        6.3810     2.7540    -0.7530 H     1 <1>   0.0800 
 28 H        6.2170     3.2430     0.9340 H     1 <1>   0.0800 
 29 H        7.3050     4.9740    -1.3020 H     1 <1>   0.0800 
 30 H        8.8050     3.6310     0.9640 H     1 <1>   0.0800 
 31 H        9.5000     4.7130    -0.2200 H     1 <1>   0.0800 
 32 H        8.8700     3.1670    -0.7210 H     1 <1>   0.0800 
 33 H        7.1900     5.5190     1.6860 H     1 <1>   0.0800 
 34 H        6.2250     6.3170     0.4690 H     1 <1>   0.0800 
 35 H        7.9510     6.5520     0.4970 H     1 <1>   0.0800 
@<TRIPOS>BOND
  1   1   2  2   
  2   2   3  am  
  3   2   4  1   
  4   3   5  1   
  5   3  17  1   
  6   4   6  ar  
  7   4   7  ar  
  8   5   8  1   
  9   5  18  1   
 10   5  19  1   
 11   6   9  ar  
 12   6  20  1   
 13   7  10  ar  
 14   7  21  1   
 15   8  22  1   
 16   8  23  1   
 17   8  24  1   
 18   9  11  ar  
 19   9  25  1   
 20  10  11  ar  
 21  10  26  1   
 22  11  12  1   
 23  12  13  1   
 24  13  14  1   
 25  13  27  1   
 26  13  28  1   
 27  14  15  1   
 28  14  16  1   
 29  14  29  1   
 30  15  30  1   
 31  15  31  1   
 32  15  32  1   
 33  16  33  1   
 34  16  34  1   
 35  16  35  1   
@<TRIPOS>SUBSTRUCTURE
  1 ****  11 GROUP 4 **** **** 0

# MOE 2024.06 (io_trps.svl 2023.06)
