@<TRIPOS>MOLECULE
NONAME
34 35 1 0 0 
SMALL
USER_CHARGES


@<TRIPOS>ATOM
  1 S        0.1180    -2.3490     0.5810 S.3   1 <1>  -0.2860 
  2 C       -1.6500    -2.0800     0.6400 C.2   1 <1>   0.5340 
  3 C        0.7280    -0.9850    -0.5270 C.3   1 <1>   0.1310 
  4 O       -2.1600    -1.0970    -0.0230 O.3   1 <1>  -0.2800 
  5 N       -2.5000    -2.7760     1.2880 N.2   1 <1>  -0.3380 
  6 C        2.2340    -1.0460    -0.7290 C.2   1 <1>   0.5690 
  7 C       -3.4220    -1.2100     0.2480 C.2   1 <1>   0.2980 
  8 N       -3.6760    -2.1960     1.0260 N.2   1 <1>  -0.3380 
  9 O        2.7020    -0.3350    -1.5830 O.2   1 <1>  -0.5700 
 10 N        2.9720    -1.8920     0.0540 N.am  1 <1>  -0.5470 
 11 C       -4.4090    -0.2310    -0.3420 C.3   1 <1>  -0.0600 
 12 C        4.3460    -2.1790     0.1200 C.ar  1 <1>   0.1170 
 13 C        4.7660    -3.3460     0.7640 C.ar  1 <1>  -0.1430 
 14 C        5.3090    -1.3310    -0.4200 C.ar  1 <1>  -0.1500 
 15 C        6.1180    -3.6380     0.8490 C.ar  1 <1>  -0.1500 
 16 C        3.7650    -4.3190     1.3770 C.3   1 <1>  -0.0970 
 17 C        6.6580    -1.6260    -0.3370 C.ar  1 <1>  -0.1430 
 18 C        7.0600    -2.7850     0.3020 C.ar  1 <1>  -0.1500 
 19 C        7.6900    -0.6870    -0.9360 C.3   1 <1>  -0.0970 
 20 H        0.4540    -0.0530    -0.0700 H     1 <1>   0.0800 
 21 H        0.2260    -1.0920    -1.4710 H     1 <1>   0.0800 
 22 H        2.4110    -2.4720     0.6770 H     1 <1>   0.3700 
 23 H       -4.1680     0.7660    -0.0230 H     1 <1>   0.0800 
 24 H       -5.4040    -0.4730    -0.0140 H     1 <1>   0.0800 
 25 H       -4.3720    -0.2790    -1.4150 H     1 <1>   0.0800 
 26 H        5.0050    -0.4250    -0.9090 H     1 <1>   0.1500 
 27 H        6.4530    -4.5330     1.3410 H     1 <1>   0.1500 
 28 H        3.0680    -4.6520     0.6300 H     1 <1>   0.0800 
 29 H        3.2280    -3.8410     2.1770 H     1 <1>   0.0800 
 30 H        4.2640    -5.1830     1.7770 H     1 <1>   0.0800 
 31 H        8.1050    -3.0260     0.3780 H     1 <1>   0.1500 
 32 H        7.2440    -0.0680    -1.6930 H     1 <1>   0.0800 
 33 H        8.4880    -1.2500    -1.3850 H     1 <1>   0.0800 
 34 H        8.0970    -0.0560    -0.1660 H     1 <1>   0.0800 
@<TRIPOS>BOND
  1   1   2  1   
  2   1   3  1   
  3   2   4  1   
  4   2   5  2   
  5   3   6  1   
  6   3  20  1   
  7   3  21  1   
  8   4   7  1   
  9   5   8  1   
 10   6   9  2   
 11   6  10  am  
 12   7   8  2   
 13   7  11  1   
 14  10  12  1   
 15  10  22  1   
 16  11  23  1   
 17  11  24  1   
 18  11  25  1   
 19  12  13  ar  
 20  12  14  ar  
 21  13  15  ar  
 22  13  16  1   
 23  14  17  ar  
 24  14  26  1   
 25  15  18  ar  
 26  15  27  1   
 27  16  28  1   
 28  16  29  1   
 29  16  30  1   
 30  17  18  ar  
 31  17  19  1   
 32  18  31  1   
 33  19  32  1   
 34  19  33  1   
 35  19  34  1   
@<TRIPOS>SUBSTRUCTURE
  1 ****  10 GROUP 4 **** **** 0

# MOE 2024.06 (io_trps.svl 2023.06)
