@<TRIPOS>MOLECULE
NONAME
36 37 1 0 0 
SMALL
USER_CHARGES


@<TRIPOS>ATOM
  1 S       -0.6020     0.3080    -0.4320 S.3   1 <1>  -0.3710 
  2 C        0.9890     0.9810    -0.8130 C.2   1 <1>   0.6410 
  3 C       -1.5640     0.5380    -2.0100 C.3   1 <1>   0.1310 
  4 N        1.9030     0.8570     0.1780 N.pl3 1 <1>  -0.5500 
  5 N        1.1870     1.5340    -1.9500 N.2   1 <1>  -0.6610 
  6 C       -3.0450     0.2550    -1.7920 C.2   1 <1>   0.5690 
  7 C        3.1600     1.3350     0.0100 C.2   1 <1>   0.1770 
  8 C        2.4420     2.0320    -2.1590 C.2   1 <1>   0.7670 
  9 O       -3.4830    -0.7600    -2.2850 O.2   1 <1>  -0.5700 
 10 N       -3.8490     1.1250    -1.0910 N.am  1 <1>  -0.6600 
 11 O        3.9780     1.1540     1.0500 O.3   1 <1>  -0.3570 
 12 C        3.4490     1.9350    -1.1720 C.2   1 <1>  -0.1360 
 13 O        2.6750     2.5730    -3.2300 O.2   1 <1>  -0.5700 
 14 C       -3.3940     2.3980    -0.4640 C.3   1 <1>   0.1400 
 15 C       -5.2810     0.8080    -0.8290 C.3   1 <1>   0.1400 
 16 C        5.3190     1.5930     1.0230 C.3   1 <1>   0.0400 
 17 C       -3.6070     2.3270     1.0520 C.3   1 <1>  -0.1600 
 18 C       -5.5190     0.7230     0.6820 C.3   1 <1>  -0.1600 
 19 C       -5.0660     2.0010     1.4030 C.3   1 <1>  -0.1600 
 20 H       -1.1540    -0.1460    -2.7290 H     1 <1>   0.0800 
 21 H       -1.4160     1.5450    -2.3500 H     1 <1>   0.0800 
 22 H        1.6370     0.3900     1.0450 H     1 <1>   0.4000 
 23 H        4.4060     2.3480    -1.4140 H     1 <1>   0.1500 
 24 H       -3.9700     3.2110    -0.8720 H     1 <1>   0.0800 
 25 H       -2.3580     2.5930    -0.6700 H     1 <1>   0.0800 
 26 H       -5.5580    -0.1250    -1.2890 H     1 <1>   0.0800 
 27 H       -5.8950     1.5830    -1.2550 H     1 <1>   0.0800 
 28 H        5.7750     1.3380     1.9630 H     1 <1>   0.0800 
 29 H        5.3360     2.6610     0.8870 H     1 <1>   0.0800 
 30 H        5.8340     1.0960     0.2200 H     1 <1>   0.0800 
 31 H       -3.3300     3.2670     1.4950 H     1 <1>   0.0800 
 32 H       -2.9580     1.5700     1.4570 H     1 <1>   0.0800 
 33 H       -4.9760    -0.1240     1.0670 H     1 <1>   0.0800 
 34 H       -6.5640     0.5530     0.8680 H     1 <1>   0.0800 
 35 H       -5.6970     2.8210     1.1040 H     1 <1>   0.0800 
 36 H       -5.1650     1.8740     2.4670 H     1 <1>   0.0800 
@<TRIPOS>BOND
  1   1   2  1   
  2   1   3  1   
  3   2   4  1   
  4   2   5  2   
  5   3   6  1   
  6   3  20  1   
  7   3  21  1   
  8   4   7  1   
  9   4  22  1   
 10   5   8  1   
 11   6   9  2   
 12   6  10  am  
 13   7  11  1   
 14   7  12  2   
 15   8  12  1   
 16   8  13  2   
 17  10  14  1   
 18  10  15  1   
 19  11  16  1   
 20  12  23  1   
 21  14  17  1   
 22  14  24  1   
 23  14  25  1   
 24  15  18  1   
 25  15  26  1   
 26  15  27  1   
 27  16  28  1   
 28  16  29  1   
 29  16  30  1   
 30  17  19  1   
 31  17  31  1   
 32  17  32  1   
 33  18  19  1   
 34  18  33  1   
 35  18  34  1   
 36  19  35  1   
 37  19  36  1   
@<TRIPOS>SUBSTRUCTURE
  1 ****   1 GROUP 4 **** **** 0

# MOE 2024.06 (io_trps.svl 2023.06)
