@<TRIPOS>MOLECULE
NONAME
38 39 1 0 0 
SMALL
USER_CHARGES


@<TRIPOS>ATOM
  1 BR       1.3020    -0.6330    -2.0480 Br    1 <1>  -0.1110 
  2 C        0.4900    -2.1040    -1.1110 C.ar  1 <1>   0.1110 
  3 C       -0.7840    -2.4980    -1.4720 C.ar  1 <1>  -0.1500 
  4 C        1.1990    -2.7260    -0.1030 C.ar  1 <1>  -0.1500 
  5 C       -1.3740    -3.5550    -0.7960 C.ar  1 <1>  -0.1430 
  6 C        0.6090    -3.7820     0.5690 C.ar  1 <1>  -0.1500 
  7 C       -0.6780    -4.2010     0.2270 C.ar  1 <1>   0.0830 
  8 C       -2.7720    -4.0090    -1.1720 C.3   1 <1>   0.4870 
  9 O       -1.3110    -5.2270     0.8600 O.3   1 <1>  -0.3620 
 10 N       -3.6590    -3.8520     0.0070 N.4   1 <1>  -0.9590 
 11 C       -0.6120    -6.0780     1.7480 C.3   1 <1>   0.0400 
 12 C       -4.9610    -4.5740    -0.1730 C.3   1 <1>   0.3430 
 13 C       -3.7630    -2.4190     0.4280 C.3   1 <1>   0.3430 
 14 C       -6.1110    -3.5990    -0.4680 C.3   1 <1>  -0.0800 
 15 C       -4.9550    -2.2290     1.3670 C.3   1 <1>  -0.1600 
 16 C       -6.2890    -2.5940     0.6880 C.3   1 <1>  -0.1600 
 17 C       -7.4210    -4.3530    -0.7300 C.3   1 <1>  -0.2400 
 18 H       -1.2840    -1.9770    -2.2710 H     1 <1>   0.1500 
 19 H        2.1900    -2.3900     0.1480 H     1 <1>   0.1500 
 20 H        1.1670    -4.2590     1.3540 H     1 <1>   0.1500 
 21 H       -2.7330    -5.0450    -1.4670 H     1 <1>   0.0800 
 22 H       -3.1460    -3.4280    -2.0000 H     1 <1>   0.0800 
 23 H       -3.1330    -4.3430     0.7510 H     1 <1>   0.4500 
 24 H       -1.2740    -6.8670     2.0550 H     1 <1>   0.0800 
 25 H       -0.3000    -5.5120     2.6090 H     1 <1>   0.0800 
 26 H        0.2390    -6.4970     1.2390 H     1 <1>   0.0800 
 27 H       -5.1990    -5.1050     0.7350 H     1 <1>   0.0800 
 28 H       -4.8820    -5.2990    -0.9660 H     1 <1>   0.0800 
 29 H       -3.9050    -1.7940    -0.4390 H     1 <1>   0.0800 
 30 H       -2.8520    -2.1120     0.9180 H     1 <1>   0.0800 
 31 H       -5.8650    -3.0580    -1.3670 H     1 <1>   0.0800 
 32 H       -4.9920    -1.2050     1.6960 H     1 <1>   0.0800 
 33 H       -4.8080    -2.8390     2.2410 H     1 <1>   0.0800 
 34 H       -6.9510    -2.9960     1.4380 H     1 <1>   0.0800 
 35 H       -6.7550    -1.7030     0.3000 H     1 <1>   0.0800 
 36 H       -7.7120    -4.9330     0.1290 H     1 <1>   0.0800 
 37 H       -7.3160    -5.0170    -1.5710 H     1 <1>   0.0800 
 38 H       -8.2130    -3.6570    -0.9520 H     1 <1>   0.0800 
@<TRIPOS>BOND
  1   1   2  1   
  2   2   3  ar  
  3   2   4  ar  
  4   3   5  ar  
  5   3  18  1   
  6   4   6  ar  
  7   4  19  1   
  8   5   7  ar  
  9   5   8  1   
 10   6   7  ar  
 11   6  20  1   
 12   7   9  1   
 13   8  10  1   
 14   8  21  1   
 15   8  22  1   
 16   9  11  1   
 17  10  12  1   
 18  10  13  1   
 19  10  23  1   
 20  11  24  1   
 21  11  25  1   
 22  11  26  1   
 23  12  14  1   
 24  12  27  1   
 25  12  28  1   
 26  13  15  1   
 27  13  29  1   
 28  13  30  1   
 29  14  16  1   
 30  14  17  1   
 31  14  31  1   
 32  15  16  1   
 33  15  32  1   
 34  15  33  1   
 35  16  34  1   
 36  16  35  1   
 37  17  36  1   
 38  17  37  1   
 39  17  38  1   
@<TRIPOS>SUBSTRUCTURE
  1 ****   8 GROUP 4 **** **** 0

# MOE 2024.06 (io_trps.svl 2023.06)
