@<TRIPOS>MOLECULE
NONAME
32 33 1 0 0 
SMALL
USER_CHARGES


@<TRIPOS>ATOM
  1 BR      -1.7580     0.7550    -1.7700 Br    1 <1>  -0.1110 
  2 C       -0.8320     2.1820    -0.8630 C.ar  1 <1>   0.1110 
  3 C       -1.3030     2.6380     0.3590 C.ar  1 <1>  -0.1440 
  4 C        0.2870     2.7150    -1.4750 C.ar  1 <1>  -0.1500 
  5 C       -0.6090     3.6670     0.9830 C.ar  1 <1>  -0.1500 
  6 C       -2.5370     2.0340     0.9990 C.3   1 <1>   0.4870 
  7 C        0.9620     3.7430    -0.8420 C.ar  1 <1>  -0.1500 
  8 C        0.5140     4.2150     0.3820 C.ar  1 <1>  -0.1500 
  9 N       -3.7420     2.4440     0.2230 N.4   1 <1>  -0.9590 
 10 C       -3.9360     3.9270     0.2340 C.3   1 <1>   0.3430 
 11 C       -4.9520     1.6950     0.6690 C.3   1 <1>   0.3430 
 12 C       -5.1050     4.3020    -0.6730 C.3   1 <1>  -0.1600 
 13 C       -6.1340     2.0380    -0.2340 C.3   1 <1>  -0.1600 
 14 C       -6.3620     3.5470    -0.2510 C.3   1 <1>   0.2000 
 15 O       -7.3660     3.8300    -1.1430 O.3   1 <1>  -0.6800 
 16 H        0.6250     2.3360    -2.4240 H     1 <1>   0.1500 
 17 H       -0.9250     4.0530     1.9380 H     1 <1>   0.1500 
 18 H       -2.6210     2.3660     2.0210 H     1 <1>   0.0800 
 19 H       -2.4430     0.9600     0.9970 H     1 <1>   0.0800 
 20 H        1.8380     4.1750    -1.2980 H     1 <1>   0.1500 
 21 H        1.0510     5.0120     0.8700 H     1 <1>   0.1500 
 22 H       -3.5450     2.1730    -0.7520 H     1 <1>   0.4500 
 23 H       -3.0430     4.4220    -0.1150 H     1 <1>   0.0800 
 24 H       -4.1380     4.2620     1.2380 H     1 <1>   0.0800 
 25 H       -5.1910     1.9580     1.6870 H     1 <1>   0.0800 
 26 H       -4.7680     0.6330     0.6270 H     1 <1>   0.0800 
 27 H       -4.8490     4.0770    -1.6930 H     1 <1>   0.0800 
 28 H       -5.2820     5.3600    -0.5940 H     1 <1>   0.0800 
 29 H       -7.0150     1.5500     0.1430 H     1 <1>   0.0800 
 30 H       -5.9420     1.6710    -1.2270 H     1 <1>   0.0800 
 31 H       -6.6930     3.8850     0.7190 H     1 <1>   0.0800 
 32 H       -7.1350     3.5630    -2.0530 H     1 <1>   0.4000 
@<TRIPOS>BOND
  1   1   2  1   
  2   2   3  ar  
  3   2   4  ar  
  4   3   5  ar  
  5   3   6  1   
  6   4   7  ar  
  7   4  16  1   
  8   5   8  ar  
  9   5  17  1   
 10   6   9  1   
 11   6  18  1   
 12   6  19  1   
 13   7   8  ar  
 14   7  20  1   
 15   8  21  1   
 16   9  10  1   
 17   9  11  1   
 18   9  22  1   
 19  10  12  1   
 20  10  23  1   
 21  10  24  1   
 22  11  13  1   
 23  11  25  1   
 24  11  26  1   
 25  12  14  1   
 26  12  27  1   
 27  12  28  1   
 28  13  14  1   
 29  13  29  1   
 30  13  30  1   
 31  14  15  1   
 32  14  31  1   
 33  15  32  1   
@<TRIPOS>SUBSTRUCTURE
  1 ****   9 GROUP 4 **** **** 0

# MOE 2024.06 (io_trps.svl 2023.06)
