@<TRIPOS>MOLECULE
NONAME
44 44 1 0 0 
SMALL
USER_CHARGES


@<TRIPOS>ATOM
  1 O       -0.8760     1.8120     2.0510 O.2   1 <1>  -0.5700 
  2 C       -1.6090     1.7370     1.1110 C.2   1 <1>   0.4480 
  3 C       -1.7840     2.9060     0.1530 C.3   1 <1>   0.1030 
  4 C       -2.4200     0.4730     0.9180 C.3   1 <1>   0.0420 
  5 C       -2.5540     2.5610    -1.1120 C.2   1 <1>   0.4480 
  6 C       -0.4310     3.5530    -0.1680 C.2   1 <1>   0.3280 
  7 C       -1.5440    -0.4990     0.1550 C.2   1 <1>   0.6590 
  8 C       -3.7960     0.7400     0.2590 C.3   1 <1>   0.0000 
  9 O       -2.3790     3.1540    -2.1330 O.2   1 <1>  -0.5700 
 10 C       -3.6040     1.4590    -1.0930 C.3   1 <1>  -0.0990 
 11 N       -0.1290     4.7530     0.1120 N.2   1 <1>  -0.5130 
 12 C        0.5780     2.6310    -0.8680 C.3   1 <1>  -0.0990 
 13 O       -0.9720    -0.1780    -0.8550 O.2   1 <1>  -0.5700 
 14 O       -1.4600    -1.7270     0.6520 O.3   1 <1>  -0.4300 
 15 C       -4.6840     1.5910     1.1930 C.3   1 <1>  -0.2400 
 16 C       -4.5490    -0.5830     0.0160 C.3   1 <1>  -0.2400 
 17 O       -1.0050     5.5280     0.7140 O.3   1 <1>  -0.2170 
 18 C        1.8880     3.3150    -1.2930 C.3   1 <1>  -0.2400 
 19 C       -0.6690    -2.7250     0.0380 C.3   1 <1>   0.0400 
 20 C       -0.5620     6.8340     0.9750 C.3   1 <1>   0.1200 
 21 C       -1.6860     7.5960     1.6740 C.3   1 <1>  -0.2400 
 22 H       -2.3920     3.6170     0.6730 H     1 <1>   0.0800 
 23 H       -2.5850     0.0470     1.8920 H     1 <1>   0.0800 
 24 H       -3.3060     0.7460    -1.8410 H     1 <1>   0.0800 
 25 H       -4.5380     1.8750    -1.4260 H     1 <1>   0.0800 
 26 H        0.1230     2.2130    -1.7480 H     1 <1>   0.0800 
 27 H        0.8250     1.8200    -0.2070 H     1 <1>   0.0800 
 28 H       -4.2640     2.5570     1.4010 H     1 <1>   0.0800 
 29 H       -4.8310     1.0880     2.1330 H     1 <1>   0.0800 
 30 H       -5.6530     1.7480     0.7510 H     1 <1>   0.0800 
 31 H       -4.6810    -1.1210     0.9390 H     1 <1>   0.0800 
 32 H       -4.0190    -1.2210    -0.6700 H     1 <1>   0.0800 
 33 H       -5.5230    -0.3930    -0.4020 H     1 <1>   0.0800 
 34 H        1.6800     4.1220    -1.9740 H     1 <1>   0.0800 
 35 H        2.5340     2.6080    -1.7820 H     1 <1>   0.0800 
 36 H        2.3980     3.7120    -0.4330 H     1 <1>   0.0800 
 37 H       -1.0280    -2.8870    -0.9640 H     1 <1>   0.0800 
 38 H       -0.7540    -3.6300     0.6130 H     1 <1>   0.0800 
 39 H        0.3550    -2.3940     0.0170 H     1 <1>   0.0800 
 40 H       -0.3060     7.2930     0.0360 H     1 <1>   0.0800 
 41 H        0.3120     6.7700     1.5990 H     1 <1>   0.0800 
 42 H       -2.5530     7.6370     1.0400 H     1 <1>   0.0800 
 43 H       -1.3660     8.6000     1.8850 H     1 <1>   0.0800 
 44 H       -1.9370     7.1120     2.6010 H     1 <1>   0.0800 
@<TRIPOS>BOND
  1   1   2  2   
  2   2   3  1   
  3   2   4  1   
  4   3   5  1   
  5   3   6  1   
  6   3  22  1   
  7   4   7  1   
  8   4   8  1   
  9   4  23  1   
 10   5   9  2   
 11   5  10  1   
 12   6  11  2   
 13   6  12  1   
 14   7  13  2   
 15   7  14  1   
 16   8  10  1   
 17   8  15  1   
 18   8  16  1   
 19  10  24  1   
 20  10  25  1   
 21  11  17  1   
 22  12  18  1   
 23  12  26  1   
 24  12  27  1   
 25  14  19  1   
 26  15  28  1   
 27  15  29  1   
 28  15  30  1   
 29  16  31  1   
 30  16  32  1   
 31  16  33  1   
 32  17  20  1   
 33  18  34  1   
 34  18  35  1   
 35  18  36  1   
 36  19  37  1   
 37  19  38  1   
 38  19  39  1   
 39  20  21  1   
 40  20  40  1   
 41  20  41  1   
 42  21  42  1   
 43  21  43  1   
 44  21  44  1   
@<TRIPOS>SUBSTRUCTURE
  1 ****   3 GROUP 4 **** **** 0

# MOE 2024.06 (io_trps.svl 2023.06)
