@<TRIPOS>MOLECULE
NONAME
52 54 1 0 0 
SMALL
USER_CHARGES


@<TRIPOS>ATOM
  1 O       -0.1410     1.8390     2.4430 O.2   1 <1>  -0.5700 
  2 C        0.4900     1.5010     1.4770 C.2   1 <1>   0.7200 
  3 O        0.9420     0.2540     1.3670 O.3   1 <1>  -0.4300 
  4 C        0.8290     2.4280     0.3250 C.3   1 <1>   0.0000 
  5 C        0.7300    -0.7090     2.3780 C.3   1 <1>   0.0400 
  6 C        2.3170     2.2950     0.1100 C.2   1 <1>   0.7200 
  7 C        0.1500     3.7430    -0.0130 C.3   1 <1>  -0.0950 
  8 C       -0.0800     2.5290    -0.8820 C.3   1 <1>  -0.0680 
  9 O        3.1190     2.8800     0.7920 O.2   1 <1>  -0.5700 
 10 O        2.6970     1.5060    -0.8900 O.3   1 <1>  -0.4300 
 11 C       -0.7870     4.3150     1.0710 C.2   1 <1>   0.4840 
 12 C        1.0120     4.8630    -0.6480 C.3   1 <1>  -0.0650 
 13 C       -1.4450     1.8740    -1.0500 C.ar  1 <1>  -0.0320 
 14 C        4.0600     1.2890    -1.1910 C.3   1 <1>   0.0400 
 15 O       -0.2570     4.8900     1.9870 O.2   1 <1>  -0.5700 
 16 C       -2.2280     4.2490     0.9630 C.ar  1 <1>   0.0860 
 17 C        0.1880     5.9200    -1.3880 C.3   1 <1>  -0.2400 
 18 C       -1.6890     0.5610    -0.6760 C.ar  1 <1>  -0.1500 
 19 C       -2.4640     2.5960    -1.6520 C.ar  1 <1>  -0.1500 
 20 C       -2.9470     5.2450     0.3000 C.ar  1 <1>  -0.1500 
 21 C       -2.9670     3.2130     1.5360 C.ar  1 <1>  -0.1500 
 22 C       -2.9390    -0.0050    -0.8600 C.ar  1 <1>  -0.1500 
 23 C       -3.7150     2.0350    -1.8400 C.ar  1 <1>  -0.1500 
 24 C       -4.3240     5.1920     0.1820 C.ar  1 <1>  -0.1500 
 25 C       -4.3430     3.1540     1.4210 C.ar  1 <1>  -0.1500 
 26 C       -3.9550     0.7340    -1.4390 C.ar  1 <1>  -0.1500 
 27 C       -5.0320     4.1400     0.7370 C.ar  1 <1>  -0.1440 
 28 C       -6.5420     4.0670     0.6110 C.3   1 <1>  -0.0970 
 29 H        1.1810    -0.3580     3.2910 H     1 <1>   0.0800 
 30 H        1.1860    -1.6330     2.0710 H     1 <1>   0.0800 
 31 H       -0.3290    -0.8440     2.5160 H     1 <1>   0.0800 
 32 H        0.4220     2.5180    -1.8340 H     1 <1>   0.1000 
 33 H        1.7130     4.4450    -1.3500 H     1 <1>   0.0800 
 34 H        1.5900     5.3460     0.1240 H     1 <1>   0.0800 
 35 H        4.5400     0.8520    -0.3320 H     1 <1>   0.0800 
 36 H        4.5180     2.2330    -1.4320 H     1 <1>   0.0800 
 37 H        4.1220     0.6210    -2.0310 H     1 <1>   0.0800 
 38 H       -0.5100     5.4580    -2.0630 H     1 <1>   0.0800 
 39 H        0.8430     6.5580    -1.9550 H     1 <1>   0.0800 
 40 H       -0.3400     6.5370    -0.6850 H     1 <1>   0.0800 
 41 H       -0.9120    -0.0430    -0.2510 H     1 <1>   0.1500 
 42 H       -2.2890     3.6060    -1.9740 H     1 <1>   0.1500 
 43 H       -2.4230     6.0790    -0.1230 H     1 <1>   0.1500 
 44 H       -2.4590     2.4400     2.0800 H     1 <1>   0.1500 
 45 H       -3.1200    -1.0210    -0.5570 H     1 <1>   0.1500 
 46 H       -4.5010     2.6140    -2.2930 H     1 <1>   0.1500 
 47 H       -4.8430     5.9760    -0.3400 H     1 <1>   0.1500 
 48 H       -4.8750     2.3330     1.8680 H     1 <1>   0.1500 
 49 H       -4.9280     0.2970    -1.5800 H     1 <1>   0.1500 
 50 H       -6.8830     4.6580    -0.2200 H     1 <1>   0.0800 
 51 H       -7.0000     4.4360     1.5110 H     1 <1>   0.0800 
 52 H       -6.8520     3.0500     0.4540 H     1 <1>   0.0800 
@<TRIPOS>BOND
  1   1   2  2   
  2   2   3  1   
  3   2   4  1   
  4   3   5  1   
  5   4   6  1   
  6   4   7  1   
  7   4   8  1   
  8   5  29  1   
  9   5  30  1   
 10   5  31  1   
 11   6   9  2   
 12   6  10  1   
 13   7   8  1   
 14   7  11  1   
 15   7  12  1   
 16   8  13  1   
 17   8  32  1   
 18  10  14  1   
 19  11  15  2   
 20  11  16  1   
 21  12  17  1   
 22  12  33  1   
 23  12  34  1   
 24  13  18  ar  
 25  13  19  ar  
 26  14  35  1   
 27  14  36  1   
 28  14  37  1   
 29  16  20  ar  
 30  16  21  ar  
 31  17  38  1   
 32  17  39  1   
 33  17  40  1   
 34  18  22  ar  
 35  18  41  1   
 36  19  23  ar  
 37  19  42  1   
 38  20  24  ar  
 39  20  43  1   
 40  21  25  ar  
 41  21  44  1   
 42  22  26  ar  
 43  22  45  1   
 44  23  26  ar  
 45  23  46  1   
 46  24  27  ar  
 47  24  47  1   
 48  25  27  ar  
 49  25  48  1   
 50  26  49  1   
 51  27  28  1   
 52  28  50  1   
 53  28  51  1   
 54  28  52  1   
@<TRIPOS>SUBSTRUCTURE
  1 ****   8 GROUP 4 **** **** 0

# MOE 2024.06 (io_trps.svl 2023.06)
