@<TRIPOS>MOLECULE
NONAME
39 39 1 0 0 
SMALL
USER_CHARGES


@<TRIPOS>ATOM
  1 F       -0.1290    -4.5290     0.4620 F     1 <1>  -0.3400 
  2 C        0.9760    -3.8350     0.1880 C.3   1 <1>   1.0200 
  3 F        1.0280    -2.9120     1.1510 F     1 <1>  -0.3400 
  4 F        1.9690    -4.6740     0.4640 F     1 <1>  -0.3400 
  5 C        1.0320    -3.2020    -1.2750 C.3   1 <1>   0.6690 
  6 N        2.3770    -2.6560    -1.7350 N.pl3 1 <1>  -0.8690 
  7 N        0.3080    -1.9080    -1.4600 N.am  1 <1>  -0.7300 
  8 C        0.4590    -4.3490    -2.2080 C.3   1 <1>   1.0200 
  9 C        3.3680    -2.3410    -0.8190 C.ar  1 <1>   0.1000 
 10 C       -0.8450    -1.4680    -0.9380 C.2   1 <1>   0.7800 
 11 F        0.9230    -5.5720    -1.9720 F     1 <1>  -0.3400 
 12 F        0.7020    -4.1200    -3.4990 F     1 <1>  -0.3400 
 13 F       -0.8680    -4.4690    -2.1460 F     1 <1>  -0.3400 
 14 C        4.5090    -3.1550    -0.7050 C.ar  1 <1>  -0.1790 
 15 C        3.2330    -1.2050    -0.0260 C.ar  1 <1>  -0.1500 
 16 O       -1.1640    -0.3040    -1.0300 O.2   1 <1>  -0.5700 
 17 O       -1.6200    -2.3480    -0.3220 O.3   1 <1>  -0.4300 
 18 C        4.7230    -4.3510    -1.5130 C.2   1 <1>   0.9790 
 19 C        5.4680    -2.7790     0.2400 C.ar  1 <1>  -0.1500 
 20 C        4.1980    -0.8630     0.8980 C.ar  1 <1>  -0.1500 
 21 C       -2.8580    -1.9970     0.2470 C.3   1 <1>   0.2000 
 22 O        3.8380    -4.7740    -2.2900 O.co2 1 <1>  -0.9000 
 23 O        5.7920    -4.9820    -1.4540 O.co2 1 <1>  -0.9000 
 24 C        5.3220    -1.6570     1.0320 C.ar  1 <1>  -0.1500 
 25 C       -3.1330    -2.9970     1.3660 C.3   1 <1>  -0.2400 
 26 C       -3.9270    -2.0700    -0.8440 C.3   1 <1>  -0.2400 
 27 H        2.7860    -3.4010    -2.3550 H     1 <1>   0.4000 
 28 H        0.9390    -1.2240    -1.8750 H     1 <1>   0.3700 
 29 H        2.3650    -0.5840    -0.1360 H     1 <1>   0.1500 
 30 H        6.3490    -3.3910     0.3480 H     1 <1>   0.1500 
 31 H        4.0800     0.0140     1.5080 H     1 <1>   0.1500 
 32 H       -2.7910    -1.0010     0.6550 H     1 <1>   0.0800 
 33 H        6.0820    -1.4030     1.7480 H     1 <1>   0.1500 
 34 H       -3.1740    -3.9980     0.9740 H     1 <1>   0.0800 
 35 H       -4.0730    -2.7720     1.8370 H     1 <1>   0.0800 
 36 H       -2.3580    -2.9370     2.1090 H     1 <1>   0.0800 
 37 H       -3.9610    -3.0550    -1.2730 H     1 <1>   0.0800 
 38 H       -3.7180    -1.3510    -1.6150 H     1 <1>   0.0800 
 39 H       -4.8910    -1.8420    -0.4260 H     1 <1>   0.0800 
@<TRIPOS>BOND
  1   1   2  1   
  2   2   3  1   
  3   2   4  1   
  4   2   5  1   
  5   5   6  1   
  6   5   7  1   
  7   5   8  1   
  8   6   9  1   
  9   6  27  1   
 10   7  10  am  
 11   7  28  1   
 12   8  11  1   
 13   8  12  1   
 14   8  13  1   
 15   9  14  ar  
 16   9  15  ar  
 17  10  16  2   
 18  10  17  1   
 19  14  18  1   
 20  14  19  ar  
 21  15  20  ar  
 22  15  29  1   
 23  17  21  1   
 24  18  22  ar  
 25  18  23  ar  
 26  19  24  ar  
 27  19  30  1   
 28  20  24  ar  
 29  20  31  1   
 30  21  25  1   
 31  21  26  1   
 32  21  32  1   
 33  24  33  1   
 34  25  34  1   
 35  25  35  1   
 36  25  36  1   
 37  26  37  1   
 38  26  38  1   
 39  26  39  1   
@<TRIPOS>SUBSTRUCTURE
  1 ****   5 GROUP 4 **** **** 0

# MOE 2024.06 (io_trps.svl 2023.06)
