@<TRIPOS>MOLECULE
NONAME
45 46 1 0 0 
SMALL
USER_CHARGES


@<TRIPOS>ATOM
  1 O        0.2870     0.5710    -0.6880 O.2   1 <1>  -0.5700 
  2 C        0.7580     1.6880    -0.6000 C.2   1 <1>   0.7800 
  3 O        2.0520     1.8390    -0.3130 O.3   1 <1>  -0.4300 
  4 N        0.0080     2.8190    -0.7770 N.am  1 <1>  -0.6600 
  5 C        2.8850     0.7180    -0.1230 C.3   1 <1>   0.1200 
  6 C        0.5410     4.2050    -0.6030 C.3   1 <1>   0.1400 
  7 C       -1.4530     2.7610    -1.0750 C.3   1 <1>   0.1400 
  8 C        4.2910     1.2200     0.1880 C.3   1 <1>  -0.2400 
  9 C       -0.2620     4.9590     0.4660 C.3   1 <1>   0.1400 
 10 C       -2.2630     3.5310    -0.0180 C.3   1 <1>   0.1400 
 11 N       -1.7280     4.9180     0.1620 N.am  1 <1>  -0.6600 
 12 C       -2.4220     6.0540    -0.1990 C.2   1 <1>   0.5440 
 13 O       -1.7930     7.0540    -0.4890 O.2   1 <1>  -0.5700 
 14 C       -3.8710     6.0840    -0.2560 C.ar  1 <1>   0.0860 
 15 C       -4.5330     6.5990    -1.3700 C.ar  1 <1>  -0.1500 
 16 C       -4.6570     5.6130     0.7970 C.ar  1 <1>  -0.1500 
 17 C       -5.9140     6.6260    -1.4380 C.ar  1 <1>  -0.1500 
 18 C       -6.0390     5.6370     0.7390 C.ar  1 <1>  -0.1500 
 19 C       -6.6790     6.1450    -0.3880 C.ar  1 <1>   0.0820 
 20 O       -8.0210     6.2080    -0.5320 O.3   1 <1>  -0.3630 
 21 C       -8.9000     5.8120     0.4960 C.3   1 <1>   0.2580 
 22 C      -10.3190     6.0390     0.0140 C.2   1 <1>  -0.2880 
 23 C      -11.2740     5.1060    -0.0580 C.2   1 <1>  -0.3000 
 24 H        2.8740     0.1290    -1.0250 H     1 <1>   0.0800 
 25 H        2.4920     0.1360     0.6940 H     1 <1>   0.0800 
 26 H        0.4640     4.7330    -1.5370 H     1 <1>   0.0800 
 27 H        1.5780     4.1860    -0.3190 H     1 <1>   0.0800 
 28 H       -1.7920     1.7400    -1.1070 H     1 <1>   0.0800 
 29 H       -1.6300     3.1960    -2.0430 H     1 <1>   0.0800 
 30 H        4.6640     1.8080    -0.6320 H     1 <1>   0.0800 
 31 H        4.9490     0.3840     0.3370 H     1 <1>   0.0800 
 32 H        4.2820     1.8140     1.0840 H     1 <1>   0.0800 
 33 H        0.0860     5.9760     0.5220 H     1 <1>   0.0800 
 34 H       -0.0890     4.5040     1.4250 H     1 <1>   0.0800 
 35 H       -2.2070     3.0070     0.9200 H     1 <1>   0.0800 
 36 H       -3.2930     3.5550    -0.3240 H     1 <1>   0.0800 
 37 H       -3.9480     6.9840    -2.1880 H     1 <1>   0.1500 
 38 H       -4.1670     5.2270     1.6740 H     1 <1>   0.1500 
 39 H       -6.4100     7.0240    -2.3050 H     1 <1>   0.1500 
 40 H       -6.5970     5.2610     1.5760 H     1 <1>   0.1500 
 41 H       -8.6970     6.4120     1.3660 H     1 <1>   0.0800 
 42 H       -8.7300     4.7720     0.7100 H     1 <1>   0.0800 
 43 H      -10.4850     7.0620    -0.2780 H     1 <1>   0.1500 
 44 H      -12.2740     5.3000    -0.4090 H     1 <1>   0.1500 
 45 H      -11.1420     4.0750     0.2200 H     1 <1>   0.1500 
@<TRIPOS>BOND
  1   1   2  2   
  2   2   3  1   
  3   2   4  am  
  4   3   5  1   
  5   4   6  1   
  6   4   7  1   
  7   5   8  1   
  8   5  24  1   
  9   5  25  1   
 10   6   9  1   
 11   6  26  1   
 12   6  27  1   
 13   7  10  1   
 14   7  28  1   
 15   7  29  1   
 16   8  30  1   
 17   8  31  1   
 18   8  32  1   
 19   9  11  1   
 20   9  33  1   
 21   9  34  1   
 22  10  11  1   
 23  10  35  1   
 24  10  36  1   
 25  11  12  am  
 26  12  13  2   
 27  12  14  1   
 28  14  15  ar  
 29  14  16  ar  
 30  15  17  ar  
 31  15  37  1   
 32  16  18  ar  
 33  16  38  1   
 34  17  19  ar  
 35  17  39  1   
 36  18  19  ar  
 37  18  40  1   
 38  19  20  1   
 39  20  21  1   
 40  21  22  1   
 41  21  41  1   
 42  21  42  1   
 43  22  23  2   
 44  22  43  1   
 45  23  44  1   
 46  23  45  1   
@<TRIPOS>SUBSTRUCTURE
  1 ****  10 GROUP 4 **** **** 0

# MOE 2024.06 (io_trps.svl 2023.06)
