@<TRIPOS>MOLECULE
NONAME
30 29 1 0 0 
SMALL
USER_CHARGES


@<TRIPOS>ATOM
  1 S        0.0000    -1.0190     0.2290 S.3   1 <1>  -0.1410 
  2 S        1.5680    -0.1690     1.4290 S.3   1 <1>  -0.2300 
  3 C       -1.4410    -0.0700     0.6670 C.2   1 <1>   0.6500 
  4 C        2.4030     1.0150     0.3060 C.3   1 <1>   0.2300 
  5 O       -1.4080     0.8240     1.4600 O.2   1 <1>  -0.5700 
  6 C       -2.6990    -0.4900    -0.0520 C.3   1 <1>  -0.1790 
  7 C        3.6780     1.5420     1.0350 C.3   1 <1>   0.1140 
  8 C        1.3830     2.1360     0.0440 C.3   1 <1>  -0.2400 
  9 C        2.7240     0.2810    -1.0090 C.3   1 <1>  -0.2400 
 10 N        4.3360     2.6380     0.2770 N.am  1 <1>  -0.7300 
 11 C        4.7090     0.4050     1.2700 C.2   1 <1>   0.9060 
 12 C        4.1520     3.9420     0.4270 C.2   1 <1>   0.5690 
 13 O        5.5410     0.2090     0.3450 O.co2 1 <1>  -0.9000 
 14 O        4.7090    -0.1980     2.3660 O.co2 1 <1>  -0.9000 
 15 O        3.2960     4.4260     1.1550 O.2   1 <1>  -0.5700 
 16 C        5.0730     4.8410    -0.3700 C.3   1 <1>  -0.1790 
 17 H       -2.9120    -1.5190     0.1670 H     1 <1>   0.0800 
 18 H       -2.5690    -0.3660    -1.1100 H     1 <1>   0.0800 
 19 H       -3.5210     0.1190     0.2770 H     1 <1>   0.0800 
 20 H        3.3840     1.9120     2.0170 H     1 <1>   0.0800 
 21 H        1.7930     2.8680    -0.6260 H     1 <1>   0.0800 
 22 H        1.1310     2.6260     0.9680 H     1 <1>   0.0800 
 23 H        0.4860     1.7530    -0.4000 H     1 <1>   0.0800 
 24 H        3.3540     0.8960    -1.6260 H     1 <1>   0.0800 
 25 H        1.8350     0.0550    -1.5640 H     1 <1>   0.0800 
 26 H        3.2500    -0.6360    -0.8070 H     1 <1>   0.0800 
 27 H        5.1130     2.2950    -0.2760 H     1 <1>   0.3700 
 28 H        6.1030     4.6380    -0.0800 H     1 <1>   0.0800 
 29 H        4.8290     5.8810    -0.1620 H     1 <1>   0.0800 
 30 H        4.9440     4.6340    -1.4300 H     1 <1>   0.0800 
@<TRIPOS>BOND
  1   1   2  1   
  2   1   3  1   
  3   2   4  1   
  4   3   5  2   
  5   3   6  1   
  6   4   7  1   
  7   4   8  1   
  8   4   9  1   
  9   6  17  1   
 10   6  18  1   
 11   6  19  1   
 12   7  10  1   
 13   7  11  1   
 14   7  20  1   
 15   8  21  1   
 16   8  22  1   
 17   8  23  1   
 18   9  24  1   
 19   9  25  1   
 20   9  26  1   
 21  10  12  am  
 22  10  27  1   
 23  11  13  ar  
 24  11  14  ar  
 25  12  15  2   
 26  12  16  1   
 27  16  28  1   
 28  16  29  1   
 29  16  30  1   
@<TRIPOS>SUBSTRUCTURE
  1 ****   4 GROUP 4 **** **** 0

# MOE 2024.06 (io_trps.svl 2023.06)
