@<TRIPOS>MOLECULE
NONAME
41 43 1 0 0 
SMALL
USER_CHARGES


@<TRIPOS>ATOM
  1 CL       0.2220    -0.7800     1.0920 Cl    1 <1>  -0.1770 
  2 C       -1.2380    -1.6060     0.6050 C.ar  1 <1>   0.1770 
  3 C       -1.1800    -2.8440    -0.0460 C.ar  1 <1>   0.0530 
  4 C       -2.4350    -0.9700     0.8750 C.ar  1 <1>  -0.1500 
  5 C        0.0550    -3.5360    -0.3230 C.2   1 <1>   0.4250 
  6 C       -2.3970    -3.4120    -0.4390 C.ar  1 <1>  -0.1500 
  7 C       -3.6120    -1.5720     0.4800 C.ar  1 <1>   0.1770 
  8 O        1.0230    -3.5830     0.5460 O.3   1 <1>  -0.2800 
  9 N        0.3540    -4.2110    -1.3890 N.2   1 <1>  -0.3380 
 10 C       -3.6040    -2.7880    -0.1780 C.ar  1 <1>  -0.1500 
 11 CL      -5.1320    -0.7860     0.8130 Cl    1 <1>  -0.1770 
 12 C        1.9130    -4.3010    -0.0390 C.2   1 <1>   0.5340 
 13 N        1.5760    -4.7050    -1.2010 N.2   1 <1>  -0.3380 
 14 S        3.4370    -4.6520     0.8250 S.3   1 <1>  -0.2860 
 15 C        4.3050    -5.9030    -0.2410 C.3   1 <1>   0.1310 
 16 C        4.3950    -7.2390     0.4830 C.2   1 <1>   0.5690 
 17 O        5.4530    -7.5620     0.9610 O.2   1 <1>  -0.5700 
 18 N        3.3390    -8.0820     0.5960 N.am  1 <1>  -0.7300 
 19 C        1.9720    -7.9500     0.0680 C.3   1 <1>   0.2200 
 20 C        1.0190    -7.5960     1.2150 C.3   1 <1>  -0.1600 
 21 C        1.5620    -9.2650    -0.5990 C.3   1 <1>  -0.1600 
 22 C       -0.4300    -7.5090     0.7150 C.3   1 <1>  -0.1600 
 23 C        0.1130    -9.1910    -1.1060 C.3   1 <1>  -0.1600 
 24 C       -0.8540    -8.8140     0.0250 C.3   1 <1>  -0.1600 
 25 H       -2.4510    -0.0220     1.3800 H     1 <1>   0.1500 
 26 H       -2.3930    -4.3590    -0.9540 H     1 <1>   0.1500 
 27 H       -4.5350    -3.2350    -0.4810 H     1 <1>   0.1500 
 28 H        5.2920    -5.5190    -0.4230 H     1 <1>   0.0800 
 29 H        3.7810    -5.9980    -1.1710 H     1 <1>   0.0800 
 30 H        3.5140    -8.9300     1.1370 H     1 <1>   0.3700 
 31 H        1.9390    -7.1740    -0.6740 H     1 <1>   0.0800 
 32 H        1.3030    -6.6540     1.6480 H     1 <1>   0.0800 
 33 H        1.0820    -8.3500     1.9790 H     1 <1>   0.0800 
 34 H        1.6450   -10.0720     0.1080 H     1 <1>   0.0800 
 35 H        2.2180    -9.4660    -1.4280 H     1 <1>   0.0800 
 36 H       -0.5190    -6.6940     0.0160 H     1 <1>   0.0800 
 37 H       -1.0870    -7.3080     1.5430 H     1 <1>   0.0800 
 38 H       -0.1730   -10.1410    -1.5230 H     1 <1>   0.0800 
 39 H        0.0470    -8.4540    -1.8890 H     1 <1>   0.0800 
 40 H       -1.8480    -8.7040    -0.3730 H     1 <1>   0.0800 
 41 H       -0.8770    -9.6080     0.7520 H     1 <1>   0.0800 
@<TRIPOS>BOND
  1   1   2  1   
  2   2   3  ar  
  3   2   4  ar  
  4   3   5  1   
  5   3   6  ar  
  6   4   7  ar  
  7   4  25  1   
  8   5   8  1   
  9   5   9  2   
 10   6  10  ar  
 11   6  26  1   
 12   7  10  ar  
 13   7  11  1   
 14   8  12  1   
 15   9  13  1   
 16  10  27  1   
 17  12  13  2   
 18  12  14  1   
 19  14  15  1   
 20  15  16  1   
 21  15  28  1   
 22  15  29  1   
 23  16  17  2   
 24  16  18  am  
 25  18  19  1   
 26  18  30  1   
 27  19  20  1   
 28  19  21  1   
 29  19  31  1   
 30  20  22  1   
 31  20  32  1   
 32  20  33  1   
 33  21  23  1   
 34  21  34  1   
 35  21  35  1   
 36  22  24  1   
 37  22  36  1   
 38  22  37  1   
 39  23  24  1   
 40  23  38  1   
 41  23  39  1   
 42  24  40  1   
 43  24  41  1   
@<TRIPOS>SUBSTRUCTURE
  1 ****   5 GROUP 4 **** **** 0

# MOE 2024.06 (io_trps.svl 2023.06)
