@<TRIPOS>MOLECULE
NONAME
42 43 1 0 0 
SMALL
USER_CHARGES


@<TRIPOS>ATOM
  1 O        1.3280    -1.6160     2.9550 O.2   1 <1>  -0.5700 
  2 C        0.7020    -2.1340     2.0690 C.2   1 <1>   0.5690 
  3 N       -0.6390    -2.1890     2.1300 N.am  1 <1>  -0.8000 
  4 C        1.4490    -2.7280     0.8780 C.3   1 <1>  -0.0190 
  5 C        2.3780    -3.8700     1.3370 C.3   1 <1>  -0.1600 
  6 C        2.2580    -1.6360     0.1490 C.3   1 <1>  -0.1600 
  7 C        3.2690    -4.3880     0.2110 C.3   1 <1>   0.3430 
  8 C        3.1490    -2.2080    -0.9500 C.3   1 <1>   0.3430 
  9 N        4.0330    -3.2520    -0.3670 N.4   1 <1>  -0.9590 
 10 C        5.0680    -3.7030    -1.3160 C.3   1 <1>   0.4810 
 11 C        6.3660    -3.0980    -0.8250 C.2   1 <1>  -0.2760 
 12 C        7.2840    -3.8400    -0.1760 C.2   1 <1>  -0.1780 
 13 C        6.5400    -1.6150    -1.1530 C.3   1 <1>  -0.1020 
 14 C        8.5500    -3.4250     0.3780 C.ar  1 <1>   0.0280 
 15 C        9.7210    -4.0910     0.0300 C.ar  1 <1>  -0.1500 
 16 C        8.6420    -2.3710     1.2830 C.ar  1 <1>  -0.1500 
 17 C       10.9420    -3.7140     0.5570 C.ar  1 <1>  -0.1500 
 18 C        9.8610    -1.9880     1.8130 C.ar  1 <1>  -0.1500 
 19 C       11.0140    -2.6600     1.4500 C.ar  1 <1>  -0.1500 
 20 H       -1.1090    -1.7820     2.9420 H     1 <1>   0.3700 
 21 H       -1.2500    -2.6070     1.4290 H     1 <1>   0.3700 
 22 H        0.7260    -3.1320     0.1910 H     1 <1>   0.0800 
 23 H        1.7820    -4.6820     1.7190 H     1 <1>   0.0800 
 24 H        3.0030    -3.5310     2.1470 H     1 <1>   0.0800 
 25 H        2.8740    -1.1040     0.8550 H     1 <1>   0.0800 
 26 H        1.5800    -0.9190    -0.2820 H     1 <1>   0.0800 
 27 H        2.6630    -4.8500    -0.5520 H     1 <1>   0.0800 
 28 H        3.9480    -5.1290     0.6040 H     1 <1>   0.0800 
 29 H        3.7410    -1.4160    -1.3790 H     1 <1>   0.0800 
 30 H        2.5380    -2.6370    -1.7280 H     1 <1>   0.0800 
 31 H        4.5660    -2.8200     0.4020 H     1 <1>   0.4500 
 32 H        5.1460    -4.7780    -1.2980 H     1 <1>   0.0800 
 33 H        4.8510    -3.3870    -2.3240 H     1 <1>   0.0800 
 34 H        7.1110    -4.8920    -0.0180 H     1 <1>   0.1500 
 35 H        6.3530    -1.4370    -2.1970 H     1 <1>   0.0800 
 36 H        7.5450    -1.2880    -0.9520 H     1 <1>   0.0800 
 37 H        5.8730    -1.0080    -0.5680 H     1 <1>   0.0800 
 38 H        9.6770    -4.9110    -0.6640 H     1 <1>   0.1500 
 39 H        7.7520    -1.8480     1.5780 H     1 <1>   0.1500 
 40 H       11.8390    -4.2390     0.2740 H     1 <1>   0.1500 
 41 H        9.9140    -1.1700     2.5110 H     1 <1>   0.1500 
 42 H       11.9640    -2.3640     1.8610 H     1 <1>   0.1500 
@<TRIPOS>BOND
  1   1   2  2   
  2   2   3  am  
  3   2   4  1   
  4   3  20  1   
  5   3  21  1   
  6   4   5  1   
  7   4   6  1   
  8   4  22  1   
  9   5   7  1   
 10   5  23  1   
 11   5  24  1   
 12   6   8  1   
 13   6  25  1   
 14   6  26  1   
 15   7   9  1   
 16   7  27  1   
 17   7  28  1   
 18   8   9  1   
 19   8  29  1   
 20   8  30  1   
 21   9  10  1   
 22   9  31  1   
 23  10  11  1   
 24  10  32  1   
 25  10  33  1   
 26  11  12  2   
 27  11  13  1   
 28  12  14  1   
 29  12  34  1   
 30  13  35  1   
 31  13  36  1   
 32  13  37  1   
 33  14  15  ar  
 34  14  16  ar  
 35  15  17  ar  
 36  15  38  1   
 37  16  18  ar  
 38  16  39  1   
 39  17  19  ar  
 40  17  40  1   
 41  18  19  ar  
 42  18  41  1   
 43  19  42  1   
@<TRIPOS>SUBSTRUCTURE
  1 ****   9 GROUP 4 **** **** 0

# MOE 2024.06 (io_trps.svl 2023.06)
