@<TRIPOS>MOLECULE
NONAME
46 48 1 0 0 
SMALL
USER_CHARGES


@<TRIPOS>ATOM
  1 F       -2.9670     3.6430     2.2460 F     1 <1>  -0.1900 
  2 C       -1.8890     2.9280     2.0270 C.ar  1 <1>   0.1900 
  3 C       -1.7630     2.2000     0.8360 C.ar  1 <1>   0.1000 
  4 C       -0.9150     2.9330     3.0070 C.ar  1 <1>  -0.1500 
  5 N       -2.7170     2.1590    -0.1880 N.pl3 1 <1>  -0.8380 
  6 C       -0.5940     1.4670     0.6720 C.ar  1 <1>  -0.1500 
  7 C        0.2380     2.1910     2.8110 C.ar  1 <1>  -0.1500 
  8 C       -2.9280     3.4370    -0.9330 C.3   1 <1>   0.2090 
  9 C       -4.0190     1.5120     0.1640 C.3   1 <1>   0.2090 
 10 C        0.3940     1.4600     1.6440 C.ar  1 <1>  -0.1500 
 11 C       -3.8410     3.2280    -2.1590 C.3   1 <1>   0.1100 
 12 C       -4.9020     1.3410    -1.0840 C.3   1 <1>   0.1100 
 13 N       -5.1400     2.6350    -1.7780 N.3   1 <1>  -0.8100 
 14 C       -6.0400     2.4580    -2.9570 C.3   1 <1>   0.1710 
 15 C       -7.4810     2.1140    -2.5650 C.2   1 <1>   0.5690 
 16 O       -8.1680     1.4390    -3.2950 O.2   1 <1>  -0.5700 
 17 N       -7.9090     2.5550    -1.3590 N.am  1 <1>  -0.7300 
 18 C       -8.9890     1.9430    -0.5780 C.3   1 <1>   0.2840 
 19 C       -8.3250     1.1050     0.5000 C.ar  1 <1>  -0.1430 
 20 C       -8.1700    -0.2620     0.3240 C.ar  1 <1>  -0.1500 
 21 C       -7.8360     1.7020     1.6530 C.ar  1 <1>  -0.1500 
 22 C       -7.5330    -1.0230     1.2890 C.ar  1 <1>  -0.1500 
 23 C       -7.1970     0.9420     2.6170 C.ar  1 <1>  -0.1500 
 24 C       -7.0460    -0.4220     2.4350 C.ar  1 <1>  -0.1500 
 25 H       -1.0590     3.5080     3.9030 H     1 <1>   0.1500 
 26 H       -0.4710     0.8990    -0.2320 H     1 <1>   0.1500 
 27 H        1.0090     2.1820     3.5620 H     1 <1>   0.1500 
 28 H       -1.9750     3.8180    -1.2560 H     1 <1>   0.0800 
 29 H       -3.3780     4.1660    -0.2810 H     1 <1>   0.0800 
 30 H       -4.5450     2.1130     0.8850 H     1 <1>   0.0800 
 31 H       -3.8310     0.5490     0.6040 H     1 <1>   0.0800 
 32 H        1.2900     0.8830     1.4890 H     1 <1>   0.1500 
 33 H       -3.3360     2.5870    -2.8610 H     1 <1>   0.0800 
 34 H       -4.0080     4.1800    -2.6300 H     1 <1>   0.0800 
 35 H       -5.8360     0.9070    -0.7770 H     1 <1>   0.0800 
 36 H       -4.4200     0.6490    -1.7530 H     1 <1>   0.0800 
 37 H       -5.6590     1.6810    -3.5970 H     1 <1>   0.0800 
 38 H       -6.0710     3.3720    -3.5220 H     1 <1>   0.0800 
 39 H       -7.1670     2.9830    -0.7940 H     1 <1>   0.3700 
 40 H       -9.6080     1.3300    -1.2120 H     1 <1>   0.0800 
 41 H       -9.6000     2.7110    -0.1390 H     1 <1>   0.0800 
 42 H       -8.5390    -0.7340    -0.5710 H     1 <1>   0.1500 
 43 H       -7.9440     2.7630     1.8020 H     1 <1>   0.1500 
 44 H       -7.4170    -2.0830     1.1460 H     1 <1>   0.1500 
 45 H       -6.8180     1.4110     3.5090 H     1 <1>   0.1500 
 46 H       -6.5500    -1.0130     3.1850 H     1 <1>   0.1500 
@<TRIPOS>BOND
  1   1   2  1   
  2   2   3  ar  
  3   2   4  ar  
  4   3   5  1   
  5   3   6  ar  
  6   4   7  ar  
  7   4  25  1   
  8   5   8  1   
  9   5   9  1   
 10   6  10  ar  
 11   6  26  1   
 12   7  10  ar  
 13   7  27  1   
 14   8  11  1   
 15   8  28  1   
 16   8  29  1   
 17   9  12  1   
 18   9  30  1   
 19   9  31  1   
 20  10  32  1   
 21  11  13  1   
 22  11  33  1   
 23  11  34  1   
 24  12  13  1   
 25  12  35  1   
 26  12  36  1   
 27  13  14  1   
 28  14  15  1   
 29  14  37  1   
 30  14  38  1   
 31  15  16  2   
 32  15  17  am  
 33  17  18  1   
 34  17  39  1   
 35  18  19  1   
 36  18  40  1   
 37  18  41  1   
 38  19  20  ar  
 39  19  21  ar  
 40  20  22  ar  
 41  20  42  1   
 42  21  23  ar  
 43  21  43  1   
 44  22  24  ar  
 45  22  44  1   
 46  23  24  ar  
 47  23  45  1   
 48  24  46  1   
@<TRIPOS>SUBSTRUCTURE
  1 ****   9 GROUP 4 **** **** 0

# MOE 2024.06 (io_trps.svl 2023.06)
