@<TRIPOS>MOLECULE
NONAME
30 30 1 0 0 
SMALL
USER_CHARGES


@<TRIPOS>ATOM
  1 S       -0.5980    -0.1860    -0.5820 S.3   1 <1>  -0.2660 
  2 C        0.7330    -0.4200     0.6120 C.1   1 <1>   0.5930 
  3 C       -2.0970    -0.6320     0.3950 C.3   1 <1>   0.0700 
  4 N        1.5460    -0.5780     1.3910 N.1   1 <1>  -0.5570 
  5 C       -3.3200    -0.4760    -0.5090 C.3   1 <1>  -0.1600 
  6 C       -4.6000    -0.8320     0.2450 C.3   1 <1>   0.1200 
  7 O       -5.6850    -0.6700    -0.6350 O.3   1 <1>  -0.3630 
  8 C       -6.9030    -0.9470    -0.1190 C.ar  1 <1>   0.0830 
  9 C       -7.4120    -2.2410    -0.2130 C.ar  1 <1>  -0.1440 
 10 C       -7.6390     0.0660     0.4920 C.ar  1 <1>  -0.1430 
 11 C       -8.6500    -2.5190     0.3430 C.ar  1 <1>  -0.1500 
 12 C       -6.6430    -3.3490    -0.9170 C.3   1 <1>  -0.0970 
 13 C       -8.8740    -0.2360     1.0400 C.ar  1 <1>  -0.1500 
 14 C       -7.1190     1.4950     0.5620 C.3   1 <1>  -0.0970 
 15 C       -9.3770    -1.5230     0.9700 C.ar  1 <1>  -0.1500 
 16 H       -2.1380     0.0330     1.2400 H     1 <1>   0.0800 
 17 H       -1.9730    -1.6490     0.7270 H     1 <1>   0.0800 
 18 H       -3.2200    -1.1260    -1.3600 H     1 <1>   0.0800 
 19 H       -3.3840     0.5420    -0.8500 H     1 <1>   0.0800 
 20 H       -4.7490    -0.1810     1.0880 H     1 <1>   0.0800 
 21 H       -4.5840    -1.8550     0.5770 H     1 <1>   0.0800 
 22 H       -9.0580    -3.5130     0.2880 H     1 <1>   0.1500 
 23 H       -6.1710    -2.9670    -1.8050 H     1 <1>   0.0800 
 24 H       -7.3030    -4.1470    -1.2060 H     1 <1>   0.0800 
 25 H       -5.8880    -3.7450    -0.2630 H     1 <1>   0.0800 
 26 H       -9.4550     0.5300     1.5230 H     1 <1>   0.1500 
 27 H       -6.4120     1.5880     1.3660 H     1 <1>   0.0800 
 28 H       -7.9250     2.1860     0.7280 H     1 <1>   0.0800 
 29 H       -6.6360     1.7600    -0.3610 H     1 <1>   0.0800 
 30 H      -10.3370    -1.7490     1.4000 H     1 <1>   0.1500 
@<TRIPOS>BOND
  1   1   2  1   
  2   1   3  1   
  3   2   4  3   
  4   3   5  1   
  5   3  16  1   
  6   3  17  1   
  7   5   6  1   
  8   5  18  1   
  9   5  19  1   
 10   6   7  1   
 11   6  20  1   
 12   6  21  1   
 13   7   8  1   
 14   8   9  ar  
 15   8  10  ar  
 16   9  11  ar  
 17   9  12  1   
 18  10  13  ar  
 19  10  14  1   
 20  11  15  ar  
 21  11  22  1   
 22  12  23  1   
 23  12  24  1   
 24  12  25  1   
 25  13  15  ar  
 26  13  26  1   
 27  14  27  1   
 28  14  28  1   
 29  14  29  1   
 30  15  30  1   
@<TRIPOS>SUBSTRUCTURE
  1 ****   6 GROUP 4 **** **** 0

# MOE 2024.06 (io_trps.svl 2023.06)
