@<TRIPOS>MOLECULE
NONAME
29 31 1 0 0 
SMALL
USER_CHARGES


@<TRIPOS>ATOM
  1 O       -0.3700     1.6890     2.0620 O.2   1 <1>  -0.5700 
  2 C        0.0100     2.2050     1.0430 C.2   1 <1>   0.5690 
  3 N       -0.7540     2.6420     0.0100 N.am  1 <1>  -0.1830 
  4 C        1.4780     2.4390     0.7640 C.3   1 <1>  -0.0990 
  5 C       -2.1400     2.5970    -0.0110 C.2   1 <1>   0.5790 
  6 C        0.0110     3.1520    -0.9880 C.2   1 <1>   0.5690 
  7 C        1.4790     3.0880    -0.6290 C.3   1 <1>  -0.0990 
  8 N       -2.7890     1.5770    -0.4860 N.2   1 <1>  -0.7070 
  9 N       -2.8550     3.6180     0.4640 N.2   1 <1>  -0.5650 
 10 O       -0.3680     3.6000    -2.0390 O.2   1 <1>  -0.5700 
 11 N       -4.0480     1.9600    -0.3090 N.pl3 1 <1>   0.6010 
 12 C       -4.0600     3.1960     0.2670 C.2   1 <1>   0.3120 
 13 C       -5.2370     1.3160    -0.6090 C.2   1 <1>  -0.1690 
 14 N       -5.2140     3.8700     0.5810 N.2   1 <1>  -0.5760 
 15 C       -6.3830     1.9800    -0.3000 C.2   1 <1>  -0.1360 
 16 C       -5.1850    -0.0640    -1.2520 C.3   1 <1>  -0.1020 
 17 C       -6.3240     3.2700     0.3010 C.2   1 <1>   0.3750 
 18 C       -7.6260     3.9680     0.6260 C.3   1 <1>  -0.1790 
 19 H        2.0050     1.5010     0.7660 H     1 <1>   0.0800 
 20 H        1.8910     3.0960     1.5090 H     1 <1>   0.0800 
 21 H        2.0050     2.4870    -1.3480 H     1 <1>   0.0800 
 22 H        1.8920     4.0810    -0.6040 H     1 <1>   0.0800 
 23 H       -7.3530     1.5600    -0.4960 H     1 <1>   0.1500 
 24 H       -4.6620    -0.0130    -2.1910 H     1 <1>   0.0800 
 25 H       -6.1750    -0.4440    -1.4290 H     1 <1>   0.0800 
 26 H       -4.6630    -0.7500    -0.6080 H     1 <1>   0.0800 
 27 H       -8.1970     3.3760     1.3170 H     1 <1>   0.0800 
 28 H       -8.1960     4.1170    -0.2730 H     1 <1>   0.0800 
 29 H       -7.4320     4.9270     1.0730 H     1 <1>   0.0800 
@<TRIPOS>BOND
  1   1   2  2   
  2   2   3  am  
  3   2   4  1   
  4   3   5  1   
  5   3   6  am  
  6   4   7  1   
  7   4  19  1   
  8   4  20  1   
  9   5   8  2   
 10   5   9  1   
 11   6   7  1   
 12   6  10  2   
 13   7  21  1   
 14   7  22  1   
 15   8  11  1   
 16   9  12  2   
 17  11  12  1   
 18  11  13  1   
 19  12  14  1   
 20  13  15  2   
 21  13  16  1   
 22  14  17  2   
 23  15  17  1   
 24  15  23  1   
 25  16  24  1   
 26  16  25  1   
 27  16  26  1   
 28  17  18  1   
 29  18  27  1   
 30  18  28  1   
 31  18  29  1   
@<TRIPOS>SUBSTRUCTURE
  1 ****   5 GROUP 4 **** **** 0

# MOE 2024.06 (io_trps.svl 2023.06)
