@<TRIPOS>MOLECULE
NONAME
33 35 1 0 0 
SMALL
USER_CHARGES


@<TRIPOS>ATOM
  1 I       -0.2280     0.8530    -0.6230 I     1 <1>  -0.0810 
  2 C       -2.1860     0.0540    -0.3780 C.ar  1 <1>   0.0810 
  3 C       -3.2500     0.9270    -0.2580 C.ar  1 <1>  -0.1500 
  4 C       -2.3450    -1.3190    -0.3440 C.ar  1 <1>  -0.1500 
  5 C       -4.5190     0.3980    -0.1000 C.ar  1 <1>  -0.1500 
  6 C       -3.6210    -1.8290    -0.1840 C.ar  1 <1>  -0.1500 
  7 C       -4.7230    -0.9820    -0.0600 C.ar  1 <1>   0.1170 
  8 N       -6.0250    -1.5130     0.1020 N.am  1 <1>  -0.2370 
  9 C       -6.9390    -1.0880     1.0300 C.2   1 <1>   0.5690 
 10 C       -6.5660    -2.5180    -0.6560 C.2   1 <1>   0.5690 
 11 O       -6.7750    -0.2230     1.8530 O.2   1 <1>  -0.5700 
 12 C       -8.2430    -1.8440     0.9130 C.3   1 <1>  -0.0190 
 13 O       -6.0250    -3.1080    -1.5550 O.2   1 <1>  -0.5700 
 14 C       -7.9800    -2.8350    -0.2370 C.3   1 <1>  -0.0990 
 15 C       -9.4160    -0.8800     0.6820 C.3   1 <1>   0.2000 
 16 O      -10.5480    -1.6100     0.3570 O.3   1 <1>  -0.5600 
 17 C       -9.2660     0.1130    -0.4700 C.3   1 <1>  -0.1600 
 18 C      -11.4900    -0.7790    -0.2370 C.3   1 <1>   0.1200 
 19 C      -10.6960     0.3110    -0.9530 C.3   1 <1>  -0.1600 
 20 H       -3.0940     1.9910    -0.2860 H     1 <1>   0.1500 
 21 H       -1.4960    -1.9730    -0.4420 H     1 <1>   0.1500 
 22 H       -5.3580     1.0640    -0.0010 H     1 <1>   0.1500 
 23 H       -3.7630    -2.8950    -0.1610 H     1 <1>   0.1500 
 24 H       -8.4080    -2.3780     1.8320 H     1 <1>   0.0800 
 25 H       -8.0410    -3.8520     0.1060 H     1 <1>   0.0800 
 26 H       -8.6480    -2.6990    -1.0680 H     1 <1>   0.0800 
 27 H       -9.6300    -0.3420     1.5920 H     1 <1>   0.0800 
 28 H       -8.6680    -0.2980    -1.2630 H     1 <1>   0.0800 
 29 H       -8.8190     1.0330    -0.1350 H     1 <1>   0.0800 
 30 H      -12.1080    -0.3640     0.5410 H     1 <1>   0.0800 
 31 H      -12.0900    -1.3620    -0.9140 H     1 <1>   0.0800 
 32 H      -10.7660     0.1930    -2.0200 H     1 <1>   0.0800 
 33 H      -11.0750     1.2800    -0.6820 H     1 <1>   0.0800 
@<TRIPOS>BOND
  1   1   2  1   
  2   2   3  ar  
  3   2   4  ar  
  4   3   5  ar  
  5   3  20  1   
  6   4   6  ar  
  7   4  21  1   
  8   5   7  ar  
  9   5  22  1   
 10   6   7  ar  
 11   6  23  1   
 12   7   8  1   
 13   8   9  am  
 14   8  10  am  
 15   9  11  2   
 16   9  12  1   
 17  10  13  2   
 18  10  14  1   
 19  12  14  1   
 20  12  15  1   
 21  12  24  1   
 22  14  25  1   
 23  14  26  1   
 24  15  16  1   
 25  15  17  1   
 26  15  27  1   
 27  16  18  1   
 28  17  19  1   
 29  17  28  1   
 30  17  29  1   
 31  18  19  1   
 32  18  30  1   
 33  18  31  1   
 34  19  32  1   
 35  19  33  1   
@<TRIPOS>SUBSTRUCTURE
  1 ****   8 GROUP 4 **** **** 0

# MOE 2024.06 (io_trps.svl 2023.06)
