@<TRIPOS>MOLECULE
NONAME
45 46 1 0 0 
SMALL
USER_CHARGES


@<TRIPOS>ATOM
  1 F        0.0000     0.2260    -0.1790 F     1 <1>  -0.1900 
  2 C       -1.2950     0.0300    -0.1940 C.ar  1 <1>   0.1900 
  3 C       -1.8600    -1.1880     0.2040 C.ar  1 <1>   0.0830 
  4 C       -2.0700     1.0960    -0.6130 C.ar  1 <1>  -0.1500 
  5 O       -1.1970    -2.3020     0.6260 O.3   1 <1>  -0.3630 
  6 C       -3.2430    -1.2930     0.1740 C.ar  1 <1>  -0.1500 
  7 C       -3.4480     0.9610    -0.6370 C.ar  1 <1>  -0.1500 
  8 C        0.1970    -2.4640     0.4620 C.3   1 <1>   0.1200 
  9 C       -4.0310    -0.2320    -0.2420 C.ar  1 <1>  -0.1500 
 10 C        0.5680    -3.8890     0.8690 C.3   1 <1>   0.1400 
 11 N        2.0440    -4.0590     0.8640 N.am  1 <1>  -0.7300 
 12 C        2.7870    -4.3840    -0.2380 C.2   1 <1>   0.5440 
 13 O        2.2130    -4.5210    -1.3000 O.2   1 <1>  -0.5700 
 14 C        4.2240    -4.5710    -0.1350 C.ar  1 <1>   0.0860 
 15 C        4.9960    -3.9040     0.8150 C.ar  1 <1>  -0.1500 
 16 C        4.8980    -5.4370    -0.9930 C.ar  1 <1>  -0.1500 
 17 C        6.3610    -4.1030     0.9130 C.ar  1 <1>  -0.1500 
 18 C        6.2620    -5.6370    -0.8970 C.ar  1 <1>  -0.1500 
 19 C        7.0260    -4.9780     0.0590 C.ar  1 <1>  -0.1430 
 20 C        8.5470    -5.2360     0.1290 C.3   1 <1>   0.1430 
 21 C        9.1970    -4.8410    -1.2060 C.3   1 <1>  -0.2400 
 22 C        8.8040    -6.7260     0.3990 C.3   1 <1>  -0.2400 
 23 C        9.2480    -4.4360     1.2400 C.3   1 <1>  -0.2400 
 24 H       -1.6010     2.0150    -0.9130 H     1 <1>   0.1500 
 25 H       -3.7010    -2.2170     0.4790 H     1 <1>   0.1500 
 26 H       -4.0650     1.7820    -0.9610 H     1 <1>   0.1500 
 27 H        0.6950    -1.7540     1.0970 H     1 <1>   0.0800 
 28 H        0.4450    -2.2960    -0.5720 H     1 <1>   0.0800 
 29 H       -5.1030    -0.3370    -0.2590 H     1 <1>   0.1500 
 30 H        0.1250    -4.5820     0.1730 H     1 <1>   0.0800 
 31 H        0.1920    -4.0960     1.8550 H     1 <1>   0.0800 
 32 H        2.5010    -4.0240     1.7760 H     1 <1>   0.3700 
 33 H        4.5250    -3.2090     1.4860 H     1 <1>   0.1500 
 34 H        4.3350    -5.9600    -1.7470 H     1 <1>   0.1500 
 35 H        6.8900    -3.5550     1.6710 H     1 <1>   0.1500 
 36 H        6.7260    -6.3200    -1.5860 H     1 <1>   0.1500 
 37 H        8.8130    -5.4340    -2.0150 H     1 <1>   0.0800 
 38 H       10.2620    -4.9800    -1.1660 H     1 <1>   0.0800 
 39 H        8.9940    -3.8060    -1.4210 H     1 <1>   0.0800 
 40 H        8.3240    -7.0210     1.3150 H     1 <1>   0.0800 
 41 H        9.8580    -6.9210     0.4870 H     1 <1>   0.0800 
 42 H        8.4180    -7.3370    -0.3960 H     1 <1>   0.0800 
 43 H        9.1240    -3.3800     1.0810 H     1 <1>   0.0800 
 44 H       10.3020    -4.6490     1.2530 H     1 <1>   0.0800 
 45 H        8.8450    -4.6960     2.2030 H     1 <1>   0.0800 
@<TRIPOS>BOND
  1   1   2  1   
  2   2   3  ar  
  3   2   4  ar  
  4   3   5  1   
  5   3   6  ar  
  6   4   7  ar  
  7   4  24  1   
  8   5   8  1   
  9   6   9  ar  
 10   6  25  1   
 11   7   9  ar  
 12   7  26  1   
 13   8  10  1   
 14   8  27  1   
 15   8  28  1   
 16   9  29  1   
 17  10  11  1   
 18  10  30  1   
 19  10  31  1   
 20  11  12  am  
 21  11  32  1   
 22  12  13  2   
 23  12  14  1   
 24  14  15  ar  
 25  14  16  ar  
 26  15  17  ar  
 27  15  33  1   
 28  16  18  ar  
 29  16  34  1   
 30  17  19  ar  
 31  17  35  1   
 32  18  19  ar  
 33  18  36  1   
 34  19  20  1   
 35  20  21  1   
 36  20  22  1   
 37  20  23  1   
 38  21  37  1   
 39  21  38  1   
 40  21  39  1   
 41  22  40  1   
 42  22  41  1   
 43  22  42  1   
 44  23  43  1   
 45  23  44  1   
 46  23  45  1   
@<TRIPOS>SUBSTRUCTURE
  1 ****  12 GROUP 4 **** **** 0

# MOE 2024.06 (io_trps.svl 2023.06)
