@<TRIPOS>MOLECULE
NONAME
35 36 1 0 0 
SMALL
USER_CHARGES


@<TRIPOS>ATOM
  1 S       -0.0930    -0.5720    -0.4630 S.o2  1 <1>   1.4470 
  2 O       -0.2350    -1.6530     0.4850 O.2   1 <1>  -0.6500 
  3 O        0.3360    -0.8390    -1.8170 O.2   1 <1>  -0.6500 
  4 N        1.0710     0.4100     0.2380 N.am  1 <1>  -0.9140 
  5 C       -1.5680     0.4820    -0.4690 C.ar  1 <1>  -0.0090 
  6 C        2.4220    -0.0290    -0.0520 C.3   1 <1>   0.1960 
  7 C       -2.6690     0.1880     0.3290 C.ar  1 <1>  -0.1500 
  8 C       -1.6230     1.6220    -1.2660 C.ar  1 <1>  -0.1500 
  9 C        3.3980     0.8320     0.7470 C.3   1 <1>  -0.1600 
 10 C       -3.7870     1.0020     0.3310 C.ar  1 <1>   0.0830 
 11 C       -2.7390     2.4430    -1.2780 C.ar  1 <1>  -0.1500 
 12 C        4.8510     0.4240     0.4710 C.3   1 <1>  -0.1600 
 13 O       -4.8270     0.6830     1.1410 O.3   1 <1>  -0.3630 
 14 C       -3.8280     2.1330    -0.4850 C.ar  1 <1>   0.0830 
 15 C        5.8270     1.2890     1.2740 C.3   1 <1>  -0.2400 
 16 C       -5.8040     1.6850     1.3560 C.3   1 <1>   0.1200 
 17 O       -4.9200     2.9360    -0.5200 O.3   1 <1>  -0.3620 
 18 C       -6.1120     2.4220     0.0450 C.3   1 <1>   0.1200 
 19 H        0.9250     0.2710     1.2360 H     1 <1>   0.4200 
 20 H        2.6190     0.0790    -1.1070 H     1 <1>   0.0800 
 21 H        2.5380    -1.0680     0.2150 H     1 <1>   0.0800 
 22 H       -2.6620    -0.6840     0.9600 H     1 <1>   0.1500 
 23 H       -0.7770     1.8680    -1.8880 H     1 <1>   0.1500 
 24 H        3.1930     0.7240     1.7980 H     1 <1>   0.0800 
 25 H        3.2610     1.8640     0.4720 H     1 <1>   0.0800 
 26 H       -2.7720     3.3190    -1.9010 H     1 <1>   0.1500 
 27 H        5.0660     0.5320    -0.5790 H     1 <1>   0.0800 
 28 H        4.9960    -0.6100     0.7370 H     1 <1>   0.0800 
 29 H        5.7170     2.3260     1.0090 H     1 <1>   0.0800 
 30 H        6.8400     0.9910     1.0660 H     1 <1>   0.0800 
 31 H        5.6490     1.1800     2.3290 H     1 <1>   0.0800 
 32 H       -5.4230     2.3730     2.0900 H     1 <1>   0.0800 
 33 H       -6.6870     1.2090     1.7440 H     1 <1>   0.0800 
 34 H       -6.7790     3.2470     0.2160 H     1 <1>   0.0800 
 35 H       -6.5560     1.7490    -0.6670 H     1 <1>   0.0800 
@<TRIPOS>BOND
  1   1   2  2   
  2   1   3  2   
  3   1   4  am  
  4   1   5  1   
  5   4   6  1   
  6   4  19  1   
  7   5   7  ar  
  8   5   8  ar  
  9   6   9  1   
 10   6  20  1   
 11   6  21  1   
 12   7  10  ar  
 13   7  22  1   
 14   8  11  ar  
 15   8  23  1   
 16   9  12  1   
 17   9  24  1   
 18   9  25  1   
 19  10  13  1   
 20  10  14  ar  
 21  11  14  ar  
 22  11  26  1   
 23  12  15  1   
 24  12  27  1   
 25  12  28  1   
 26  13  16  1   
 27  14  17  1   
 28  15  29  1   
 29  15  30  1   
 30  15  31  1   
 31  16  18  1   
 32  16  32  1   
 33  16  33  1   
 34  17  18  1   
 35  18  34  1   
 36  18  35  1   
@<TRIPOS>SUBSTRUCTURE
  1 ****   5 GROUP 4 **** **** 0

# MOE 2024.06 (io_trps.svl 2023.06)
