@<TRIPOS>MOLECULE
NONAME
34 35 1 0 0 
SMALL
USER_CHARGES


@<TRIPOS>ATOM
  1 S       -0.0950    -0.0360     1.5640 S.3   1 <1>  -0.0800 
  2 C       -1.7630     0.1950     1.1180 C.2   1 <1>   0.1240 
  3 C        0.4030     1.4940     0.8350 C.2   1 <1>  -0.0450 
  4 N       -2.6330    -0.7880     1.4610 N.pl3 1 <1>  -0.8840 
  5 C       -1.9450     1.3890     0.4620 C.2   1 <1>  -0.0860 
  6 C       -0.6990     2.1020     0.3090 C.2   1 <1>  -0.1810 
  7 C        1.7930     1.8640     0.9250 C.2   1 <1>   0.7150 
  8 C       -3.2500     1.8130     0.0160 C.2   1 <1>   0.8060 
  9 C       -0.5980     3.4500    -0.4000 C.3   1 <1>  -0.0590 
 10 O        2.0920     2.9800     1.3180 O.2   1 <1>  -0.5700 
 11 N        2.8110     1.0100     0.5500 N.am  1 <1>  -0.6600 
 12 O       -4.2340     1.0890     0.0180 O.2   1 <1>  -0.5700 
 13 O       -3.4210     3.0700    -0.4200 O.3   1 <1>  -0.4300 
 14 C        4.2370     1.4100     0.5840 C.3   1 <1>   0.1400 
 15 C        2.6250    -0.1900    -0.2990 C.3   1 <1>   0.1400 
 16 C       -4.6780     3.5520    -0.8550 C.3   1 <1>   0.0400 
 17 C        4.8750     0.6610    -0.5770 C.3   1 <1>  -0.1600 
 18 C        4.0300    -0.6000    -0.7300 C.3   1 <1>  -0.1600 
 19 H       -3.6290    -0.7270     1.2050 H     1 <1>   0.4000 
 20 H       -2.3610    -1.6330     1.9700 H     1 <1>   0.4000 
 21 H        0.4240     3.7700    -0.4960 H     1 <1>   0.0800 
 22 H       -1.1280     4.2000     0.1580 H     1 <1>   0.0800 
 23 H       -1.0140     3.3830    -1.3890 H     1 <1>   0.0800 
 24 H        4.6640     1.0950     1.5200 H     1 <1>   0.0800 
 25 H        4.3550     2.4760     0.4760 H     1 <1>   0.0800 
 26 H        2.0250     0.0670    -1.1550 H     1 <1>   0.0800 
 27 H        2.1530    -0.9840     0.2530 H     1 <1>   0.0800 
 28 H       -4.5650     4.5790    -1.1530 H     1 <1>   0.0800 
 29 H       -5.3800     3.4780    -0.0420 H     1 <1>   0.0800 
 30 H       -5.0110     2.9580    -1.6890 H     1 <1>   0.0800 
 31 H        5.9120     0.4420    -0.3910 H     1 <1>   0.0800 
 32 H        4.7980     1.2640    -1.4650 H     1 <1>   0.0800 
 33 H        4.0430    -0.9830    -1.7350 H     1 <1>   0.0800 
 34 H        4.3910    -1.3620    -0.0620 H     1 <1>   0.0800 
@<TRIPOS>BOND
  1   1   2  1   
  2   1   3  1   
  3   2   4  1   
  4   2   5  2   
  5   3   6  2   
  6   3   7  1   
  7   4  19  1   
  8   4  20  1   
  9   5   6  1   
 10   5   8  1   
 11   6   9  1   
 12   7  10  2   
 13   7  11  am  
 14   8  12  2   
 15   8  13  1   
 16   9  21  1   
 17   9  22  1   
 18   9  23  1   
 19  11  14  1   
 20  11  15  1   
 21  13  16  1   
 22  14  17  1   
 23  14  24  1   
 24  14  25  1   
 25  15  18  1   
 26  15  26  1   
 27  15  27  1   
 28  16  28  1   
 29  16  29  1   
 30  16  30  1   
 31  17  18  1   
 32  17  31  1   
 33  17  32  1   
 34  18  33  1   
 35  18  34  1   
@<TRIPOS>SUBSTRUCTURE
  1 ****   3 GROUP 4 **** **** 0

# MOE 2024.06 (io_trps.svl 2023.06)
