@<TRIPOS>MOLECULE
NONAME
38 40 1 0 0 
SMALL
USER_CHARGES


@<TRIPOS>ATOM
  1 O        0.1270    -0.8760    -2.0900 O.2   1 <1>  -0.5700 
  2 C        0.0780    -1.9340    -1.5090 C.2   1 <1>   0.4950 
  3 C        1.2050    -2.5400    -0.9030 C.2   1 <1>  -0.1360 
  4 C       -1.2530    -2.6510    -1.4440 C.3   1 <1>  -0.0990 
  5 C        1.2100    -3.7190    -0.2230 C.2   1 <1>  -0.0380 
  6 C       -1.3330    -3.5370    -0.1920 C.3   1 <1>   0.0640 
  7 N        2.3280    -4.3010     0.3450 N.pl3 1 <1>  -0.8380 
  8 C       -0.1150    -4.4680    -0.0730 C.3   1 <1>  -0.0220 
  9 C       -2.6380    -4.3300    -0.1470 C.ar  1 <1>  -0.1430 
 10 C        3.5900    -3.5600     0.6760 C.3   1 <1>   0.2090 
 11 C        2.4450    -5.7540     0.7080 C.3   1 <1>   0.2090 
 12 C       -3.5180    -4.1480     0.9100 C.ar  1 <1>  -0.1500 
 13 C       -2.9650    -5.2380    -1.1450 C.ar  1 <1>  -0.1500 
 14 C        4.8180    -4.2800     0.0910 C.3   1 <1>   0.1200 
 15 C        3.7420    -6.3600     0.1370 C.3   1 <1>   0.1200 
 16 C       -4.7030    -4.8610     0.9700 C.ar  1 <1>  -0.1500 
 17 C       -4.1490    -5.9520    -1.0870 C.ar  1 <1>  -0.1500 
 18 O        4.8650    -5.6140     0.5180 O.3   1 <1>  -0.5600 
 19 C       -5.0200    -5.7640    -0.0290 C.ar  1 <1>  -0.1500 
 20 H        2.1060    -1.9800    -1.0410 H     1 <1>   0.1500 
 21 H       -1.3590    -3.2400    -2.3350 H     1 <1>   0.0800 
 22 H       -2.0470    -1.9270    -1.4230 H     1 <1>   0.0800 
 23 H       -1.3050    -2.8780     0.6590 H     1 <1>   0.0800 
 24 H       -0.1600    -4.9340     0.8950 H     1 <1>   0.0800 
 25 H       -0.1600    -5.2390    -0.8210 H     1 <1>   0.0800 
 26 H        3.6950    -3.5120     1.7460 H     1 <1>   0.0800 
 27 H        3.5610    -2.5520     0.3120 H     1 <1>   0.0800 
 28 H        1.6150    -6.3150     0.3230 H     1 <1>   0.0800 
 29 H        2.4490    -5.8540     1.7790 H     1 <1>   0.0800 
 30 H       -3.2890    -3.4510     1.6960 H     1 <1>   0.1500 
 31 H       -2.3020    -5.4000    -1.9760 H     1 <1>   0.1500 
 32 H        5.7210    -3.7990     0.4190 H     1 <1>   0.0800 
 33 H        4.7850    -4.2620    -0.9850 H     1 <1>   0.0800 
 34 H        3.6970    -6.3880    -0.9370 H     1 <1>   0.0800 
 35 H        3.8750    -7.3620     0.5040 H     1 <1>   0.0800 
 36 H       -5.3780    -4.7130     1.7940 H     1 <1>   0.1500 
 37 H       -4.3950    -6.6530    -1.8660 H     1 <1>   0.1500 
 38 H       -5.9410    -6.3180     0.0170 H     1 <1>   0.1500 
@<TRIPOS>BOND
  1   1   2  2   
  2   2   3  1   
  3   2   4  1   
  4   3   5  2   
  5   3  20  1   
  6   4   6  1   
  7   4  21  1   
  8   4  22  1   
  9   5   7  1   
 10   5   8  1   
 11   6   8  1   
 12   6   9  1   
 13   6  23  1   
 14   7  10  1   
 15   7  11  1   
 16   8  24  1   
 17   8  25  1   
 18   9  12  ar  
 19   9  13  ar  
 20  10  14  1   
 21  10  26  1   
 22  10  27  1   
 23  11  15  1   
 24  11  28  1   
 25  11  29  1   
 26  12  16  ar  
 27  12  30  1   
 28  13  17  ar  
 29  13  31  1   
 30  14  18  1   
 31  14  32  1   
 32  14  33  1   
 33  15  18  1   
 34  15  34  1   
 35  15  35  1   
 36  16  19  ar  
 37  16  36  1   
 38  17  19  ar  
 39  17  37  1   
 40  19  38  1   
@<TRIPOS>SUBSTRUCTURE
  1 ****   8 GROUP 4 **** **** 0

# MOE 2024.06 (io_trps.svl 2023.06)
