@<TRIPOS>MOLECULE
NONAME
32 33 1 0 0 
SMALL
USER_CHARGES


@<TRIPOS>ATOM
  1 CL      -0.9050    -0.8570     2.1430 Cl    1 <1>  -0.1770 
  2 C       -0.4690    -2.1070     0.9890 C.ar  1 <1>   0.1770 
  3 C        0.8020    -2.6520     1.0010 C.ar  1 <1>   0.1770 
  4 C       -1.4300    -2.5290     0.0700 C.ar  1 <1>   0.1170 
  5 CL       1.9940    -2.1150     2.1620 Cl    1 <1>  -0.1770 
  6 C        1.1550    -3.6330     0.0920 C.ar  1 <1>  -0.1500 
  7 N       -2.7110    -1.9370     0.1020 N.am  1 <1>  -0.5470 
  8 C       -1.0560    -3.5140    -0.8450 C.ar  1 <1>  -0.1500 
  9 C        0.2180    -4.0600    -0.8330 C.ar  1 <1>  -0.1500 
 10 C       -3.9090    -2.3520    -0.4230 C.2   1 <1>   0.5690 
 11 O       -4.0420    -3.3750    -1.0510 O.2   1 <1>  -0.5700 
 12 C       -5.1760    -1.5050    -0.1960 C.3   1 <1>   0.4040 
 13 N       -6.4580    -2.2940    -0.3470 N.4   1 <1>  -0.9590 
 14 C       -7.6990    -1.4900    -0.4050 C.3   1 <1>   0.3430 
 15 C       -6.6570    -3.3180     0.7060 C.3   1 <1>   0.3430 
 16 C       -8.8080    -2.4880    -0.0970 C.3   1 <1>  -0.1600 
 17 C       -8.1330    -3.6750     0.6000 C.3   1 <1>  -0.1600 
 18 H        2.1460    -4.0510     0.1100 H     1 <1>   0.1500 
 19 H       -2.7220    -1.0900     0.6790 H     1 <1>   0.3700 
 20 H       -1.7530    -3.8660    -1.5840 H     1 <1>   0.1500 
 21 H        0.4810    -4.8220    -1.5490 H     1 <1>   0.1500 
 22 H       -5.1660    -0.7070    -0.9180 H     1 <1>   0.0800 
 23 H       -5.1350    -1.0700     0.7860 H     1 <1>   0.0800 
 24 H       -6.3650    -2.8280    -1.2280 H     1 <1>   0.4500 
 25 H       -7.8350    -1.0300    -1.3720 H     1 <1>   0.0800 
 26 H       -7.6810    -0.7280     0.3580 H     1 <1>   0.0800 
 27 H       -6.4580    -2.8950     1.6770 H     1 <1>   0.0800 
 28 H       -6.0240    -4.1790     0.5490 H     1 <1>   0.0800 
 29 H       -9.2760    -2.8080    -1.0120 H     1 <1>   0.0800 
 30 H       -9.5580    -2.0330     0.5270 H     1 <1>   0.0800 
 31 H       -8.5480    -3.8570     1.5760 H     1 <1>   0.0800 
 32 H       -8.2470    -4.5690     0.0100 H     1 <1>   0.0800 
@<TRIPOS>BOND
  1   1   2  1   
  2   2   3  ar  
  3   2   4  ar  
  4   3   5  1   
  5   3   6  ar  
  6   4   7  1   
  7   4   8  ar  
  8   6   9  ar  
  9   6  18  1   
 10   7  10  am  
 11   7  19  1   
 12   8   9  ar  
 13   8  20  1   
 14   9  21  1   
 15  10  11  2   
 16  10  12  1   
 17  12  13  1   
 18  12  22  1   
 19  12  23  1   
 20  13  14  1   
 21  13  15  1   
 22  13  24  1   
 23  14  16  1   
 24  14  25  1   
 25  14  26  1   
 26  15  17  1   
 27  15  27  1   
 28  15  28  1   
 29  16  17  1   
 30  16  29  1   
 31  16  30  1   
 32  17  31  1   
 33  17  32  1   
@<TRIPOS>SUBSTRUCTURE
  1 ****   7 GROUP 4 **** **** 0

# MOE 2024.06 (io_trps.svl 2023.06)
