@<TRIPOS>MOLECULE
NONAME
43 45 1 0 0 
SMALL
USER_CHARGES


@<TRIPOS>ATOM
  1 S       -0.1230     0.4110    -0.3400 S.o2  1 <1>   1.3330 
  2 O        1.2660     0.2710    -0.7090 O.2   1 <1>  -0.6500 
  3 O       -0.9920     1.3050    -1.0680 O.2   1 <1>  -0.6500 
  4 N       -0.8280    -1.1300    -0.3670 N.am  1 <1>  -0.8490 
  5 C       -0.1750     0.8900     1.3770 C.3   1 <1>  -0.1350 
  6 C       -2.2480    -1.1520     0.0080 C.3   1 <1>   0.1960 
  7 C       -0.0350    -2.1760     0.2820 C.3   1 <1>   0.1960 
  8 C       -2.8790    -2.5030    -0.3560 C.3   1 <1>  -0.0190 
  9 C       -0.6060    -3.5560    -0.0620 C.3   1 <1>  -0.1600 
 10 C       -4.3420    -2.5280     0.0620 C.2   1 <1>   0.5690 
 11 C       -2.0960    -3.6610     0.2900 C.3   1 <1>  -0.1600 
 12 O       -4.6560    -2.0350     1.1180 O.2   1 <1>  -0.5700 
 13 N       -5.2390    -3.1300    -0.7740 N.am  1 <1>  -0.5470 
 14 C       -6.6090    -3.3400    -0.5700 C.ar  1 <1>   0.1170 
 15 C       -7.5360    -2.2630    -0.4620 C.ar  1 <1>   0.0000 
 16 C       -7.0560    -4.6380    -0.5020 C.ar  1 <1>  -0.1500 
 17 C       -8.9060    -2.5660    -0.2770 C.ar  1 <1>   0.0000 
 18 C       -7.1760    -0.8990    -0.5480 C.ar  1 <1>  -0.1500 
 19 C       -8.4080    -4.9300    -0.3180 C.ar  1 <1>  -0.1500 
 20 C       -9.3120    -3.9120    -0.2060 C.ar  1 <1>  -0.1500 
 21 C       -9.8390    -1.5130    -0.1740 C.ar  1 <1>  -0.1500 
 22 C       -8.1010     0.1030    -0.4480 C.ar  1 <1>  -0.1500 
 23 C       -9.4500    -0.2060    -0.2580 C.ar  1 <1>  -0.1500 
 24 H        0.2610     1.8620     1.4920 H     1 <1>   0.0800 
 25 H        0.3790     0.1970     1.9780 H     1 <1>   0.0800 
 26 H       -1.1870     0.9310     1.7260 H     1 <1>   0.0800 
 27 H       -2.7760    -0.3720    -0.5170 H     1 <1>   0.0800 
 28 H       -2.3490    -0.9750     1.0660 H     1 <1>   0.0800 
 29 H       -0.0410    -2.0340     1.3500 H     1 <1>   0.0800 
 30 H        0.9850    -2.1270    -0.0640 H     1 <1>   0.0800 
 31 H       -2.8290    -2.5990    -1.4250 H     1 <1>   0.0800 
 32 H       -0.0530    -4.3110     0.4680 H     1 <1>   0.0800 
 33 H       -0.4660    -3.7290    -1.1160 H     1 <1>   0.0800 
 34 H       -2.4860    -4.6060    -0.0490 H     1 <1>   0.0800 
 35 H       -2.2140    -3.6180     1.3600 H     1 <1>   0.0800 
 36 H       -4.8490    -3.5960    -1.5910 H     1 <1>   0.3700 
 37 H       -6.3640    -5.4560    -0.5820 H     1 <1>   0.1500 
 38 H       -6.1440    -0.6430    -0.6910 H     1 <1>   0.1500 
 39 H       -8.7240    -5.9580    -0.2630 H     1 <1>   0.1500 
 40 H      -10.3550    -4.1280    -0.0620 H     1 <1>   0.1500 
 41 H      -10.8750    -1.7590    -0.0280 H     1 <1>   0.1500 
 42 H       -7.8050     1.1360    -0.5120 H     1 <1>   0.1500 
 43 H      -10.1670     0.5930    -0.1790 H     1 <1>   0.1500 
@<TRIPOS>BOND
  1   1   2  2   
  2   1   3  2   
  3   1   4  am  
  4   1   5  1   
  5   4   6  1   
  6   4   7  1   
  7   5  24  1   
  8   5  25  1   
  9   5  26  1   
 10   6   8  1   
 11   6  27  1   
 12   6  28  1   
 13   7   9  1   
 14   7  29  1   
 15   7  30  1   
 16   8  10  1   
 17   8  11  1   
 18   8  31  1   
 19   9  11  1   
 20   9  32  1   
 21   9  33  1   
 22  10  12  2   
 23  10  13  am  
 24  11  34  1   
 25  11  35  1   
 26  13  14  1   
 27  13  36  1   
 28  14  15  ar  
 29  14  16  ar  
 30  15  17  ar  
 31  15  18  ar  
 32  16  19  ar  
 33  16  37  1   
 34  17  20  ar  
 35  17  21  ar  
 36  18  22  ar  
 37  18  38  1   
 38  19  20  ar  
 39  19  39  1   
 40  20  40  1   
 41  21  23  ar  
 42  21  41  1   
 43  22  23  ar  
 44  22  42  1   
 45  23  43  1   
@<TRIPOS>SUBSTRUCTURE
  1 ****  10 GROUP 4 **** **** 0

# MOE 2024.06 (io_trps.svl 2023.06)
