@<TRIPOS>MOLECULE
NONAME
36 37 1 0 0 
SMALL
USER_CHARGES


@<TRIPOS>ATOM
  1 O       -0.0630     0.5730     0.3480 O.3   1 <1>  -0.3630 
  2 C        0.1670     1.9070     0.2800 C.ar  1 <1>   0.0820 
  3 C       -0.9870    -0.0590    -0.5100 C.3   1 <1>   0.1200 
  4 C       -0.4420     2.7540    -0.6410 C.ar  1 <1>  -0.1500 
  5 C        1.0670     2.4300     1.1930 C.ar  1 <1>  -0.1500 
  6 C       -1.0350    -1.5550    -0.1830 C.3   1 <1>  -0.1600 
  7 C       -0.1410     4.1060    -0.6420 C.ar  1 <1>  -0.1500 
  8 C        1.3650     3.7800     1.1910 C.ar  1 <1>  -0.1500 
  9 C        0.3130    -2.2540    -0.4020 C.3   1 <1>  -0.2400 
 10 C        0.7660     4.6250     0.2700 C.ar  1 <1>  -0.1430 
 11 C        1.1220     6.1080     0.2580 C.3   1 <1>   0.0440 
 12 C        2.5460     6.3400    -0.2280 C.2   1 <1>   0.4390 
 13 N        3.2930     7.1630     0.3800 N.2   1 <1>  -0.6520 
 14 N        2.9290     5.6010    -1.3170 N.pl3 1 <1>  -0.8500 
 15 N        4.5880     7.3990    -0.0900 N.pl3 1 <1>   0.5050 
 16 C        5.7410     7.2050     0.5540 C.2   1 <1>   0.0360 
 17 C        5.0040     7.8160    -1.2910 C.2   1 <1>   0.0360 
 18 N        6.7660     7.4590    -0.1900 N.2   1 <1>  -0.3380 
 19 N        6.2920     7.8510    -1.3770 N.2   1 <1>  -0.3380 
 20 H       -1.9520     0.3900    -0.3530 H     1 <1>   0.0800 
 21 H       -0.6670     0.0950    -1.5260 H     1 <1>   0.0800 
 22 H       -1.1480     2.3830    -1.3580 H     1 <1>   0.1500 
 23 H        1.5310     1.7700     1.9050 H     1 <1>   0.1500 
 24 H       -1.3500    -1.6800     0.8390 H     1 <1>   0.0800 
 25 H       -1.7750    -2.0190    -0.8110 H     1 <1>   0.0800 
 26 H       -0.6200     4.7500    -1.3600 H     1 <1>   0.1500 
 27 H        2.0680     4.1690     1.9080 H     1 <1>   0.1500 
 28 H        1.0630    -1.8340     0.2450 H     1 <1>   0.0800 
 29 H        0.6360    -2.1400    -1.4220 H     1 <1>   0.0800 
 30 H        0.2250    -3.3030    -0.1840 H     1 <1>   0.0800 
 31 H        1.0110     6.5080     1.2490 H     1 <1>   0.0800 
 32 H        0.4520     6.6470    -0.3860 H     1 <1>   0.0800 
 33 H        3.9250     5.4530    -1.4920 H     1 <1>   0.4000 
 34 H        2.3580     4.7710    -1.5180 H     1 <1>   0.4000 
 35 H        5.7730     6.8720     1.5730 H     1 <1>   0.1500 
 36 H        4.3170     8.0790    -2.0720 H     1 <1>   0.1500 
@<TRIPOS>BOND
  1   1   2  1   
  2   1   3  1   
  3   2   4  ar  
  4   2   5  ar  
  5   3   6  1   
  6   3  20  1   
  7   3  21  1   
  8   4   7  ar  
  9   4  22  1   
 10   5   8  ar  
 11   5  23  1   
 12   6   9  1   
 13   6  24  1   
 14   6  25  1   
 15   7  10  ar  
 16   7  26  1   
 17   8  10  ar  
 18   8  27  1   
 19   9  28  1   
 20   9  29  1   
 21   9  30  1   
 22  10  11  1   
 23  11  12  1   
 24  11  31  1   
 25  11  32  1   
 26  12  13  2   
 27  12  14  1   
 28  13  15  1   
 29  14  33  1   
 30  14  34  1   
 31  15  16  1   
 32  15  17  1   
 33  16  18  2   
 34  16  35  1   
 35  17  19  2   
 36  17  36  1   
 37  18  19  1   
@<TRIPOS>SUBSTRUCTURE
  1 ****  10 GROUP 4 **** **** 0

# MOE 2024.06 (io_trps.svl 2023.06)
