@<TRIPOS>MOLECULE
NONAME
50 51 1 0 0 
SMALL
USER_CHARGES


@<TRIPOS>ATOM
  1 S       -2.1690    -1.8200     1.3180 S.o2  1 <1>   1.4470 
  2 O       -2.2580    -3.2490     1.1020 O.2   1 <1>  -0.6500 
  3 O       -2.1920    -1.3090     2.6720 O.2   1 <1>  -0.6500 
  4 N       -0.7180    -1.3060     0.6070 N.am  1 <1>  -0.8490 
  5 C       -3.4390    -0.9640     0.3470 C.ar  1 <1>  -0.0090 
  6 C       -0.5240    -1.8890    -0.7260 C.3   1 <1>   0.1960 
  7 C        0.4290    -1.5900     1.4740 C.3   1 <1>   0.1960 
  8 C       -3.3100     0.3830     0.0300 C.ar  1 <1>  -0.1500 
  9 C       -4.5780    -1.6260    -0.0940 C.ar  1 <1>  -0.1500 
 10 C        0.7100    -1.2780    -1.3960 C.3   1 <1>  -0.1600 
 11 C        1.7060    -0.9820     0.8850 C.3   1 <1>  -0.1600 
 12 C       -4.2730     1.0570    -0.7030 C.ar  1 <1>  -0.1430 
 13 C       -5.5520    -0.9720    -0.8260 C.ar  1 <1>  -0.1500 
 14 C        1.9650    -1.4840    -0.5410 C.3   1 <1>  -0.1600 
 15 C       -5.4080     0.3780    -1.1320 C.ar  1 <1>   0.0830 
 16 C       -4.0790     2.5320    -1.0260 C.3   1 <1>  -0.0970 
 17 O       -6.3430     1.0850    -1.8200 O.3   1 <1>  -0.3630 
 18 C       -7.6570     0.5850    -2.0620 C.3   1 <1>   0.1810 
 19 C       -8.4620     0.3890    -0.7780 C.2   1 <1>   0.5690 
 20 O       -9.4530    -0.3000    -0.8230 O.2   1 <1>  -0.5700 
 21 N       -8.0390     0.9740     0.3730 N.am  1 <1>  -0.7300 
 22 C       -8.6130     0.7820     1.7040 C.3   1 <1>   0.2200 
 23 C       -8.9330     2.1530     2.2870 C.3   1 <1>  -0.2400 
 24 C       -7.5870     0.0400     2.5530 C.3   1 <1>  -0.2400 
 25 H       -1.3870    -1.6930    -1.3400 H     1 <1>   0.0800 
 26 H       -0.4040    -2.9580    -0.6460 H     1 <1>   0.0800 
 27 H        0.5430    -2.6550     1.5920 H     1 <1>   0.0800 
 28 H        0.2640    -1.1600     2.4490 H     1 <1>   0.0800 
 29 H       -2.4300     0.9050     0.3690 H     1 <1>   0.1500 
 30 H       -4.7040    -2.6710     0.1410 H     1 <1>   0.1500 
 31 H        0.5380    -0.2260    -1.5450 H     1 <1>   0.0800 
 32 H        0.8520    -1.7290    -2.3620 H     1 <1>   0.0800 
 33 H        2.5420    -1.2310     1.5140 H     1 <1>   0.0800 
 34 H        1.6060     0.0890     0.8800 H     1 <1>   0.0800 
 35 H       -6.4130    -1.5320    -1.1410 H     1 <1>   0.1500 
 36 H        2.7980    -0.9570    -0.9730 H     1 <1>   0.0800 
 37 H        2.2100    -2.5330    -0.5110 H     1 <1>   0.0800 
 38 H       -3.1380     2.8930    -0.6530 H     1 <1>   0.0800 
 39 H       -4.8690     3.1110    -0.5820 H     1 <1>   0.0800 
 40 H       -4.1030     2.6780    -2.0910 H     1 <1>   0.0800 
 41 H       -7.5810    -0.3390    -2.6030 H     1 <1>   0.0800 
 42 H       -8.1630     1.3010    -2.6800 H     1 <1>   0.0800 
 43 H       -7.1420     1.4660     0.3490 H     1 <1>   0.3700 
 44 H       -9.5180     0.1980     1.6320 H     1 <1>   0.0800 
 45 H       -8.0430     2.7510     2.3690 H     1 <1>   0.0800 
 46 H       -9.3650     2.0430     3.2650 H     1 <1>   0.0800 
 47 H       -9.6460     2.6590     1.6610 H     1 <1>   0.0800 
 48 H       -6.6740     0.6030     2.6310 H     1 <1>   0.0800 
 49 H       -7.3760    -0.9190     2.1160 H     1 <1>   0.0800 
 50 H       -7.9770    -0.1200     3.5420 H     1 <1>   0.0800 
@<TRIPOS>BOND
  1   1   2  2   
  2   1   3  2   
  3   1   4  am  
  4   1   5  1   
  5   4   6  1   
  6   4   7  1   
  7   5   8  ar  
  8   5   9  ar  
  9   6  10  1   
 10   6  25  1   
 11   6  26  1   
 12   7  11  1   
 13   7  27  1   
 14   7  28  1   
 15   8  12  ar  
 16   8  29  1   
 17   9  13  ar  
 18   9  30  1   
 19  10  14  1   
 20  10  31  1   
 21  10  32  1   
 22  11  14  1   
 23  11  33  1   
 24  11  34  1   
 25  12  15  ar  
 26  12  16  1   
 27  13  15  ar  
 28  13  35  1   
 29  14  36  1   
 30  14  37  1   
 31  15  17  1   
 32  16  38  1   
 33  16  39  1   
 34  16  40  1   
 35  17  18  1   
 36  18  19  1   
 37  18  41  1   
 38  18  42  1   
 39  19  20  2   
 40  19  21  am  
 41  21  22  1   
 42  21  43  1   
 43  22  23  1   
 44  22  24  1   
 45  22  44  1   
 46  23  45  1   
 47  23  46  1   
 48  23  47  1   
 49  24  48  1   
 50  24  49  1   
 51  24  50  1   
@<TRIPOS>SUBSTRUCTURE
  1 ****   5 GROUP 4 **** **** 0

# MOE 2024.06 (io_trps.svl 2023.06)
