@<TRIPOS>MOLECULE
NONAME
36 37 1 0 0 
SMALL
USER_CHARGES


@<TRIPOS>ATOM
  1 F        0.3650    -1.1430    -0.4470 F     1 <1>  -0.1900 
  2 C       -0.5880    -1.9640    -0.1000 C.ar  1 <1>   0.1900 
  3 C       -0.5550    -2.5360     1.1560 C.ar  1 <1>  -0.1500 
  4 C       -1.5980    -2.2380    -1.0010 C.ar  1 <1>  -0.1500 
  5 C       -1.5700    -3.4060     1.5150 C.ar  1 <1>  -0.1500 
  6 C       -2.6030    -3.1120    -0.6250 C.ar  1 <1>  -0.1500 
  7 C       -2.6190    -3.7110     0.6410 C.ar  1 <1>   0.0860 
  8 C       -3.6460    -4.6370     1.0700 C.2   1 <1>   0.3040 
  9 N       -4.8950    -4.6690     0.8180 N.2   1 <1>  -0.5130 
 10 O       -5.3970    -3.6930     0.0620 O.3   1 <1>  -0.0870 
 11 C       -6.7040    -3.6200    -0.2690 C.2   1 <1>   0.7800 
 12 O       -7.0700    -2.7220    -1.0000 O.2   1 <1>  -0.5700 
 13 N       -7.5550    -4.5590     0.2220 N.am  1 <1>  -0.7300 
 14 C       -8.9990    -4.6450    -0.0220 C.3   1 <1>   0.2200 
 15 C       -9.7350    -4.5290     1.3160 C.3   1 <1>  -0.1600 
 16 C       -9.3070    -5.9770    -0.7130 C.3   1 <1>  -0.1600 
 17 C      -11.2490    -4.7190     1.1350 C.3   1 <1>  -0.1600 
 18 C      -10.8190    -6.1710    -0.8980 C.3   1 <1>  -0.1600 
 19 C      -11.5610    -6.0510     0.4400 C.3   1 <1>  -0.1600 
 20 H        0.2480    -2.3010     1.8310 H     1 <1>   0.1500 
 21 H       -1.5930    -1.7780    -1.9730 H     1 <1>   0.1500 
 22 H       -1.5520    -3.8540     2.4940 H     1 <1>   0.1500 
 23 H       -3.3850    -3.3360    -1.3300 H     1 <1>   0.1500 
 24 H       -3.2660    -5.4080     1.7150 H     1 <1>   0.0600 
 25 H       -7.1310    -5.2700     0.8180 H     1 <1>   0.3700 
 26 H       -9.3050    -3.8350    -0.6650 H     1 <1>   0.0800 
 27 H       -9.3680    -5.2770     1.9960 H     1 <1>   0.0800 
 28 H       -9.5470    -3.5580     1.7410 H     1 <1>   0.0800 
 29 H       -8.8260    -5.9970    -1.6760 H     1 <1>   0.0800 
 30 H       -8.9200    -6.7880    -0.1210 H     1 <1>   0.0800 
 31 H      -11.7340    -4.6900     2.0960 H     1 <1>   0.0800 
 32 H      -11.6410    -3.9090     0.5440 H     1 <1>   0.0800 
 33 H      -11.1920    -5.4240    -1.5800 H     1 <1>   0.0800 
 34 H      -11.0090    -7.1370    -1.3320 H     1 <1>   0.0800 
 35 H      -12.6220    -6.1300     0.2720 H     1 <1>   0.0800 
 36 H      -11.2700    -6.8650     1.0820 H     1 <1>   0.0800 
@<TRIPOS>BOND
  1   1   2  1   
  2   2   3  ar  
  3   2   4  ar  
  4   3   5  ar  
  5   3  20  1   
  6   4   6  ar  
  7   4  21  1   
  8   5   7  ar  
  9   5  22  1   
 10   6   7  ar  
 11   6  23  1   
 12   7   8  1   
 13   8   9  2   
 14   8  24  1   
 15   9  10  1   
 16  10  11  1   
 17  11  12  2   
 18  11  13  am  
 19  13  14  1   
 20  13  25  1   
 21  14  15  1   
 22  14  16  1   
 23  14  26  1   
 24  15  17  1   
 25  15  27  1   
 26  15  28  1   
 27  16  18  1   
 28  16  29  1   
 29  16  30  1   
 30  17  19  1   
 31  17  31  1   
 32  17  32  1   
 33  18  19  1   
 34  18  33  1   
 35  18  34  1   
 36  19  35  1   
 37  19  36  1   
@<TRIPOS>SUBSTRUCTURE
  1 ****  10 GROUP 4 **** **** 0

# MOE 2024.06 (io_trps.svl 2023.06)
