@<TRIPOS>MOLECULE
NONAME
42 43 1 0 0 
SMALL
USER_CHARGES


@<TRIPOS>ATOM
  1 O       -2.0740    -0.8490     0.6400 O.2   1 <1>  -0.5700 
  2 C       -2.3890    -0.1330    -0.2720 C.2   1 <1>   0.6590 
  3 O       -1.4480     0.3140    -1.1030 O.3   1 <1>  -0.4300 
  4 C       -3.8540     0.2820    -0.4810 C.3   1 <1>  -0.0190 
  5 C       -1.6450     1.0300    -2.3040 C.3   1 <1>   0.0400 
  6 C       -4.1400     1.6530     0.1620 C.3   1 <1>  -0.1600 
  7 C       -4.8430    -0.7570     0.0850 C.3   1 <1>  -0.1600 
  8 C       -5.5960     2.0790    -0.0430 C.3   1 <1>   0.1400 
  9 C       -6.2980    -0.3270    -0.1150 C.3   1 <1>   0.1400 
 10 N       -6.5120     1.0260     0.4750 N.am  1 <1>  -0.6600 
 11 C       -7.5250     1.3410     1.3530 C.2   1 <1>   0.5690 
 12 O       -7.6800     2.4710     1.7570 O.2   1 <1>  -0.5700 
 13 C       -8.5050     0.2900     1.8620 C.3   1 <1>   0.0440 
 14 C       -9.4580    -0.2100     0.7720 C.ar  1 <1>  -0.1430 
 15 C       -9.6290    -1.5680     0.5010 C.ar  1 <1>   0.0820 
 16 C      -10.1720     0.7250     0.0380 C.ar  1 <1>  -0.1500 
 17 O       -8.9190    -2.4620     1.2400 O.3   1 <1>  -0.3630 
 18 C      -10.5070    -1.9630    -0.5060 C.ar  1 <1>  -0.1500 
 19 C      -11.0420     0.3260    -0.9600 C.ar  1 <1>  -0.1500 
 20 C       -9.1130    -3.8530     1.1150 C.3   1 <1>   0.0400 
 21 C      -11.2090    -1.0190    -1.2330 C.ar  1 <1>  -0.1500 
 22 H       -4.0460     0.3490    -1.5350 H     1 <1>   0.0800 
 23 H       -2.2200     0.4260    -2.9840 H     1 <1>   0.0800 
 24 H       -0.6790     1.2330    -2.7310 H     1 <1>   0.0800 
 25 H       -2.1480     1.9560    -2.0910 H     1 <1>   0.0800 
 26 H       -3.4950     2.4030    -0.2570 H     1 <1>   0.0800 
 27 H       -3.9390     1.6070     1.2190 H     1 <1>   0.0800 
 28 H       -4.6680    -0.8970     1.1380 H     1 <1>   0.0800 
 29 H       -4.6860    -1.7060    -0.3970 H     1 <1>   0.0800 
 30 H       -5.7960     2.2300    -1.0900 H     1 <1>   0.0800 
 31 H       -5.7660     3.0150     0.4630 H     1 <1>   0.0800 
 32 H       -6.9370    -1.0590     0.3390 H     1 <1>   0.0800 
 33 H       -6.5330    -0.2900    -1.1650 H     1 <1>   0.0800 
 34 H       -9.0940     0.7260     2.6470 H     1 <1>   0.0800 
 35 H       -7.9400    -0.5070     2.3050 H     1 <1>   0.0800 
 36 H      -10.0530     1.7770     0.2420 H     1 <1>   0.1500 
 37 H      -10.6600    -2.9990    -0.7410 H     1 <1>   0.1500 
 38 H      -11.5880     1.0630    -1.5230 H     1 <1>   0.1500 
 39 H       -8.4800    -4.3450     1.8310 H     1 <1>   0.0800 
 40 H       -8.8420    -4.1560     0.1190 H     1 <1>   0.0800 
 41 H      -10.1440    -4.0810     1.3220 H     1 <1>   0.0800 
 42 H      -11.8860    -1.3290    -2.0100 H     1 <1>   0.1500 
@<TRIPOS>BOND
  1   1   2  2   
  2   2   3  1   
  3   2   4  1   
  4   3   5  1   
  5   4   6  1   
  6   4   7  1   
  7   4  22  1   
  8   5  23  1   
  9   5  24  1   
 10   5  25  1   
 11   6   8  1   
 12   6  26  1   
 13   6  27  1   
 14   7   9  1   
 15   7  28  1   
 16   7  29  1   
 17   8  10  1   
 18   8  30  1   
 19   8  31  1   
 20   9  10  1   
 21   9  32  1   
 22   9  33  1   
 23  10  11  am  
 24  11  12  2   
 25  11  13  1   
 26  13  14  1   
 27  13  34  1   
 28  13  35  1   
 29  14  15  ar  
 30  14  16  ar  
 31  15  17  1   
 32  15  18  ar  
 33  16  19  ar  
 34  16  36  1   
 35  17  20  1   
 36  18  21  ar  
 37  18  37  1   
 38  19  21  ar  
 39  19  38  1   
 40  20  39  1   
 41  20  40  1   
 42  20  41  1   
 43  21  42  1   
@<TRIPOS>SUBSTRUCTURE
  1 ****   9 GROUP 4 **** **** 0

# MOE 2024.06 (io_trps.svl 2023.06)
