@<TRIPOS>MOLECULE
NONAME
53 55 1 0 0 
SMALL
USER_CHARGES


@<TRIPOS>ATOM
  1 S       -0.3470    -0.1530     1.2410 S.3   1 <1>  -0.3320 
  2 C        0.9690     0.7300     0.3820 C.ar  1 <1>   0.1020 
  3 C       -1.9330     0.6400     0.7200 C.3   1 <1>   0.0700 
  4 C        2.2690     0.3710     0.6880 C.ar  1 <1>  -0.1500 
  5 C        0.7090     1.7260    -0.5450 C.ar  1 <1>  -0.1500 
  6 C       -3.0770    -0.0600     1.4500 C.3   1 <1>   0.1400 
  7 C        3.3220     1.0170     0.0640 C.ar  1 <1>  -0.1500 
  8 C        1.7680     2.3670    -1.1660 C.ar  1 <1>  -0.1500 
  9 N       -4.3520     0.6710     1.2330 N.am  1 <1>  -0.7300 
 10 C        3.0760     2.0160    -0.8660 C.ar  1 <1>  -0.1430 
 11 C       -5.1050     0.5960     0.0950 C.2   1 <1>   0.5440 
 12 C        4.2330     2.7240    -1.5480 C.3   1 <1>  -0.0970 
 13 O       -4.6790    -0.0500    -0.8410 O.2   1 <1>  -0.5700 
 14 C       -6.3790     1.2850    -0.0090 C.ar  1 <1>   0.0860 
 15 C       -6.8270     1.7710    -1.2370 C.ar  1 <1>  -0.1500 
 16 C       -7.2110     1.4820     1.0940 C.ar  1 <1>  -0.1500 
 17 C       -8.0420     2.4170    -1.3640 C.ar  1 <1>  -0.1500 
 18 C       -8.4300     2.1260     0.9770 C.ar  1 <1>  -0.1500 
 19 C       -8.8600     2.5900    -0.2580 C.ar  1 <1>  -0.1430 
 20 C      -10.2110     3.2650    -0.4060 C.3   1 <1>   0.4860 
 21 N      -11.2680     2.2170    -0.3830 N.4   1 <1>  -0.9590 
 22 C      -11.1140     1.2390    -1.5190 C.3   1 <1>   0.3430 
 23 C      -12.6490     2.8120    -0.3750 C.3   1 <1>   0.3430 
 24 C      -12.2720     0.2240    -1.5510 C.3   1 <1>   0.1200 
 25 C      -13.7340     1.7210    -0.4640 C.3   1 <1>   0.1200 
 26 O      -13.4990     0.8930    -1.5660 O.3   1 <1>  -0.5600 
 27 H       -2.0240     0.5190    -0.3450 H     1 <1>   0.0800 
 28 H       -1.8710     1.6790     0.9900 H     1 <1>   0.0800 
 29 H        2.4510    -0.4050     1.4090 H     1 <1>   0.1500 
 30 H       -0.2940     2.0100    -0.7960 H     1 <1>   0.1500 
 31 H       -2.8670    -0.1020     2.5050 H     1 <1>   0.0800 
 32 H       -3.1720    -1.0670     1.0780 H     1 <1>   0.0800 
 33 H        4.3320     0.7380     0.3050 H     1 <1>   0.1500 
 34 H        1.5690     3.1420    -1.8860 H     1 <1>   0.1500 
 35 H       -4.6160     1.3250     1.9710 H     1 <1>   0.3700 
 36 H        5.0710     2.0590    -1.6510 H     1 <1>   0.0800 
 37 H        4.5340     3.5750    -0.9640 H     1 <1>   0.0800 
 38 H        3.9440     3.0600    -2.5280 H     1 <1>   0.0800 
 39 H       -6.2000     1.6330    -2.1030 H     1 <1>   0.1500 
 40 H       -6.9000     1.1150     2.0580 H     1 <1>   0.1500 
 41 H       -8.3370     2.7780    -2.3360 H     1 <1>   0.1500 
 42 H       -9.0340     2.2570     1.8590 H     1 <1>   0.1500 
 43 H      -10.2490     3.8130    -1.3340 H     1 <1>   0.0800 
 44 H      -10.3550     3.9590     0.4060 H     1 <1>   0.0800 
 45 H      -11.1400     1.6820     0.4840 H     1 <1>   0.4500 
 46 H      -10.1800     0.7070    -1.4260 H     1 <1>   0.0800 
 47 H      -11.1010     1.7670    -2.4580 H     1 <1>   0.0800 
 48 H      -12.7680     3.4700    -1.2200 H     1 <1>   0.0800 
 49 H      -12.8000     3.3910     0.5210 H     1 <1>   0.0800 
 50 H      -12.2420    -0.4320    -0.6980 H     1 <1>   0.0800 
 51 H      -12.2150    -0.3750    -2.4440 H     1 <1>   0.0800 
 52 H      -14.7030     2.1710    -0.5950 H     1 <1>   0.0800 
 53 H      -13.7570     1.1160     0.4270 H     1 <1>   0.0800 
@<TRIPOS>BOND
  1   1   2  1   
  2   1   3  1   
  3   2   4  ar  
  4   2   5  ar  
  5   3   6  1   
  6   3  27  1   
  7   3  28  1   
  8   4   7  ar  
  9   4  29  1   
 10   5   8  ar  
 11   5  30  1   
 12   6   9  1   
 13   6  31  1   
 14   6  32  1   
 15   7  10  ar  
 16   7  33  1   
 17   8  10  ar  
 18   8  34  1   
 19   9  11  am  
 20   9  35  1   
 21  10  12  1   
 22  11  13  2   
 23  11  14  1   
 24  12  36  1   
 25  12  37  1   
 26  12  38  1   
 27  14  15  ar  
 28  14  16  ar  
 29  15  17  ar  
 30  15  39  1   
 31  16  18  ar  
 32  16  40  1   
 33  17  19  ar  
 34  17  41  1   
 35  18  19  ar  
 36  18  42  1   
 37  19  20  1   
 38  20  21  1   
 39  20  43  1   
 40  20  44  1   
 41  21  22  1   
 42  21  23  1   
 43  21  45  1   
 44  22  24  1   
 45  22  46  1   
 46  22  47  1   
 47  23  25  1   
 48  23  48  1   
 49  23  49  1   
 50  24  26  1   
 51  24  50  1   
 52  24  51  1   
 53  25  26  1   
 54  25  52  1   
 55  25  53  1   
@<TRIPOS>SUBSTRUCTURE
  1 ****  11 GROUP 4 **** **** 0

# MOE 2024.06 (io_trps.svl 2023.06)
