@<TRIPOS>MOLECULE
NONAME
30 30 1 0 0 
SMALL
USER_CHARGES


@<TRIPOS>ATOM
  1 S        0.2080     1.2670     0.6440 S.3   1 <1>  -0.4600 
  2 C       -1.3200     0.4520     1.1980 C.3   1 <1>   0.0700 
  3 C        1.3650    -0.1060     0.3920 C.3   1 <1>   0.0700 
  4 C       -2.0290    -0.2300     0.0150 C.3   1 <1>  -0.0800 
  5 C        2.7200     0.4820     0.0040 C.3   1 <1>  -0.0160 
  6 C       -2.5390     0.7920    -1.0120 C.3   1 <1>  -0.2400 
  7 C       -3.2060    -1.0670     0.5280 C.3   1 <1>  -0.2400 
  8 C        3.7280    -0.6310    -0.2240 C.ar  1 <1>  -0.1440 
  9 C        4.5370    -1.1020     0.7900 C.ar  1 <1>  -0.1500 
 10 C        3.8840    -1.2320    -1.4570 C.ar  1 <1>  -0.1500 
 11 C        5.4360    -2.1240     0.5300 C.ar  1 <1>   0.1600 
 12 C        4.8130    -2.2470    -1.6110 C.ar  1 <1>   0.1600 
 13 N        5.5930    -2.7090    -0.6460 N.ar  1 <1>  -0.6200 
 14 H       -1.9420     1.2130     1.6360 H     1 <1>   0.0800 
 15 H       -1.0390    -0.2600     1.9530 H     1 <1>   0.0800 
 16 H        0.9710    -0.7290    -0.3900 H     1 <1>   0.0800 
 17 H        1.4250    -0.6570     1.3140 H     1 <1>   0.0800 
 18 H       -1.3370    -0.8950    -0.4720 H     1 <1>   0.0800 
 19 H        3.0660     1.1340     0.7860 H     1 <1>   0.0800 
 20 H        2.6130     1.0660    -0.8930 H     1 <1>   0.0800 
 21 H       -3.2190     1.4860    -0.5510 H     1 <1>   0.0800 
 22 H       -3.0500     0.2920    -1.8160 H     1 <1>   0.0800 
 23 H       -1.7200     1.3470    -1.4340 H     1 <1>   0.0800 
 24 H       -3.9300    -0.4420     1.0230 H     1 <1>   0.0800 
 25 H       -2.8620    -1.8110     1.2250 H     1 <1>   0.0800 
 26 H       -3.6920    -1.5710    -0.2890 H     1 <1>   0.0800 
 27 H        4.4770    -0.6850     1.7790 H     1 <1>   0.1500 
 28 H        3.2920    -0.9200    -2.2980 H     1 <1>   0.1500 
 29 H        6.0590    -2.4780     1.3330 H     1 <1>   0.1500 
 30 H        4.9210    -2.7040    -2.5800 H     1 <1>   0.1500 
@<TRIPOS>BOND
  1   1   2  1   
  2   1   3  1   
  3   2   4  1   
  4   2  14  1   
  5   2  15  1   
  6   3   5  1   
  7   3  16  1   
  8   3  17  1   
  9   4   6  1   
 10   4   7  1   
 11   4  18  1   
 12   5   8  1   
 13   5  19  1   
 14   5  20  1   
 15   6  21  1   
 16   6  22  1   
 17   6  23  1   
 18   7  24  1   
 19   7  25  1   
 20   7  26  1   
 21   8   9  ar  
 22   8  10  ar  
 23   9  11  ar  
 24   9  27  1   
 25  10  12  ar  
 26  10  28  1   
 27  11  13  ar  
 28  11  29  1   
 29  12  13  ar  
 30  12  30  1   
@<TRIPOS>SUBSTRUCTURE
  1 ****   3 GROUP 4 **** **** 0

# MOE 2024.06 (io_trps.svl 2023.06)
