@<TRIPOS>MOLECULE
NONAME
37 38 1 0 0 
SMALL
USER_CHARGES


@<TRIPOS>ATOM
  1 CL       1.5190    -1.1040    -2.4580 Cl    1 <1>  -0.1770 
  2 C        1.1140    -2.5830    -1.6240 C.ar  1 <1>   0.1770 
  3 C        0.9920    -3.7560    -2.3460 C.ar  1 <1>  -0.1500 
  4 C        0.9260    -2.5620    -0.2540 C.ar  1 <1>  -0.1500 
  5 C        0.6780    -4.9290    -1.6810 C.ar  1 <1>  -0.1500 
  6 C        0.6130    -3.7390     0.4020 C.ar  1 <1>  -0.1500 
  7 C        0.4880    -4.9340    -0.3020 C.ar  1 <1>   0.1990 
  8 N        0.1980    -6.1290     0.3440 N.am  1 <1>  -0.6930 
  9 S       -1.3350    -6.3490     1.1130 S.o2  1 <1>   1.3330 
 10 C        1.3050    -6.9530     0.9320 C.3   1 <1>   0.3370 
 11 O       -1.4680    -5.3240     2.1170 O.2   1 <1>  -0.6500 
 12 O       -1.4300    -7.7460     1.4580 O.2   1 <1>  -0.6500 
 13 C       -2.4780    -6.0380    -0.2160 C.3   1 <1>  -0.1350 
 14 C        2.6040    -6.1860     1.2760 C.2   1 <1>   0.5690 
 15 C        1.5750    -8.1210    -0.0240 C.3   1 <1>  -0.2400 
 16 O        2.9530    -6.1300     2.4330 O.2   1 <1>  -0.5700 
 17 N        3.3410    -5.6110     0.2810 N.am  1 <1>  -0.5790 
 18 C        4.5660    -4.8220     0.4620 C.3   1 <1>   0.0490 
 19 C        4.7290    -3.5920    -0.3670 C.3   1 <1>  -0.2000 
 20 C        5.5610    -4.8070    -0.6500 C.3   1 <1>  -0.2000 
 21 H        1.1400    -3.7420    -3.4120 H     1 <1>   0.1500 
 22 H        1.0260    -1.6380     0.2880 H     1 <1>   0.1500 
 23 H        0.5750    -5.8480    -2.2290 H     1 <1>   0.1500 
 24 H        0.4720    -3.7360     1.4710 H     1 <1>   0.1500 
 25 H        0.9640    -7.3690     1.8650 H     1 <1>   0.0800 
 26 H       -2.3710    -5.0310    -0.5710 H     1 <1>   0.0800 
 27 H       -3.4840    -6.1750     0.1280 H     1 <1>   0.0800 
 28 H       -2.2960    -6.7150    -1.0270 H     1 <1>   0.0800 
 29 H        1.9100    -7.7660    -0.9810 H     1 <1>   0.0800 
 30 H        0.6820    -8.7070    -0.1500 H     1 <1>   0.0800 
 31 H        2.3360    -8.7570     0.3920 H     1 <1>   0.0800 
 32 H        2.9620    -5.5990    -0.6660 H     1 <1>   0.3700 
 33 H        4.9220    -4.8120     1.4800 H     1 <1>   0.1000 
 34 H        5.2100    -2.7360     0.0740 H     1 <1>   0.1000 
 35 H        3.9520    -3.3180    -1.0580 H     1 <1>   0.1000 
 36 H        5.3630    -5.3830    -1.5350 H     1 <1>   0.1000 
 37 H        6.6080    -4.7740    -0.4020 H     1 <1>   0.1000 
@<TRIPOS>BOND
  1   1   2  1   
  2   2   3  ar  
  3   2   4  ar  
  4   3   5  ar  
  5   3  21  1   
  6   4   6  ar  
  7   4  22  1   
  8   5   7  ar  
  9   5  23  1   
 10   6   7  ar  
 11   6  24  1   
 12   7   8  1   
 13   8   9  am  
 14   8  10  1   
 15   9  11  2   
 16   9  12  2   
 17   9  13  1   
 18  10  14  1   
 19  10  15  1   
 20  10  25  1   
 21  13  26  1   
 22  13  27  1   
 23  13  28  1   
 24  14  16  2   
 25  14  17  am  
 26  15  29  1   
 27  15  30  1   
 28  15  31  1   
 29  17  18  1   
 30  17  32  1   
 31  18  19  1   
 32  18  20  1   
 33  18  33  1   
 34  19  20  1   
 35  19  34  1   
 36  19  35  1   
 37  20  36  1   
 38  20  37  1   
@<TRIPOS>SUBSTRUCTURE
  1 ****   7 GROUP 4 **** **** 0

# MOE 2024.06 (io_trps.svl 2023.06)
