@<TRIPOS>MOLECULE
NONAME
58 61 1 0 0 
SMALL
USER_CHARGES


@<TRIPOS>ATOM
  1 O       -0.9480     3.0670    -2.1520 O.2   1 <1>  -0.5700 
  2 C       -1.0230     3.1410    -0.9470 C.2   1 <1>   0.5690 
  3 N        0.0240     3.6140    -0.2250 N.am  1 <1>  -0.7300 
  4 C       -2.3220     2.6960    -0.2380 C.3   1 <1>   0.0610 
  5 C        1.3550     3.9820    -0.7780 C.3   1 <1>   0.2810 
  6 C       -2.6910     1.2540    -0.6630 C.3   1 <1>  -0.1600 
  7 C       -3.4820     3.6340    -0.6460 C.3   1 <1>  -0.1600 
  8 C       -2.2000     2.7220     1.3090 C.3   1 <1>  -0.1600 
  9 C        2.5080     3.5410     0.1420 C.2   1 <1>   0.6590 
 10 C        1.3570     5.4970    -1.0020 C.3   1 <1>  -0.2400 
 11 C       -4.0130     0.7650    -0.0210 C.3   1 <1>   0.1440 
 12 C       -4.8020     3.1870     0.0060 C.3   1 <1>  -0.0800 
 13 C       -3.5130     2.2700     1.9690 C.3   1 <1>  -0.0800 
 14 O        2.3350     3.3160     1.3160 O.2   1 <1>  -0.5700 
 15 O        3.7040     3.4380    -0.4310 O.3   1 <1>  -0.4300 
 16 C       -4.3990    -0.6730    -0.4380 C.ar  1 <1>  -0.1440 
 17 C       -5.1280     1.7500    -0.4440 C.3   1 <1>  -0.1600 
 18 C       -3.8410     0.8370     1.5150 C.3   1 <1>  -0.1600 
 19 C       -4.6480     3.2150     1.5360 C.3   1 <1>  -0.1600 
 20 C        4.8680     3.0830     0.2850 C.3   1 <1>   0.1200 
 21 C       -5.5590    -1.2470     0.0710 C.ar  1 <1>  -0.1500 
 22 C       -3.6350    -1.4400    -1.3140 C.ar  1 <1>  -0.1500 
 23 C        5.4700     4.3440     0.9020 C.3   1 <1>  -0.2400 
 24 C       -5.9420    -2.5310    -0.2740 C.ar  1 <1>  -0.1500 
 25 C       -4.0160    -2.7250    -1.6610 C.ar  1 <1>  -0.1500 
 26 C       -5.1720    -3.2800    -1.1450 C.ar  1 <1>  -0.1440 
 27 C       -5.5880    -4.6890    -1.5250 C.3   1 <1>  -0.0970 
 28 H       -0.0060     3.5940     0.7980 H     1 <1>   0.3700 
 29 H        1.4860     3.4910    -1.7270 H     1 <1>   0.0800 
 30 H       -1.8880     0.5940    -0.3840 H     1 <1>   0.0800 
 31 H       -2.7870     1.2230    -1.7350 H     1 <1>   0.0800 
 32 H       -3.5920     3.6270    -1.7180 H     1 <1>   0.0800 
 33 H       -3.2540     4.6430    -0.3520 H     1 <1>   0.0800 
 34 H       -1.4030     2.0700     1.6250 H     1 <1>   0.0800 
 35 H       -1.9670     3.7180     1.6440 H     1 <1>   0.0800 
 36 H        1.2270     6.0150    -0.0680 H     1 <1>   0.0800 
 37 H        0.5650     5.7690    -1.6770 H     1 <1>   0.0800 
 38 H        2.2920     5.8010    -1.4360 H     1 <1>   0.0800 
 39 H       -5.5960     3.8490    -0.2930 H     1 <1>   0.0800 
 40 H       -3.4080     2.2950     3.0410 H     1 <1>   0.0800 
 41 H       -5.2430     1.7200    -1.5140 H     1 <1>   0.0800 
 42 H       -6.0680     1.4590    -0.0140 H     1 <1>   0.0800 
 43 H       -3.0560     0.1670     1.8180 H     1 <1>   0.0800 
 44 H       -4.7410     0.5190     2.0070 H     1 <1>   0.0800 
 45 H       -5.5710     2.9130     2.0010 H     1 <1>   0.0800 
 46 H       -4.4340     4.2180     1.8630 H     1 <1>   0.0800 
 47 H        5.5570     2.6390    -0.4120 H     1 <1>   0.0800 
 48 H        4.6150     2.3570     1.0400 H     1 <1>   0.0800 
 49 H       -6.1860    -0.6980     0.7490 H     1 <1>   0.1500 
 50 H       -2.7290    -1.0630    -1.7480 H     1 <1>   0.1500 
 51 H        5.7000     5.0610     0.1340 H     1 <1>   0.0800 
 52 H        6.3770     4.0940     1.4200 H     1 <1>   0.0800 
 53 H        4.7850     4.7780     1.6090 H     1 <1>   0.0800 
 54 H       -6.8440    -2.9440     0.1400 H     1 <1>   0.1500 
 55 H       -3.4030    -3.2920    -2.3390 H     1 <1>   0.1500 
 56 H       -6.6580    -4.7860    -1.4970 H     1 <1>   0.0800 
 57 H       -5.1560    -5.3930    -0.8360 H     1 <1>   0.0800 
 58 H       -5.2520    -4.9240    -2.5190 H     1 <1>   0.0800 
@<TRIPOS>BOND
  1   1   2  2   
  2   2   3  am  
  3   2   4  1   
  4   3   5  1   
  5   3  28  1   
  6   4   6  1   
  7   4   7  1   
  8   4   8  1   
  9   5   9  1   
 10   5  10  1   
 11   5  29  1   
 12   6  11  1   
 13   6  30  1   
 14   6  31  1   
 15   7  12  1   
 16   7  32  1   
 17   7  33  1   
 18   8  13  1   
 19   8  34  1   
 20   8  35  1   
 21   9  14  2   
 22   9  15  1   
 23  10  36  1   
 24  10  37  1   
 25  10  38  1   
 26  11  16  1   
 27  11  17  1   
 28  11  18  1   
 29  12  17  1   
 30  12  19  1   
 31  12  39  1   
 32  13  18  1   
 33  13  19  1   
 34  13  40  1   
 35  15  20  1   
 36  16  21  ar  
 37  16  22  ar  
 38  17  41  1   
 39  17  42  1   
 40  18  43  1   
 41  18  44  1   
 42  19  45  1   
 43  19  46  1   
 44  20  23  1   
 45  20  47  1   
 46  20  48  1   
 47  21  24  ar  
 48  21  49  1   
 49  22  25  ar  
 50  22  50  1   
 51  23  51  1   
 52  23  52  1   
 53  23  53  1   
 54  24  26  ar  
 55  24  54  1   
 56  25  26  ar  
 57  25  55  1   
 58  26  27  1   
 59  27  56  1   
 60  27  57  1   
 61  27  58  1   
@<TRIPOS>SUBSTRUCTURE
  1 ****   6 GROUP 4 **** **** 0

# MOE 2024.06 (io_trps.svl 2023.06)
