@<TRIPOS>MOLECULE
NONAME
50 52 1 0 0 
SMALL
USER_CHARGES


@<TRIPOS>ATOM
  1 F       -2.3610     2.1820     2.5310 F     1 <1>  -0.3400 
  2 C       -1.3240     2.1450     1.7010 C.3   1 <1>   1.1640 
  3 F       -0.9560     0.8750     1.6230 F     1 <1>  -0.3400 
  4 F       -0.3370     2.7950     2.3030 F     1 <1>  -0.3400 
  5 C       -1.6980     2.7190     0.3230 C.ar  1 <1>  -0.1440 
  6 C       -2.8240     2.2390    -0.3390 C.ar  1 <1>  -0.1500 
  7 C       -0.9420     3.7130    -0.2880 C.ar  1 <1>  -0.1500 
  8 C       -3.2030     2.7490    -1.5730 C.ar  1 <1>  -0.1440 
  9 C       -1.3040     4.2130    -1.5260 C.ar  1 <1>  -0.1500 
 10 C       -2.4300     3.7340    -2.1680 C.ar  1 <1>  -0.1500 
 11 C       -4.4610     2.2480    -2.2560 C.3   1 <1>   0.4870 
 12 N       -5.6310     2.7320    -1.4600 N.4   1 <1>  -0.9590 
 13 C       -6.8920     2.0610    -1.8800 C.3   1 <1>   0.3430 
 14 C       -5.7160     4.2230    -1.4890 C.3   1 <1>   0.3430 
 15 C       -8.0370     2.5030    -0.9660 C.3   1 <1>  -0.1600 
 16 C       -6.8440     4.6910    -0.5690 C.3   1 <1>  -0.1600 
 17 C       -8.1710     4.0340    -0.9570 C.3   1 <1>   0.4230 
 18 N       -9.2670     4.5100    -0.0590 N.4   1 <1>  -0.9590 
 19 C       -9.1770     4.0710     1.3740 C.3   1 <1>   0.3430 
 20 C      -10.6220     4.2030    -0.6210 C.3   1 <1>   0.3430 
 21 C      -10.2170     4.8200     2.2090 C.3   1 <1>  -0.1600 
 22 C      -11.6930     4.9540     0.1710 C.3   1 <1>  -0.1600 
 23 C      -11.6360     4.6170     1.6660 C.3   1 <1>  -0.1600 
 24 H       -3.3990     1.4540     0.1260 H     1 <1>   0.1500 
 25 H       -0.0580     4.1060     0.1910 H     1 <1>   0.1500 
 26 H       -0.7000     4.9770    -1.9890 H     1 <1>   0.1500 
 27 H       -2.6840     4.1400    -3.1340 H     1 <1>   0.1500 
 28 H       -4.4430     1.1700    -2.2830 H     1 <1>   0.0800 
 29 H       -4.5080     2.6160    -3.2680 H     1 <1>   0.0800 
 30 H       -5.4070     2.4570    -0.4930 H     1 <1>   0.4500 
 31 H       -6.7780     0.9890    -1.8210 H     1 <1>   0.0800 
 32 H       -7.1190     2.3170    -2.9030 H     1 <1>   0.0800 
 33 H       -5.8970     4.5610    -2.4970 H     1 <1>   0.0800 
 34 H       -4.7830     4.6540    -1.1550 H     1 <1>   0.0800 
 35 H       -7.8490     2.1230     0.0220 H     1 <1>   0.0800 
 36 H       -8.9450     2.0560    -1.3310 H     1 <1>   0.0800 
 37 H       -6.9290     5.7590    -0.6580 H     1 <1>   0.0800 
 38 H       -6.5720     4.4580     0.4450 H     1 <1>   0.0800 
 39 H       -8.4050     4.3500    -1.9630 H     1 <1>   0.0800 
 40 H       -9.2240     5.5390    -0.0310 H     1 <1>   0.4500 
 41 H       -8.1980     4.2760     1.7720 H     1 <1>   0.0800 
 42 H       -9.3610     3.0110     1.4470 H     1 <1>   0.0800 
 43 H      -10.8150     3.1440    -0.5630 H     1 <1>   0.0800 
 44 H      -10.6750     4.5040    -1.6560 H     1 <1>   0.0800 
 45 H       -9.9770     5.8690     2.2290 H     1 <1>   0.0800 
 46 H      -10.1740     4.4650     3.2250 H     1 <1>   0.0800 
 47 H      -12.6640     4.6910    -0.2130 H     1 <1>   0.0800 
 48 H      -11.5720     6.0150     0.0280 H     1 <1>   0.0800 
 49 H      -12.3290     5.2400     2.2080 H     1 <1>   0.0800 
 50 H      -11.9360     3.5930     1.8150 H     1 <1>   0.0800 
@<TRIPOS>BOND
  1   1   2  1   
  2   2   3  1   
  3   2   4  1   
  4   2   5  1   
  5   5   6  ar  
  6   5   7  ar  
  7   6   8  ar  
  8   6  24  1   
  9   7   9  ar  
 10   7  25  1   
 11   8  10  ar  
 12   8  11  1   
 13   9  10  ar  
 14   9  26  1   
 15  10  27  1   
 16  11  12  1   
 17  11  28  1   
 18  11  29  1   
 19  12  13  1   
 20  12  14  1   
 21  12  30  1   
 22  13  15  1   
 23  13  31  1   
 24  13  32  1   
 25  14  16  1   
 26  14  33  1   
 27  14  34  1   
 28  15  17  1   
 29  15  35  1   
 30  15  36  1   
 31  16  17  1   
 32  16  37  1   
 33  16  38  1   
 34  17  18  1   
 35  17  39  1   
 36  18  19  1   
 37  18  20  1   
 38  18  40  1   
 39  19  21  1   
 40  19  41  1   
 41  19  42  1   
 42  20  22  1   
 43  20  43  1   
 44  20  44  1   
 45  21  23  1   
 46  21  45  1   
 47  21  46  1   
 48  22  23  1   
 49  22  47  1   
 50  22  48  1   
 51  23  49  1   
 52  23  50  1   
@<TRIPOS>SUBSTRUCTURE
  1 ****  12 GROUP 4 **** **** 0

# MOE 2024.06 (io_trps.svl 2023.06)
