@<TRIPOS>MOLECULE
NONAME
42 43 1 0 0 
SMALL
USER_CHARGES


@<TRIPOS>ATOM
  1 CL      -0.2350    -0.3970    -1.3710 Cl    1 <1>  -0.1770 
  2 C       -1.9180    -0.2030    -0.9520 C.ar  1 <1>   0.1770 
  3 C       -2.4320     1.0710    -0.7910 C.ar  1 <1>  -0.1500 
  4 C       -2.7080    -1.3280    -0.7880 C.ar  1 <1>  -0.1500 
  5 C       -3.7690     1.2220    -0.4580 C.ar  1 <1>  -0.1500 
  6 C       -4.0450    -1.1780    -0.4550 C.ar  1 <1>  -0.1500 
  7 C       -4.5640     0.1000    -0.2930 C.ar  1 <1>   0.1020 
  8 S       -6.2900     0.3830     0.1390 S.3   1 <1>  -0.3320 
  9 C       -7.0760    -1.2830     0.2840 C.3   1 <1>   0.0700 
 10 C       -8.5480    -1.0830     0.6520 C.3   1 <1>  -0.0990 
 11 C       -9.3010    -2.3960     0.7930 C.2   1 <1>   0.5690 
 12 O       -8.6790    -3.4250     0.6590 O.2   1 <1>  -0.5700 
 13 N      -10.6480    -2.3970     1.0620 N.am  1 <1>  -0.6600 
 14 C      -11.4830    -1.1820     1.2730 C.3   1 <1>   0.1400 
 15 C      -11.4150    -3.6710     1.1290 C.3   1 <1>   0.1400 
 16 C      -12.5810    -1.1350     0.2080 C.3   1 <1>  -0.1600 
 17 C      -12.5160    -3.6570     0.0660 C.3   1 <1>  -0.1600 
 18 C      -13.4300    -2.4240     0.2040 C.3   1 <1>  -0.0190 
 19 C      -14.5130    -2.4180    -0.8740 C.2   1 <1>   0.6590 
 20 O      -14.5280    -1.6230    -1.7790 O.2   1 <1>  -0.5700 
 21 O      -15.4500    -3.3510    -0.7460 O.3   1 <1>  -0.4300 
 22 C      -16.5110    -3.4670    -1.6710 C.3   1 <1>   0.0400 
 23 H       -1.7960     1.9270    -0.9240 H     1 <1>   0.1500 
 24 H       -2.2790    -2.3050    -0.9190 H     1 <1>   0.1500 
 25 H       -4.1950     2.2010    -0.3270 H     1 <1>   0.1500 
 26 H       -4.6540    -2.0520    -0.3290 H     1 <1>   0.1500 
 27 H       -6.5510    -1.8270     1.0500 H     1 <1>   0.0800 
 28 H       -6.9740    -1.7770    -0.6660 H     1 <1>   0.0800 
 29 H       -9.0170    -0.4980    -0.1160 H     1 <1>   0.0800 
 30 H       -8.6030    -0.5530     1.5840 H     1 <1>   0.0800 
 31 H      -10.8970    -0.2830     1.2220 H     1 <1>   0.0800 
 32 H      -11.9280    -1.2300     2.2530 H     1 <1>   0.0800 
 33 H      -11.8470    -3.7710     2.1100 H     1 <1>   0.0800 
 34 H      -10.7700    -4.5180     0.9660 H     1 <1>   0.0800 
 35 H      -12.1230    -0.9970    -0.7570 H     1 <1>   0.0800 
 36 H      -13.2170    -0.2850     0.3890 H     1 <1>   0.0800 
 37 H      -13.1010    -4.5560     0.1560 H     1 <1>   0.0800 
 38 H      -12.0570    -3.6640    -0.9080 H     1 <1>   0.0800 
 39 H      -13.9370    -2.4880     1.1510 H     1 <1>   0.0800 
 40 H      -17.1400    -4.2850    -1.3700 H     1 <1>   0.0800 
 41 H      -16.1010    -3.6540    -2.6490 H     1 <1>   0.0800 
 42 H      -17.0720    -2.5480    -1.6750 H     1 <1>   0.0800 
@<TRIPOS>BOND
  1   1   2  1   
  2   2   3  ar  
  3   2   4  ar  
  4   3   5  ar  
  5   3  23  1   
  6   4   6  ar  
  7   4  24  1   
  8   5   7  ar  
  9   5  25  1   
 10   6   7  ar  
 11   6  26  1   
 12   7   8  1   
 13   8   9  1   
 14   9  10  1   
 15   9  27  1   
 16   9  28  1   
 17  10  11  1   
 18  10  29  1   
 19  10  30  1   
 20  11  12  2   
 21  11  13  am  
 22  13  14  1   
 23  13  15  1   
 24  14  16  1   
 25  14  31  1   
 26  14  32  1   
 27  15  17  1   
 28  15  33  1   
 29  15  34  1   
 30  16  18  1   
 31  16  35  1   
 32  16  36  1   
 33  17  18  1   
 34  17  37  1   
 35  17  38  1   
 36  18  19  1   
 37  18  39  1   
 38  19  20  2   
 39  19  21  1   
 40  21  22  1   
 41  22  40  1   
 42  22  41  1   
 43  22  42  1   
@<TRIPOS>SUBSTRUCTURE
  1 ****  10 GROUP 4 **** **** 0

# MOE 2024.06 (io_trps.svl 2023.06)
