@<TRIPOS>MOLECULE
NONAME
44 46 1 0 0 
SMALL
USER_CHARGES


@<TRIPOS>ATOM
  1 O       -0.1010    -0.2530     0.9010 O.2   1 <1>  -0.5700 
  2 C       -0.0280    -1.3420     0.3680 C.2   1 <1>   0.5440 
  3 N        1.1770    -1.8120    -0.1020 N.am  1 <1>  -0.5470 
  4 C       -1.2200    -2.1560     0.2120 C.ar  1 <1>   0.0860 
  5 C        2.4760    -1.2760    -0.0650 C.ar  1 <1>   0.1170 
  6 C       -2.4730    -1.5600     0.0680 C.ar  1 <1>  -0.1500 
  7 C       -1.1660    -3.5500     0.1990 C.ar  1 <1>  -0.1500 
  8 C        3.5840    -2.1320    -0.0340 C.ar  1 <1>  -0.1440 
  9 C        2.6870     0.0980    -0.0960 C.ar  1 <1>  -0.1500 
 10 C       -3.6240    -2.3220    -0.0990 C.ar  1 <1>   0.0830 
 11 C       -2.3010    -4.3210     0.0280 C.ar  1 <1>   0.0830 
 12 C        4.8720    -1.6000    -0.0460 C.ar  1 <1>  -0.1440 
 13 C        3.3710    -3.6490     0.0010 C.3   1 <1>  -0.0170 
 14 C        3.9630     0.6220    -0.0980 C.ar  1 <1>  -0.1500 
 15 O       -4.8630    -1.7900    -0.2440 O.3   1 <1>  -0.3620 
 16 C       -3.5360    -3.7020    -0.1230 C.ar  1 <1>  -0.1500 
 17 O       -2.1270    -5.6660     0.0210 O.3   1 <1>  -0.3620 
 18 C        5.0520    -0.2260    -0.0750 C.ar  1 <1>  -0.1500 
 19 C        6.1220    -2.4730    -0.0120 C.3   1 <1>  -0.0170 
 20 C        4.6270    -4.4410     0.3830 C.3   1 <1>  -0.1600 
 21 C       -5.0780    -0.3980    -0.1680 C.3   1 <1>   0.0400 
 22 C       -3.2240    -6.5430    -0.1100 C.3   1 <1>   0.0400 
 23 C        5.8380    -3.9280    -0.3950 C.3   1 <1>  -0.1600 
 24 H        1.1300    -2.7300    -0.5340 H     1 <1>   0.3700 
 25 H       -2.5200    -0.4870     0.0900 H     1 <1>   0.1500 
 26 H       -0.2310    -4.0600     0.3330 H     1 <1>   0.1500 
 27 H        1.8490     0.7690    -0.1240 H     1 <1>   0.1500 
 28 H        3.0480    -3.9650    -0.9760 H     1 <1>   0.0800 
 29 H        2.5980    -3.8950     0.7070 H     1 <1>   0.0800 
 30 H        4.1080     1.6880    -0.1190 H     1 <1>   0.1500 
 31 H       -4.4400    -4.2620    -0.2580 H     1 <1>   0.1500 
 32 H        6.0440     0.1900    -0.0770 H     1 <1>   0.1500 
 33 H        6.5250    -2.4430     0.9850 H     1 <1>   0.0800 
 34 H        6.8640    -2.0730    -0.6810 H     1 <1>   0.0800 
 35 H        4.4720    -5.4860     0.1770 H     1 <1>   0.0800 
 36 H        4.8080    -4.3330     1.4390 H     1 <1>   0.0800 
 37 H       -6.1310    -0.2150    -0.2820 H     1 <1>   0.0800 
 38 H       -4.5370     0.0840    -0.9630 H     1 <1>   0.0800 
 39 H       -4.7480    -0.0440     0.7930 H     1 <1>   0.0800 
 40 H       -2.8530    -7.5520    -0.0760 H     1 <1>   0.0800 
 41 H       -3.7050    -6.3630    -1.0560 H     1 <1>   0.0800 
 42 H       -3.9050    -6.3770     0.7060 H     1 <1>   0.0800 
 43 H        6.7010    -4.5330    -0.1770 H     1 <1>   0.0800 
 44 H        5.6420    -3.9890    -1.4520 H     1 <1>   0.0800 
@<TRIPOS>BOND
  1   1   2  2   
  2   2   3  am  
  3   2   4  1   
  4   3   5  1   
  5   3  24  1   
  6   4   6  ar  
  7   4   7  ar  
  8   5   8  ar  
  9   5   9  ar  
 10   6  10  ar  
 11   6  25  1   
 12   7  11  ar  
 13   7  26  1   
 14   8  12  ar  
 15   8  13  1   
 16   9  14  ar  
 17   9  27  1   
 18  10  15  1   
 19  10  16  ar  
 20  11  16  ar  
 21  11  17  1   
 22  12  18  ar  
 23  12  19  1   
 24  13  20  1   
 25  13  28  1   
 26  13  29  1   
 27  14  18  ar  
 28  14  30  1   
 29  15  21  1   
 30  16  31  1   
 31  17  22  1   
 32  18  32  1   
 33  19  23  1   
 34  19  33  1   
 35  19  34  1   
 36  20  23  1   
 37  20  35  1   
 38  20  36  1   
 39  21  37  1   
 40  21  38  1   
 41  21  39  1   
 42  22  40  1   
 43  22  41  1   
 44  22  42  1   
 45  23  43  1   
 46  23  44  1   
@<TRIPOS>SUBSTRUCTURE
  1 ****   3 GROUP 4 **** **** 0

# MOE 2024.06 (io_trps.svl 2023.06)
