@<TRIPOS>MOLECULE
NONAME
51 53 1 0 0 
SMALL
USER_CHARGES


@<TRIPOS>ATOM
  1 S        0.2380     0.7480     0.4940 S.3   1 <1>  -0.3710 
  2 C       -1.3740     1.4950     0.3050 C.2   1 <1>   0.6510 
  3 C       -0.0940    -1.0770     0.5930 C.3   1 <1>   0.1310 
  4 N       -2.3420     0.6580     0.2750 N.2   1 <1>  -0.6290 
  5 N       -1.4820     2.8760     0.1970 N.am  1 <1>  -0.4200 
  6 C        1.2060    -1.8720     0.6120 C.2   1 <1>   0.4480 
  7 C       -3.6230     1.1270     0.1260 C.ar  1 <1>   0.1790 
  8 C       -2.7590     3.3890     0.0260 C.2   1 <1>   0.5440 
  9 C       -0.3310     3.8520     0.2510 C.3   1 <1>   0.2200 
 10 O        1.5130    -2.4540     1.6120 O.2   1 <1>  -0.5700 
 11 C        2.0940    -1.9340    -0.6600 C.3   1 <1>   0.0610 
 12 C       -3.8820     2.4930    -0.0040 C.ar  1 <1>   0.0860 
 13 C       -4.6770     0.2210     0.1050 C.ar  1 <1>  -0.1500 
 14 O       -2.9400     4.5900    -0.1000 O.2   1 <1>  -0.5700 
 15 C        0.6330     3.7210    -0.9430 C.3   1 <1>  -0.1600 
 16 C        0.3890     3.8720     1.6120 C.3   1 <1>  -0.1600 
 17 C        3.2220    -0.8910    -0.5650 C.3   1 <1>  -0.2400 
 18 C        2.7480    -3.3250    -0.7770 C.3   1 <1>  -0.2400 
 19 C        1.3080    -1.6910    -1.9660 C.3   1 <1>  -0.2400 
 20 C       -5.2080     2.9130    -0.1570 C.ar  1 <1>  -0.1500 
 21 C       -5.9790     0.6500    -0.0460 C.ar  1 <1>  -0.1500 
 22 C        1.7140     4.8110    -0.8880 C.3   1 <1>  -0.1600 
 23 C        1.4730     4.9610     1.6340 C.3   1 <1>  -0.1600 
 24 C       -6.2450     2.0050    -0.1780 C.ar  1 <1>  -0.1500 
 25 C        2.4490     4.7990     0.4600 C.3   1 <1>  -0.1600 
 26 H       -0.7090    -1.3500    -0.2430 H     1 <1>   0.0800 
 27 H       -0.6400    -1.2410     1.5040 H     1 <1>   0.0800 
 28 H       -0.7270     4.8470     0.1560 H     1 <1>   0.0800 
 29 H       -4.4600    -0.8270     0.2080 H     1 <1>   0.1500 
 30 H        0.0780     3.8220    -1.8590 H     1 <1>   0.0800 
 31 H        1.1260     2.7710    -0.9490 H     1 <1>   0.0800 
 32 H        0.8640     2.9350     1.8220 H     1 <1>   0.0800 
 33 H       -0.3270     4.0720     2.3900 H     1 <1>   0.0800 
 34 H        3.7920    -1.0440     0.3350 H     1 <1>   0.0800 
 35 H        2.8240     0.1070    -0.5440 H     1 <1>   0.0800 
 36 H        3.8880    -0.9700    -1.4060 H     1 <1>   0.0800 
 37 H        3.3660    -3.3910    -1.6540 H     1 <1>   0.0800 
 38 H        1.9930    -4.0900    -0.8300 H     1 <1>   0.0800 
 39 H        3.3630    -3.5240     0.0830 H     1 <1>   0.0800 
 40 H        1.9550    -1.7960    -2.8190 H     1 <1>   0.0800 
 41 H        0.8950    -0.6980    -1.9930 H     1 <1>   0.0800 
 42 H        0.5080    -2.4030    -2.0640 H     1 <1>   0.0800 
 43 H       -5.4140     3.9660    -0.2590 H     1 <1>   0.1500 
 44 H       -6.7880    -0.0610    -0.0620 H     1 <1>   0.1500 
 45 H        1.2570     5.7760    -1.0350 H     1 <1>   0.0800 
 46 H        2.4200     4.6590    -1.6860 H     1 <1>   0.0800 
 47 H        2.0140     4.9100     2.5630 H     1 <1>   0.0800 
 48 H        1.0070     5.9310     1.5790 H     1 <1>   0.0800 
 49 H       -7.2620     2.3420    -0.2960 H     1 <1>   0.1500 
 50 H        3.1710     5.5960     0.4820 H     1 <1>   0.0800 
 51 H        2.9830     3.8690     0.5660 H     1 <1>   0.0800 
@<TRIPOS>BOND
  1   1   2  1   
  2   1   3  1   
  3   2   4  2   
  4   2   5  1   
  5   3   6  1   
  6   3  26  1   
  7   3  27  1   
  8   4   7  1   
  9   5   8  am  
 10   5   9  1   
 11   6  10  2   
 12   6  11  1   
 13   7  12  ar  
 14   7  13  ar  
 15   8  12  1   
 16   8  14  2   
 17   9  15  1   
 18   9  16  1   
 19   9  28  1   
 20  11  17  1   
 21  11  18  1   
 22  11  19  1   
 23  12  20  ar  
 24  13  21  ar  
 25  13  29  1   
 26  15  22  1   
 27  15  30  1   
 28  15  31  1   
 29  16  23  1   
 30  16  32  1   
 31  16  33  1   
 32  17  34  1   
 33  17  35  1   
 34  17  36  1   
 35  18  37  1   
 36  18  38  1   
 37  18  39  1   
 38  19  40  1   
 39  19  41  1   
 40  19  42  1   
 41  20  24  ar  
 42  20  43  1   
 43  21  24  ar  
 44  21  44  1   
 45  22  25  1   
 46  22  45  1   
 47  22  46  1   
 48  23  25  1   
 49  23  47  1   
 50  23  48  1   
 51  24  49  1   
 52  25  50  1   
 53  25  51  1   
@<TRIPOS>SUBSTRUCTURE
  1 ****   2 GROUP 4 **** **** 0

# MOE 2024.06 (io_trps.svl 2023.06)
