@<TRIPOS>MOLECULE
NONAME
35 37 1 0 0 
SMALL
USER_CHARGES


@<TRIPOS>ATOM
  1 O        0.2150     0.9540     1.5830 O.2   1 <1>  -0.5700 
  2 C        0.2080     1.7950     0.7190 C.2   1 <1>   0.6300 
  3 N        1.2400     2.0160    -0.1500 N.am  1 <1>  -0.5470 
  4 C       -1.0100     2.6930     0.5840 C.3   1 <1>  -0.1000 
  5 C        2.4700     1.3770    -0.3280 C.ar  1 <1>   0.1170 
  6 C       -2.2860     2.1310     0.0490 C.3   1 <1>  -0.1520 
  7 C       -1.5420     3.1400    -0.7630 C.3   1 <1>  -0.2000 
  8 C        2.7950     0.1520     0.2480 C.ar  1 <1>  -0.1500 
  9 C        3.4270     1.9830    -1.1320 C.ar  1 <1>  -0.1500 
 10 C       -3.7770     2.3460     0.3950 C.3   1 <1>   0.0760 
 11 C       -2.6580     0.7510    -0.5400 C.3   1 <1>   0.0760 
 12 C        4.0260    -0.4360     0.0320 C.ar  1 <1>  -0.1500 
 13 C        4.6570     1.3930    -1.3470 C.ar  1 <1>  -0.1500 
 14 C       -4.0880     1.3280    -0.7390 C.3   1 <1>   0.0000 
 15 C        5.0000     0.1660    -0.7730 C.ar  1 <1>   0.0860 
 16 C        6.3010    -0.4200    -1.0210 C.2   1 <1>   0.4230 
 17 O        7.1270     0.0900    -1.7340 O.2   1 <1>  -0.5700 
 18 C        6.6890    -1.7360    -0.3750 C.3   1 <1>  -0.1790 
 19 H        1.0740     2.8050    -0.7710 H     1 <1>   0.3700 
 20 H       -1.0990     3.3650     1.4180 H     1 <1>   0.1000 
 21 H       -1.0730     2.8040    -1.6720 H     1 <1>   0.1000 
 22 H       -1.9420     4.1360    -0.8500 H     1 <1>   0.1000 
 23 H        2.0810    -0.3550     0.8700 H     1 <1>   0.1500 
 24 H        3.2120     2.9290    -1.5940 H     1 <1>   0.1500 
 25 H       -4.1380     3.3420     0.2090 H     1 <1>   0.0000 
 26 H       -4.0300     1.9680     1.3700 H     1 <1>   0.0000 
 27 H       -2.6260    -0.0320     0.1980 H     1 <1>   0.0000 
 28 H       -2.1460     0.5050    -1.4540 H     1 <1>   0.0000 
 29 H        4.2220    -1.3810     0.5040 H     1 <1>   0.1500 
 30 H        5.3780     1.8890    -1.9740 H     1 <1>   0.1500 
 31 H       -4.2130     1.8020    -1.6980 H     1 <1>   0.0000 
 32 H       -4.8740     0.6350    -0.4970 H     1 <1>   0.0000 
 33 H        6.0280    -2.5160    -0.7030 H     1 <1>   0.0800 
 34 H        6.6470    -1.6480     0.6950 H     1 <1>   0.0800 
 35 H        7.6930    -1.9990    -0.6570 H     1 <1>   0.0800 
@<TRIPOS>BOND
  1   1   2  2   
  2   2   3  am  
  3   2   4  1   
  4   3   5  1   
  5   3  19  1   
  6   4   6  1   
  7   4   7  1   
  8   4  20  1   
  9   5   8  ar  
 10   5   9  ar  
 11   6   7  1   
 12   6  10  1   
 13   6  11  1   
 14   7  21  1   
 15   7  22  1   
 16   8  12  ar  
 17   8  23  1   
 18   9  13  ar  
 19   9  24  1   
 20  10  14  1   
 21  10  25  1   
 22  10  26  1   
 23  11  14  1   
 24  11  27  1   
 25  11  28  1   
 26  12  15  ar  
 27  12  29  1   
 28  13  15  ar  
 29  13  30  1   
 30  14  31  1   
 31  14  32  1   
 32  15  16  1   
 33  16  17  2   
 34  16  18  1   
 35  18  33  1   
 36  18  34  1   
 37  18  35  1   
@<TRIPOS>SUBSTRUCTURE
  1 ****   5 GROUP 4 **** **** 0

# MOE 2024.06 (io_trps.svl 2023.06)
