@<TRIPOS>MOLECULE
NONAME
48 49 1 0 0 
SMALL
USER_CHARGES


@<TRIPOS>ATOM
  1 F       -2.4400    -0.9320    -3.5930 F     1 <1>  -0.1900 
  2 C       -3.0580    -1.6090    -2.6630 C.ar  1 <1>   0.1900 
  3 C       -3.2200    -1.0420    -1.4180 C.ar  1 <1>  -0.1500 
  4 C       -3.5260    -2.8720    -2.9530 C.ar  1 <1>  -0.1500 
  5 C       -3.8810    -1.7630    -0.4380 C.ar  1 <1>  -0.1500 
  6 C       -4.1850    -3.5790    -1.9620 C.ar  1 <1>  -0.1500 
  7 C       -4.3920    -3.0410    -0.6890 C.ar  1 <1>  -0.1430 
  8 C       -5.1410    -3.8600     0.4030 C.3   1 <1>   0.1430 
  9 C       -4.1520    -4.8810     1.0440 C.3   1 <1>   0.1810 
 10 C       -6.3840    -4.6060    -0.1650 C.3   1 <1>  -0.1600 
 11 C       -5.7170    -2.9740     1.5420 C.3   1 <1>  -0.1600 
 12 C       -2.9580    -4.2260     1.6440 C.1   1 <1>   0.3570 
 13 C       -3.7070    -5.9940     0.1140 C.2   1 <1>   0.6590 
 14 C       -7.6130    -3.7250    -0.5050 C.3   1 <1>   0.2800 
 15 C       -6.8490    -2.0720     1.0500 C.3   1 <1>   0.1200 
 16 N       -2.0990    -3.7030     2.1760 N.1   1 <1>  -0.5570 
 17 O       -2.7360    -5.9250    -0.5930 O.2   1 <1>  -0.5700 
 18 O       -4.4750    -7.0800     0.1330 O.3   1 <1>  -0.4300 
 19 O       -7.8830    -2.8700     0.5640 O.3   1 <1>  -0.5600 
 20 C       -8.8790    -4.5950    -0.6970 C.3   1 <1>  -0.1600 
 21 C       -7.4400    -2.8830    -1.7810 C.3   1 <1>  -0.2400 
 22 C       -4.1930    -8.2350    -0.6310 C.3   1 <1>   0.1200 
 23 C       -9.3810    -5.3700     0.5370 C.3   1 <1>  -0.2400 
 24 C       -3.2230    -9.1170     0.1510 C.3   1 <1>  -0.2400 
 25 H       -2.8320    -0.0600    -1.2210 H     1 <1>   0.1500 
 26 H       -3.3720    -3.2910    -3.9300 H     1 <1>   0.1500 
 27 H       -3.9710    -1.2910     0.5200 H     1 <1>   0.1500 
 28 H       -4.5200    -4.5660    -2.2180 H     1 <1>   0.1500 
 29 H       -4.6550    -5.3630     1.8600 H     1 <1>   0.0800 
 30 H       -6.6950    -5.3060     0.5860 H     1 <1>   0.0800 
 31 H       -6.1440    -5.1990    -1.0240 H     1 <1>   0.0800 
 32 H       -4.9620    -2.3760     2.0150 H     1 <1>   0.0800 
 33 H       -6.1300    -3.5950     2.3180 H     1 <1>   0.0800 
 34 H       -6.5280    -1.3930     0.2810 H     1 <1>   0.0800 
 35 H       -7.2480    -1.4970     1.8670 H     1 <1>   0.0800 
 36 H       -8.7050    -5.2960    -1.4940 H     1 <1>   0.0800 
 37 H       -9.6800    -3.9520    -1.0200 H     1 <1>   0.0800 
 38 H       -6.6120    -2.2060    -1.7220 H     1 <1>   0.0800 
 39 H       -8.3280    -2.3060    -1.9650 H     1 <1>   0.0800 
 40 H       -7.2780    -3.5270    -2.6250 H     1 <1>   0.0800 
 41 H       -3.7800    -7.9430    -1.5820 H     1 <1>   0.0800 
 42 H       -5.1220    -8.7530    -0.7960 H     1 <1>   0.0800 
 43 H       -8.7030    -6.1530     0.8180 H     1 <1>   0.0800 
 44 H      -10.3330    -5.8210     0.3160 H     1 <1>   0.0800 
 45 H       -9.5140    -4.7030     1.3720 H     1 <1>   0.0800 
 46 H       -2.2880    -8.6050     0.3000 H     1 <1>   0.0800 
 47 H       -3.0280   -10.0170    -0.4020 H     1 <1>   0.0800 
 48 H       -3.6440    -9.3860     1.1030 H     1 <1>   0.0800 
@<TRIPOS>BOND
  1   1   2  1   
  2   2   3  ar  
  3   2   4  ar  
  4   3   5  ar  
  5   3  25  1   
  6   4   6  ar  
  7   4  26  1   
  8   5   7  ar  
  9   5  27  1   
 10   6   7  ar  
 11   6  28  1   
 12   7   8  1   
 13   8   9  1   
 14   8  10  1   
 15   8  11  1   
 16   9  12  1   
 17   9  13  1   
 18   9  29  1   
 19  10  14  1   
 20  10  30  1   
 21  10  31  1   
 22  11  15  1   
 23  11  32  1   
 24  11  33  1   
 25  12  16  3   
 26  13  17  2   
 27  13  18  1   
 28  14  19  1   
 29  14  20  1   
 30  14  21  1   
 31  15  19  1   
 32  15  34  1   
 33  15  35  1   
 34  18  22  1   
 35  20  23  1   
 36  20  36  1   
 37  20  37  1   
 38  21  38  1   
 39  21  39  1   
 40  21  40  1   
 41  22  24  1   
 42  22  41  1   
 43  22  42  1   
 44  23  43  1   
 45  23  44  1   
 46  23  45  1   
 47  24  46  1   
 48  24  47  1   
 49  24  48  1   
@<TRIPOS>SUBSTRUCTURE
  1 ****   8 GROUP 4 **** **** 0

# MOE 2024.06 (io_trps.svl 2023.06)
