@<TRIPOS>MOLECULE
NONAME
38 39 1 0 0 
SMALL
USER_CHARGES


@<TRIPOS>ATOM
  1 BR      -5.2120    -0.1670     1.0440 Br    1 <1>  -0.1110 
  2 C       -3.6900     0.8620     0.4670 C.ar  1 <1>   0.1110 
  3 C       -2.9250     1.5110     1.4180 C.ar  1 <1>  -0.1500 
  4 C       -3.4010     0.9250    -0.8830 C.ar  1 <1>  -0.1500 
  5 C       -1.8310     2.2510     1.0020 C.ar  1 <1>  -0.1500 
  6 C       -2.3050     1.6670    -1.2890 C.ar  1 <1>  -0.1500 
  7 C       -1.5180     2.3300    -0.3560 C.ar  1 <1>   0.0830 
  8 O       -0.4650     3.0320    -0.8460 O.3   1 <1>  -0.3630 
  9 C        0.4000     3.7440     0.0070 C.3   1 <1>   0.1200 
 10 C        1.4670     4.4200    -0.8540 C.3   1 <1>  -0.1600 
 11 C        2.4490     5.2220     0.0110 C.3   1 <1>  -0.1600 
 12 C        3.5240     5.9060    -0.8400 C.3   1 <1>   0.0210 
 13 C        4.4690     6.6960     0.0480 C.2   1 <1>  -0.1810 
 14 C        4.3280     8.0270     0.4390 C.2   1 <1>   0.1080 
 15 C        5.6160     6.2860     0.6330 C.2   1 <1>  -0.3320 
 16 N        5.2980     8.4210     1.2010 N.2   1 <1>  -0.7070 
 17 C        3.1980     8.9510     0.0470 C.3   1 <1>  -0.0590 
 18 N        6.0950     7.3450     1.3190 N.pl3 1 <1>   0.3000 
 19 C        6.3140     4.9370     0.5990 C.3   1 <1>  -0.0600 
 20 H       -3.1840     1.4370     2.4590 H     1 <1>   0.1500 
 21 H       -4.0180     0.4070    -1.5960 H     1 <1>   0.1500 
 22 H       -1.2390     2.7540     1.7430 H     1 <1>   0.1500 
 23 H       -2.0510     1.7370    -2.3320 H     1 <1>   0.1500 
 24 H        0.8500     3.0480     0.6930 H     1 <1>   0.0800 
 25 H       -0.1770     4.4780     0.5430 H     1 <1>   0.0800 
 26 H        0.9840     5.0790    -1.5550 H     1 <1>   0.0800 
 27 H        2.0040     3.6650    -1.4020 H     1 <1>   0.0800 
 28 H        2.9310     4.5670     0.7170 H     1 <1>   0.0800 
 29 H        1.9130     5.9710     0.5690 H     1 <1>   0.0800 
 30 H        3.0670     6.5670    -1.5560 H     1 <1>   0.0800 
 31 H        4.0810     5.1680    -1.3880 H     1 <1>   0.0800 
 32 H        2.2540     8.4560     0.1730 H     1 <1>   0.0800 
 33 H        3.3140     9.2470    -0.9780 H     1 <1>   0.0800 
 34 H        3.2150     9.8290     0.6670 H     1 <1>   0.0800 
 35 H        6.9560     7.3660     1.8760 H     1 <1>   0.2700 
 36 H        5.7400     4.2270     0.0330 H     1 <1>   0.0800 
 37 H        6.4330     4.5560     1.5980 H     1 <1>   0.0800 
 38 H        7.2840     5.0340     0.1440 H     1 <1>   0.0800 
@<TRIPOS>BOND
  1   1   2  1   
  2   2   3  ar  
  3   2   4  ar  
  4   3   5  ar  
  5   3  20  1   
  6   4   6  ar  
  7   4  21  1   
  8   5   7  ar  
  9   5  22  1   
 10   6   7  ar  
 11   6  23  1   
 12   7   8  1   
 13   8   9  1   
 14   9  10  1   
 15   9  24  1   
 16   9  25  1   
 17  10  11  1   
 18  10  26  1   
 19  10  27  1   
 20  11  12  1   
 21  11  28  1   
 22  11  29  1   
 23  12  13  1   
 24  12  30  1   
 25  12  31  1   
 26  13  14  1   
 27  13  15  2   
 28  14  16  2   
 29  14  17  1   
 30  15  18  1   
 31  15  19  1   
 32  16  18  1   
 33  17  32  1   
 34  17  33  1   
 35  17  34  1   
 36  18  35  1   
 37  19  36  1   
 38  19  37  1   
 39  19  38  1   
@<TRIPOS>SUBSTRUCTURE
  1 ****   9 GROUP 4 **** **** 0

# MOE 2024.06 (io_trps.svl 2023.06)
