@<TRIPOS>MOLECULE
NONAME
30 30 1 0 0 
SMALL
USER_CHARGES


@<TRIPOS>ATOM
  1 O        0.5390    -0.6280     1.3050 O.2   1 <1>  -0.5700 
  2 C        0.4560    -1.6580     0.6760 C.2   1 <1>   0.4950 
  3 C        1.5350    -2.2060    -0.0930 C.2   1 <1>   0.0290 
  4 C       -0.8990    -2.3450     0.7470 C.3   1 <1>  -0.0990 
  5 C        1.2900    -3.3930    -0.8670 C.2   1 <1>   0.4950 
  6 C        2.7610    -1.5740    -0.0640 C.2   1 <1>  -0.0500 
  7 C       -0.8000    -3.8500     0.5050 C.3   1 <1>  -0.1600 
  8 O        2.0880    -3.9100    -1.6170 O.2   1 <1>  -0.5700 
  9 C       -0.0560    -4.1020    -0.8060 C.3   1 <1>  -0.0990 
 10 N        3.8850    -1.9530    -0.7160 N.pl3 1 <1>  -0.8690 
 11 C        5.2000    -1.2810    -0.6570 C.3   1 <1>   0.2090 
 12 C        6.2410    -2.2480    -0.1020 C.3   1 <1>  -0.1600 
 13 C        7.6250    -1.5780    -0.0150 C.3   1 <1>  -0.2660 
 14 C        8.6840    -2.5140     0.5170 C.2   1 <1>   0.9060 
 15 O        9.2800    -3.2400    -0.2830 O.co2 1 <1>  -0.9000 
 16 O        8.9220    -2.5080     1.7270 O.co2 1 <1>  -0.9000 
 17 H       -1.3290    -2.1700     1.7180 H     1 <1>   0.0800 
 18 H       -1.5460    -1.8940     0.0170 H     1 <1>   0.0800 
 19 H        2.8590    -0.6840     0.5420 H     1 <1>   0.1500 
 20 H       -1.7840    -4.2850     0.4630 H     1 <1>   0.0800 
 21 H       -0.2630    -4.3120     1.3180 H     1 <1>   0.0800 
 22 H       -0.6500    -3.7670    -1.6380 H     1 <1>   0.0800 
 23 H        0.1020    -5.1600    -0.9250 H     1 <1>   0.0800 
 24 H        3.8670    -2.8090    -1.3010 H     1 <1>   0.4000 
 25 H        5.4820    -0.9650    -1.6460 H     1 <1>   0.0800 
 26 H        5.1360    -0.4120    -0.0230 H     1 <1>   0.0800 
 27 H        5.9460    -2.5710     0.8810 H     1 <1>   0.0800 
 28 H        6.3120    -3.1120    -0.7400 H     1 <1>   0.0800 
 29 H        7.5850    -0.7270     0.6380 H     1 <1>   0.0800 
 30 H        7.9410    -1.2510    -0.9870 H     1 <1>   0.0800 
@<TRIPOS>BOND
  1   1   2  2   
  2   2   3  1   
  3   2   4  1   
  4   3   5  1   
  5   3   6  2   
  6   4   7  1   
  7   4  17  1   
  8   4  18  1   
  9   5   8  2   
 10   5   9  1   
 11   6  10  1   
 12   6  19  1   
 13   7   9  1   
 14   7  20  1   
 15   7  21  1   
 16   9  22  1   
 17   9  23  1   
 18  10  11  1   
 19  10  24  1   
 20  11  12  1   
 21  11  25  1   
 22  11  26  1   
 23  12  13  1   
 24  12  27  1   
 25  12  28  1   
 26  13  14  1   
 27  13  29  1   
 28  13  30  1   
 29  14  15  ar  
 30  14  16  ar  
@<TRIPOS>SUBSTRUCTURE
  1 ****  10 GROUP 4 **** **** 0

# MOE 2024.06 (io_trps.svl 2023.06)
