@<TRIPOS>MOLECULE
NONAME
45 47 1 0 0 
SMALL
USER_CHARGES


@<TRIPOS>ATOM
  1 O       -0.1360    -0.5570     1.1920 O.2   1 <1>  -0.5700 
  2 C        0.4230    -1.3360     0.4380 C.2   1 <1>   0.5440 
  3 N        1.6270    -0.9710    -0.0940 N.am  1 <1>  -0.7300 
  4 C       -0.1790    -2.6080     0.0770 C.ar  1 <1>   0.0860 
  5 C        2.3300     0.2970     0.1630 C.3   1 <1>   0.2200 
  6 C       -1.5670    -2.7380    -0.1200 C.ar  1 <1>   0.1170 
  7 C        0.6220    -3.7390    -0.0980 C.ar  1 <1>  -0.1500 
  8 C        2.1250     1.2280    -1.0360 C.3   1 <1>  -0.1600 
  9 C        3.8160     0.0030     0.3930 C.3   1 <1>  -0.1600 
 10 N       -2.3910    -1.6230     0.0830 N.am  1 <1>  -0.5470 
 11 C       -2.0910    -3.9730    -0.4920 C.ar  1 <1>  -0.1500 
 12 C        0.0870    -4.9560    -0.4700 C.ar  1 <1>  -0.1500 
 13 C        2.9220     2.5300    -0.8690 C.3   1 <1>  -0.1600 
 14 C        4.6170     1.3020     0.5630 C.3   1 <1>  -0.1600 
 15 C       -3.6150    -1.2390    -0.4090 C.2   1 <1>   0.5440 
 16 C       -1.2760    -5.0730    -0.6700 C.ar  1 <1>  -0.1500 
 17 C        4.4110     2.2420    -0.6340 C.3   1 <1>  -0.1600 
 18 O       -4.2270    -1.9790    -1.1530 O.2   1 <1>  -0.5700 
 19 C       -4.1640     0.0570    -0.0470 C.ar  1 <1>   0.0860 
 20 C       -5.4720     0.4090    -0.3540 C.ar  1 <1>  -0.1500 
 21 C       -3.4470     1.0460     0.6210 C.ar  1 <1>  -0.1500 
 22 C       -5.9730     1.6460     0.0000 C.ar  1 <1>   0.1600 
 23 C       -4.0400     2.2550     0.9320 C.ar  1 <1>   0.1600 
 24 N       -5.2870     2.5790     0.6370 N.ar  1 <1>  -0.6200 
 25 H        2.0360    -1.5420    -0.8330 H     1 <1>   0.3700 
 26 H        1.9260     0.7650     1.0460 H     1 <1>   0.0800 
 27 H        1.6830    -3.6670     0.0660 H     1 <1>   0.1500 
 28 H        1.0790     1.4610    -1.1280 H     1 <1>   0.0800 
 29 H        2.4460     0.7340    -1.9360 H     1 <1>   0.0800 
 30 H        4.2110    -0.5420    -0.4460 H     1 <1>   0.0800 
 31 H        3.9270    -0.6000     1.2770 H     1 <1>   0.0800 
 32 H       -1.9210    -0.9080     0.6540 H     1 <1>   0.3700 
 33 H       -3.1500    -4.0820    -0.6410 H     1 <1>   0.1500 
 34 H        0.7230    -5.8150    -0.6020 H     1 <1>   0.1500 
 35 H        2.5290     3.0820    -0.0320 H     1 <1>   0.0800 
 36 H        2.8060     3.1390    -1.7490 H     1 <1>   0.0800 
 37 H        5.6630     1.0710     0.6640 H     1 <1>   0.0800 
 38 H        4.3020     1.8000     1.4640 H     1 <1>   0.0800 
 39 H       -1.7020    -6.0180    -0.9600 H     1 <1>   0.1500 
 40 H        4.9330     3.1670    -0.4590 H     1 <1>   0.0800 
 41 H        4.8310     1.7910    -1.5170 H     1 <1>   0.0800 
 42 H       -6.1020    -0.2910    -0.8740 H     1 <1>   0.1500 
 43 H       -2.4220     0.8940     0.9060 H     1 <1>   0.1500 
 44 H       -6.9920     1.8830    -0.2550 H     1 <1>   0.1500 
 45 H       -3.4570     2.9980     1.4500 H     1 <1>   0.1500 
@<TRIPOS>BOND
  1   1   2  2   
  2   2   3  am  
  3   2   4  1   
  4   3   5  1   
  5   3  25  1   
  6   4   6  ar  
  7   4   7  ar  
  8   5   8  1   
  9   5   9  1   
 10   5  26  1   
 11   6  10  1   
 12   6  11  ar  
 13   7  12  ar  
 14   7  27  1   
 15   8  13  1   
 16   8  28  1   
 17   8  29  1   
 18   9  14  1   
 19   9  30  1   
 20   9  31  1   
 21  10  15  am  
 22  10  32  1   
 23  11  16  ar  
 24  11  33  1   
 25  12  16  ar  
 26  12  34  1   
 27  13  17  1   
 28  13  35  1   
 29  13  36  1   
 30  14  17  1   
 31  14  37  1   
 32  14  38  1   
 33  15  18  2   
 34  15  19  1   
 35  16  39  1   
 36  17  40  1   
 37  17  41  1   
 38  19  20  ar  
 39  19  21  ar  
 40  20  22  ar  
 41  20  42  1   
 42  21  23  ar  
 43  21  43  1   
 44  22  24  ar  
 45  22  44  1   
 46  23  24  ar  
 47  23  45  1   
@<TRIPOS>SUBSTRUCTURE
  1 ****   1 GROUP 4 **** **** 0

# MOE 2024.06 (io_trps.svl 2023.06)
