@<TRIPOS>MOLECULE
NONAME
38 39 1 0 0 
SMALL
USER_CHARGES


@<TRIPOS>ATOM
  1 O        2.5130    -2.2420     0.9790 O.2   1 <1>  -0.5700 
  2 C        3.1480    -1.9750    -0.0290 C.2   1 <1>   0.6340 
  3 O        2.7730    -2.5180    -1.2100 O.3   1 <1>  -0.0870 
  4 C        4.2820    -1.0720    -0.0360 C.ar  1 <1>   0.0860 
  5 N        1.8870    -3.5130    -1.3400 N.2   1 <1>  -0.5130 
  6 C        4.7100    -0.4510     1.1420 C.ar  1 <1>  -0.1500 
  7 C        4.9950    -0.7750    -1.2030 C.ar  1 <1>  -0.1500 
  8 C        0.6570    -3.3340    -1.1270 C.2   1 <1>   0.3280 
  9 C        5.7810     0.4220     1.1600 C.ar  1 <1>  -0.1500 
 10 C        6.0670     0.0970    -1.1920 C.ar  1 <1>  -0.1500 
 11 C       -0.3020    -4.4980    -1.1490 C.3   1 <1>  -0.0990 
 12 C       -0.0380    -2.0400    -0.7450 C.3   1 <1>  -0.0990 
 13 C        6.4700     0.7050    -0.0150 C.ar  1 <1>   0.0820 
 14 C       -0.8570    -4.6620     0.2630 C.3   1 <1>   0.3430 
 15 C       -0.5910    -2.2140     0.6670 C.3   1 <1>   0.3430 
 16 O        7.5240     1.5460    -0.0880 O.3   1 <1>  -0.3630 
 17 N       -1.5170    -3.3950     0.7260 N.4   1 <1>  -0.9590 
 18 C        8.0240     2.2160     1.0480 C.3   1 <1>   0.0400 
 19 C       -2.0340    -3.5650     2.1180 C.3   1 <1>   0.2630 
 20 H        4.1920    -0.6590     2.0630 H     1 <1>   0.1500 
 21 H        4.7150    -1.2290    -2.1380 H     1 <1>   0.1500 
 22 H        6.0680     0.8720     2.0920 H     1 <1>   0.1500 
 23 H        6.6040     0.3150    -2.0980 H     1 <1>   0.1500 
 24 H       -1.0910    -4.3310    -1.8590 H     1 <1>   0.0800 
 25 H        0.2200    -5.3960    -1.4330 H     1 <1>   0.0800 
 26 H        0.6390    -1.2070    -0.7640 H     1 <1>   0.0800 
 27 H       -0.8320    -1.8250    -1.4370 H     1 <1>   0.0800 
 28 H       -0.0430    -4.9070     0.9280 H     1 <1>   0.0800 
 29 H       -1.5630    -5.4770     0.2800 H     1 <1>   0.0800 
 30 H       -1.1120    -1.3190     0.9630 H     1 <1>   0.0800 
 31 H        0.2310    -2.3660     1.3490 H     1 <1>   0.0800 
 32 H       -2.3180    -3.2050     0.1050 H     1 <1>   0.4500 
 33 H        8.8570     2.8200     0.7400 H     1 <1>   0.0800 
 34 H        8.3480     1.4860     1.7690 H     1 <1>   0.0800 
 35 H        7.2480     2.8410     1.4540 H     1 <1>   0.0800 
 36 H       -1.2200    -3.7610     2.7980 H     1 <1>   0.0800 
 37 H       -2.7280    -4.3890     2.1640 H     1 <1>   0.0800 
 38 H       -2.5430    -2.6710     2.4410 H     1 <1>   0.0800 
@<TRIPOS>BOND
  1   1   2  2   
  2   2   3  1   
  3   2   4  1   
  4   3   5  1   
  5   4   6  ar  
  6   4   7  ar  
  7   5   8  2   
  8   6   9  ar  
  9   6  20  1   
 10   7  10  ar  
 11   7  21  1   
 12   8  11  1   
 13   8  12  1   
 14   9  13  ar  
 15   9  22  1   
 16  10  13  ar  
 17  10  23  1   
 18  11  14  1   
 19  11  24  1   
 20  11  25  1   
 21  12  15  1   
 22  12  26  1   
 23  12  27  1   
 24  13  16  1   
 25  14  17  1   
 26  14  28  1   
 27  14  29  1   
 28  15  17  1   
 29  15  30  1   
 30  15  31  1   
 31  16  18  1   
 32  17  19  1   
 33  17  32  1   
 34  18  33  1   
 35  18  34  1   
 36  18  35  1   
 37  19  36  1   
 38  19  37  1   
 39  19  38  1   
@<TRIPOS>SUBSTRUCTURE
  1 ****   2 GROUP 4 **** **** 0

# MOE 2024.06 (io_trps.svl 2023.06)
