@<TRIPOS>MOLECULE
NONAME
39 41 1 0 0 
SMALL
USER_CHARGES


@<TRIPOS>ATOM
  1 CL      -2.2180     0.9990    -1.7530 Cl    1 <1>  -0.1770 
  2 C       -1.1300     2.1430    -1.0030 C.ar  1 <1>   0.1770 
  3 C       -1.3790     2.5820     0.2890 C.ar  1 <1>  -0.1440 
  4 C       -0.0420     2.5960    -1.7240 C.ar  1 <1>  -0.1500 
  5 C       -0.5050     3.4960     0.8620 C.ar  1 <1>  -0.1500 
  6 C       -2.5810     2.0700     1.0570 C.3   1 <1>   0.4870 
  7 C        0.8200     3.5100    -1.1450 C.ar  1 <1>  -0.1500 
  8 C        0.5880     3.9570     0.1450 C.ar  1 <1>  -0.1500 
  9 N       -3.8250     2.5930     0.4340 N.4   1 <1>  -0.9590 
 10 C       -3.8890     4.1010     0.4490 C.3   1 <1>   0.3430 
 11 C       -5.0600     1.9910     1.0530 C.3   1 <1>   0.3430 
 12 C       -5.1820     4.6420    -0.1930 C.3   1 <1>   0.2090 
 13 C       -6.3570     2.5230     0.4100 C.3   1 <1>   0.2090 
 14 N       -6.3950     4.0160     0.4110 N.pl3 1 <1>  -0.8380 
 15 C       -7.5810     4.5450    -0.0490 C.ar  1 <1>   0.4100 
 16 N       -7.8760     4.2990    -1.3180 N.ar  1 <1>  -0.6200 
 17 C       -8.3890     5.2890     0.8040 C.ar  1 <1>  -0.1500 
 18 C       -9.0170     4.8140    -1.7490 C.ar  1 <1>   0.1600 
 19 C       -9.5710     5.8180     0.3430 C.ar  1 <1>  -0.1500 
 20 C       -9.8860     5.5660    -0.9780 C.ar  1 <1>  -0.1500 
 21 H        0.1290     2.2390    -2.7250 H     1 <1>   0.1500 
 22 H       -0.6550     3.8580     1.8670 H     1 <1>   0.1500 
 23 H       -2.5200     2.3850     2.0860 H     1 <1>   0.0800 
 24 H       -2.5810     0.9910     1.0310 H     1 <1>   0.0800 
 25 H        1.6740     3.8710    -1.6950 H     1 <1>   0.1500 
 26 H        1.2680     4.6650     0.5920 H     1 <1>   0.1500 
 27 H       -3.8020     2.3040    -0.5550 H     1 <1>   0.4500 
 28 H       -3.0420     4.5110    -0.0780 H     1 <1>   0.0800 
 29 H       -3.8480     4.4550     1.4660 H     1 <1>   0.0800 
 30 H       -5.0890     2.2260     2.1040 H     1 <1>   0.0800 
 31 H       -5.0370     0.9190     0.9520 H     1 <1>   0.0800 
 32 H       -5.1680     4.4510    -1.2530 H     1 <1>   0.0800 
 33 H       -5.2300     5.7090    -0.0550 H     1 <1>   0.0800 
 34 H       -7.2060     2.1500     0.9570 H     1 <1>   0.0800 
 35 H       -6.4360     2.1600    -0.6010 H     1 <1>   0.0800 
 36 H       -8.0750     5.4410     1.8190 H     1 <1>   0.1500 
 37 H       -9.2770     4.6260    -2.7770 H     1 <1>   0.1500 
 38 H      -10.2200     6.3990     0.9760 H     1 <1>   0.1500 
 39 H      -10.7960     5.9490    -1.4040 H     1 <1>   0.1500 
@<TRIPOS>BOND
  1   1   2  1   
  2   2   3  ar  
  3   2   4  ar  
  4   3   5  ar  
  5   3   6  1   
  6   4   7  ar  
  7   4  21  1   
  8   5   8  ar  
  9   5  22  1   
 10   6   9  1   
 11   6  23  1   
 12   6  24  1   
 13   7   8  ar  
 14   7  25  1   
 15   8  26  1   
 16   9  10  1   
 17   9  11  1   
 18   9  27  1   
 19  10  12  1   
 20  10  28  1   
 21  10  29  1   
 22  11  13  1   
 23  11  30  1   
 24  11  31  1   
 25  12  14  1   
 26  12  32  1   
 27  12  33  1   
 28  13  14  1   
 29  13  34  1   
 30  13  35  1   
 31  14  15  1   
 32  15  16  ar  
 33  15  17  ar  
 34  16  18  ar  
 35  17  19  ar  
 36  17  36  1   
 37  18  20  ar  
 38  18  37  1   
 39  19  20  ar  
 40  19  38  1   
 41  20  39  1   
@<TRIPOS>SUBSTRUCTURE
  1 ****  10 GROUP 4 **** **** 0

# MOE 2024.06 (io_trps.svl 2023.06)
