@<TRIPOS>MOLECULE
NONAME
30 32 1 0 0 
SMALL
USER_CHARGES


@<TRIPOS>ATOM
  1 O        0.1180    -0.3820    -0.2270 O.2   1 <1>  -0.5700 
  2 C        0.4700    -1.5430    -0.0640 C.2   1 <1>   0.6900 
  3 N       -0.3740    -2.6350     0.0290 N.am  1 <1>  -0.2370 
  4 N        1.7650    -1.9460     0.0040 N.am  1 <1>  -0.3600 
  5 C       -1.7860    -2.6210     0.0350 C.ar  1 <1>   0.1170 
  6 C        0.4480    -3.7450     0.1140 C.2   1 <1>   0.6900 
  7 N        1.7510    -3.3680     0.0350 N.am  1 <1>  -0.3600 
  8 C        2.9520    -1.2770    -0.5620 C.3   1 <1>   0.1400 
  9 C       -2.5140    -3.5730    -0.6730 C.ar  1 <1>  -0.1500 
 10 C       -2.4880    -1.6540     0.7500 C.ar  1 <1>  -0.1500 
 11 O        0.0750    -4.8990     0.2800 O.2   1 <1>  -0.5700 
 12 C        2.9300    -4.0610     0.5890 C.3   1 <1>   0.1400 
 13 C        4.2150    -1.9100     0.0510 C.3   1 <1>  -0.1600 
 14 C       -3.8980    -3.5610    -0.6670 C.ar  1 <1>  -0.1500 
 15 C       -3.8720    -1.6380     0.7580 C.ar  1 <1>  -0.1500 
 16 C        4.1990    -3.4530    -0.0370 C.3   1 <1>  -0.1600 
 17 C       -4.5790    -2.5930     0.0480 C.ar  1 <1>  -0.1500 
 18 H        2.9090    -0.2230    -0.3460 H     1 <1>   0.0800 
 19 H        2.9500    -1.4130    -1.6300 H     1 <1>   0.0800 
 20 H       -1.9970    -4.3330    -1.2310 H     1 <1>   0.1500 
 21 H       -1.9500    -0.9050     1.3040 H     1 <1>   0.1500 
 22 H        2.8630    -5.1130     0.3730 H     1 <1>   0.0800 
 23 H        2.9410    -3.9250     1.6560 H     1 <1>   0.0800 
 24 H        4.2820    -1.6110     1.0830 H     1 <1>   0.0800 
 25 H        5.0840    -1.5260    -0.4540 H     1 <1>   0.0800 
 26 H       -4.4440    -4.3070    -1.2190 H     1 <1>   0.1500 
 27 H       -4.3970    -0.8820     1.3140 H     1 <1>   0.1500 
 28 H        4.2490    -3.7530    -1.0690 H     1 <1>   0.0800 
 29 H        5.0650    -3.8540     0.4600 H     1 <1>   0.0800 
 30 H       -5.6550    -2.5820     0.0530 H     1 <1>   0.1500 
@<TRIPOS>BOND
  1   1   2  2   
  2   2   3  am  
  3   2   4  am  
  4   3   5  1   
  5   3   6  am  
  6   4   7  1   
  7   4   8  1   
  8   5   9  ar  
  9   5  10  ar  
 10   6   7  am  
 11   6  11  2   
 12   7  12  1   
 13   8  13  1   
 14   8  18  1   
 15   8  19  1   
 16   9  14  ar  
 17   9  20  1   
 18  10  15  ar  
 19  10  21  1   
 20  12  16  1   
 21  12  22  1   
 22  12  23  1   
 23  13  16  1   
 24  13  24  1   
 25  13  25  1   
 26  14  17  ar  
 27  14  26  1   
 28  15  17  ar  
 29  15  27  1   
 30  16  28  1   
 31  16  29  1   
 32  17  30  1   
@<TRIPOS>SUBSTRUCTURE
  1 ****   3 GROUP 4 **** **** 0

# MOE 2024.06 (io_trps.svl 2023.06)
