@<TRIPOS>MOLECULE
NONAME
38 40 1 0 0 
SMALL
USER_CHARGES


@<TRIPOS>ATOM
  1 F        1.2790     0.4710     0.4070 F     1 <1>  -0.3400 
  2 C        1.7710     1.6920     0.5990 C.3   1 <1>   1.1640 
  3 F        2.8080     1.7950    -0.2240 F     1 <1>  -0.3400 
  4 F        2.2650     1.6940     1.8300 F     1 <1>  -0.3400 
  5 C        0.7140     2.7870     0.3920 C.ar  1 <1>  -0.1440 
  6 C        1.0890     4.0660    -0.0010 C.ar  1 <1>  -0.1500 
  7 C       -0.6380     2.5270     0.6040 C.ar  1 <1>  -0.1500 
  8 C        0.1520     5.0730    -0.1890 C.ar  1 <1>   0.1170 
  9 C       -1.5830     3.5220     0.4210 C.ar  1 <1>  -0.1500 
 10 N        0.6110     6.3270    -0.5980 N.am  1 <1>  -0.5470 
 11 C       -1.1900     4.7860     0.0260 C.ar  1 <1>  -0.1500 
 12 C        0.1460     7.5870    -0.3520 C.2   1 <1>   0.5690 
 13 O       -0.9010     7.7820     0.2240 O.2   1 <1>  -0.5700 
 14 C        0.9270     8.8030    -0.8930 C.3   1 <1>  -0.0190 
 15 C        2.6110     8.8460    -0.7180 C.3   1 <1>  -0.1860 
 16 C        0.3480    10.2030    -0.2540 C.3   1 <1>  -0.0800 
 17 C        3.2590     7.5240    -0.3310 C.2   1 <1>   0.9060 
 18 C        2.9820    10.1510     0.2090 C.3   1 <1>  -0.0800 
 19 C        1.6660    10.1820    -0.0410 C.3   1 <1>  -0.1600 
 20 C        0.7300    11.5170     0.6390 C.3   1 <1>  -0.1600 
 21 O        3.2550     6.6320    -1.1880 O.co2 1 <1>  -0.9000 
 22 O        3.6990     7.3250     0.8020 O.co2 1 <1>  -0.9000 
 23 C        2.3900    11.5460     0.8180 C.3   1 <1>  -0.1600 
 24 H        2.1290     4.3110    -0.1640 H     1 <1>   0.1500 
 25 H       -0.9650     1.5500     0.9150 H     1 <1>   0.1500 
 26 H       -2.6260     3.3150     0.5870 H     1 <1>   0.1500 
 27 H        1.5870     6.3080    -0.9530 H     1 <1>   0.3700 
 28 H       -1.9240     5.5570    -0.1170 H     1 <1>   0.1500 
 29 H        0.7220     8.8000    -1.9510 H     1 <1>   0.0800 
 30 H        3.0240     9.0320    -1.6980 H     1 <1>   0.0800 
 31 H       -0.0820    10.6660    -1.1310 H     1 <1>   0.0800 
 32 H        3.3760     9.6950     1.1080 H     1 <1>   0.0800 
 33 H        1.4860     9.5910     0.9610 H     1 <1>   0.0800 
 34 H        1.8370    10.7630    -1.0480 H     1 <1>   0.0800 
 35 H        0.2550    11.4490     1.6060 H     1 <1>   0.0800 
 36 H        0.3830    12.4230     0.1670 H     1 <1>   0.0800 
 37 H        2.8100    12.3880     0.2880 H     1 <1>   0.0800 
 38 H        2.6550    11.6500     1.8580 H     1 <1>   0.0800 
@<TRIPOS>BOND
  1   1   2  1   
  2   2   3  1   
  3   2   4  1   
  4   2   5  1   
  5   5   6  ar  
  6   5   7  ar  
  7   6   8  ar  
  8   6  24  1   
  9   7   9  ar  
 10   7  25  1   
 11   8  10  1   
 12   8  11  ar  
 13   9  11  ar  
 14   9  26  1   
 15  10  12  am  
 16  10  27  1   
 17  11  28  1   
 18  12  13  2   
 19  12  14  1   
 20  14  15  1   
 21  14  16  1   
 22  14  29  1   
 23  15  17  1   
 24  15  18  1   
 25  15  30  1   
 26  16  19  1   
 27  16  20  1   
 28  16  31  1   
 29  17  21  ar  
 30  17  22  ar  
 31  18  19  1   
 32  18  23  1   
 33  18  32  1   
 34  19  33  1   
 35  19  34  1   
 36  20  23  1   
 37  20  35  1   
 38  20  36  1   
 39  23  37  1   
 40  23  38  1   
@<TRIPOS>SUBSTRUCTURE
  1 ****  10 GROUP 4 **** **** 0

# MOE 2024.06 (io_trps.svl 2023.06)
