@<TRIPOS>MOLECULE
NONAME
31 32 1 0 0 
SMALL
USER_CHARGES


@<TRIPOS>ATOM
  1 BR      -0.6980    -0.8480    -0.7920 Br    1 <1>  -0.0580 
  2 C       -1.7990     0.6740    -0.3860 C.2   1 <1>   0.1980 
  3 O       -3.0970     0.5030    -0.3570 O.3   1 <1>  -0.2800 
  4 C       -1.4240     1.9390    -0.1160 C.2   1 <1>  -0.1500 
  5 C       -3.6380     1.6870    -0.0590 C.2   1 <1>   0.0550 
  6 C       -2.6340     2.6040     0.0990 C.2   1 <1>  -0.1500 
  7 C       -5.0690     1.8440     0.0520 C.2   1 <1>   0.7150 
  8 O       -5.5670     2.9200     0.3300 O.2   1 <1>  -0.5700 
  9 N       -5.9000     0.7860    -0.1520 N.am  1 <1>  -0.7300 
 10 C       -7.3800     0.8020     0.0230 C.3   1 <1>   0.2010 
 11 C       -8.0030    -0.5980     0.1120 C.2   1 <1>   0.5690 
 12 O       -7.2920    -1.5530    -0.1160 O.2   1 <1>  -0.5700 
 13 N       -9.3290    -0.7550     0.4370 N.am  1 <1>  -0.6600 
 14 C       -9.9460    -2.1120     0.5630 C.3   1 <1>   0.1400 
 15 C      -10.3040     0.3520     0.6820 C.3   1 <1>   0.1400 
 16 C      -11.2560    -2.1900    -0.2390 C.3   1 <1>   0.1200 
 17 C      -11.5920     0.1300    -0.1290 C.3   1 <1>   0.1200 
 18 O      -12.1150    -1.1440     0.1160 O.3   1 <1>  -0.5600 
 19 H       -0.4360     2.3580    -0.0720 H     1 <1>   0.1500 
 20 H       -2.7450     3.6460     0.3430 H     1 <1>   0.1500 
 21 H       -5.5020    -0.1450    -0.3220 H     1 <1>   0.3700 
 22 H       -7.8170     1.3200    -0.8110 H     1 <1>   0.0800 
 23 H       -7.6140     1.3440     0.9220 H     1 <1>   0.0800 
 24 H      -10.1530    -2.3110     1.5990 H     1 <1>   0.0800 
 25 H       -9.2720    -2.8720     0.2100 H     1 <1>   0.0800 
 26 H       -9.8870     1.3060     0.4170 H     1 <1>   0.0800 
 27 H      -10.5520     0.3760     1.7300 H     1 <1>   0.0800 
 28 H      -11.7620    -3.1160    -0.0310 H     1 <1>   0.0800 
 29 H      -11.0570    -2.1340    -1.2950 H     1 <1>   0.0800 
 30 H      -11.4000     0.2260    -1.1840 H     1 <1>   0.0800 
 31 H      -12.3390     0.8500     0.1540 H     1 <1>   0.0800 
@<TRIPOS>BOND
  1   1   2  1   
  2   2   3  1   
  3   2   4  2   
  4   3   5  1   
  5   4   6  1   
  6   4  19  1   
  7   5   6  2   
  8   5   7  1   
  9   6  20  1   
 10   7   8  2   
 11   7   9  am  
 12   9  10  1   
 13   9  21  1   
 14  10  11  1   
 15  10  22  1   
 16  10  23  1   
 17  11  12  2   
 18  11  13  am  
 19  13  14  1   
 20  13  15  1   
 21  14  16  1   
 22  14  24  1   
 23  14  25  1   
 24  15  17  1   
 25  15  26  1   
 26  15  27  1   
 27  16  18  1   
 28  16  28  1   
 29  16  29  1   
 30  17  18  1   
 31  17  30  1   
 32  17  31  1   
@<TRIPOS>SUBSTRUCTURE
  1 ****   9 GROUP 4 **** **** 0

# MOE 2024.06 (io_trps.svl 2023.06)
