@<TRIPOS>MOLECULE
NONAME
41 42 1 0 0 
SMALL
USER_CHARGES


@<TRIPOS>ATOM
  1 F       -0.3570     1.3010    -0.1410 F     1 <1>  -0.3400 
  2 C       -1.2530     1.2350     0.8380 C.3   1 <1>   1.1640 
  3 F       -0.5660     1.0720     1.9610 F     1 <1>  -0.3400 
  4 F       -1.8040     2.4420     0.9120 F     1 <1>  -0.3400 
  5 C       -2.2910     0.1210     0.6290 C.ar  1 <1>  -0.1440 
  6 C       -1.9670    -1.0280    -0.0860 C.ar  1 <1>  -0.1500 
  7 C       -3.5720     0.2320     1.1610 C.ar  1 <1>  -0.1500 
  8 C       -2.8920    -2.0440    -0.2740 C.ar  1 <1>  -0.1440 
  9 C       -4.5010    -0.7770     0.9780 C.ar  1 <1>  -0.1500 
 10 C       -4.1620    -1.9110     0.2640 C.ar  1 <1>  -0.1500 
 11 C       -2.5100    -3.2870    -1.0640 C.3   1 <1>   0.3530 
 12 N       -1.3210    -3.9070    -0.4440 N.pl3 1 <1>  -0.8690 
 13 C       -0.1800    -4.2930    -1.0640 C.2   1 <1>  -0.0500 
 14 C        0.9370    -4.8360    -0.4620 C.2   1 <1>   0.0290 
 15 C        2.0640    -5.1850    -1.2740 C.2   1 <1>   0.4950 
 16 C        1.0200    -5.0690     0.9540 C.2   1 <1>   0.4950 
 17 O        2.0990    -5.0160    -2.4710 O.2   1 <1>  -0.5700 
 18 C        3.3230    -5.7880    -0.6720 C.3   1 <1>  -0.0990 
 19 O        0.1390    -4.8180     1.7470 O.2   1 <1>  -0.5700 
 20 C        2.2770    -5.6560     1.5760 C.3   1 <1>  -0.0990 
 21 C        3.0580    -6.5680     0.6210 C.3   1 <1>   0.0000 
 22 C        2.2610    -7.8530     0.3260 C.3   1 <1>  -0.2400 
 23 C        4.3950    -6.9650     1.2660 C.3   1 <1>  -0.2400 
 24 H       -0.9790    -1.1480    -0.5010 H     1 <1>   0.1500 
 25 H       -3.8560     1.1060     1.7240 H     1 <1>   0.1500 
 26 H       -5.4880    -0.6800     1.3960 H     1 <1>   0.1500 
 27 H       -4.8940    -2.6900     0.1330 H     1 <1>   0.1500 
 28 H       -2.2930    -3.0190    -2.0840 H     1 <1>   0.0800 
 29 H       -3.3180    -3.9970    -1.0610 H     1 <1>   0.0800 
 30 H       -1.3900    -4.0020     0.5860 H     1 <1>   0.4000 
 31 H       -0.1590    -4.1510    -2.1360 H     1 <1>   0.1500 
 32 H        3.7790    -6.4370    -1.3990 H     1 <1>   0.0800 
 33 H        4.0110    -4.9830    -0.4850 H     1 <1>   0.0800 
 34 H        2.8950    -4.8360     1.8940 H     1 <1>   0.0800 
 35 H        2.0020    -6.2090     2.4570 H     1 <1>   0.0800 
 36 H        2.8120    -8.4930    -0.3410 H     1 <1>   0.0800 
 37 H        1.3090    -7.6430    -0.1290 H     1 <1>   0.0800 
 38 H        2.0790    -8.4000     1.2350 H     1 <1>   0.0800 
 39 H        4.9870    -6.0960     1.4920 H     1 <1>   0.0800 
 40 H        4.9620    -7.5950     0.6030 H     1 <1>   0.0800 
 41 H        4.2280    -7.5060     2.1820 H     1 <1>   0.0800 
@<TRIPOS>BOND
  1   1   2  1   
  2   2   3  1   
  3   2   4  1   
  4   2   5  1   
  5   5   6  ar  
  6   5   7  ar  
  7   6   8  ar  
  8   6  24  1   
  9   7   9  ar  
 10   7  25  1   
 11   8  10  ar  
 12   8  11  1   
 13   9  10  ar  
 14   9  26  1   
 15  10  27  1   
 16  11  12  1   
 17  11  28  1   
 18  11  29  1   
 19  12  13  1   
 20  12  30  1   
 21  13  14  2   
 22  13  31  1   
 23  14  15  1   
 24  14  16  1   
 25  15  17  2   
 26  15  18  1   
 27  16  19  2   
 28  16  20  1   
 29  18  21  1   
 30  18  32  1   
 31  18  33  1   
 32  20  21  1   
 33  20  34  1   
 34  20  35  1   
 35  21  22  1   
 36  21  23  1   
 37  22  36  1   
 38  22  37  1   
 39  22  38  1   
 40  23  39  1   
 41  23  40  1   
 42  23  41  1   
@<TRIPOS>SUBSTRUCTURE
  1 ****  12 GROUP 4 **** **** 0

# MOE 2024.06 (io_trps.svl 2023.06)
