@<TRIPOS>MOLECULE
NONAME
44 47 1 0 0 
SMALL
USER_CHARGES


@<TRIPOS>ATOM
  1 O       -0.1030     0.3270     0.9880 O.2   1 <1>  -0.5700 
  2 C       -0.1520     1.5140     0.6790 C.2   1 <1>   0.7160 
  3 N        1.0100     2.2270     0.4110 N.am  1 <1>  -0.2290 
  4 C       -1.3790     2.2090     0.5730 C.2   1 <1>  -0.0860 
  5 C        0.9010     3.5790     0.0440 C.2   1 <1>   0.4960 
  6 C        2.2740     1.6380     0.4940 C.2   1 <1>  -0.0410 
  7 C       -1.3660     3.5310     0.2070 C.2   1 <1>  -0.0260 
  8 C       -2.7210     1.8640     0.7620 C.2   1 <1>  -0.1500 
  9 N       -0.2350     4.2240    -0.0630 N.2   1 <1>  -0.5760 
 10 C        2.1120     4.2780    -0.2280 C.2   1 <1>  -0.1360 
 11 C        3.4100     2.3290     0.2300 C.2   1 <1>  -0.1500 
 12 N       -2.6430     3.9990     0.1690 N.pl3 1 <1>   0.0480 
 13 C       -3.4960     2.9640     0.5020 C.2   1 <1>  -0.2370 
 14 C        3.3330     3.6900    -0.1430 C.2   1 <1>  -0.1500 
 15 C       -3.0350     5.3850    -0.1620 C.3   1 <1>   0.0160 
 16 C       -4.9280     3.0950     0.5650 C.2   1 <1>   0.7150 
 17 O       -5.4190     4.0930     1.0630 O.2   1 <1>  -0.5700 
 18 N       -5.7650     2.1180     0.0700 N.am  1 <1>  -0.6600 
 19 C       -7.1590     1.9950     0.5770 C.3   1 <1>   0.2200 
 20 C       -5.3670     1.2050    -1.0470 C.3   1 <1>   0.1400 
 21 C       -7.4710     0.5410     0.9960 C.3   1 <1>  -0.1600 
 22 C       -8.1290     2.5220    -0.4840 C.3   1 <1>  -0.2400 
 23 C       -6.0440    -0.1720    -0.9510 C.3   1 <1>  -0.1600 
 24 C       -6.4680    -0.5060     0.4810 C.3   1 <1>  -0.1600 
 25 H        2.3080     0.5980     0.7810 H     1 <1>   0.1500 
 26 H       -3.0580     0.8870     1.0660 H     1 <1>   0.1500 
 27 H        2.0090     5.3100    -0.5070 H     1 <1>   0.1500 
 28 H        4.3810     1.8670     0.2960 H     1 <1>   0.1500 
 29 H        4.2440     4.2260    -0.3500 H     1 <1>   0.1500 
 30 H       -2.1870     5.9240    -0.5410 H     1 <1>   0.0800 
 31 H       -3.3990     5.8680     0.7260 H     1 <1>   0.0800 
 32 H       -3.8110     5.3690    -0.9040 H     1 <1>   0.0800 
 33 H       -7.2730     2.6150     1.4520 H     1 <1>   0.0800 
 34 H       -4.3020     1.0620    -1.0470 H     1 <1>   0.0800 
 35 H       -5.6260     1.6670    -1.9840 H     1 <1>   0.0800 
 36 H       -8.4590     0.2800     0.6610 H     1 <1>   0.0800 
 37 H       -7.4910     0.4940     2.0710 H     1 <1>   0.0800 
 38 H       -8.1090     1.9140    -1.3690 H     1 <1>   0.0800 
 39 H       -7.8680     3.5340    -0.7400 H     1 <1>   0.0800 
 40 H       -9.1300     2.5240    -0.0930 H     1 <1>   0.0800 
 41 H       -5.3680    -0.9230    -1.3210 H     1 <1>   0.0800 
 42 H       -6.9100    -0.1830    -1.5890 H     1 <1>   0.0800 
 43 H       -6.9070    -1.4880     0.5250 H     1 <1>   0.0800 
 44 H       -5.5950    -0.5030     1.1130 H     1 <1>   0.0800 
@<TRIPOS>BOND
  1   1   2  2   
  2   2   3  am  
  3   2   4  1   
  4   3   5  1   
  5   3   6  1   
  6   4   7  2   
  7   4   8  1   
  8   5   9  2   
  9   5  10  1   
 10   6  11  2   
 11   6  25  1   
 12   7   9  1   
 13   7  12  1   
 14   8  13  2   
 15   8  26  1   
 16  10  14  2   
 17  10  27  1   
 18  11  14  1   
 19  11  28  1   
 20  12  13  1   
 21  12  15  1   
 22  13  16  1   
 23  14  29  1   
 24  15  30  1   
 25  15  31  1   
 26  15  32  1   
 27  16  17  2   
 28  16  18  am  
 29  18  19  1   
 30  18  20  1   
 31  19  21  1   
 32  19  22  1   
 33  19  33  1   
 34  20  23  1   
 35  20  34  1   
 36  20  35  1   
 37  21  24  1   
 38  21  36  1   
 39  21  37  1   
 40  22  38  1   
 41  22  39  1   
 42  22  40  1   
 43  23  24  1   
 44  23  41  1   
 45  23  42  1   
 46  24  43  1   
 47  24  44  1   
@<TRIPOS>SUBSTRUCTURE
  1 ****   8 GROUP 4 **** **** 0

# MOE 2024.06 (io_trps.svl 2023.06)
