@<TRIPOS>MOLECULE
NONAME
53 57 1 0 0 
SMALL
USER_CHARGES


@<TRIPOS>ATOM
  1 O        0.2680    -0.1380    -0.2550 O.2   1 <1>  -0.5700 
  2 C       -0.5850    -0.9340    -0.5970 C.2   1 <1>   0.7150 
  3 N       -1.6110    -0.4560    -1.3780 N.am  1 <1>  -0.6600 
  4 C       -0.5690    -2.3020    -0.1630 C.2   1 <1>  -0.2370 
  5 C       -3.0170    -0.5790    -0.9070 C.3   1 <1>   0.1400 
  6 C       -1.3780     0.7350    -2.2410 C.3   1 <1>   0.1400 
  7 N        0.1820    -2.7950     0.8610 N.pl3 1 <1>   0.3140 
  8 C       -1.2550    -3.3770    -0.6470 C.2   1 <1>  -0.1500 
  9 C       -3.4540     0.7140    -0.1860 C.3   1 <1>   0.3430 
 10 C       -1.7880     2.0160    -1.4930 C.3   1 <1>   0.3430 
 11 N       -0.0260    -4.1050     1.0530 N.2   1 <1>  -0.7070 
 12 C        1.1450    -2.0790     1.7150 C.3   1 <1>   0.0160 
 13 C       -0.8820    -4.4480     0.1410 C.2   1 <1>   0.1390 
 14 N       -3.2230     1.9660    -1.0080 N.4   1 <1>  -0.9590 
 15 C       -3.6670     3.2270    -0.3240 C.3   1 <1>   0.5030 
 16 C       -2.8560     3.5020     0.9640 C.3   1 <1>  -0.1600 
 17 C       -5.1670     3.1180     0.0430 C.3   1 <1>  -0.1600 
 18 C       -3.4990     4.4270    -1.2870 C.3   1 <1>  -0.1600 
 19 C       -3.3440     4.8030     1.6330 C.3   1 <1>  -0.0800 
 20 C       -5.6620     4.4140     0.7110 C.3   1 <1>  -0.0800 
 21 C       -3.9850     5.7300    -0.6270 C.3   1 <1>  -0.0800 
 22 C       -4.8370     4.6680     1.9860 C.3   1 <1>  -0.1600 
 23 C       -3.1670     5.9790     0.6540 C.3   1 <1>  -0.1600 
 24 C       -5.4710     5.5910    -0.2600 C.3   1 <1>  -0.1600 
 25 H       -3.1110    -1.4070    -0.2240 H     1 <1>   0.0800 
 26 H       -3.6630    -0.7730    -1.7460 H     1 <1>   0.0800 
 27 H       -1.9400     0.6390    -3.1540 H     1 <1>   0.0800 
 28 H       -0.3340     0.7960    -2.5060 H     1 <1>   0.0800 
 29 H       -1.9430    -3.4170    -1.4720 H     1 <1>   0.1500 
 30 H       -2.9000     0.7840     0.7360 H     1 <1>   0.0800 
 31 H       -4.4970     0.6220     0.0650 H     1 <1>   0.0800 
 32 H       -1.6440     2.8530    -2.1540 H     1 <1>   0.0800 
 33 H       -1.1220     2.1380    -0.6540 H     1 <1>   0.0800 
 34 H        0.6520    -1.2580     2.2000 H     1 <1>   0.0800 
 35 H        1.9510    -1.7130     1.1080 H     1 <1>   0.0800 
 36 H        1.5320    -2.7540     2.4560 H     1 <1>   0.0800 
 37 H       -1.2460    -5.4560     0.0260 H     1 <1>   0.1500 
 38 H       -3.8150     1.8920    -1.8420 H     1 <1>   0.4500 
 39 H       -1.8100     3.6090     0.7420 H     1 <1>   0.0800 
 40 H       -2.9720     2.6980     1.6670 H     1 <1>   0.0800 
 41 H       -5.3410     2.3190     0.7400 H     1 <1>   0.0800 
 42 H       -5.7540     2.9350    -0.8400 H     1 <1>   0.0800 
 43 H       -2.4680     4.5740    -1.5510 H     1 <1>   0.0800 
 44 H       -4.0610     4.2630    -2.1890 H     1 <1>   0.0800 
 45 H       -2.7760     4.9910     2.5300 H     1 <1>   0.0800 
 46 H       -6.7050     4.3230     0.9670 H     1 <1>   0.0800 
 47 H       -3.8560     6.5580    -1.3050 H     1 <1>   0.0800 
 48 H       -4.9800     3.8640     2.6870 H     1 <1>   0.0800 
 49 H       -5.1780     5.5720     2.4630 H     1 <1>   0.0800 
 50 H       -2.1250     6.1030     0.4110 H     1 <1>   0.0800 
 51 H       -3.4960     6.8920     1.1220 H     1 <1>   0.0800 
 52 H       -5.8190     6.5010     0.2000 H     1 <1>   0.0800 
 53 H       -6.0600     5.4370    -1.1490 H     1 <1>   0.0800 
@<TRIPOS>BOND
  1   1   2  2   
  2   2   3  am  
  3   2   4  1   
  4   3   5  1   
  5   3   6  1   
  6   4   7  1   
  7   4   8  2   
  8   5   9  1   
  9   5  25  1   
 10   5  26  1   
 11   6  10  1   
 12   6  27  1   
 13   6  28  1   
 14   7  11  1   
 15   7  12  1   
 16   8  13  1   
 17   8  29  1   
 18   9  14  1   
 19   9  30  1   
 20   9  31  1   
 21  10  14  1   
 22  10  32  1   
 23  10  33  1   
 24  11  13  2   
 25  12  34  1   
 26  12  35  1   
 27  12  36  1   
 28  13  37  1   
 29  14  15  1   
 30  14  38  1   
 31  15  16  1   
 32  15  17  1   
 33  15  18  1   
 34  16  19  1   
 35  16  39  1   
 36  16  40  1   
 37  17  20  1   
 38  17  41  1   
 39  17  42  1   
 40  18  21  1   
 41  18  43  1   
 42  18  44  1   
 43  19  22  1   
 44  19  23  1   
 45  19  45  1   
 46  20  22  1   
 47  20  24  1   
 48  20  46  1   
 49  21  23  1   
 50  21  24  1   
 51  21  47  1   
 52  22  48  1   
 53  22  49  1   
 54  23  50  1   
 55  23  51  1   
 56  24  52  1   
 57  24  53  1   
@<TRIPOS>SUBSTRUCTURE
  1 ****   9 GROUP 4 **** **** 0

# MOE 2024.06 (io_trps.svl 2023.06)
