@<TRIPOS>MOLECULE
NONAME
32 33 1 0 0 
SMALL
USER_CHARGES


@<TRIPOS>ATOM
  1 S       -3.5740     3.3920     2.1250 S.3   1 <1>  -0.2860 
  2 C       -5.2530     3.5300     1.5280 C.2   1 <1>   0.2420 
  3 C       -2.9290     5.1380     2.1280 C.3   1 <1>   0.1310 
  4 N       -5.7960     4.6340     1.1550 N.2   1 <1>  -0.5650 
  5 N       -6.0280     2.4280     1.4400 N.pl3 1 <1>   0.0330 
  6 C       -1.7750     5.2970     1.1460 C.2   1 <1>   0.6590 
  7 C       -7.0500     4.2450     0.7820 C.ar  1 <1>   0.2270 
  8 C       -7.2130     2.8780     0.9490 C.ar  1 <1>  -0.1520 
  9 O       -0.6460     5.3480     1.5540 O.2   1 <1>  -0.5700 
 10 O       -2.0100     5.4150    -0.1600 O.3   1 <1>  -0.4300 
 11 C       -8.0970     5.0190     0.2880 C.ar  1 <1>  -0.1500 
 12 C       -8.4150     2.2460     0.6290 C.ar  1 <1>  -0.1500 
 13 C       -3.2730     5.3370    -0.7870 C.3   1 <1>   0.0400 
 14 C       -9.2940     4.4020    -0.0320 C.ar  1 <1>   0.0830 
 15 C       -9.4440     3.0190     0.1400 C.ar  1 <1>  -0.1500 
 16 O      -10.3800     5.0590    -0.5210 O.3   1 <1>  -0.3630 
 17 C      -10.3560     6.4560    -0.6970 C.3   1 <1>   0.1200 
 18 C      -11.7170     6.8880    -1.2350 C.3   1 <1>  -0.2400 
 19 H       -2.5780     5.3270     3.1250 H     1 <1>   0.0800 
 20 H       -3.7300     5.8130     1.9040 H     1 <1>   0.0800 
 21 H       -5.7660     1.4740     1.6930 H     1 <1>   0.2700 
 22 H       -7.9290     6.0710     0.1770 H     1 <1>   0.1500 
 23 H       -8.5300     1.1850     0.7630 H     1 <1>   0.1500 
 24 H       -3.1400     5.5420    -1.8340 H     1 <1>   0.0800 
 25 H       -3.9350     6.0670    -0.3560 H     1 <1>   0.0800 
 26 H       -3.6670     4.3440    -0.6630 H     1 <1>   0.0800 
 27 H      -10.3880     2.5740    -0.1190 H     1 <1>   0.1500 
 28 H       -9.5760     6.6980    -1.3990 H     1 <1>   0.0800 
 29 H      -10.1600     6.9170     0.2560 H     1 <1>   0.0800 
 30 H      -11.9100     6.4090    -2.1780 H     1 <1>   0.0800 
 31 H      -11.7300     7.9520    -1.3800 H     1 <1>   0.0800 
 32 H      -12.4900     6.6260    -0.5340 H     1 <1>   0.0800 
@<TRIPOS>BOND
  1   1   2  1   
  2   1   3  1   
  3   2   4  2   
  4   2   5  1   
  5   3   6  1   
  6   3  19  1   
  7   3  20  1   
  8   4   7  1   
  9   5   8  1   
 10   5  21  1   
 11   6   9  2   
 12   6  10  1   
 13   7   8  ar  
 14   7  11  ar  
 15   8  12  ar  
 16  10  13  1   
 17  11  14  ar  
 18  11  22  1   
 19  12  15  ar  
 20  12  23  1   
 21  13  24  1   
 22  13  25  1   
 23  13  26  1   
 24  14  15  ar  
 25  14  16  1   
 26  15  27  1   
 27  16  17  1   
 28  17  18  1   
 29  17  28  1   
 30  17  29  1   
 31  18  30  1   
 32  18  31  1   
 33  18  32  1   
@<TRIPOS>SUBSTRUCTURE
  1 ****   4 GROUP 4 **** **** 0

# MOE 2024.06 (io_trps.svl 2023.06)
