@<TRIPOS>MOLECULE
NONAME
55 57 1 0 0 
SMALL
USER_CHARGES


@<TRIPOS>ATOM
  1 O        0.9230     2.5150     0.2380 O.3   1 <1>  -0.5600 
  2 C        1.4870     1.2550     0.4340 C.3   1 <1>   0.1200 
  3 C       -0.4650     2.5130     0.1370 C.3   1 <1>   0.1200 
  4 C        3.0100     1.4240     0.5350 C.3   1 <1>   0.2000 
  5 C       -0.9170     3.9610    -0.0740 C.3   1 <1>  -0.1600 
  6 O        3.4260     2.2730    -0.4900 O.3   1 <1>  -0.6800 
  7 C        3.7830     0.0960     0.4190 C.3   1 <1>   0.3430 
  8 C       -2.4440     4.1590    -0.2140 C.3   1 <1>   0.0000 
  9 N        5.1740     0.3720    -0.0430 N.4   1 <1>  -0.9060 
 10 C       -3.0110     3.3930    -1.4340 C.3   1 <1>  -0.1600 
 11 C       -2.7250     5.6670    -0.4180 C.3   1 <1>  -0.1600 
 12 C       -3.2010     3.6940     1.0540 C.3   1 <1>  -0.1600 
 13 C        5.8530    -0.7340    -0.7230 C.3   1 <1>   0.4230 
 14 C       -4.5230     3.6480    -1.5860 C.3   1 <1>  -0.0800 
 15 C       -4.2340     5.9350    -0.5660 C.3   1 <1>  -0.0800 
 16 C       -4.7140     3.9510     0.9130 C.3   1 <1>  -0.0800 
 17 C        6.1990    -1.8130     0.2980 C.3   1 <1>  -0.2400 
 18 C        7.1110    -0.1690    -1.3670 C.3   1 <1>  -0.2400 
 19 C       -4.7680     5.1560    -1.7810 C.3   1 <1>  -0.1600 
 20 C       -5.2460     3.1790    -0.3090 C.3   1 <1>  -0.1600 
 21 C       -4.9570     5.4560     0.7060 C.3   1 <1>  -0.1600 
 22 H        1.2260     0.6300    -0.4040 H     1 <1>   0.0800 
 23 H        1.0890     0.8310     1.3410 H     1 <1>   0.0800 
 24 H       -0.8750     2.1130     1.0480 H     1 <1>   0.0800 
 25 H       -0.7470     1.8970    -0.6990 H     1 <1>   0.0800 
 26 H        3.2450     1.9040     1.4700 H     1 <1>   0.0800 
 27 H       -0.4390     4.3350    -0.9620 H     1 <1>   0.0800 
 28 H       -0.5690     4.5460     0.7590 H     1 <1>   0.0800 
 29 H        2.7210     2.9630    -0.5840 H     1 <1>   0.4000 
 30 H        3.2820    -0.5230    -0.3070 H     1 <1>   0.0800 
 31 H        3.7840    -0.4250     1.3620 H     1 <1>   0.0800 
 32 H        5.7540     0.7340     0.7190 H     1 <1>   0.4500 
 33 H        5.0590     1.1690    -0.6970 H     1 <1>   0.4500 
 34 H       -2.8540     2.3360    -1.3210 H     1 <1>   0.0800 
 35 H       -2.5040     3.7060    -2.3300 H     1 <1>   0.0800 
 36 H       -2.2160     6.0190    -1.2980 H     1 <1>   0.0800 
 37 H       -2.3470     6.2260     0.4200 H     1 <1>   0.0800 
 38 H       -2.8280     4.2200     1.9150 H     1 <1>   0.0800 
 39 H       -3.0470     2.6430     1.2190 H     1 <1>   0.0800 
 40 H        5.2130    -1.1440    -1.4900 H     1 <1>   0.0800 
 41 H       -4.9000     3.1070    -2.4370 H     1 <1>   0.0800 
 42 H       -4.4050     6.9890    -0.7060 H     1 <1>   0.0800 
 43 H       -5.2230     3.6200     1.8010 H     1 <1>   0.0800 
 44 H        6.8240    -1.4230     1.0820 H     1 <1>   0.0800 
 45 H        6.7380    -2.6070    -0.1900 H     1 <1>   0.0800 
 46 H        5.3120    -2.2430     0.7250 H     1 <1>   0.0800 
 47 H        7.7760     0.2460    -0.6310 H     1 <1>   0.0800 
 48 H        6.8600     0.5870    -2.0900 H     1 <1>   0.0800 
 49 H        7.6350    -0.9530    -1.8840 H     1 <1>   0.0800 
 50 H       -5.8210     5.3420    -1.8990 H     1 <1>   0.0800 
 51 H       -4.2740     5.4920    -2.6750 H     1 <1>   0.0800 
 52 H       -6.3050     3.3440    -0.4100 H     1 <1>   0.0800 
 53 H       -5.0920     2.1230    -0.1700 H     1 <1>   0.0800 
 54 H       -6.0130     5.6460     0.6170 H     1 <1>   0.0800 
 55 H       -4.5970     6.0050     1.5590 H     1 <1>   0.0800 
@<TRIPOS>BOND
  1   1   2  1   
  2   1   3  1   
  3   2   4  1   
  4   2  22  1   
  5   2  23  1   
  6   3   5  1   
  7   3  24  1   
  8   3  25  1   
  9   4   6  1   
 10   4   7  1   
 11   4  26  1   
 12   5   8  1   
 13   5  27  1   
 14   5  28  1   
 15   6  29  1   
 16   7   9  1   
 17   7  30  1   
 18   7  31  1   
 19   8  10  1   
 20   8  11  1   
 21   8  12  1   
 22   9  13  1   
 23   9  32  1   
 24   9  33  1   
 25  10  14  1   
 26  10  34  1   
 27  10  35  1   
 28  11  15  1   
 29  11  36  1   
 30  11  37  1   
 31  12  16  1   
 32  12  38  1   
 33  12  39  1   
 34  13  17  1   
 35  13  18  1   
 36  13  40  1   
 37  14  19  1   
 38  14  20  1   
 39  14  41  1   
 40  15  19  1   
 41  15  21  1   
 42  15  42  1   
 43  16  20  1   
 44  16  21  1   
 45  16  43  1   
 46  17  44  1   
 47  17  45  1   
 48  17  46  1   
 49  18  47  1   
 50  18  48  1   
 51  18  49  1   
 52  19  50  1   
 53  19  51  1   
 54  20  52  1   
 55  20  53  1   
 56  21  54  1   
 57  21  55  1   
@<TRIPOS>SUBSTRUCTURE
  1 ****   3 GROUP 4 **** **** 0

# MOE 2024.06 (io_trps.svl 2023.06)
