@<TRIPOS>MOLECULE
NONAME
40 40 1 0 0 
SMALL
USER_CHARGES


@<TRIPOS>ATOM
  1 O        1.9490     3.5660     0.9090 O.2   1 <1>  -0.5700 
  2 C        1.1460     3.3960     0.0120 C.2   1 <1>   0.5440 
  3 N        1.6370     3.2910    -1.2620 N.am  1 <1>  -0.7300 
  4 C       -0.2720     3.2300     0.2880 C.ar  1 <1>   0.0860 
  5 C        2.8400     3.9830    -1.7970 C.3   1 <1>   0.1400 
  6 C       -1.2460     3.4450    -0.6890 C.ar  1 <1>  -0.1500 
  7 C       -0.7120     2.8390     1.5540 C.ar  1 <1>  -0.1500 
  8 C        4.1740     3.5150    -1.1910 C.3   1 <1>  -0.1600 
  9 C       -2.5920     3.2570    -0.4270 C.ar  1 <1>  -0.1430 
 10 C       -2.0530     2.6490     1.8320 C.ar  1 <1>  -0.1430 
 11 C        4.3200     1.9970    -1.0590 C.3   1 <1>   0.3430 
 12 C       -2.9900     2.8550     0.8350 C.ar  1 <1>  -0.1500 
 13 C       -3.6380     3.4890    -1.5030 C.3   1 <1>  -0.0970 
 14 C       -2.5100     2.2210     3.2160 C.3   1 <1>  -0.0970 
 15 N        3.7820     1.5550     0.2520 N.4   1 <1>  -0.9590 
 16 C        4.7640     1.7120     1.3650 C.3   1 <1>   0.2630 
 17 C        3.2170     0.1790     0.1990 C.3   1 <1>   0.2630 
 18 H        0.9420     3.0800    -1.9840 H     1 <1>   0.3700 
 19 H        2.7320     5.0430    -1.6340 H     1 <1>   0.0800 
 20 H        2.8690     3.8230    -2.8620 H     1 <1>   0.0800 
 21 H       -0.9540     3.7720    -1.6690 H     1 <1>   0.1500 
 22 H        0.0150     2.6850     2.3310 H     1 <1>   0.1500 
 23 H        4.3330     4.0020    -0.2460 H     1 <1>   0.0800 
 24 H        4.9530     3.8650    -1.8450 H     1 <1>   0.0800 
 25 H        5.3580     1.7160    -1.1350 H     1 <1>   0.0800 
 26 H        3.7800     1.5230    -1.8620 H     1 <1>   0.0800 
 27 H       -4.0350     2.7050     1.0450 H     1 <1>   0.1500 
 28 H       -3.2120     3.9780    -2.3600 H     1 <1>   0.0800 
 29 H       -4.4280     4.1100    -1.1180 H     1 <1>   0.0800 
 30 H       -4.0570     2.5490    -1.8140 H     1 <1>   0.0800 
 31 H       -1.7000     2.2670     3.9220 H     1 <1>   0.0800 
 32 H       -2.8810     1.2120     3.1820 H     1 <1>   0.0800 
 33 H       -3.2960     2.8690     3.5600 H     1 <1>   0.0800 
 34 H        3.0010     2.2220     0.4560 H     1 <1>   0.4500 
 35 H        5.6170     1.0730     1.2080 H     1 <1>   0.0800 
 36 H        4.3030     1.4550     2.3040 H     1 <1>   0.0800 
 37 H        5.1000     2.7350     1.4230 H     1 <1>   0.0800 
 38 H        3.9910    -0.5370    -0.0230 H     1 <1>   0.0800 
 39 H        2.4570     0.1200    -0.5640 H     1 <1>   0.0800 
 40 H        2.7690    -0.0750     1.1460 H     1 <1>   0.0800 
@<TRIPOS>BOND
  1   1   2  2   
  2   2   3  am  
  3   2   4  1   
  4   3   5  1   
  5   3  18  1   
  6   4   6  ar  
  7   4   7  ar  
  8   5   8  1   
  9   5  19  1   
 10   5  20  1   
 11   6   9  ar  
 12   6  21  1   
 13   7  10  ar  
 14   7  22  1   
 15   8  11  1   
 16   8  23  1   
 17   8  24  1   
 18   9  12  ar  
 19   9  13  1   
 20  10  12  ar  
 21  10  14  1   
 22  11  15  1   
 23  11  25  1   
 24  11  26  1   
 25  12  27  1   
 26  13  28  1   
 27  13  29  1   
 28  13  30  1   
 29  14  31  1   
 30  14  32  1   
 31  14  33  1   
 32  15  16  1   
 33  15  17  1   
 34  15  34  1   
 35  16  35  1   
 36  16  36  1   
 37  16  37  1   
 38  17  38  1   
 39  17  39  1   
 40  17  40  1   
@<TRIPOS>SUBSTRUCTURE
  1 ****   2 GROUP 4 **** **** 0

# MOE 2024.06 (io_trps.svl 2023.06)
