@<TRIPOS>MOLECULE
NONAME
44 46 1 0 0 
SMALL
USER_CHARGES


@<TRIPOS>ATOM
  1 F       -1.5020    -1.1200    -2.4520 F     1 <1>  -0.3400 
  2 C       -2.4280    -1.6550    -1.6630 C.3   1 <1>   1.0200 
  3 F       -2.5060    -0.8500    -0.6090 F     1 <1>  -0.3400 
  4 F       -3.5700    -1.5290    -2.3280 F     1 <1>  -0.3400 
  5 C       -2.0680    -3.1030    -1.3020 C.3   1 <1>   0.1760 
  6 N       -3.0140    -3.6330    -0.2960 N.pl3 1 <1>   0.3140 
  7 C       -0.5950    -3.2510    -0.8190 C.3   1 <1>  -0.1600 
  8 N       -4.3580    -3.5790    -0.3920 N.2   1 <1>  -0.7070 
  9 C       -2.6190    -4.3950     0.7520 C.2   1 <1>  -0.0680 
 10 C       -0.3370    -4.5790    -0.0980 C.3   1 <1>   0.4330 
 11 C       -4.8090    -4.2710     0.6430 C.2   1 <1>   0.2030 
 12 N       -1.2760    -4.6680     1.0370 N.pl3 1 <1>  -0.8530 
 13 C       -3.7410    -4.7990     1.3790 C.2   1 <1>  -0.1500 
 14 C        1.0990    -4.6690     0.4030 C.ar  1 <1>  -0.1430 
 15 C       -6.2110    -4.4710     0.9800 C.2   1 <1>   0.7160 
 16 C        2.0130    -5.4840    -0.2500 C.ar  1 <1>  -0.1500 
 17 C        1.5180    -3.9400     1.5090 C.ar  1 <1>  -0.1500 
 18 O       -6.5520    -5.1610     1.9260 O.2   1 <1>  -0.5700 
 19 N       -7.1710    -3.8720     0.2150 N.am  1 <1>  -0.7300 
 20 C        3.3220    -5.5680     0.1920 C.ar  1 <1>  -0.1500 
 21 C        2.8270    -4.0220     1.9520 C.ar  1 <1>  -0.1500 
 22 C       -8.6210    -3.9420     0.4000 C.3   1 <1>   0.2200 
 23 C        3.7300    -4.8360     1.2930 C.ar  1 <1>  -0.1500 
 24 C       -9.2330    -4.5540    -0.8550 C.3   1 <1>  -0.2400 
 25 C       -9.1400    -2.5280     0.6370 C.3   1 <1>  -0.2400 
 26 H       -2.1980    -3.6970    -2.1860 H     1 <1>   0.0800 
 27 H       -0.3540    -2.4490    -0.1430 H     1 <1>   0.0800 
 28 H        0.0720    -3.1700    -1.6580 H     1 <1>   0.0800 
 29 H       -0.5330    -5.3990    -0.7690 H     1 <1>   0.0800 
 30 H       -1.0960    -5.4970     1.6170 H     1 <1>   0.4000 
 31 H       -3.8360    -5.4070     2.2600 H     1 <1>   0.1500 
 32 H        1.7160    -6.0620    -1.1080 H     1 <1>   0.1500 
 33 H        0.8220    -3.3060     2.0320 H     1 <1>   0.1500 
 34 H       -6.8270    -3.3000    -0.5590 H     1 <1>   0.3700 
 35 H        4.0250    -6.2020    -0.3200 H     1 <1>   0.1500 
 36 H        3.1400    -3.4530     2.8100 H     1 <1>   0.1500 
 37 H       -8.8540    -4.5590     1.2540 H     1 <1>   0.0800 
 38 H        4.7480    -4.9010     1.6370 H     1 <1>   0.1500 
 39 H       -9.0140    -3.9530    -1.7190 H     1 <1>   0.0800 
 40 H      -10.3000    -4.6230    -0.7450 H     1 <1>   0.0800 
 41 H       -8.8450    -5.5460    -1.0030 H     1 <1>   0.0800 
 42 H       -8.9180    -1.8930    -0.2020 H     1 <1>   0.0800 
 43 H       -8.6880    -2.1170     1.5230 H     1 <1>   0.0800 
 44 H      -10.2050    -2.5480     0.7820 H     1 <1>   0.0800 
@<TRIPOS>BOND
  1   1   2  1   
  2   2   3  1   
  3   2   4  1   
  4   2   5  1   
  5   5   6  1   
  6   5   7  1   
  7   5  26  1   
  8   6   8  1   
  9   6   9  1   
 10   7  10  1   
 11   7  27  1   
 12   7  28  1   
 13   8  11  2   
 14   9  12  1   
 15   9  13  2   
 16  10  12  1   
 17  10  14  1   
 18  10  29  1   
 19  11  13  1   
 20  11  15  1   
 21  12  30  1   
 22  13  31  1   
 23  14  16  ar  
 24  14  17  ar  
 25  15  18  2   
 26  15  19  am  
 27  16  20  ar  
 28  16  32  1   
 29  17  21  ar  
 30  17  33  1   
 31  19  22  1   
 32  19  34  1   
 33  20  23  ar  
 34  20  35  1   
 35  21  23  ar  
 36  21  36  1   
 37  22  24  1   
 38  22  25  1   
 39  22  37  1   
 40  23  38  1   
 41  24  39  1   
 42  24  40  1   
 43  24  41  1   
 44  25  42  1   
 45  25  43  1   
 46  25  44  1   
@<TRIPOS>SUBSTRUCTURE
  1 ****   6 GROUP 4 **** **** 0

# MOE 2024.06 (io_trps.svl 2023.06)
