@<TRIPOS>MOLECULE
NONAME
40 41 1 0 0 
SMALL
USER_CHARGES


@<TRIPOS>ATOM
  1 O        0.1440     1.1500     2.5780 O.2   1 <1>  -0.5700 
  2 C       -0.1140     2.1480     1.9340 C.2   1 <1>   0.5440 
  3 N        0.9310     2.9510     1.5140 N.am  1 <1>  -0.6600 
  4 C       -1.4890     2.4520     1.6100 C.ar  1 <1>   0.0860 
  5 C        2.3480     2.5090     1.6640 C.3   1 <1>   0.1400 
  6 C        0.7620     4.0700     0.5390 C.3   1 <1>   0.1400 
  7 C       -1.9870     2.2520     0.3200 C.ar  1 <1>   0.0830 
  8 C       -2.3520     2.9600     2.5790 C.ar  1 <1>  -0.1500 
  9 C        2.8960     2.0770     0.2920 C.3   1 <1>   0.3430 
 10 C        1.3290     3.6610    -0.8360 C.3   1 <1>   0.3430 
 11 O       -1.1630     1.7210    -0.6170 O.3   1 <1>  -0.3630 
 12 C       -3.2990     2.6050    -0.0060 C.ar  1 <1>   0.0820 
 13 C       -3.6570     3.2900     2.2710 C.ar  1 <1>  -0.1500 
 14 N        2.7550     3.1660    -0.7470 N.4   1 <1>  -0.9590 
 15 C       -1.3940     0.3650    -0.9380 C.3   1 <1>   0.0400 
 16 O       -3.7070     2.4350    -1.2960 O.3   1 <1>  -0.3630 
 17 C       -4.1320     3.1200     0.9820 C.ar  1 <1>  -0.1500 
 18 C        3.2260     2.6890    -2.0810 C.3   1 <1>   0.2630 
 19 C       -5.0350     2.7020    -1.6940 C.3   1 <1>   0.0400 
 20 H        2.4230     1.6840     2.3520 H     1 <1>   0.0800 
 21 H        2.9370     3.3150     2.0640 H     1 <1>   0.0800 
 22 H        1.2810     4.9400     0.9040 H     1 <1>   0.0800 
 23 H       -0.2740     4.3390     0.4320 H     1 <1>   0.0800 
 24 H       -1.9870     3.0930     3.5840 H     1 <1>   0.1500 
 25 H        2.3510     1.2020    -0.0230 H     1 <1>   0.0800 
 26 H        3.9320     1.8010     0.3970 H     1 <1>   0.0800 
 27 H        1.2740     4.5040    -1.5040 H     1 <1>   0.0800 
 28 H        0.7040     2.8830    -1.2410 H     1 <1>   0.0800 
 29 H       -4.3080     3.6810     3.0350 H     1 <1>   0.1500 
 30 H        3.3400     3.9570    -0.4480 H     1 <1>   0.4500 
 31 H       -0.6660     0.0570    -1.6660 H     1 <1>   0.0800 
 32 H       -2.3840     0.2600    -1.3450 H     1 <1>   0.0800 
 33 H       -1.2950    -0.2260    -0.0430 H     1 <1>   0.0800 
 34 H       -5.1490     3.3950     0.7740 H     1 <1>   0.1500 
 35 H        2.6230     1.8600    -2.4150 H     1 <1>   0.0800 
 36 H        4.2530     2.3670    -2.0230 H     1 <1>   0.0800 
 37 H        3.1550     3.4810    -2.8090 H     1 <1>   0.0800 
 38 H       -5.1230     2.4680    -2.7400 H     1 <1>   0.0800 
 39 H       -5.2460     3.7440    -1.5360 H     1 <1>   0.0800 
 40 H       -5.7020     2.0800    -1.1250 H     1 <1>   0.0800 
@<TRIPOS>BOND
  1   1   2  2   
  2   2   3  am  
  3   2   4  1   
  4   3   5  1   
  5   3   6  1   
  6   4   7  ar  
  7   4   8  ar  
  8   5   9  1   
  9   5  20  1   
 10   5  21  1   
 11   6  10  1   
 12   6  22  1   
 13   6  23  1   
 14   7  11  1   
 15   7  12  ar  
 16   8  13  ar  
 17   8  24  1   
 18   9  14  1   
 19   9  25  1   
 20   9  26  1   
 21  10  14  1   
 22  10  27  1   
 23  10  28  1   
 24  11  15  1   
 25  12  16  1   
 26  12  17  ar  
 27  13  17  ar  
 28  13  29  1   
 29  14  18  1   
 30  14  30  1   
 31  15  31  1   
 32  15  32  1   
 33  15  33  1   
 34  16  19  1   
 35  17  34  1   
 36  18  35  1   
 37  18  36  1   
 38  18  37  1   
 39  19  38  1   
 40  19  39  1   
 41  19  40  1   
@<TRIPOS>SUBSTRUCTURE
  1 ****   7 GROUP 4 **** **** 0

# MOE 2024.06 (io_trps.svl 2023.06)
