@<TRIPOS>MOLECULE
NONAME
42 44 1 0 0 
SMALL
USER_CHARGES


@<TRIPOS>ATOM
  1 O        0.0050     2.2330     1.9970 O.2   1 <1>  -0.5700 
  2 C        0.1690     2.6660     0.8830 C.2   1 <1>   0.5690 
  3 N        1.3210     2.4820     0.1650 N.am  1 <1>  -0.5470 
  4 C       -0.9420     3.4780     0.2120 C.3   1 <1>  -0.0190 
  5 C        2.4990     1.7730     0.4540 C.ar  1 <1>   0.1170 
  6 C       -1.9960     4.0010     1.2120 C.3   1 <1>  -0.1600 
  7 C       -1.6350     2.6590    -0.8940 C.3   1 <1>  -0.1600 
  8 C        3.7030     2.1340    -0.2160 C.ar  1 <1>   0.0000 
  9 C        2.5050     0.7200     1.3410 C.ar  1 <1>  -0.1500 
 10 C       -3.1060     4.7860     0.5090 C.3   1 <1>   0.1400 
 11 C       -2.7500     3.4560    -1.5770 C.3   1 <1>   0.1400 
 12 C        4.8730     1.3750     0.0260 C.ar  1 <1>   0.0000 
 13 C        3.8070     3.2230    -1.1150 C.ar  1 <1>  -0.1500 
 14 C        3.6660    -0.0120     1.5900 C.ar  1 <1>  -0.1500 
 15 N       -3.7160     3.9380    -0.5520 N.am  1 <1>  -0.6600 
 16 C        4.8240     0.3080     0.9410 C.ar  1 <1>  -0.1500 
 17 C        6.0640     1.7060    -0.6500 C.ar  1 <1>  -0.1500 
 18 C        4.9780     3.5250    -1.7540 C.ar  1 <1>  -0.1500 
 19 C       -5.0390     3.5780    -0.6110 C.2   1 <1>   0.5690 
 20 C        6.1200     2.7550    -1.5230 C.ar  1 <1>  -0.1500 
 21 O       -5.4840     2.9040    -1.5090 O.2   1 <1>  -0.5700 
 22 C       -6.0080     4.0160     0.4630 C.3   1 <1>  -0.1790 
 23 H        1.3390     2.9480    -0.7370 H     1 <1>   0.3700 
 24 H       -0.4790     4.3350    -0.2440 H     1 <1>   0.0800 
 25 H       -1.5190     4.6320     1.9410 H     1 <1>   0.0800 
 26 H       -2.4400     3.1740     1.7400 H     1 <1>   0.0800 
 27 H       -2.0610     1.7650    -0.4700 H     1 <1>   0.0800 
 28 H       -0.9190     2.3560    -1.6370 H     1 <1>   0.0800 
 29 H        1.6090     0.4300     1.8580 H     1 <1>   0.1500 
 30 H       -2.6970     5.6720     0.0550 H     1 <1>   0.0800 
 31 H       -3.8370     5.0950     1.2340 H     1 <1>   0.0800 
 32 H       -3.2430     2.8310    -2.3030 H     1 <1>   0.0800 
 33 H       -2.3380     4.3040    -2.0960 H     1 <1>   0.0800 
 34 H        2.9500     3.8400    -1.3010 H     1 <1>   0.1500 
 35 H        3.6300    -0.8270     2.2930 H     1 <1>   0.1500 
 36 H        5.7210    -0.2560     1.1260 H     1 <1>   0.1500 
 37 H        6.9410     1.1120    -0.4630 H     1 <1>   0.1500 
 38 H        5.0400     4.3550    -2.4370 H     1 <1>   0.1500 
 39 H        7.0340     3.0030    -2.0360 H     1 <1>   0.1500 
 40 H       -6.0710     5.0870     0.4820 H     1 <1>   0.0800 
 41 H       -5.6840     3.6480     1.4180 H     1 <1>   0.0800 
 42 H       -6.9830     3.6180     0.2540 H     1 <1>   0.0800 
@<TRIPOS>BOND
  1   1   2  2   
  2   2   3  am  
  3   2   4  1   
  4   3   5  1   
  5   3  23  1   
  6   4   6  1   
  7   4   7  1   
  8   4  24  1   
  9   5   8  ar  
 10   5   9  ar  
 11   6  10  1   
 12   6  25  1   
 13   6  26  1   
 14   7  11  1   
 15   7  27  1   
 16   7  28  1   
 17   8  12  ar  
 18   8  13  ar  
 19   9  14  ar  
 20   9  29  1   
 21  10  15  1   
 22  10  30  1   
 23  10  31  1   
 24  11  15  1   
 25  11  32  1   
 26  11  33  1   
 27  12  16  ar  
 28  12  17  ar  
 29  13  18  ar  
 30  13  34  1   
 31  14  16  ar  
 32  14  35  1   
 33  15  19  am  
 34  16  36  1   
 35  17  20  ar  
 36  17  37  1   
 37  18  20  ar  
 38  18  38  1   
 39  19  21  2   
 40  19  22  1   
 41  20  39  1   
 42  22  40  1   
 43  22  41  1   
 44  22  42  1   
@<TRIPOS>SUBSTRUCTURE
  1 ****   3 GROUP 4 **** **** 0

# MOE 2024.06 (io_trps.svl 2023.06)
