@<TRIPOS>MOLECULE
NONAME
48 50 1 0 0 
SMALL
USER_CHARGES


@<TRIPOS>ATOM
  1 S        4.2060    -1.6060     1.0220 S.3   1 <1>  -0.3320 
  2 C        2.9090    -1.8830    -0.2020 C.ar  1 <1>   0.1020 
  3 C        5.1280    -3.2020     1.1720 C.3   1 <1>  -0.0100 
  4 C        2.4480    -0.8220    -0.9920 C.ar  1 <1>   0.0860 
  5 C        2.3750    -3.1580    -0.3110 C.ar  1 <1>  -0.1500 
  6 C        2.9960     0.5190    -0.9620 C.2   1 <1>   0.5440 
  7 C        1.4030    -1.1040    -1.8750 C.ar  1 <1>  -0.1500 
  8 C        1.3530    -3.4040    -1.2080 C.ar  1 <1>  -0.1500 
  9 O        2.2500     1.4780    -0.9230 O.2   1 <1>  -0.5700 
 10 N        4.3560     0.7080    -1.0340 N.am  1 <1>  -0.5470 
 11 C        0.8640    -2.3720    -1.9890 C.ar  1 <1>  -0.1500 
 12 C        5.1620     1.8520    -1.1300 C.ar  1 <1>   0.1170 
 13 C        6.4910     1.7990    -0.6750 C.ar  1 <1>   0.0860 
 14 C        4.6820     3.0400    -1.6790 C.ar  1 <1>  -0.1500 
 15 C        7.0330     0.5940    -0.0860 C.2   1 <1>   0.5440 
 16 C        7.2840     2.9430    -0.7880 C.ar  1 <1>  -0.1500 
 17 C        5.4820     4.1600    -1.7760 C.ar  1 <1>  -0.1500 
 18 O        6.8820    -0.4900    -0.6200 O.2   1 <1>  -0.5700 
 19 N        7.7050     0.6570     1.1030 N.am  1 <1>  -0.7300 
 20 C        6.7900     4.1130    -1.3290 C.ar  1 <1>  -0.1500 
 21 C        8.0530    -0.5200     1.9520 C.3   1 <1>   0.1400 
 22 C        9.0500    -1.4750     1.2760 C.3   1 <1>   0.2000 
 23 O        9.4500    -2.4410     2.1920 O.3   1 <1>  -0.5600 
 24 C       10.3540    -0.8280     0.8270 C.3   1 <1>  -0.1600 
 25 C       10.6500    -3.0150     1.7840 C.3   1 <1>   0.1200 
 26 C       11.3530    -1.9700     0.9190 C.3   1 <1>  -0.1600 
 27 H        6.0490    -3.0010     1.6890 H     1 <1>   0.0800 
 28 H        5.3250    -3.5640     0.1780 H     1 <1>   0.0800 
 29 H        4.5220    -3.8900     1.7310 H     1 <1>   0.0800 
 30 H        2.7330    -3.9600     0.3060 H     1 <1>   0.1500 
 31 H        1.0140    -0.3060    -2.4840 H     1 <1>   0.1500 
 32 H        0.9330    -4.3920    -1.2960 H     1 <1>   0.1500 
 33 H        4.8990    -0.1530    -0.8670 H     1 <1>   0.3700 
 34 H        0.0620    -2.5560    -2.6830 H     1 <1>   0.1500 
 35 H        3.6700     3.0900    -2.0380 H     1 <1>   0.1500 
 36 H        8.3060     2.9090    -0.4500 H     1 <1>   0.1500 
 37 H        5.0880     5.0680    -2.2010 H     1 <1>   0.1500 
 38 H        7.7020     1.5490     1.6000 H     1 <1>   0.3700 
 39 H        7.4170     4.9850    -1.4080 H     1 <1>   0.1500 
 40 H        7.1520    -1.0600     2.1810 H     1 <1>   0.0800 
 41 H        8.4830    -0.1670     2.8720 H     1 <1>   0.0800 
 42 H        8.5820    -1.9890     0.4540 H     1 <1>   0.0800 
 43 H       10.6240    -0.0410     1.5090 H     1 <1>   0.0800 
 44 H       10.2690    -0.4260    -0.1670 H     1 <1>   0.0800 
 45 H       10.4220    -3.9020     1.2170 H     1 <1>   0.0800 
 46 H       11.2220    -3.2710     2.6590 H     1 <1>   0.0800 
 47 H       12.2770    -1.6520     1.3680 H     1 <1>   0.0800 
 48 H       11.5590    -2.3840    -0.0530 H     1 <1>   0.0800 
@<TRIPOS>BOND
  1   1   2  1   
  2   1   3  1   
  3   2   4  ar  
  4   2   5  ar  
  5   3  27  1   
  6   3  28  1   
  7   3  29  1   
  8   4   6  1   
  9   4   7  ar  
 10   5   8  ar  
 11   5  30  1   
 12   6   9  2   
 13   6  10  am  
 14   7  11  ar  
 15   7  31  1   
 16   8  11  ar  
 17   8  32  1   
 18  10  12  1   
 19  10  33  1   
 20  11  34  1   
 21  12  13  ar  
 22  12  14  ar  
 23  13  15  1   
 24  13  16  ar  
 25  14  17  ar  
 26  14  35  1   
 27  15  18  2   
 28  15  19  am  
 29  16  20  ar  
 30  16  36  1   
 31  17  20  ar  
 32  17  37  1   
 33  19  21  1   
 34  19  38  1   
 35  20  39  1   
 36  21  22  1   
 37  21  40  1   
 38  21  41  1   
 39  22  23  1   
 40  22  24  1   
 41  22  42  1   
 42  23  25  1   
 43  24  26  1   
 44  24  43  1   
 45  24  44  1   
 46  25  26  1   
 47  25  45  1   
 48  25  46  1   
 49  26  47  1   
 50  26  48  1   
@<TRIPOS>SUBSTRUCTURE
  1 ****  18 GROUP 4 **** **** 0

# MOE 2024.06 (io_trps.svl 2023.06)
