@<TRIPOS>MOLECULE
NONAME
38 42 1 0 0 
SMALL
USER_CHARGES


@<TRIPOS>ATOM
  1 CL      -0.3890     0.7510     1.6840 Cl    1 <1>  -0.1770 
  2 C        1.0730     1.3410     0.9210 C.ar  1 <1>   0.1770 
  3 C        1.0510     2.5290     0.1980 C.ar  1 <1>   0.1170 
  4 C        2.2280     0.5970     1.0500 C.ar  1 <1>  -0.1500 
  5 N       -0.1260     3.2880     0.0710 N.am  1 <1>  -0.2370 
  6 C        2.2300     2.9530    -0.4050 C.ar  1 <1>  -0.1500 
  7 C        3.3940     1.0370     0.4460 C.ar  1 <1>  -0.1500 
  8 C       -0.7240     4.0030     1.0940 C.2   1 <1>   0.5690 
  9 C       -0.9570     3.2960    -1.0340 C.2   1 <1>   0.5690 
 10 C        3.4100     2.2210    -0.2880 C.ar  1 <1>  -0.1440 
 11 O       -0.2100     4.4130     2.1010 O.2   1 <1>  -0.5700 
 12 C       -2.1720     4.1650     0.7300 C.3   1 <1>  -0.0190 
 13 O       -0.8520     2.6420    -2.0380 O.2   1 <1>  -0.5700 
 14 C       -2.0010     4.3460    -0.7850 C.3   1 <1>  -0.0190 
 15 C        4.7090     2.6980    -0.9620 C.3   1 <1>   1.1640 
 16 C       -3.3840     5.0770     1.0430 C.3   1 <1>   0.1530 
 17 C       -3.3960     4.8080    -1.2440 C.3   1 <1>   0.1530 
 18 F        4.8880     2.1310    -2.1470 F     1 <1>  -0.3400 
 19 F        4.7320     4.0100    -1.1690 F     1 <1>  -0.3400 
 20 F        5.7900     2.4170    -0.2450 F     1 <1>  -0.3400 
 21 C       -4.5530     4.1710     0.6700 C.2   1 <1>  -0.2880 
 22 C       -3.4870     5.9430    -0.2130 C.3   1 <1>  -0.1900 
 23 C       -4.5220     3.9700    -0.6510 C.2   1 <1>  -0.2880 
 24 C       -4.4150     7.1060    -0.3320 C.3   1 <1>  -0.2000 
 25 C       -2.9170     7.3180    -0.3530 C.3   1 <1>  -0.2000 
 26 H        2.2130    -0.3180     1.6160 H     1 <1>   0.1500 
 27 H        2.2140     3.8680    -0.9720 H     1 <1>   0.1500 
 28 H        4.2910     0.4470     0.5520 H     1 <1>   0.1500 
 29 H       -2.5240     3.1640     0.9310 H     1 <1>   0.0800 
 30 H       -1.3990     5.2240    -0.9700 H     1 <1>   0.0800 
 31 H       -3.4360     5.5670     2.0000 H     1 <1>   0.0800 
 32 H       -3.5060     5.1290    -2.2660 H     1 <1>   0.0800 
 33 H       -5.2060     3.7790     1.4310 H     1 <1>   0.1500 
 34 H       -5.1410     3.3620    -1.2890 H     1 <1>   0.1500 
 35 H       -4.9720     7.4140     0.5360 H     1 <1>   0.1000 
 36 H       -4.9720     7.2330    -1.2440 H     1 <1>   0.1000 
 37 H       -2.4670     7.6200    -1.2830 H     1 <1>   0.1000 
 38 H       -2.4570     7.7870     0.5000 H     1 <1>   0.1000 
@<TRIPOS>BOND
  1   1   2  1   
  2   2   3  ar  
  3   2   4  ar  
  4   3   5  1   
  5   3   6  ar  
  6   4   7  ar  
  7   4  26  1   
  8   5   8  am  
  9   5   9  am  
 10   6  10  ar  
 11   6  27  1   
 12   7  10  ar  
 13   7  28  1   
 14   8  11  2   
 15   8  12  1   
 16   9  13  2   
 17   9  14  1   
 18  10  15  1   
 19  12  14  1   
 20  12  16  1   
 21  12  29  1   
 22  14  17  1   
 23  14  30  1   
 24  15  18  1   
 25  15  19  1   
 26  15  20  1   
 27  16  21  1   
 28  16  22  1   
 29  16  31  1   
 30  17  22  1   
 31  17  23  1   
 32  17  32  1   
 33  21  23  2   
 34  21  33  1   
 35  22  24  1   
 36  22  25  1   
 37  23  34  1   
 38  24  25  1   
 39  24  35  1   
 40  24  36  1   
 41  25  37  1   
 42  25  38  1   
@<TRIPOS>SUBSTRUCTURE
  1 ****   5 GROUP 4 **** **** 0

# MOE 2024.06 (io_trps.svl 2023.06)
