@<TRIPOS>MOLECULE
NONAME
47 49 1 0 0 
SMALL
USER_CHARGES


@<TRIPOS>ATOM
  1 O       -0.1310     1.5540     2.3930 O.2   1 <1>  -0.5700 
  2 C       -0.0640     2.6750     1.9390 C.2   1 <1>   0.5690 
  3 N        1.1590     3.2240     1.6150 N.am  1 <1>  -0.6600 
  4 C       -1.4130     3.4080     1.7590 C.3   1 <1>   0.2610 
  5 C        1.3910     4.5560     0.9680 C.3   1 <1>   0.1400 
  6 C        2.4140     2.4050     1.6660 C.3   1 <1>   0.1400 
  7 O       -1.5550     4.0240     0.4840 O.3   1 <1>  -0.3630 
  8 C       -1.6630     4.4960     2.8210 C.3   1 <1>  -0.1600 
  9 C        1.9850     4.3820    -0.4410 C.3   1 <1>   0.2090 
 10 C        3.0300     2.2490     0.2640 C.3   1 <1>   0.2090 
 11 C       -1.5130     3.3260    -0.6790 C.ar  1 <1>   0.0820 
 12 C       -1.7280     3.9300     4.2470 C.3   1 <1>  -0.2400 
 13 N        3.2430     3.5800    -0.3890 N.pl3 1 <1>  -0.8380 
 14 C       -1.4820     1.9360    -0.7570 C.ar  1 <1>  -0.1500 
 15 C       -1.4880     4.0740    -1.8450 C.ar  1 <1>  -0.1500 
 16 C        4.0640     3.6380    -1.4990 C.ar  1 <1>   0.4100 
 17 C       -1.4100     1.3140    -1.9920 C.ar  1 <1>  -0.1500 
 18 C       -1.4170     3.4510    -3.0780 C.ar  1 <1>  -0.1500 
 19 N        4.1470     2.5510    -2.2600 N.ar  1 <1>  -0.6200 
 20 C        4.7550     4.8150    -1.7780 C.ar  1 <1>  -0.1500 
 21 C       -1.3750     2.0700    -3.1510 C.ar  1 <1>  -0.1500 
 22 C        4.9280     2.6460    -3.3220 C.ar  1 <1>   0.1600 
 23 C        5.5640     4.9000    -2.8860 C.ar  1 <1>  -0.1500 
 24 C        5.6460     3.7740    -3.6780 C.ar  1 <1>  -0.1500 
 25 H       -2.2010     2.6810     1.8370 H     1 <1>   0.0800 
 26 H        2.0870     5.1160     1.5670 H     1 <1>   0.0800 
 27 H        0.4890     5.1300     0.9050 H     1 <1>   0.0800 
 28 H        2.2200     1.4290     2.0720 H     1 <1>   0.0800 
 29 H        3.1270     2.8910     2.3080 H     1 <1>   0.0800 
 30 H       -2.5980     4.9810     2.6020 H     1 <1>   0.0800 
 31 H       -0.8800     5.2320     2.7750 H     1 <1>   0.0800 
 32 H        2.1860     5.3490    -0.8670 H     1 <1>   0.0800 
 33 H        1.2720     3.8810    -1.0730 H     1 <1>   0.0800 
 34 H        2.3740     1.6520    -0.3480 H     1 <1>   0.0800 
 35 H        3.9720     1.7350     0.3410 H     1 <1>   0.0800 
 36 H       -2.5020     3.1860     4.3230 H     1 <1>   0.0800 
 37 H       -1.9430     4.7180     4.9470 H     1 <1>   0.0800 
 38 H       -0.7900     3.4790     4.5230 H     1 <1>   0.0800 
 39 H       -1.5120     1.3190     0.1210 H     1 <1>   0.1500 
 40 H       -1.5240     5.1460    -1.7830 H     1 <1>   0.1500 
 41 H       -1.3780     0.2400    -2.0500 H     1 <1>   0.1500 
 42 H       -1.3930     4.0380    -3.9800 H     1 <1>   0.1500 
 43 H        4.6470     5.6460    -1.1090 H     1 <1>   0.1500 
 44 H       -1.3150     1.5820    -4.1090 H     1 <1>   0.1500 
 45 H        5.0000     1.7720    -3.9460 H     1 <1>   0.1500 
 46 H        6.1090     5.7980    -3.1230 H     1 <1>   0.1500 
 47 H        6.2600     3.7690    -4.5600 H     1 <1>   0.1500 
@<TRIPOS>BOND
  1   1   2  2   
  2   2   3  am  
  3   2   4  1   
  4   3   5  1   
  5   3   6  1   
  6   4   7  1   
  7   4   8  1   
  8   4  25  1   
  9   5   9  1   
 10   5  26  1   
 11   5  27  1   
 12   6  10  1   
 13   6  28  1   
 14   6  29  1   
 15   7  11  1   
 16   8  12  1   
 17   8  30  1   
 18   8  31  1   
 19   9  13  1   
 20   9  32  1   
 21   9  33  1   
 22  10  13  1   
 23  10  34  1   
 24  10  35  1   
 25  11  14  ar  
 26  11  15  ar  
 27  12  36  1   
 28  12  37  1   
 29  12  38  1   
 30  13  16  1   
 31  14  17  ar  
 32  14  39  1   
 33  15  18  ar  
 34  15  40  1   
 35  16  19  ar  
 36  16  20  ar  
 37  17  21  ar  
 38  17  41  1   
 39  18  21  ar  
 40  18  42  1   
 41  19  22  ar  
 42  20  23  ar  
 43  20  43  1   
 44  21  44  1   
 45  22  24  ar  
 46  22  45  1   
 47  23  24  ar  
 48  23  46  1   
 49  24  47  1   
@<TRIPOS>SUBSTRUCTURE
  1 ****   9 GROUP 4 **** **** 0

# MOE 2024.06 (io_trps.svl 2023.06)
