@<TRIPOS>MOLECULE
NONAME
49 51 1 0 0 
SMALL
USER_CHARGES


@<TRIPOS>ATOM
  1 S        0.2000    -0.7420     1.7060 S.o2  1 <1>   1.4470 
  2 O        1.3260    -1.2100     2.4850 O.2   1 <1>  -0.6500 
  3 O       -0.5190     0.4420     2.1240 O.2   1 <1>  -0.6500 
  4 N        0.7590    -0.4790     0.1260 N.am  1 <1>  -0.8490 
  5 C       -1.0120    -2.0750     1.4910 C.ar  1 <1>  -0.0090 
  6 C        1.5650    -1.6120    -0.3460 C.3   1 <1>   0.1960 
  7 C        1.4620     0.8050     0.0060 C.3   1 <1>   0.1960 
  8 C       -1.9680    -1.9980     0.4910 C.ar  1 <1>  -0.1500 
  9 C       -1.0260    -3.1920     2.3150 C.ar  1 <1>  -0.1500 
 10 C        1.8590    -1.5620    -1.8500 C.3   1 <1>  -0.1600 
 11 C        1.3430     1.3420    -1.4230 C.3   1 <1>  -0.1600 
 12 C       -2.9330    -2.9840     0.2870 C.ar  1 <1>   0.0860 
 13 C       -1.9630    -4.1920     2.1360 C.ar  1 <1>  -0.1500 
 14 C        2.9520    -0.5480    -2.2170 C.3   1 <1>  -0.1600 
 15 C        2.4460     0.8900    -2.3940 C.3   1 <1>  -0.1600 
 16 C       -2.9140    -4.0980     1.1340 C.ar  1 <1>  -0.1440 
 17 C       -3.9050    -2.8020    -0.7740 C.2   1 <1>   0.5440 
 18 C       -3.9310    -5.2220     0.9760 C.3   1 <1>  -0.0970 
 19 O       -4.0540    -3.6440    -1.6350 O.2   1 <1>  -0.5700 
 20 N       -4.6360    -1.6370    -0.7950 N.am  1 <1>  -0.5470 
 21 C       -5.5690    -1.1440    -1.7280 C.ar  1 <1>   0.1170 
 22 C       -5.7650     0.2330    -1.8540 C.ar  1 <1>   0.1600 
 23 C       -6.3330    -1.9690    -2.5380 C.ar  1 <1>  -0.1500 
 24 N       -6.6150     0.8260    -2.6780 N.ar  1 <1>  -0.6200 
 25 C       -7.2220    -1.3740    -3.4070 C.ar  1 <1>  -0.1500 
 26 C       -7.3230     0.0060    -3.4380 C.ar  1 <1>   0.1600 
 27 H        1.0260    -2.5250    -0.1580 H     1 <1>   0.0800 
 28 H        2.4880    -1.6660     0.2090 H     1 <1>   0.0800 
 29 H        2.4900     0.7160     0.3150 H     1 <1>   0.0800 
 30 H        0.9960     1.5340     0.6480 H     1 <1>   0.0800 
 31 H       -1.9540    -1.1400    -0.1600 H     1 <1>   0.1500 
 32 H       -0.2950    -3.2800     3.1030 H     1 <1>   0.1500 
 33 H        0.9550    -1.3830    -2.4050 H     1 <1>   0.0800 
 34 H        2.2150    -2.5370    -2.1330 H     1 <1>   0.0800 
 35 H        1.3670     2.4160    -1.3820 H     1 <1>   0.0800 
 36 H        0.3780     1.0700    -1.8150 H     1 <1>   0.0800 
 37 H       -1.9450    -5.0490     2.7900 H     1 <1>   0.1500 
 38 H        3.4120    -0.8520    -3.1420 H     1 <1>   0.0800 
 39 H        3.7230    -0.5680    -1.4660 H     1 <1>   0.0800 
 40 H        3.2890     1.5520    -2.2990 H     1 <1>   0.0800 
 41 H        2.0690     1.0040    -3.3960 H     1 <1>   0.0800 
 42 H       -4.9290    -4.8230     0.9490 H     1 <1>   0.0800 
 43 H       -3.8700    -5.9220     1.7900 H     1 <1>   0.0800 
 44 H       -3.7490    -5.7520     0.0570 H     1 <1>   0.0800 
 45 H       -4.4270    -1.0050    -0.0230 H     1 <1>   0.3700 
 46 H       -5.1770     0.8830    -1.2330 H     1 <1>   0.1500 
 47 H       -6.2430    -3.0390    -2.4940 H     1 <1>   0.1500 
 48 H       -7.8330    -1.9750    -4.0560 H     1 <1>   0.1500 
 49 H       -8.0220     0.4580    -4.1220 H     1 <1>   0.1500 
@<TRIPOS>BOND
  1   1   2  2   
  2   1   3  2   
  3   1   4  am  
  4   1   5  1   
  5   4   6  1   
  6   4   7  1   
  7   5   8  ar  
  8   5   9  ar  
  9   6  10  1   
 10   6  27  1   
 11   6  28  1   
 12   7  11  1   
 13   7  29  1   
 14   7  30  1   
 15   8  12  ar  
 16   8  31  1   
 17   9  13  ar  
 18   9  32  1   
 19  10  14  1   
 20  10  33  1   
 21  10  34  1   
 22  11  15  1   
 23  11  35  1   
 24  11  36  1   
 25  12  16  ar  
 26  12  17  1   
 27  13  16  ar  
 28  13  37  1   
 29  14  15  1   
 30  14  38  1   
 31  14  39  1   
 32  15  40  1   
 33  15  41  1   
 34  16  18  1   
 35  17  19  2   
 36  17  20  am  
 37  18  42  1   
 38  18  43  1   
 39  18  44  1   
 40  20  21  1   
 41  20  45  1   
 42  21  22  ar  
 43  21  23  ar  
 44  22  24  ar  
 45  22  46  1   
 46  23  25  ar  
 47  23  47  1   
 48  24  26  ar  
 49  25  26  ar  
 50  25  48  1   
 51  26  49  1   
@<TRIPOS>SUBSTRUCTURE
  1 ****   8 GROUP 4 **** **** 0

# MOE 2024.06 (io_trps.svl 2023.06)
