@<TRIPOS>MOLECULE
NONAME
39 41 1 0 0 
SMALL
USER_CHARGES


@<TRIPOS>ATOM
  1 S        0.0840    -0.2270    -2.0460 S.o2  1 <1>   1.4470 
  2 O        0.1710    -1.5240    -2.6810 O.2   1 <1>  -0.6500 
  3 O       -0.1410     0.9470    -2.8640 O.2   1 <1>  -0.6500 
  4 N       -1.1920    -0.2970    -0.9320 N.am  1 <1>  -0.8490 
  5 C        1.5410     0.0170    -0.9910 C.ar  1 <1>  -0.0090 
  6 C       -1.4510     1.0080    -0.3120 C.3   1 <1>   0.1960 
  7 C       -2.4070    -0.8320    -1.5530 C.3   1 <1>   0.1960 
  8 C        2.4230     1.0490    -1.1930 C.ar  1 <1>  -0.1500 
  9 C        1.7930    -0.8630     0.0750 C.ar  1 <1>  -0.1500 
 10 C       -2.5000     0.8690     0.7950 C.3   1 <1>  -0.1600 
 11 C       -3.5020    -1.0290    -0.4980 C.3   1 <1>  -0.1600 
 12 C        3.5510     1.2530    -0.3740 C.ar  1 <1>   0.0000 
 13 C        2.8770    -0.6980     0.8910 C.ar  1 <1>  -0.1500 
 14 C       -3.8030     0.2730     0.2530 C.3   1 <1>  -0.1600 
 15 C        3.7830     0.3610     0.6920 C.ar  1 <1>   0.0000 
 16 C        4.4550     2.3150    -0.5780 C.ar  1 <1>  -0.1500 
 17 C        4.9090     0.5670     1.5130 C.ar  1 <1>  -0.1500 
 18 C        5.5440     2.4970     0.2320 C.ar  1 <1>  -0.1430 
 19 C        5.7690     1.6070     1.2900 C.ar  1 <1>  -0.1500 
 20 C        6.5190     3.6400     0.0140 C.3   1 <1>  -0.0970 
 21 H       -1.7970     1.7080    -1.0560 H     1 <1>   0.0800 
 22 H       -0.5420     1.3950     0.1170 H     1 <1>   0.0800 
 23 H       -2.1950    -1.7850    -2.0090 H     1 <1>   0.0800 
 24 H       -2.7500    -0.1600    -2.3240 H     1 <1>   0.0800 
 25 H        2.2610     1.7380    -2.0040 H     1 <1>   0.1500 
 26 H        1.1050    -1.6780     0.2350 H     1 <1>   0.1500 
 27 H       -2.6950     1.8350     1.2250 H     1 <1>   0.0800 
 28 H       -2.1030     0.2370     1.5710 H     1 <1>   0.0800 
 29 H       -3.1760    -1.7830     0.1980 H     1 <1>   0.0800 
 30 H       -4.3960    -1.3880    -0.9760 H     1 <1>   0.0800 
 31 H        3.0570    -1.3800     1.7020 H     1 <1>   0.1500 
 32 H       -4.2660     0.9750    -0.4200 H     1 <1>   0.0800 
 33 H       -4.4870     0.0820     1.0620 H     1 <1>   0.0800 
 34 H        4.2670     2.9870    -1.3960 H     1 <1>   0.1500 
 35 H        5.0840    -0.1150     2.3250 H     1 <1>   0.1500 
 36 H        6.6250     1.7530     1.9250 H     1 <1>   0.1500 
 37 H        6.2240     4.2410    -0.8270 H     1 <1>   0.0800 
 38 H        7.5040     3.2500    -0.1710 H     1 <1>   0.0800 
 39 H        6.5510     4.2660     0.8880 H     1 <1>   0.0800 
@<TRIPOS>BOND
  1   1   2  2   
  2   1   3  2   
  3   1   4  am  
  4   1   5  1   
  5   4   6  1   
  6   4   7  1   
  7   5   8  ar  
  8   5   9  ar  
  9   6  10  1   
 10   6  21  1   
 11   6  22  1   
 12   7  11  1   
 13   7  23  1   
 14   7  24  1   
 15   8  12  ar  
 16   8  25  1   
 17   9  13  ar  
 18   9  26  1   
 19  10  14  1   
 20  10  27  1   
 21  10  28  1   
 22  11  14  1   
 23  11  29  1   
 24  11  30  1   
 25  12  15  ar  
 26  12  16  ar  
 27  13  15  ar  
 28  13  31  1   
 29  14  32  1   
 30  14  33  1   
 31  15  17  ar  
 32  16  18  ar  
 33  16  34  1   
 34  17  19  ar  
 35  17  35  1   
 36  18  19  ar  
 37  18  20  1   
 38  19  36  1   
 39  20  37  1   
 40  20  38  1   
 41  20  39  1   
@<TRIPOS>SUBSTRUCTURE
  1 ****   5 GROUP 4 **** **** 0

# MOE 2024.06 (io_trps.svl 2023.06)
