@<TRIPOS>MOLECULE
NONAME
51 52 1 0 0 
SMALL
USER_CHARGES


@<TRIPOS>ATOM
  1 O       -0.1290    -1.2050    -1.7470 O.2   1 <1>  -0.5700 
  2 C        0.6760    -1.3860    -0.8650 C.2   1 <1>   0.5690 
  3 N        0.3090    -1.8340     0.3700 N.am  1 <1>  -0.7300 
  4 C        2.1490    -1.1090    -1.1470 C.3   1 <1>  -0.0190 
  5 C       -1.0530    -2.1550     0.8410 C.3   1 <1>   0.2200 
  6 C        2.9790    -2.4090    -1.1370 C.3   1 <1>  -0.1600 
  7 C        2.7410    -0.0730    -0.1690 C.3   1 <1>  -0.1600 
  8 C       -1.6330    -3.3110     0.0160 C.3   1 <1>  -0.1600 
  9 C       -1.9300    -0.8970     0.7990 C.3   1 <1>  -0.1600 
 10 C        4.4640    -2.1300    -1.3850 C.3   1 <1>   0.1400 
 11 C        4.2300     0.1610    -0.4320 C.3   1 <1>   0.1400 
 12 C       -3.1080    -3.5390     0.3240 C.3   1 <1>   0.3430 
 13 C       -3.3940    -1.2190     1.0750 C.3   1 <1>   0.3430 
 14 N        4.9440    -1.1440    -0.3790 N.am  1 <1>  -0.6600 
 15 N       -3.8520    -2.2670     0.1190 N.4   1 <1>  -0.9590 
 16 C        5.9370    -1.3690     0.5410 C.2   1 <1>   0.5690 
 17 C       -5.3220    -2.4960     0.1770 C.3   1 <1>   0.3430 
 18 O        6.2580    -0.5400     1.3580 O.2   1 <1>  -0.5700 
 19 C        6.6760    -2.6860     0.5730 C.3   1 <1>  -0.1790 
 20 C       -6.0720    -1.3130    -0.4390 C.3   1 <1>  -0.1600 
 21 C       -7.5780    -1.5890    -0.4910 C.3   1 <1>  -0.2400 
 22 H        1.0520    -1.9510     1.0640 H     1 <1>   0.3700 
 23 H        2.2090    -0.6920    -2.1370 H     1 <1>   0.0800 
 24 H       -0.9820    -2.4790     1.8670 H     1 <1>   0.0800 
 25 H        2.6140    -3.0730    -1.9010 H     1 <1>   0.0800 
 26 H        2.8780    -2.9100    -0.1910 H     1 <1>   0.0800 
 27 H        2.6290    -0.4030     0.8480 H     1 <1>   0.0800 
 28 H        2.2150     0.8600    -0.2710 H     1 <1>   0.0800 
 29 H       -1.0870    -4.2110     0.2340 H     1 <1>   0.0800 
 30 H       -1.5400    -3.1190    -1.0370 H     1 <1>   0.0800 
 31 H       -1.8720    -0.4180    -0.1610 H     1 <1>   0.0800 
 32 H       -1.5800    -0.1950     1.5350 H     1 <1>   0.0800 
 33 H        4.6010    -1.7180    -2.3700 H     1 <1>   0.0800 
 34 H        5.0180    -3.0490    -1.3310 H     1 <1>   0.0800 
 35 H        4.6240     0.8450     0.3010 H     1 <1>   0.0800 
 36 H        4.3720     0.6010    -1.4040 H     1 <1>   0.0800 
 37 H       -3.2250    -3.8730     1.3420 H     1 <1>   0.0800 
 38 H       -3.4930    -4.3030    -0.3330 H     1 <1>   0.0800 
 39 H       -3.9790    -0.3210     0.9570 H     1 <1>   0.0800 
 40 H       -3.5090    -1.5690     2.0880 H     1 <1>   0.0800 
 41 H       -3.6200    -1.9340    -0.8300 H     1 <1>   0.4500 
 42 H       -5.6370    -2.6420     1.1980 H     1 <1>   0.0800 
 43 H       -5.5690    -3.3850    -0.3810 H     1 <1>   0.0800 
 44 H        7.1660    -2.8520    -0.3680 H     1 <1>   0.0800 
 45 H        5.9890    -3.4850     0.7770 H     1 <1>   0.0800 
 46 H        7.4190    -2.6650     1.3480 H     1 <1>   0.0800 
 47 H       -5.7210    -1.1410    -1.4420 H     1 <1>   0.0800 
 48 H       -5.9130    -0.4210     0.1410 H     1 <1>   0.0800 
 49 H       -7.7890    -2.4590    -1.0900 H     1 <1>   0.0800 
 50 H       -8.0910    -0.7490    -0.9300 H     1 <1>   0.0800 
 51 H       -7.9750    -1.7440     0.4980 H     1 <1>   0.0800 
@<TRIPOS>BOND
  1   1   2  2   
  2   2   3  am  
  3   2   4  1   
  4   3   5  1   
  5   3  22  1   
  6   4   6  1   
  7   4   7  1   
  8   4  23  1   
  9   5   8  1   
 10   5   9  1   
 11   5  24  1   
 12   6  10  1   
 13   6  25  1   
 14   6  26  1   
 15   7  11  1   
 16   7  27  1   
 17   7  28  1   
 18   8  12  1   
 19   8  29  1   
 20   8  30  1   
 21   9  13  1   
 22   9  31  1   
 23   9  32  1   
 24  10  14  1   
 25  10  33  1   
 26  10  34  1   
 27  11  14  1   
 28  11  35  1   
 29  11  36  1   
 30  12  15  1   
 31  12  37  1   
 32  12  38  1   
 33  13  15  1   
 34  13  39  1   
 35  13  40  1   
 36  14  16  am  
 37  15  17  1   
 38  15  41  1   
 39  16  18  2   
 40  16  19  1   
 41  17  20  1   
 42  17  42  1   
 43  17  43  1   
 44  19  44  1   
 45  19  45  1   
 46  19  46  1   
 47  20  21  1   
 48  20  47  1   
 49  20  48  1   
 50  21  49  1   
 51  21  50  1   
 52  21  51  1   
@<TRIPOS>SUBSTRUCTURE
  1 ****   3 GROUP 4 **** **** 0

# MOE 2024.06 (io_trps.svl 2023.06)
