@<TRIPOS>MOLECULE
NONAME
42 43 1 0 0 
SMALL
USER_CHARGES


@<TRIPOS>ATOM
  1 S       -0.1830     0.5980     0.6860 S.o2  1 <1>   1.2040 
  2 O       -0.1010     0.9290     2.0920 O.2   1 <1>  -0.6500 
  3 O       -0.2290     1.6620    -0.2940 O.2   1 <1>  -0.6500 
  4 C       -1.5540    -0.5470     0.4090 C.ar  1 <1>  -0.0090 
  5 C        1.2270    -0.4220     0.2860 C.3   1 <1>  -0.0550 
  6 C       -2.1930    -0.6240    -0.8200 C.ar  1 <1>  -0.1500 
  7 C       -1.9840    -1.4080     1.4080 C.ar  1 <1>  -0.1500 
  8 C        2.5540     0.3200     0.4870 C.3   1 <1>  -0.0160 
  9 C       -3.2180    -1.5260    -1.0420 C.ar  1 <1>  -0.1500 
 10 C       -3.0090    -2.3120     1.1900 C.ar  1 <1>  -0.1500 
 11 C        3.7230    -0.5360     0.0350 C.ar  1 <1>   0.1660 
 12 C       -3.6480    -2.3920    -0.0430 C.ar  1 <1>  -0.1430 
 13 N        3.8510    -1.7120     0.6310 N.ar  1 <1>  -0.6200 
 14 C        4.5810    -0.0690    -0.9500 C.ar  1 <1>  -0.1500 
 15 C       -4.7970    -3.3820    -0.3370 C.3   1 <1>   0.1440 
 16 C        4.8750    -2.4500     0.2310 C.ar  1 <1>   0.1600 
 17 C        5.6420    -0.8490    -1.3580 C.ar  1 <1>  -0.1500 
 18 C       -5.1490    -4.2750     0.8660 C.3   1 <1>  -0.2400 
 19 C       -6.0620    -2.6000    -0.7200 C.3   1 <1>  -0.2400 
 20 C       -4.3970    -4.3060    -1.4970 C.3   1 <1>  -0.2400 
 21 C        5.7840    -2.0740    -0.7420 C.ar  1 <1>  -0.1500 
 22 H        1.1610    -0.7410    -0.7370 H     1 <1>   0.0800 
 23 H        1.2250    -1.2990     0.9050 H     1 <1>   0.0800 
 24 H       -1.8890     0.0340    -1.6180 H     1 <1>   0.1500 
 25 H       -1.5130    -1.3700     2.3760 H     1 <1>   0.1500 
 26 H        2.6780     0.5570     1.5300 H     1 <1>   0.0800 
 27 H        2.5370     1.2440    -0.0620 H     1 <1>   0.0800 
 28 H       -3.6820    -1.5440    -2.0120 H     1 <1>   0.1500 
 29 H       -3.2920    -2.9470     2.0100 H     1 <1>   0.1500 
 30 H        4.4260     0.8960    -1.3970 H     1 <1>   0.1500 
 31 H        4.9960    -3.4090     0.7070 H     1 <1>   0.1500 
 32 H        6.3270    -0.5180    -2.1190 H     1 <1>   0.1500 
 33 H       -5.4680    -3.6760     1.7000 H     1 <1>   0.0800 
 34 H       -4.2990    -4.8640     1.1610 H     1 <1>   0.0800 
 35 H       -5.9490    -4.9480     0.6150 H     1 <1>   0.0800 
 36 H       -6.3310    -1.9260     0.0740 H     1 <1>   0.0800 
 37 H       -6.8850    -3.2700    -0.8930 H     1 <1>   0.0800 
 38 H       -5.9080    -2.0240    -1.6130 H     1 <1>   0.0800 
 39 H       -3.4930    -4.8340    -1.2520 H     1 <1>   0.0800 
 40 H       -4.2270    -3.7470    -2.3980 H     1 <1>   0.0800 
 41 H       -5.1710    -5.0260    -1.6930 H     1 <1>   0.0800 
 42 H        6.5900    -2.7310    -1.0110 H     1 <1>   0.1500 
@<TRIPOS>BOND
  1   1   2  2   
  2   1   3  2   
  3   1   4  1   
  4   1   5  1   
  5   4   6  ar  
  6   4   7  ar  
  7   5   8  1   
  8   5  22  1   
  9   5  23  1   
 10   6   9  ar  
 11   6  24  1   
 12   7  10  ar  
 13   7  25  1   
 14   8  11  1   
 15   8  26  1   
 16   8  27  1   
 17   9  12  ar  
 18   9  28  1   
 19  10  12  ar  
 20  10  29  1   
 21  11  13  ar  
 22  11  14  ar  
 23  12  15  1   
 24  13  16  ar  
 25  14  17  ar  
 26  14  30  1   
 27  15  18  1   
 28  15  19  1   
 29  15  20  1   
 30  16  21  ar  
 31  16  31  1   
 32  17  21  ar  
 33  17  32  1   
 34  18  33  1   
 35  18  34  1   
 36  18  35  1   
 37  19  36  1   
 38  19  37  1   
 39  19  38  1   
 40  20  39  1   
 41  20  40  1   
 42  20  41  1   
 43  21  42  1   
@<TRIPOS>SUBSTRUCTURE
  1 ****   4 GROUP 4 **** **** 0

# MOE 2024.06 (io_trps.svl 2023.06)
