@<TRIPOS>MOLECULE
NONAME
41 43 1 0 0 
SMALL
USER_CHARGES


@<TRIPOS>ATOM
  1 S       -0.7700    -0.0620     0.9400 S.3   1 <1>  -0.0800 
  2 C        0.8730     0.5420     0.8460 C.2   1 <1>   0.1240 
  3 C       -1.3790     1.5120     0.4330 C.2   1 <1>  -0.1400 
  4 N        1.9910    -0.1730     1.1140 N.pl3 1 <1>  -0.5340 
  5 C        0.9330     1.8420     0.4620 C.2   1 <1>  -0.0860 
  6 C       -0.3820     2.3830     0.2350 C.2   1 <1>  -0.1810 
  7 C       -2.8580     1.7860     0.2630 C.3   1 <1>   0.3000 
  8 C        3.1820     0.4590     0.9870 C.2   1 <1>   0.6410 
  9 C        2.2400     2.4170     0.3560 C.2   1 <1>   0.8670 
 10 C       -0.7170     3.7960    -0.2060 C.3   1 <1>   0.0210 
 11 O       -3.0310     3.0340    -0.3670 O.3   1 <1>  -0.5600 
 12 S        4.5880    -0.5530     1.3500 S.3   1 <1>  -0.3710 
 13 N        3.3650     1.6780     0.6330 N.2   1 <1>  -0.6610 
 14 O        2.4000     3.5790     0.0160 O.2   1 <1>  -0.5700 
 15 C       -2.2210     4.1130     0.0340 C.3   1 <1>   0.2800 
 16 C        6.0220     0.6260     1.2030 C.3   1 <1>   0.1310 
 17 C       -2.5170     4.4380     1.5060 C.3   1 <1>  -0.2400 
 18 C       -2.6570     5.2940    -0.8340 C.3   1 <1>  -0.2400 
 19 C        7.3540    -0.0990     1.3550 C.2   1 <1>   0.6590 
 20 O        7.9930     0.0240     2.3640 O.2   1 <1>  -0.5700 
 21 O        7.8280    -0.8430     0.3570 O.3   1 <1>  -0.4300 
 22 C        7.1590    -1.1200    -0.8520 C.3   1 <1>   0.1200 
 23 C        8.0990    -1.9470    -1.7230 C.3   1 <1>  -0.2400 
 24 H        1.9640    -1.1500     1.4110 H     1 <1>   0.4000 
 25 H       -3.3580     1.8050     1.2150 H     1 <1>   0.0800 
 26 H       -3.3130     1.0390    -0.3620 H     1 <1>   0.0800 
 27 H       -0.4840     3.8950    -1.2500 H     1 <1>   0.0800 
 28 H       -0.1140     4.5070     0.3310 H     1 <1>   0.0800 
 29 H        5.9090     1.3510     1.9870 H     1 <1>   0.0800 
 30 H        5.9550     1.1160     0.2510 H     1 <1>   0.0800 
 31 H       -2.1570     3.6630     2.1580 H     1 <1>   0.0800 
 32 H       -3.5740     4.5680     1.6540 H     1 <1>   0.0800 
 33 H       -2.0220     5.3510     1.7860 H     1 <1>   0.0800 
 34 H       -2.5130     5.0640    -1.8740 H     1 <1>   0.0800 
 35 H       -2.0790     6.1680    -0.5950 H     1 <1>   0.0800 
 36 H       -3.6960     5.5140    -0.6670 H     1 <1>   0.0800 
 37 H        6.9150    -0.1920    -1.3390 H     1 <1>   0.0800 
 38 H        6.2640    -1.6760    -0.6330 H     1 <1>   0.0800 
 39 H        8.9980    -1.3930    -1.9280 H     1 <1>   0.0800 
 40 H        7.6200    -2.1810    -2.6570 H     1 <1>   0.0800 
 41 H        8.3500    -2.8670    -1.2270 H     1 <1>   0.0800 
@<TRIPOS>BOND
  1   1   2  1   
  2   1   3  1   
  3   2   4  1   
  4   2   5  2   
  5   3   6  2   
  6   3   7  1   
  7   4   8  1   
  8   4  24  1   
  9   5   6  1   
 10   5   9  1   
 11   6  10  1   
 12   7  11  1   
 13   7  25  1   
 14   7  26  1   
 15   8  12  1   
 16   8  13  2   
 17   9  13  1   
 18   9  14  2   
 19  10  15  1   
 20  10  27  1   
 21  10  28  1   
 22  11  15  1   
 23  12  16  1   
 24  15  17  1   
 25  15  18  1   
 26  16  19  1   
 27  16  29  1   
 28  16  30  1   
 29  17  31  1   
 30  17  32  1   
 31  17  33  1   
 32  18  34  1   
 33  18  35  1   
 34  18  36  1   
 35  19  20  2   
 36  19  21  1   
 37  21  22  1   
 38  22  23  1   
 39  22  37  1   
 40  22  38  1   
 41  23  39  1   
 42  23  40  1   
 43  23  41  1   
@<TRIPOS>SUBSTRUCTURE
  1 ****   9 GROUP 4 **** **** 0

# MOE 2024.06 (io_trps.svl 2023.06)
