@<TRIPOS>MOLECULE
NONAME
36 37 1 0 0 
SMALL
USER_CHARGES


@<TRIPOS>ATOM
  1 BR       3.4020    -1.8370    -1.3030 Br    1 <1>  -0.1110 
  2 C        1.7770    -2.8180    -1.0040 C.ar  1 <1>   0.1110 
  3 C        1.5190    -3.3260     0.2520 C.ar  1 <1>  -0.1500 
  4 C        0.8990    -2.9950    -2.0540 C.ar  1 <1>  -0.1500 
  5 C        0.3440    -4.0250     0.4600 C.ar  1 <1>  -0.1500 
  6 C       -0.2680    -3.7010    -1.8250 C.ar  1 <1>  -0.1500 
  7 C       -0.5840    -4.2370    -0.5690 C.ar  1 <1>   0.0860 
  8 C       -1.8430    -4.9420    -0.3980 C.2   1 <1>   0.4230 
  9 O       -2.7830    -4.6700    -1.1080 O.2   1 <1>  -0.5700 
 10 C       -2.0430    -5.9990     0.7140 C.3   1 <1>  -0.0190 
 11 C       -1.2810    -7.3200     0.4760 C.3   1 <1>  -0.1860 
 12 C       -3.5290    -6.3520     0.9500 C.3   1 <1>  -0.0220 
 13 C        0.2240    -7.1480     0.5390 C.2   1 <1>   0.9060 
 14 C       -1.7710    -8.0010    -0.8110 C.3   1 <1>  -0.0220 
 15 C       -4.0870    -7.3740    -0.0460 C.2   1 <1>  -0.2760 
 16 O        0.9080    -7.2570    -0.4820 O.co2 1 <1>  -0.9000 
 17 O        0.7160    -6.8700     1.6380 O.co2 1 <1>  -0.9000 
 18 C       -3.2960    -8.1010    -0.8520 C.2   1 <1>  -0.2760 
 19 C       -5.6090    -7.4220     0.0170 C.3   1 <1>  -0.1020 
 20 C       -3.7440    -9.0960    -1.9160 C.3   1 <1>  -0.1020 
 21 H        2.2260    -3.1930     1.0510 H     1 <1>   0.1500 
 22 H        1.1250    -2.5950    -3.0250 H     1 <1>   0.1500 
 23 H        0.1650    -4.4230     1.4420 H     1 <1>   0.1500 
 24 H       -0.9590    -3.8520    -2.6370 H     1 <1>   0.1500 
 25 H       -1.6870    -5.5710     1.6330 H     1 <1>   0.0800 
 26 H       -1.5160    -7.9810     1.2890 H     1 <1>   0.0800 
 27 H       -4.1120    -5.4480     0.9170 H     1 <1>   0.0800 
 28 H       -3.6320    -6.7630     1.9380 H     1 <1>   0.0800 
 29 H       -1.3310    -8.9830    -0.8560 H     1 <1>   0.0800 
 30 H       -1.4280    -7.4520    -1.6710 H     1 <1>   0.0800 
 31 H       -6.0130    -6.4840    -0.3200 H     1 <1>   0.0800 
 32 H       -5.9260    -7.5900     1.0310 H     1 <1>   0.0800 
 33 H       -6.0250    -8.2020    -0.5870 H     1 <1>   0.0800 
 34 H       -3.3000    -8.8350    -2.8590 H     1 <1>   0.0800 
 35 H       -4.8060    -9.1110    -2.0510 H     1 <1>   0.0800 
 36 H       -3.4210   -10.0860    -1.6460 H     1 <1>   0.0800 
@<TRIPOS>BOND
  1   1   2  1   
  2   2   3  ar  
  3   2   4  ar  
  4   3   5  ar  
  5   3  21  1   
  6   4   6  ar  
  7   4  22  1   
  8   5   7  ar  
  9   5  23  1   
 10   6   7  ar  
 11   6  24  1   
 12   7   8  1   
 13   8   9  2   
 14   8  10  1   
 15  10  11  1   
 16  10  12  1   
 17  10  25  1   
 18  11  13  1   
 19  11  14  1   
 20  11  26  1   
 21  12  15  1   
 22  12  27  1   
 23  12  28  1   
 24  13  16  ar  
 25  13  17  ar  
 26  14  18  1   
 27  14  29  1   
 28  14  30  1   
 29  15  18  2   
 30  15  19  1   
 31  18  20  1   
 32  19  31  1   
 33  19  32  1   
 34  19  33  1   
 35  20  34  1   
 36  20  35  1   
 37  20  36  1   
@<TRIPOS>SUBSTRUCTURE
  1 ****   8 GROUP 4 **** **** 0

# MOE 2024.06 (io_trps.svl 2023.06)
