@<TRIPOS>MOLECULE
NONAME
55 58 1 0 0 
SMALL
USER_CHARGES


@<TRIPOS>ATOM
  1 O       -0.0140    -0.7300     1.1160 O.2   1 <1>  -0.5700 
  2 C        0.0630    -1.9080     0.8340 C.2   1 <1>   0.7800 
  3 O       -1.0180    -2.5740     0.4340 O.3   1 <1>  -0.4300 
  4 N        1.2500    -2.5920     0.8820 N.am  1 <1>  -0.6600 
  5 C       -2.2760    -1.9390     0.3740 C.3   1 <1>   0.1200 
  6 C        1.4120    -3.9880     0.3810 C.3   1 <1>   0.1400 
  7 C        2.5170    -1.9220     1.2990 C.3   1 <1>   0.1400 
  8 C       -3.2980    -2.9590    -0.1170 C.3   1 <1>  -0.2400 
  9 C        2.4540    -4.0300    -0.7540 C.3   1 <1>   0.3430 
 10 C        3.5500    -1.9740     0.1600 C.3   1 <1>   0.3430 
 11 N        3.7540    -3.3780    -0.3610 N.4   1 <1>  -0.9590 
 12 C        4.7420    -3.4020    -1.4730 C.3   1 <1>   0.4860 
 13 C        6.0780    -2.9430    -0.9270 C.ar  1 <1>  -0.1440 
 14 C        6.5360    -1.6670    -1.1950 C.ar  1 <1>  -0.1500 
 15 C        6.8440    -3.8090    -0.1380 C.ar  1 <1>  -0.1500 
 16 C        7.7480    -1.2420    -0.6570 C.ar  1 <1>   0.0000 
 17 C        8.0460    -3.3960     0.3950 C.ar  1 <1>  -0.1500 
 18 C        8.4940    -2.1010     0.1380 C.ar  1 <1>  -0.1520 
 19 C        8.4640    -0.0150    -0.7400 C.ar  1 <1>   0.0000 
 20 N        9.6400    -1.4430     0.5460 N.pl3 1 <1>   0.0480 
 21 C        9.6230    -0.1690     0.0110 C.ar  1 <1>  -0.1520 
 22 C        8.2120     1.1920    -1.3910 C.ar  1 <1>  -0.1500 
 23 C       10.7120    -2.0060     1.3940 C.3   1 <1>   0.0960 
 24 C       10.5410     0.8770     0.1190 C.ar  1 <1>  -0.1500 
 25 C        9.1190     2.2250    -1.2810 C.ar  1 <1>  -0.1500 
 26 C       11.7820    -2.6790     0.5290 C.3   1 <1>  -0.2400 
 27 C       10.2820     2.0670    -0.5270 C.ar  1 <1>  -0.1500 
 28 H       -2.2070    -1.1040    -0.3040 H     1 <1>   0.0800 
 29 H       -2.5280    -1.5840     1.3590 H     1 <1>   0.0800 
 30 H        0.4770    -4.3750     0.0130 H     1 <1>   0.0800 
 31 H        1.7270    -4.6210     1.1920 H     1 <1>   0.0800 
 32 H        2.9100    -2.4130     2.1730 H     1 <1>   0.0800 
 33 H        2.3360    -0.8930     1.5620 H     1 <1>   0.0800 
 34 H       -3.0330    -3.3110    -1.0980 H     1 <1>   0.0800 
 35 H       -4.2690    -2.5000    -0.1710 H     1 <1>   0.0800 
 36 H       -3.3520    -3.7890     0.5640 H     1 <1>   0.0800 
 37 H        2.0390    -3.5210    -1.6090 H     1 <1>   0.0800 
 38 H        2.6270    -5.0570    -1.0330 H     1 <1>   0.0800 
 39 H        4.4850    -1.5750     0.5200 H     1 <1>   0.0800 
 40 H        3.2060    -1.3360    -0.6370 H     1 <1>   0.0800 
 41 H        4.1740    -3.9140     0.4090 H     1 <1>   0.4500 
 42 H        4.4250    -2.7500    -2.2710 H     1 <1>   0.0800 
 43 H        4.8440    -4.4010    -1.8650 H     1 <1>   0.0800 
 44 H        5.9870    -0.9760    -1.8110 H     1 <1>   0.1500 
 45 H        6.5070    -4.8120     0.0600 H     1 <1>   0.1500 
 46 H        8.6400    -4.0610     0.9980 H     1 <1>   0.1500 
 47 H        7.3170     1.3070    -1.9740 H     1 <1>   0.1500 
 48 H       10.2820    -2.7180     2.0740 H     1 <1>   0.0800 
 49 H       11.1500    -1.2130     1.9730 H     1 <1>   0.0800 
 50 H       11.4400     0.7550     0.6960 H     1 <1>   0.1500 
 51 H        8.9370     3.1620    -1.7790 H     1 <1>   0.1500 
 52 H       11.3500    -3.4830    -0.0400 H     1 <1>   0.0800 
 53 H       12.5580    -3.0810     1.1550 H     1 <1>   0.0800 
 54 H       12.2200    -1.9640    -0.1440 H     1 <1>   0.0800 
 55 H       10.9780     2.8840    -0.4550 H     1 <1>   0.1500 
@<TRIPOS>BOND
  1   1   2  2   
  2   2   3  1   
  3   2   4  am  
  4   3   5  1   
  5   4   6  1   
  6   4   7  1   
  7   5   8  1   
  8   5  28  1   
  9   5  29  1   
 10   6   9  1   
 11   6  30  1   
 12   6  31  1   
 13   7  10  1   
 14   7  32  1   
 15   7  33  1   
 16   8  34  1   
 17   8  35  1   
 18   8  36  1   
 19   9  11  1   
 20   9  37  1   
 21   9  38  1   
 22  10  11  1   
 23  10  39  1   
 24  10  40  1   
 25  11  12  1   
 26  11  41  1   
 27  12  13  1   
 28  12  42  1   
 29  12  43  1   
 30  13  14  ar  
 31  13  15  ar  
 32  14  16  ar  
 33  14  44  1   
 34  15  17  ar  
 35  15  45  1   
 36  16  18  ar  
 37  16  19  1   
 38  17  18  ar  
 39  17  46  1   
 40  18  20  1   
 41  19  21  ar  
 42  19  22  ar  
 43  20  21  1   
 44  20  23  1   
 45  21  24  ar  
 46  22  25  ar  
 47  22  47  1   
 48  23  26  1   
 49  23  48  1   
 50  23  49  1   
 51  24  27  ar  
 52  24  50  1   
 53  25  27  ar  
 54  25  51  1   
 55  26  52  1   
 56  26  53  1   
 57  26  54  1   
 58  27  55  1   
@<TRIPOS>SUBSTRUCTURE
  1 ****  14 GROUP 4 **** **** 0

# MOE 2024.06 (io_trps.svl 2023.06)
