@<TRIPOS>MOLECULE
NONAME
40 42 1 0 0 
SMALL
USER_CHARGES


@<TRIPOS>ATOM
  1 O       -0.1030    -0.5020     1.2860 O.2   1 <1>  -0.5700 
  2 C       -0.4110    -1.5000     0.6820 C.2   1 <1>   0.5690 
  3 N        0.4280    -2.5150     0.2910 N.am  1 <1>  -0.2370 
  4 C       -1.8220    -1.8220     0.2440 C.3   1 <1>  -0.0190 
  5 C        1.8270    -2.3980     0.1560 C.ar  1 <1>   0.1170 
  6 C       -0.3120    -3.5950    -0.1180 C.2   1 <1>   0.5690 
  7 C       -3.0570    -1.3790     1.0440 C.3   1 <1>   0.0580 
  8 C       -1.7710    -3.3460     0.1820 C.3   1 <1>  -0.0190 
  9 C        2.3930    -1.4620    -0.7150 C.ar  1 <1>   0.0830 
 10 C        2.6710    -3.2170     0.8960 C.ar  1 <1>  -0.1500 
 11 O        0.0980    -4.6160    -0.6080 O.2   1 <1>  -0.5700 
 12 C       -4.2620    -2.1480     0.4950 C.2   1 <1>  -0.2880 
 13 C       -3.3010     0.1280     0.9070 C.3   1 <1>  -0.2400 
 14 C       -2.8720    -3.8640    -0.7460 C.3   1 <1>  -0.0220 
 15 O        1.5840    -0.6680    -1.4610 O.3   1 <1>  -0.3620 
 16 C        3.7710    -1.3570    -0.8340 C.ar  1 <1>  -0.1500 
 17 C        4.0460    -3.1060     0.7810 C.ar  1 <1>  -0.1500 
 18 C       -4.1930    -3.2230    -0.3080 C.2   1 <1>  -0.2760 
 19 C        1.6970     0.7240    -1.2560 C.3   1 <1>   0.0400 
 20 C        4.5970    -2.1750    -0.0830 C.ar  1 <1>  -0.1500 
 21 C       -5.4240    -3.9200    -0.8610 C.3   1 <1>  -0.1020 
 22 H       -1.9170    -1.4390    -0.7580 H     1 <1>   0.0800 
 23 H       -2.9270    -1.6200     2.0860 H     1 <1>   0.0800 
 24 H       -1.9500    -3.7480     1.1650 H     1 <1>   0.0800 
 25 H        2.2490    -3.9470     1.5640 H     1 <1>   0.1500 
 26 H       -5.2010    -1.7310     0.8190 H     1 <1>   0.1500 
 27 H       -3.4590     0.3930    -0.1240 H     1 <1>   0.0800 
 28 H       -2.4600     0.6830     1.2820 H     1 <1>   0.0800 
 29 H       -4.1710     0.4140     1.4710 H     1 <1>   0.0800 
 30 H       -2.9230    -4.9360    -0.6630 H     1 <1>   0.0800 
 31 H       -2.6600    -3.6110    -1.7710 H     1 <1>   0.0800 
 32 H        4.1990    -0.6450    -1.5150 H     1 <1>   0.1500 
 33 H        4.6880    -3.7460     1.3620 H     1 <1>   0.1500 
 34 H        0.8940     1.2070    -1.7830 H     1 <1>   0.0800 
 35 H        2.6420     1.0640    -1.6370 H     1 <1>   0.0800 
 36 H        1.6180     0.9280    -0.2020 H     1 <1>   0.0800 
 37 H        5.6660    -2.0920    -0.1750 H     1 <1>   0.1500 
 38 H       -5.4040    -3.9100    -1.9360 H     1 <1>   0.0800 
 39 H       -6.3200    -3.4250    -0.5320 H     1 <1>   0.0800 
 40 H       -5.4570    -4.9410    -0.5230 H     1 <1>   0.0800 
@<TRIPOS>BOND
  1   1   2  2   
  2   2   3  am  
  3   2   4  1   
  4   3   5  1   
  5   3   6  am  
  6   4   7  1   
  7   4   8  1   
  8   4  22  1   
  9   5   9  ar  
 10   5  10  ar  
 11   6   8  1   
 12   6  11  2   
 13   7  12  1   
 14   7  13  1   
 15   7  23  1   
 16   8  14  1   
 17   8  24  1   
 18   9  15  1   
 19   9  16  ar  
 20  10  17  ar  
 21  10  25  1   
 22  12  18  2   
 23  12  26  1   
 24  13  27  1   
 25  13  28  1   
 26  13  29  1   
 27  14  18  1   
 28  14  30  1   
 29  14  31  1   
 30  15  19  1   
 31  16  20  ar  
 32  16  32  1   
 33  17  20  ar  
 34  17  33  1   
 35  18  21  1   
 36  19  34  1   
 37  19  35  1   
 38  19  36  1   
 39  20  37  1   
 40  21  38  1   
 41  21  39  1   
 42  21  40  1   
@<TRIPOS>SUBSTRUCTURE
  1 ****   3 GROUP 4 **** **** 0

# MOE 2024.06 (io_trps.svl 2023.06)
