@<TRIPOS>MOLECULE
NONAME
47 49 1 0 0 
SMALL
USER_CHARGES


@<TRIPOS>ATOM
  1 CL      -3.4010    -5.2140    -0.2490 Cl    1 <1>  -0.1770 
  2 C       -4.2000    -3.6640    -0.2200 C.ar  1 <1>   0.1770 
  3 C       -3.7200    -2.6690     0.6090 C.ar  1 <1>  -0.1500 
  4 C       -5.3020    -3.4540    -1.0270 C.ar  1 <1>  -0.1500 
  5 C       -4.3550    -1.4390     0.6300 C.ar  1 <1>  -0.1500 
  6 C       -5.9340    -2.2220    -1.0020 C.ar  1 <1>  -0.1500 
  7 C       -5.4640    -1.2100    -0.1750 C.ar  1 <1>  -0.1430 
  8 C       -6.1730     0.1420    -0.1420 C.3   1 <1>   0.0440 
  9 C       -7.3890     0.1640     0.7710 C.2   1 <1>   0.5690 
 10 O       -8.1150     1.1280     0.7470 O.2   1 <1>  -0.5700 
 11 N       -7.6450    -0.8940     1.5800 N.am  1 <1>  -0.7300 
 12 C       -8.7920    -1.0070     2.5330 C.3   1 <1>   0.2010 
 13 C       -9.7660    -2.1370     2.1790 C.2   1 <1>   0.5690 
 14 O       -9.6020    -3.2010     2.7310 O.2   1 <1>  -0.5700 
 15 N      -10.7870    -1.9480     1.2780 N.am  1 <1>  -0.6600 
 16 C      -11.7800    -3.0340     1.0100 C.3   1 <1>   0.1400 
 17 C      -10.9830    -0.6690     0.5180 C.3   1 <1>   0.1400 
 18 C      -13.1980    -2.4650     0.8460 C.3   1 <1>   0.1400 
 19 C      -11.9760    -0.8060    -0.6490 C.3   1 <1>   0.1400 
 20 N      -13.2740    -1.4230    -0.2280 N.am  1 <1>  -0.6600 
 21 C      -14.4190    -1.2130    -0.9730 C.2   1 <1>   0.7150 
 22 O      -14.3090    -0.6410    -2.0430 O.2   1 <1>  -0.5700 
 23 C      -15.7190    -1.6480    -0.5020 C.2   1 <1>   0.0550 
 24 O      -16.6000    -2.1930    -1.3370 O.3   1 <1>  -0.2800 
 25 C      -16.2790    -1.6100     0.7410 C.2   1 <1>  -0.1500 
 26 C      -17.6890    -2.5000    -0.6700 C.2   1 <1>  -0.0100 
 27 C      -17.5550    -2.1640     0.6300 C.2   1 <1>  -0.1500 
 28 H       -2.8600    -2.8580     1.2270 H     1 <1>   0.1500 
 29 H       -5.6570    -4.2450    -1.6630 H     1 <1>   0.1500 
 30 H       -3.9810    -0.6630     1.2780 H     1 <1>   0.1500 
 31 H       -6.7940    -2.0560    -1.6300 H     1 <1>   0.1500 
 32 H       -6.4910     0.4040    -1.1340 H     1 <1>   0.0800 
 33 H       -5.4940     0.9050     0.1880 H     1 <1>   0.0800 
 34 H       -7.0420    -1.7220     1.5160 H     1 <1>   0.3700 
 35 H       -9.3270    -0.0770     2.5770 H     1 <1>   0.0800 
 36 H       -8.4010    -1.1990     3.5160 H     1 <1>   0.0800 
 37 H      -11.7820    -3.7430     1.8200 H     1 <1>   0.0800 
 38 H      -11.4980    -3.5590     0.1140 H     1 <1>   0.0800 
 39 H      -10.0420    -0.3420     0.1170 H     1 <1>   0.0800 
 40 H      -11.3410     0.0910     1.1900 H     1 <1>   0.0800 
 41 H      -13.5040    -2.0310     1.7810 H     1 <1>   0.0800 
 42 H      -13.8700    -3.2740     0.6140 H     1 <1>   0.0800 
 43 H      -11.5350    -1.4130    -1.4200 H     1 <1>   0.0800 
 44 H      -12.1580     0.1700    -1.0670 H     1 <1>   0.0800 
 45 H      -15.8470    -1.2220     1.6460 H     1 <1>   0.1500 
 46 H      -18.5120    -2.9520    -1.1950 H     1 <1>   0.1500 
 47 H      -18.2650    -2.2830     1.4300 H     1 <1>   0.1500 
@<TRIPOS>BOND
  1   1   2  1   
  2   2   3  ar  
  3   2   4  ar  
  4   3   5  ar  
  5   3  28  1   
  6   4   6  ar  
  7   4  29  1   
  8   5   7  ar  
  9   5  30  1   
 10   6   7  ar  
 11   6  31  1   
 12   7   8  1   
 13   8   9  1   
 14   8  32  1   
 15   8  33  1   
 16   9  10  2   
 17   9  11  am  
 18  11  12  1   
 19  11  34  1   
 20  12  13  1   
 21  12  35  1   
 22  12  36  1   
 23  13  14  2   
 24  13  15  am  
 25  15  16  1   
 26  15  17  1   
 27  16  18  1   
 28  16  37  1   
 29  16  38  1   
 30  17  19  1   
 31  17  39  1   
 32  17  40  1   
 33  18  20  1   
 34  18  41  1   
 35  18  42  1   
 36  19  20  1   
 37  19  43  1   
 38  19  44  1   
 39  20  21  am  
 40  21  22  2   
 41  21  23  1   
 42  23  24  1   
 43  23  25  2   
 44  24  26  1   
 45  25  27  1   
 46  25  45  1   
 47  26  27  2   
 48  26  46  1   
 49  27  47  1   
@<TRIPOS>SUBSTRUCTURE
  1 ****  15 GROUP 4 **** **** 0

# MOE 2024.06 (io_trps.svl 2023.06)
