@<TRIPOS>MOLECULE
NONAME
29 30 1 0 0 
SMALL
USER_CHARGES


@<TRIPOS>ATOM
  1 BR      -1.6910     1.0380    -3.4320 Br    1 <1>  -0.1110 
  2 C       -2.2870     1.4050    -1.6410 C.ar  1 <1>   0.1110 
  3 C       -3.3900     0.7260    -1.1600 C.ar  1 <1>  -0.1500 
  4 C       -1.6000     2.3350    -0.8860 C.ar  1 <1>  -0.1500 
  5 C       -3.8300     0.9940     0.1300 C.ar  1 <1>  -0.1440 
  6 C       -2.0370     2.5890     0.4020 C.ar  1 <1>  -0.1500 
  7 C       -3.1440     1.9220     0.9060 C.ar  1 <1>  -0.1500 
  8 C       -5.0510     0.2840     0.6850 C.3   1 <1>   0.4870 
  9 N       -6.2650     0.8280     0.0160 N.4   1 <1>  -0.9590 
 10 C       -6.4540     2.2880     0.3460 C.3   1 <1>   0.3430 
 11 C       -7.4720    -0.0080     0.3440 C.3   1 <1>   0.3430 
 12 C       -7.5510     2.9480    -0.5000 C.3   1 <1>   0.0700 
 13 C       -8.6960     0.3620    -0.5030 C.3   1 <1>   0.0700 
 14 S       -9.1210     2.0960    -0.1990 S.3   1 <1>  -0.4600 
 15 H       -3.8730     0.0060    -1.7960 H     1 <1>   0.1500 
 16 H       -0.7440     2.8420    -1.2950 H     1 <1>   0.1500 
 17 H       -1.5110     3.3060     1.0120 H     1 <1>   0.1500 
 18 H       -3.4560     2.1380     1.9150 H     1 <1>   0.1500 
 19 H       -5.1120     0.4320     1.7510 H     1 <1>   0.0800 
 20 H       -4.9610    -0.7730     0.4930 H     1 <1>   0.0800 
 21 H       -6.0890     0.7700    -0.9950 H     1 <1>   0.4500 
 22 H       -5.5330     2.8210     0.1740 H     1 <1>   0.0800 
 23 H       -6.7080     2.3960     1.3880 H     1 <1>   0.0800 
 24 H       -7.7250     0.1120     1.3860 H     1 <1>   0.0800 
 25 H       -7.2460    -1.0490     0.1770 H     1 <1>   0.0800 
 26 H       -7.3370     2.8920    -1.5520 H     1 <1>   0.0800 
 27 H       -7.6930     3.9770    -0.2160 H     1 <1>   0.0800 
 28 H       -9.5550    -0.2240    -0.2230 H     1 <1>   0.0800 
 29 H       -8.5100     0.2460    -1.5560 H     1 <1>   0.0800 
@<TRIPOS>BOND
  1   1   2  1   
  2   2   3  ar  
  3   2   4  ar  
  4   3   5  ar  
  5   3  15  1   
  6   4   6  ar  
  7   4  16  1   
  8   5   7  ar  
  9   5   8  1   
 10   6   7  ar  
 11   6  17  1   
 12   7  18  1   
 13   8   9  1   
 14   8  19  1   
 15   8  20  1   
 16   9  10  1   
 17   9  11  1   
 18   9  21  1   
 19  10  12  1   
 20  10  22  1   
 21  10  23  1   
 22  11  13  1   
 23  11  24  1   
 24  11  25  1   
 25  12  14  1   
 26  12  26  1   
 27  12  27  1   
 28  13  14  1   
 29  13  28  1   
 30  13  29  1   
@<TRIPOS>SUBSTRUCTURE
  1 ****   5 GROUP 4 **** **** 0

# MOE 2024.06 (io_trps.svl 2023.06)
