@<TRIPOS>MOLECULE
NONAME
48 50 1 0 0 
SMALL
USER_CHARGES


@<TRIPOS>ATOM
  1 O        0.4570     0.2330     0.3870 O.3   1 <1>  -0.6800 
  2 C        1.6060    -0.3960     0.8090 C.3   1 <1>   0.2000 
  3 C        2.7820     0.2340     0.0410 C.3   1 <1>   0.3430 
  4 C        1.4690    -1.8900     0.5140 C.3   1 <1>  -0.1600 
  5 N        4.0970    -0.4920     0.2520 N.4   1 <1>  -0.9590 
  6 C        2.8210    -2.5940     0.6950 C.3   1 <1>  -0.1600 
  7 C        5.2420     0.1780    -0.4550 C.3   1 <1>   0.4230 
  8 C        3.9260    -1.9350    -0.1380 C.3   1 <1>   0.3430 
  9 C        6.5580    -0.5710    -0.1840 C.3   1 <1>  -0.1600 
 10 C        5.3820     1.6420    -0.0010 C.3   1 <1>  -0.1600 
 11 C        7.7630     0.1410    -0.7990 C.3   1 <1>   0.3430 
 12 C        6.6040     2.3260    -0.6180 C.3   1 <1>   0.3430 
 13 N        7.8290     1.5460    -0.3100 N.4   1 <1>  -0.9590 
 14 C        9.0510     2.2360    -0.8310 C.3   1 <1>   0.4860 
 15 C       10.2650     1.5210    -0.2750 C.ar  1 <1>  -0.1430 
 16 C       10.6190     1.6730     1.0590 C.ar  1 <1>  -0.1500 
 17 C       11.0280     0.6990    -1.0940 C.ar  1 <1>  -0.1500 
 18 C       11.7100     0.9950     1.5710 C.ar  1 <1>  -0.1500 
 19 C       12.1190     0.0230    -0.5790 C.ar  1 <1>  -0.1500 
 20 C       12.4580     0.1680     0.7540 C.ar  1 <1>  -0.1500 
 21 H       -0.3340    -0.1240     0.8430 H     1 <1>   0.4000 
 22 H        1.7120    -0.2190     1.8670 H     1 <1>   0.0800 
 23 H        2.8630     1.2580     0.3630 H     1 <1>   0.0800 
 24 H        2.5340     0.2250    -1.0080 H     1 <1>   0.0800 
 25 H        1.1340    -2.0290    -0.5010 H     1 <1>   0.0800 
 26 H        0.7420    -2.3300     1.1760 H     1 <1>   0.0800 
 27 H        4.2830    -0.4810     1.2640 H     1 <1>   0.4500 
 28 H        2.7210    -3.6210     0.3880 H     1 <1>   0.0800 
 29 H        3.1030    -2.5980     1.7340 H     1 <1>   0.0800 
 30 H        5.0520     0.1640    -1.5180 H     1 <1>   0.0800 
 31 H        4.8400    -2.4810     0.0250 H     1 <1>   0.0800 
 32 H        3.6720    -2.0050    -1.1840 H     1 <1>   0.0800 
 33 H        6.5290    -1.5530    -0.6190 H     1 <1>   0.0800 
 34 H        6.7220    -0.6760     0.8740 H     1 <1>   0.0800 
 35 H        5.4570     1.6980     1.0700 H     1 <1>   0.0800 
 36 H        4.5250     2.2130    -0.3090 H     1 <1>   0.0800 
 37 H        7.6860     0.1320    -1.8750 H     1 <1>   0.0800 
 38 H        8.6650    -0.3870    -0.5260 H     1 <1>   0.0800 
 39 H        6.6940     3.3270    -0.2220 H     1 <1>   0.0800 
 40 H        6.4780     2.4010    -1.6870 H     1 <1>   0.0800 
 41 H        7.9770     1.5140     0.7090 H     1 <1>   0.4500 
 42 H        9.0700     3.2650    -0.5070 H     1 <1>   0.0800 
 43 H        9.0710     2.2150    -1.9080 H     1 <1>   0.0800 
 44 H       10.0640     2.3200     1.7170 H     1 <1>   0.1500 
 45 H       10.7920     0.5750    -2.1380 H     1 <1>   0.1500 
 46 H       11.9860     1.1110     2.6060 H     1 <1>   0.1500 
 47 H       12.7120    -0.6150    -1.2140 H     1 <1>   0.1500 
 48 H       13.3100    -0.3580     1.1530 H     1 <1>   0.1500 
@<TRIPOS>BOND
  1   1   2  1   
  2   1  21  1   
  3   2   3  1   
  4   2   4  1   
  5   2  22  1   
  6   3   5  1   
  7   3  23  1   
  8   3  24  1   
  9   4   6  1   
 10   4  25  1   
 11   4  26  1   
 12   5   7  1   
 13   5   8  1   
 14   5  27  1   
 15   6   8  1   
 16   6  28  1   
 17   6  29  1   
 18   7   9  1   
 19   7  10  1   
 20   7  30  1   
 21   8  31  1   
 22   8  32  1   
 23   9  11  1   
 24   9  33  1   
 25   9  34  1   
 26  10  12  1   
 27  10  35  1   
 28  10  36  1   
 29  11  13  1   
 30  11  37  1   
 31  11  38  1   
 32  12  13  1   
 33  12  39  1   
 34  12  40  1   
 35  13  14  1   
 36  13  41  1   
 37  14  15  1   
 38  14  42  1   
 39  14  43  1   
 40  15  16  ar  
 41  15  17  ar  
 42  16  18  ar  
 43  16  44  1   
 44  17  19  ar  
 45  17  45  1   
 46  18  20  ar  
 47  18  46  1   
 48  19  20  ar  
 49  19  47  1   
 50  20  48  1   
@<TRIPOS>SUBSTRUCTURE
  1 ****   9 GROUP 4 **** **** 0

# MOE 2024.06 (io_trps.svl 2023.06)
