@<TRIPOS>MOLECULE
NONAME
48 50 1 0 0 
SMALL
USER_CHARGES


@<TRIPOS>ATOM
  1 O       -1.6850     6.8180    -1.8300 O.3   1 <1>  -0.6800 
  2 C       -1.2860     6.7510    -0.5040 C.3   1 <1>   0.2000 
  3 C        0.0060     5.9160    -0.4500 C.3   1 <1>  -0.0800 
  4 C       -2.4220     6.0730     0.2730 C.3   1 <1>  -0.1600 
  5 C       -0.2630     4.5570    -1.1500 C.3   1 <1>   0.5660 
  6 C        0.6150     5.8100     0.9750 C.3   1 <1>  -0.1600 
  7 C       -2.3280     4.5370     0.2500 C.3   1 <1>   0.5660 
  8 N       -1.6460     4.0600    -0.9570 N.4   1 <1>  -0.9060 
  9 C        0.7190     3.4390    -0.8190 C.ar  1 <1>  -0.1440 
 10 C        0.8950     7.1760     1.6210 C.3   1 <1>  -0.1600 
 11 C       -3.6840     3.8590     0.3050 C.ar  1 <1>  -0.1440 
 12 C        0.5910     2.6200     0.2990 C.ar  1 <1>  -0.1500 
 13 C        1.7860     3.2290    -1.6840 C.ar  1 <1>  -0.1500 
 14 C        1.6210     7.0050     2.9580 C.3   1 <1>  -0.2400 
 15 C       -3.9650     2.9920     1.3530 C.ar  1 <1>  -0.1500 
 16 C       -4.6490     4.0720    -0.6740 C.ar  1 <1>  -0.1500 
 17 C        1.5100     1.6140     0.5420 C.ar  1 <1>  -0.1500 
 18 C        2.7040     2.2230    -1.4400 C.ar  1 <1>  -0.1500 
 19 C       -5.1870     2.3480     1.4200 C.ar  1 <1>  -0.1500 
 20 C       -5.8700     3.4270    -0.6050 C.ar  1 <1>  -0.1500 
 21 C        2.5660     1.4150    -0.3270 C.ar  1 <1>  -0.1500 
 22 C       -6.1400     2.5640     0.4410 C.ar  1 <1>  -0.1500 
 23 H       -2.1620     7.6600    -2.0040 H     1 <1>   0.4000 
 24 H       -1.1220     7.7610    -0.1640 H     1 <1>   0.0800 
 25 H        0.7450     6.4260    -1.0450 H     1 <1>   0.0800 
 26 H       -3.3740     6.4170    -0.0870 H     1 <1>   0.0800 
 27 H       -2.3660     6.3750     1.3040 H     1 <1>   0.0800 
 28 H       -0.1560     4.7480    -2.2060 H     1 <1>   0.0800 
 29 H        1.5560     5.2880     0.9090 H     1 <1>   0.0800 
 30 H       -0.0160     5.2420     1.6330 H     1 <1>   0.0800 
 31 H       -1.7600     4.2220     1.1090 H     1 <1>   0.0800 
 32 H       -1.6570     3.0380    -0.9980 H     1 <1>   0.4500 
 33 H       -2.1920     4.4200    -1.7450 H     1 <1>   0.4500 
 34 H       -0.0210     7.7100     1.8010 H     1 <1>   0.0800 
 35 H        1.5100     7.7720     0.9670 H     1 <1>   0.0800 
 36 H       -0.2090     2.7450     1.0050 H     1 <1>   0.1500 
 37 H        1.9200     3.8440    -2.5580 H     1 <1>   0.1500 
 38 H        1.0250     6.4300     3.6460 H     1 <1>   0.0800 
 39 H        1.8120     7.9680     3.3980 H     1 <1>   0.0800 
 40 H        2.5640     6.5060     2.8170 H     1 <1>   0.0800 
 41 H       -3.2440     2.8050     2.1310 H     1 <1>   0.1500 
 42 H       -4.4730     4.7420    -1.4990 H     1 <1>   0.1500 
 43 H        1.4100     0.9830     1.4090 H     1 <1>   0.1500 
 44 H        3.5290     2.0670    -2.1150 H     1 <1>   0.1500 
 45 H       -5.4020     1.6760     2.2340 H     1 <1>   0.1500 
 46 H       -6.6170     3.5940    -1.3630 H     1 <1>   0.1500 
 47 H        3.2820     0.6320    -0.1380 H     1 <1>   0.1500 
 48 H       -7.0910     2.0620     0.4950 H     1 <1>   0.1500 
@<TRIPOS>BOND
  1   1   2  1   
  2   1  23  1   
  3   2   3  1   
  4   2   4  1   
  5   2  24  1   
  6   3   5  1   
  7   3   6  1   
  8   3  25  1   
  9   4   7  1   
 10   4  26  1   
 11   4  27  1   
 12   5   8  1   
 13   5   9  1   
 14   5  28  1   
 15   6  10  1   
 16   6  29  1   
 17   6  30  1   
 18   7   8  1   
 19   7  11  1   
 20   7  31  1   
 21   8  32  1   
 22   8  33  1   
 23   9  12  ar  
 24   9  13  ar  
 25  10  14  1   
 26  10  34  1   
 27  10  35  1   
 28  11  15  ar  
 29  11  16  ar  
 30  12  17  ar  
 31  12  36  1   
 32  13  18  ar  
 33  13  37  1   
 34  14  38  1   
 35  14  39  1   
 36  14  40  1   
 37  15  19  ar  
 38  15  41  1   
 39  16  20  ar  
 40  16  42  1   
 41  17  21  ar  
 42  17  43  1   
 43  18  21  ar  
 44  18  44  1   
 45  19  22  ar  
 46  19  45  1   
 47  20  22  ar  
 48  20  46  1   
 49  21  47  1   
 50  22  48  1   
@<TRIPOS>SUBSTRUCTURE
  1 ****   8 GROUP 4 **** **** 0

# MOE 2024.06 (io_trps.svl 2023.06)
