@<TRIPOS>MOLECULE
NONAME
42 44 1 0 0 
SMALL
USER_CHARGES


@<TRIPOS>ATOM
  1 O       -2.6980    -0.7070     0.3480 O.co2 1 <1>  -0.9000 
  2 C       -3.0160     0.2910     0.9970 C.2   1 <1>   0.9060 
  3 O       -3.8960     0.2390     1.8660 O.co2 1 <1>  -0.9000 
  4 C       -2.3690     1.6480     0.7540 C.3   1 <1>  -0.1860 
  5 C       -3.2570     2.7590     0.0770 C.3   1 <1>  -0.0190 
  6 C       -0.9740     1.5740     0.0770 C.3   1 <1>  -0.0800 
  7 C       -4.6080     2.3800    -0.5830 C.2   1 <1>   0.5690 
  8 C       -2.3500     3.5950    -0.8760 C.3   1 <1>  -0.0800 
  9 C       -1.1500     1.4410    -1.4500 C.3   1 <1>  -0.1600 
 10 C       -0.2420     2.9020     0.3570 C.3   1 <1>  -0.1600 
 11 O       -4.9330     2.9300    -1.6120 O.2   1 <1>  -0.5700 
 12 N       -5.4570     1.5190     0.0510 N.am  1 <1>  -0.5470 
 13 C       -1.8430     2.6930    -2.0240 C.3   1 <1>  -0.1600 
 14 C       -1.1120     4.0950    -0.0980 C.3   1 <1>  -0.1600 
 15 C       -6.6930     0.9780    -0.3220 C.ar  1 <1>   0.1170 
 16 C       -7.0150    -0.2880     0.1490 C.ar  1 <1>  -0.1500 
 17 C       -7.6140     1.6460    -1.1210 C.ar  1 <1>  -0.1500 
 18 C       -8.2250    -0.8800    -0.1660 C.ar  1 <1>  -0.1500 
 19 C       -8.8260     1.0600    -1.4410 C.ar  1 <1>  -0.1500 
 20 C       -9.1420    -0.2040    -0.9680 C.ar  1 <1>   0.0820 
 21 O      -10.3530    -0.7100    -1.3270 O.3   1 <1>  -0.3630 
 22 C      -10.7390    -2.0040    -0.9230 C.3   1 <1>   0.0400 
 23 H       -2.1820     1.9910     1.7540 H     1 <1>   0.0800 
 24 H       -3.5510     3.4200     0.8720 H     1 <1>   0.0800 
 25 H       -0.4110     0.7400     0.4650 H     1 <1>   0.0800 
 26 H       -2.8920     4.4360    -1.2730 H     1 <1>   0.0800 
 27 H       -1.7440     0.5690    -1.6640 H     1 <1>   0.0800 
 28 H       -0.1920     1.3030    -1.9190 H     1 <1>   0.0800 
 29 H        0.6940     2.9100    -0.1730 H     1 <1>   0.0800 
 30 H       -0.0250     2.9870     1.4080 H     1 <1>   0.0800 
 31 H       -5.0240     1.0240     0.8540 H     1 <1>   0.3700 
 32 H       -1.1490     3.2450    -2.6330 H     1 <1>   0.0800 
 33 H       -2.6580     2.3910    -2.6580 H     1 <1>   0.0800 
 34 H       -1.4330     4.6600     0.7600 H     1 <1>   0.0800 
 35 H       -0.5290     4.7490    -0.7220 H     1 <1>   0.0800 
 36 H       -6.2970    -0.8070     0.7640 H     1 <1>   0.1500 
 37 H       -7.3790     2.6260    -1.4920 H     1 <1>   0.1500 
 38 H       -8.4270    -1.8600     0.2200 H     1 <1>   0.1500 
 39 H       -9.5320     1.5800    -2.0600 H     1 <1>   0.1500 
 40 H      -11.7150    -2.2020    -1.3270 H     1 <1>   0.0800 
 41 H      -10.7740    -2.0380     0.1510 H     1 <1>   0.0800 
 42 H      -10.0310    -2.7150    -1.3100 H     1 <1>   0.0800 
@<TRIPOS>BOND
  1   1   2  ar  
  2   2   3  ar  
  3   2   4  1   
  4   4   5  1   
  5   4   6  1   
  6   4  23  1   
  7   5   7  1   
  8   5   8  1   
  9   5  24  1   
 10   6   9  1   
 11   6  10  1   
 12   6  25  1   
 13   7  11  2   
 14   7  12  am  
 15   8  13  1   
 16   8  14  1   
 17   8  26  1   
 18   9  13  1   
 19   9  27  1   
 20   9  28  1   
 21  10  14  1   
 22  10  29  1   
 23  10  30  1   
 24  12  15  1   
 25  12  31  1   
 26  13  32  1   
 27  13  33  1   
 28  14  34  1   
 29  14  35  1   
 30  15  16  ar  
 31  15  17  ar  
 32  16  18  ar  
 33  16  36  1   
 34  17  19  ar  
 35  17  37  1   
 36  18  20  ar  
 37  18  38  1   
 38  19  20  ar  
 39  19  39  1   
 40  20  21  1   
 41  21  22  1   
 42  22  40  1   
 43  22  41  1   
 44  22  42  1   
@<TRIPOS>SUBSTRUCTURE
  1 ****  12 GROUP 4 **** **** 0

# MOE 2024.06 (io_trps.svl 2023.06)
