@<TRIPOS>MOLECULE
NONAME
48 50 1 0 0 
SMALL
USER_CHARGES


@<TRIPOS>ATOM
  1 O       -1.2010    -0.2010     0.4470 O.2   1 <1>  -0.5700 
  2 C       -2.0360     0.6510     0.5880 C.2   1 <1>   0.6590 
  3 O       -3.3090     0.2940     0.6480 O.3   1 <1>  -0.4300 
  4 C       -1.6410     2.1330     0.7090 C.3   1 <1>   0.1220 
  5 C       -4.3820     1.1940     0.7750 C.3   1 <1>   0.3810 
  6 C       -2.8310     3.0460     0.3850 C.2   1 <1>   0.4480 
  7 C       -0.4810     2.4680    -0.2590 C.3   1 <1>  -0.2400 
  8 C       -1.1540     2.4000     2.1520 C.3   1 <1>  -0.2400 
  9 C       -5.6580     0.4220     0.4560 C.2   1 <1>  -0.1810 
 10 C       -4.1360     2.4240    -0.1280 C.3   1 <1>   0.0610 
 11 O       -2.7390     4.2290     0.5520 O.2   1 <1>  -0.5700 
 12 C       -6.9050     0.6370     1.0900 C.ar  1 <1>   0.0000 
 13 C       -5.8370    -0.5690    -0.4460 C.2   1 <1>  -0.3020 
 14 C       -5.3110     3.4260    -0.0090 C.3   1 <1>  -0.2400 
 15 C       -4.0030     2.0580    -1.6270 C.3   1 <1>  -0.2400 
 16 C       -7.8090    -0.2460     0.5050 C.ar  1 <1>  -0.1520 
 17 C       -7.3300     1.5090     2.0960 C.ar  1 <1>  -0.1500 
 18 N       -7.1410    -1.0270    -0.4420 N.pl3 1 <1>   0.2940 
 19 C       -9.1550    -0.2230     0.8860 C.ar  1 <1>  -0.1500 
 20 C       -8.6510     1.5100     2.4810 C.ar  1 <1>  -0.1500 
 21 C       -7.6150    -2.1080    -1.1980 C.2   1 <1>   0.5180 
 22 C       -9.5650     0.6480     1.8710 C.ar  1 <1>  -0.1500 
 23 O       -7.2730    -2.3010    -2.3400 O.2   1 <1>  -0.5700 
 24 C       -8.5830    -3.1010    -0.5550 C.3   1 <1>  -0.0990 
 25 C       -8.2090    -4.5690    -0.8150 C.3   1 <1>  -0.2400 
 26 H       -4.4110     1.4980     1.8070 H     1 <1>   0.0800 
 27 H       -0.7720     2.2720    -1.2760 H     1 <1>   0.0800 
 28 H        0.3860     1.8700    -0.0360 H     1 <1>   0.0800 
 29 H       -0.2070     3.5060    -0.1780 H     1 <1>   0.0800 
 30 H       -1.9410     2.2050     2.8590 H     1 <1>   0.0800 
 31 H       -0.8450     3.4250     2.2640 H     1 <1>   0.0800 
 32 H       -0.3190     1.7650     2.3900 H     1 <1>   0.0800 
 33 H       -5.1110    -1.0040    -1.1110 H     1 <1>   0.1500 
 34 H       -6.2310     2.9940    -0.3610 H     1 <1>   0.0800 
 35 H       -5.4450     3.7360     1.0120 H     1 <1>   0.0800 
 36 H       -5.1140     4.3060    -0.5970 H     1 <1>   0.0800 
 37 H       -3.2340     1.3250    -1.7960 H     1 <1>   0.0800 
 38 H       -3.7610     2.9350    -2.2020 H     1 <1>   0.0800 
 39 H       -4.9290     1.6580    -2.0030 H     1 <1>   0.0800 
 40 H       -6.6290     2.1750     2.5620 H     1 <1>   0.1500 
 41 H       -9.8740    -0.8690     0.4170 H     1 <1>   0.1500 
 42 H       -8.9930     2.1770     3.2520 H     1 <1>   0.1500 
 43 H      -10.5960     0.6740     2.1790 H     1 <1>   0.1500 
 44 H       -9.5670    -2.9150    -0.9460 H     1 <1>   0.0800 
 45 H       -8.6070    -2.9460     0.5090 H     1 <1>   0.0800 
 46 H       -8.2190    -4.7760    -1.8710 H     1 <1>   0.0800 
 47 H       -8.9110    -5.2250    -0.3310 H     1 <1>   0.0800 
 48 H       -7.2230    -4.7770    -0.4360 H     1 <1>   0.0800 
@<TRIPOS>BOND
  1   1   2  2   
  2   2   3  1   
  3   2   4  1   
  4   3   5  1   
  5   4   6  1   
  6   4   7  1   
  7   4   8  1   
  8   5   9  1   
  9   5  10  1   
 10   5  26  1   
 11   6  10  1   
 12   6  11  2   
 13   7  27  1   
 14   7  28  1   
 15   7  29  1   
 16   8  30  1   
 17   8  31  1   
 18   8  32  1   
 19   9  12  1   
 20   9  13  2   
 21  10  14  1   
 22  10  15  1   
 23  12  16  ar  
 24  12  17  ar  
 25  13  18  1   
 26  13  33  1   
 27  14  34  1   
 28  14  35  1   
 29  14  36  1   
 30  15  37  1   
 31  15  38  1   
 32  15  39  1   
 33  16  18  1   
 34  16  19  ar  
 35  17  20  ar  
 36  17  40  1   
 37  18  21  1   
 38  19  22  ar  
 39  19  41  1   
 40  20  22  ar  
 41  20  42  1   
 42  21  23  2   
 43  21  24  1   
 44  22  43  1   
 45  24  25  1   
 46  24  44  1   
 47  24  45  1   
 48  25  46  1   
 49  25  47  1   
 50  25  48  1   
@<TRIPOS>SUBSTRUCTURE
  1 ****   9 GROUP 4 **** **** 0

# MOE 2024.06 (io_trps.svl 2023.06)
