@<TRIPOS>MOLECULE
NONAME
42 44 1 0 0 
SMALL
USER_CHARGES


@<TRIPOS>ATOM
  1 S       -6.0220     7.2550     1.8080 S.3   1 <1>  -0.0890 
  2 C       -5.2230     7.0630     0.2410 C.2   1 <1>  -0.0550 
  3 C       -4.5530     7.8100     2.5750 C.2   1 <1>  -0.1190 
  4 C       -5.9590     6.5840    -0.8920 C.2   1 <1>   0.5890 
  5 C       -3.9180     7.4180     0.3800 C.2   1 <1>  -0.1590 
  6 C       -3.5430     7.8380     1.6870 C.2   1 <1>  -0.1590 
  7 O       -5.4370     6.3100    -1.9490 O.2   1 <1>  -0.5750 
  8 C       -7.4690     6.3370    -0.8000 C.3   1 <1>   0.4080 
  9 N       -7.8240     4.9100    -0.5030 N.pl3 1 <1>  -0.7680 
 10 C       -7.4470     3.8160    -1.1680 C.cat 1 <1>   1.0690 
 11 C       -8.6480     4.4960     0.5370 C.ar  1 <1>   0.3020 
 12 N       -6.6300     3.8120    -2.1960 N.pl3 1 <1>  -0.8400 
 13 N       -7.9910     2.7220    -0.6450 N.pl3 1 <1>  -0.7680 
 14 C       -8.7530     3.1190     0.4450 C.ar  1 <1>   0.3020 
 15 C       -9.3060     5.1910     1.5470 C.ar  1 <1>  -0.1180 
 16 C       -7.8220     1.3110    -1.0640 C.3   1 <1>   0.3470 
 17 C       -9.5200     2.4020     1.3580 C.ar  1 <1>  -0.1180 
 18 C      -10.0680     4.4790     2.4540 C.ar  1 <1>  -0.1590 
 19 C       -6.7760     0.6050    -0.1930 C.3   1 <1>  -0.1690 
 20 C      -10.1750     3.0910     2.3600 C.ar  1 <1>  -0.1590 
 21 C       -5.3690     1.2150    -0.2920 C.3   1 <1>  -0.1690 
 22 C       -4.3680     0.4060     0.5350 C.3   1 <1>  -0.2480 
 23 H       -4.5940     8.0600     3.6210 H     1 <1>   0.1410 
 24 H       -3.1930     7.3950    -0.4170 H     1 <1>   0.1410 
 25 H       -2.5330     8.1410     1.9060 H     1 <1>   0.1410 
 26 H       -7.9060     6.6040    -1.7460 H     1 <1>   0.0710 
 27 H       -7.9040     6.9880    -0.0660 H     1 <1>   0.0710 
 28 H       -6.3180     2.9560    -2.6410 H     1 <1>   0.4440 
 29 H       -6.1180     4.6580    -2.4810 H     1 <1>   0.4440 
 30 H       -9.2260     6.2590     1.6280 H     1 <1>   0.1410 
 31 H       -7.5250     1.2630    -2.0980 H     1 <1>   0.0710 
 32 H       -8.7670     0.8000    -0.9750 H     1 <1>   0.0710 
 33 H       -9.5990     1.3330     1.2850 H     1 <1>   0.1410 
 34 H      -10.5880     4.9940     3.2470 H     1 <1>   0.1410 
 35 H       -6.7280    -0.4240    -0.5030 H     1 <1>   0.0710 
 36 H       -7.1020     0.6120     0.8320 H     1 <1>   0.0710 
 37 H      -10.7760     2.5590     3.0800 H     1 <1>   0.1410 
 38 H       -5.3720     2.2260     0.0770 H     1 <1>   0.0710 
 39 H       -5.0410     1.2260    -1.3170 H     1 <1>   0.0710 
 40 H       -4.6560     0.3940     1.5720 H     1 <1>   0.0710 
 41 H       -3.3880     0.8450     0.4610 H     1 <1>   0.0710 
 42 H       -4.3120    -0.6080     0.1790 H     1 <1>   0.0710 
@<TRIPOS>BOND
  1   1   2  1   
  2   1   3  1   
  3   2   4  1   
  4   2   5  2   
  5   3   6  2   
  6   3  23  1   
  7   4   7  2   
  8   4   8  1   
  9   5   6  1   
 10   5  24  1   
 11   6  25  1   
 12   8   9  1   
 13   8  26  1   
 14   8  27  1   
 15   9  10  ar  
 16   9  11  1   
 17  10  12  ar  
 18  10  13  ar  
 19  11  14  ar  
 20  11  15  ar  
 21  12  28  1   
 22  12  29  1   
 23  13  14  1   
 24  13  16  1   
 25  14  17  ar  
 26  15  18  ar  
 27  15  30  1   
 28  16  19  1   
 29  16  31  1   
 30  16  32  1   
 31  17  20  ar  
 32  17  33  1   
 33  18  20  ar  
 34  18  34  1   
 35  19  21  1   
 36  19  35  1   
 37  19  36  1   
 38  20  37  1   
 39  21  22  1   
 40  21  38  1   
 41  21  39  1   
 42  22  40  1   
 43  22  41  1   
 44  22  42  1   
@<TRIPOS>SUBSTRUCTURE
  1 ****   9 GROUP 4 **** **** 0

# MOE 2024.06 (io_trps.svl 2023.06)
