@<TRIPOS>MOLECULE
NONAME
41 42 1 0 0 
SMALL
USER_CHARGES


@<TRIPOS>ATOM
  1 O       -0.0920     0.3550    -0.1420 O.2   1 <1>  -0.5700 
  2 C        0.0240     1.5630    -0.2280 C.2   1 <1>   0.5440 
  3 N       -1.1150     2.3370    -0.1990 N.am  1 <1>  -0.6600 
  4 C        1.3480     2.1460    -0.3410 C.ar  1 <1>   0.0860 
  5 C       -1.1140     3.8040     0.0920 C.3   1 <1>   0.1400 
  6 C       -2.4690     1.7060    -0.2210 C.3   1 <1>   0.1400 
  7 C        2.3700     1.7680     0.5310 C.ar  1 <1>  -0.1500 
  8 C        1.6560     3.0930    -1.3180 C.ar  1 <1>  -0.1500 
  9 C       -2.4010     4.2260     0.8280 C.3   1 <1>   0.2000 
 10 C       -3.5550     2.7140    -0.6560 C.3   1 <1>   0.2000 
 11 C        3.6350     2.3200     0.4500 C.ar  1 <1>  -0.1500 
 12 C        2.9170     3.6520    -1.4050 C.ar  1 <1>  -0.1500 
 13 O       -3.5520     3.8990     0.1000 O.3   1 <1>  -0.5600 
 14 C       -2.4520     5.7310     1.0810 C.3   1 <1>  -0.2400 
 15 C       -4.9590     2.1260    -0.5490 C.3   1 <1>  -0.2400 
 16 C        3.9160     3.2740    -0.5240 C.ar  1 <1>   0.0830 
 17 O        5.1210     3.8680    -0.6750 O.3   1 <1>  -0.3630 
 18 C        6.2230     3.5290     0.1340 C.3   1 <1>   0.2580 
 19 C        7.4080     4.3630    -0.3120 C.2   1 <1>  -0.2880 
 20 C        8.1150     5.1880     0.4660 C.2   1 <1>  -0.3000 
 21 H       -1.0410     4.3510    -0.8310 H     1 <1>   0.0800 
 22 H       -0.2630     4.0520     0.7020 H     1 <1>   0.0800 
 23 H       -2.6990     1.3260     0.7590 H     1 <1>   0.0800 
 24 H       -2.4630     0.8730    -0.9030 H     1 <1>   0.0800 
 25 H        2.1560     1.0240     1.2790 H     1 <1>   0.1500 
 26 H        0.8950     3.3870    -2.0200 H     1 <1>   0.1500 
 27 H       -2.4550     3.7060     1.7700 H     1 <1>   0.0800 
 28 H       -3.3680     2.9940    -1.6790 H     1 <1>   0.0800 
 29 H        4.3830     1.9940     1.1470 H     1 <1>   0.1500 
 30 H        3.1400     4.3830    -2.1620 H     1 <1>   0.1500 
 31 H       -2.4330     6.2660     0.1480 H     1 <1>   0.0800 
 32 H       -1.6110     6.0360     1.6750 H     1 <1>   0.0800 
 33 H       -3.3530     5.9790     1.6130 H     1 <1>   0.0800 
 34 H       -5.1780     1.8680     0.4710 H     1 <1>   0.0800 
 35 H       -5.0370     1.2410    -1.1550 H     1 <1>   0.0800 
 36 H       -5.6810     2.8420    -0.8970 H     1 <1>   0.0800 
 37 H        6.4300     2.4810     0.0060 H     1 <1>   0.0800 
 38 H        5.9720     3.7380     1.1590 H     1 <1>   0.0800 
 39 H        7.6270     4.2200    -1.3570 H     1 <1>   0.1500 
 40 H        8.9510     5.7700     0.1170 H     1 <1>   0.1500 
 41 H        7.9200     5.3580     1.5110 H     1 <1>   0.1500 
@<TRIPOS>BOND
  1   1   2  2   
  2   2   3  am  
  3   2   4  1   
  4   3   5  1   
  5   3   6  1   
  6   4   7  ar  
  7   4   8  ar  
  8   5   9  1   
  9   5  21  1   
 10   5  22  1   
 11   6  10  1   
 12   6  23  1   
 13   6  24  1   
 14   7  11  ar  
 15   7  25  1   
 16   8  12  ar  
 17   8  26  1   
 18   9  13  1   
 19   9  14  1   
 20   9  27  1   
 21  10  13  1   
 22  10  15  1   
 23  10  28  1   
 24  11  16  ar  
 25  11  29  1   
 26  12  16  ar  
 27  12  30  1   
 28  14  31  1   
 29  14  32  1   
 30  14  33  1   
 31  15  34  1   
 32  15  35  1   
 33  15  36  1   
 34  16  17  1   
 35  17  18  1   
 36  18  19  1   
 37  18  37  1   
 38  18  38  1   
 39  19  20  2   
 40  19  39  1   
 41  20  40  1   
 42  20  41  1   
@<TRIPOS>SUBSTRUCTURE
  1 ****   4 GROUP 4 **** **** 0

# MOE 2024.06 (io_trps.svl 2023.06)
