@<TRIPOS>MOLECULE
NONAME
38 38 1 0 0 
SMALL
USER_CHARGES


@<TRIPOS>ATOM
  1 CL       0.2730    -2.9380     2.3630 Cl    1 <1>  -0.1770 
  2 C       -1.0800    -2.5450     1.3240 C.ar  1 <1>   0.1770 
  3 C       -0.8600    -2.0930     0.0240 C.ar  1 <1>   0.0830 
  4 C       -2.3610    -2.6980     1.8170 C.ar  1 <1>  -0.1500 
  5 O        0.3900    -1.9460    -0.4690 O.3   1 <1>  -0.3630 
  6 C       -1.9410    -1.8060    -0.7970 C.ar  1 <1>  -0.1500 
  7 C       -3.4260    -2.3970     0.9870 C.ar  1 <1>   0.1770 
  8 C        1.1120    -0.7930    -0.0520 C.3   1 <1>   0.1810 
  9 C       -3.2310    -1.9560    -0.3120 C.ar  1 <1>  -0.1500 
 10 CL      -5.0530    -2.5810     1.5900 Cl    1 <1>  -0.1770 
 11 C        2.6140    -1.0540    -0.0530 C.2   1 <1>   0.5690 
 12 O        3.3720    -0.1140    -0.0820 O.2   1 <1>  -0.5700 
 13 N        3.0730    -2.3290    -0.0120 N.am  1 <1>  -0.7300 
 14 C        4.5040    -2.7450     0.0910 C.3   1 <1>   0.2810 
 15 C        5.0260    -3.3970    -1.2180 C.2   1 <1>   0.6590 
 16 C        4.6840    -3.5840     1.3850 C.3   1 <1>  -0.0800 
 17 O        4.9370    -4.5800    -1.4230 O.2   1 <1>  -0.5700 
 18 O        5.5990    -2.6290    -2.1460 O.3   1 <1>  -0.4300 
 19 C        6.1480    -4.0080     1.5900 C.3   1 <1>  -0.2400 
 20 C        3.7690    -4.8200     1.4940 C.3   1 <1>  -0.2400 
 21 C        5.4170    -1.2340    -2.2820 C.3   1 <1>   0.0400 
 22 H       -2.5290    -3.0440     2.8200 H     1 <1>   0.1500 
 23 H       -1.7710    -1.4710    -1.8050 H     1 <1>   0.1500 
 24 H        0.8070    -0.5200     0.9410 H     1 <1>   0.0800 
 25 H        0.8810     0.0080    -0.7290 H     1 <1>   0.0800 
 26 H       -4.0820    -1.7360    -0.9320 H     1 <1>   0.1500 
 27 H        2.3970    -3.0980    -0.0500 H     1 <1>   0.3700 
 28 H        5.0940    -1.8600     0.2450 H     1 <1>   0.0800 
 29 H        4.4340    -2.9320     2.2060 H     1 <1>   0.0800 
 30 H        6.4540    -4.7140     0.8370 H     1 <1>   0.0800 
 31 H        6.2680    -4.4730     2.5530 H     1 <1>   0.0800 
 32 H        6.8000    -3.1540     1.5480 H     1 <1>   0.0800 
 33 H        3.9760    -5.5290     0.7130 H     1 <1>   0.0800 
 34 H        2.7320    -4.5420     1.4410 H     1 <1>   0.0800 
 35 H        3.9260    -5.3110     2.4380 H     1 <1>   0.0800 
 36 H        5.9160    -0.9180    -3.1810 H     1 <1>   0.0800 
 37 H        5.8450    -0.7270    -1.4360 H     1 <1>   0.0800 
 38 H        4.3650    -1.0230    -2.3610 H     1 <1>   0.0800 
@<TRIPOS>BOND
  1   1   2  1   
  2   2   3  ar  
  3   2   4  ar  
  4   3   5  1   
  5   3   6  ar  
  6   4   7  ar  
  7   4  22  1   
  8   5   8  1   
  9   6   9  ar  
 10   6  23  1   
 11   7   9  ar  
 12   7  10  1   
 13   8  11  1   
 14   8  24  1   
 15   8  25  1   
 16   9  26  1   
 17  11  12  2   
 18  11  13  am  
 19  13  14  1   
 20  13  27  1   
 21  14  15  1   
 22  14  16  1   
 23  14  28  1   
 24  15  17  2   
 25  15  18  1   
 26  16  19  1   
 27  16  20  1   
 28  16  29  1   
 29  18  21  1   
 30  19  30  1   
 31  19  31  1   
 32  19  32  1   
 33  20  33  1   
 34  20  34  1   
 35  20  35  1   
 36  21  36  1   
 37  21  37  1   
 38  21  38  1   
@<TRIPOS>SUBSTRUCTURE
  1 ****   5 GROUP 4 **** **** 0

# MOE 2024.06 (io_trps.svl 2023.06)
