@<TRIPOS>MOLECULE
NONAME
31 35 1 0 0 
SMALL
USER_CHARGES


@<TRIPOS>ATOM
  1 O       -0.2780     0.7290    -1.8610 O.2   1 <1>  -0.5700 
  2 C       -0.2440     1.6910    -1.1240 C.2   1 <1>   0.6900 
  3 N       -1.3650     2.3820    -0.7250 N.am  1 <1>  -0.3680 
  4 N        0.9580     2.0950    -0.6800 N.am  1 <1>  -0.8000 
  5 N       -2.6760     2.2040    -1.1530 N.2   1 <1>  -0.5120 
  6 C       -3.6310     2.8870    -0.6750 C.2   1 <1>   0.3360 
  7 C       -3.6170     3.9890     0.3750 C.3   1 <1>  -0.0190 
  8 C       -5.0900     2.7710    -1.0660 C.3   1 <1>   0.0530 
  9 C       -4.5040     3.5960     1.6100 C.3   1 <1>  -0.0800 
 10 C       -4.4650     5.0740    -0.3140 C.3   1 <1>  -0.0800 
 11 C       -5.5930     4.2350    -0.9530 C.3   1 <1>   0.0000 
 12 C       -5.9690     2.3800     0.1740 C.3   1 <1>   0.0000 
 13 C       -5.7270     4.5170     1.4460 C.3   1 <1>  -0.0800 
 14 C       -5.1320     2.2000     1.4480 C.3   1 <1>  -0.1600 
 15 C       -5.1530     5.7800     0.8370 C.3   1 <1>  -0.1600 
 16 C       -6.4670     3.8470     0.2700 C.3   1 <1>   0.0000 
 17 H       -1.1910     3.0740    -0.0010 H     1 <1>   0.3700 
 18 H        1.7670     1.5920    -1.0450 H     1 <1>   0.3700 
 19 H        1.1370     3.0170    -0.2940 H     1 <1>   0.3700 
 20 H       -2.6420     4.3410     0.6540 H     1 <1>   0.0800 
 21 H       -5.3300     2.2730    -1.9890 H     1 <1>   0.0000 
 22 H       -3.9950     3.7370     2.5490 H     1 <1>   0.0800 
 23 H       -3.9270     5.6950    -1.0090 H     1 <1>   0.0800 
 24 H       -6.1330     4.6460    -1.7880 H     1 <1>   0.0000 
 25 H       -6.7350     1.6510    -0.0200 H     1 <1>   0.0000 
 26 H       -6.3240     4.6390     2.3340 H     1 <1>   0.0800 
 27 H       -5.7740     1.9780     2.2840 H     1 <1>   0.0800 
 28 H       -4.4000     1.4160     1.3540 H     1 <1>   0.0800 
 29 H       -4.4600     6.2790     1.4940 H     1 <1>   0.0800 
 30 H       -5.9190     6.4600     0.5050 H     1 <1>   0.0800 
 31 H       -7.5220     4.0270     0.1540 H     1 <1>   0.0000 
@<TRIPOS>BOND
  1   1   2  2   
  2   2   3  am  
  3   2   4  am  
  4   3   5  1   
  5   3  17  1   
  6   4  18  1   
  7   4  19  1   
  8   5   6  2   
  9   6   7  1   
 10   6   8  1   
 11   7   9  1   
 12   7  10  1   
 13   7  20  1   
 14   8  11  1   
 15   8  12  1   
 16   8  21  1   
 17   9  13  1   
 18   9  14  1   
 19   9  22  1   
 20  10  11  1   
 21  10  15  1   
 22  10  23  1   
 23  11  16  1   
 24  11  24  1   
 25  12  14  1   
 26  12  16  1   
 27  12  25  1   
 28  13  15  1   
 29  13  16  1   
 30  13  26  1   
 31  14  27  1   
 32  14  28  1   
 33  15  29  1   
 34  15  30  1   
 35  16  31  1   
@<TRIPOS>SUBSTRUCTURE
  1 ****   6 GROUP 4 **** **** 0

# MOE 2024.06 (io_trps.svl 2023.06)
