@<TRIPOS>MOLECULE
NONAME
44 46 1 0 0 
SMALL
USER_CHARGES


@<TRIPOS>ATOM
  1 O        0.1500     0.5430     0.0940 O.3   1 <1>  -0.3630 
  2 C       -1.0700     1.1250    -0.0140 C.ar  1 <1>   0.0830 
  3 C        1.3370     1.2510    -0.1650 C.3   1 <1>   0.1200 
  4 C       -2.1650     0.3510     0.2640 C.ar  1 <1>  -0.1500 
  5 C       -1.2520     2.4690    -0.3940 C.ar  1 <1>  -0.1500 
  6 C        2.5040     0.2860     0.0570 C.3   1 <1>  -0.1600 
  7 C       -3.4740     0.8620     0.1810 C.ar  1 <1>   0.0000 
  8 C       -2.5130     2.9890    -0.4820 C.ar  1 <1>  -0.1500 
  9 C        3.8610     0.9600    -0.1930 C.3   1 <1>  -0.1600 
 10 C       -3.6540     2.2090    -0.2000 C.ar  1 <1>   0.0000 
 11 C       -4.6140     0.0810     0.4630 C.ar  1 <1>  -0.1500 
 12 C        5.0020    -0.0360     0.0320 C.3   1 <1>   0.3430 
 13 C       -4.9640     2.7210    -0.2830 C.ar  1 <1>  -0.1500 
 14 C       -5.8740     0.6040     0.3750 C.ar  1 <1>  -0.1500 
 15 N        6.3130     0.5950    -0.2810 N.4   1 <1>  -0.9590 
 16 C       -6.0510     1.9400    -0.0030 C.ar  1 <1>  -0.1500 
 17 C        7.4250    -0.3850    -0.3090 C.3   1 <1>   0.3430 
 18 C        6.7300     1.6470     0.6810 C.3   1 <1>   0.3430 
 19 C        8.6810     0.4640    -0.1780 C.3   1 <1>  -0.1600 
 20 C        8.2330     1.7750     0.4750 C.3   1 <1>  -0.1600 
 21 H        1.3880     2.0840     0.5140 H     1 <1>   0.0800 
 22 H        1.3080     1.5970    -1.1840 H     1 <1>   0.0800 
 23 H       -2.0280    -0.6730     0.5530 H     1 <1>   0.1500 
 24 H       -0.4100     3.0940    -0.6170 H     1 <1>   0.1500 
 25 H        2.3850    -0.5510    -0.6110 H     1 <1>   0.0800 
 26 H        2.4590    -0.0760     1.0700 H     1 <1>   0.0800 
 27 H       -2.6590     4.0140    -0.7710 H     1 <1>   0.1500 
 28 H        3.9600     1.7950     0.4780 H     1 <1>   0.0800 
 29 H        3.8910     1.3200    -1.2070 H     1 <1>   0.0800 
 30 H       -4.4700    -0.9440     0.7530 H     1 <1>   0.1500 
 31 H        4.8510    -0.8890    -0.6100 H     1 <1>   0.0800 
 32 H        4.9910    -0.3800     1.0540 H     1 <1>   0.0800 
 33 H       -5.0950     3.7480    -0.5730 H     1 <1>   0.1500 
 34 H       -6.7390     0.0030     0.5920 H     1 <1>   0.1500 
 35 H        6.2640     1.0280    -1.2130 H     1 <1>   0.4500 
 36 H       -7.0500     2.3370    -0.0680 H     1 <1>   0.1500 
 37 H        7.4270    -0.9640    -1.2200 H     1 <1>   0.0800 
 38 H        7.3500    -1.0480     0.5380 H     1 <1>   0.0800 
 39 H        6.5330     1.3190     1.6890 H     1 <1>   0.0800 
 40 H        6.2210     2.5810     0.5010 H     1 <1>   0.0800 
 41 H        9.0980     0.6530    -1.1520 H     1 <1>   0.0800 
 42 H        9.4210    -0.0460     0.4150 H     1 <1>   0.0800 
 43 H        8.7270     1.9430     1.4170 H     1 <1>   0.0800 
 44 H        8.4440     2.6090    -0.1730 H     1 <1>   0.0800 
@<TRIPOS>BOND
  1   1   2  1   
  2   1   3  1   
  3   2   4  ar  
  4   2   5  ar  
  5   3   6  1   
  6   3  21  1   
  7   3  22  1   
  8   4   7  ar  
  9   4  23  1   
 10   5   8  ar  
 11   5  24  1   
 12   6   9  1   
 13   6  25  1   
 14   6  26  1   
 15   7  10  ar  
 16   7  11  ar  
 17   8  10  ar  
 18   8  27  1   
 19   9  12  1   
 20   9  28  1   
 21   9  29  1   
 22  10  13  ar  
 23  11  14  ar  
 24  11  30  1   
 25  12  15  1   
 26  12  31  1   
 27  12  32  1   
 28  13  16  ar  
 29  13  33  1   
 30  14  16  ar  
 31  14  34  1   
 32  15  17  1   
 33  15  18  1   
 34  15  35  1   
 35  16  36  1   
 36  17  19  1   
 37  17  37  1   
 38  17  38  1   
 39  18  20  1   
 40  18  39  1   
 41  18  40  1   
 42  19  20  1   
 43  19  41  1   
 44  19  42  1   
 45  20  43  1   
 46  20  44  1   
@<TRIPOS>SUBSTRUCTURE
  1 ****   3 GROUP 4 **** **** 0

# MOE 2024.06 (io_trps.svl 2023.06)
