@<TRIPOS>MOLECULE
NONAME
41 42 1 0 0 
SMALL
USER_CHARGES


@<TRIPOS>ATOM
  1 O        2.3870    -2.3920    -0.7930 O.2   1 <1>  -0.5700 
  2 C        1.2530    -2.5560    -0.3640 C.2   1 <1>   0.7060 
  3 O        0.8230    -1.7000     0.5760 O.3   1 <1>  -0.4300 
  4 C        0.3770    -3.5960    -0.7880 C.2   1 <1>  -0.1240 
  5 C        1.6150    -0.6160     1.0070 C.3   1 <1>   0.1200 
  6 C        0.7100    -4.6080    -1.6400 C.2   1 <1>   0.1770 
  7 C       -1.0450    -3.5410    -0.2370 C.3   1 <1>   0.3400 
  8 C        0.8030     0.1840     2.0200 C.3   1 <1>  -0.2400 
  9 O       -0.1480    -5.5830    -1.9610 O.3   1 <1>  -0.1530 
 10 N        1.9210    -4.7540    -2.2430 N.pl3 1 <1>  -0.9000 
 11 C       -1.8550    -4.8050    -0.5210 C.2   1 <1>  -0.1240 
 12 C       -1.7760    -2.3420    -0.8400 C.ar  1 <1>  -0.1430 
 13 C       -1.3410    -5.7310    -1.3690 C.2   1 <1>  -0.0620 
 14 C       -3.1300    -4.8450     0.1550 C.2   1 <1>   0.7060 
 15 C       -1.9550    -2.2450    -2.2130 C.ar  1 <1>   0.1600 
 16 C       -2.2730    -1.3330    -0.0360 C.ar  1 <1>  -0.1500 
 17 C       -1.9710    -7.0520    -1.7870 C.3   1 <1>  -0.1020 
 18 O       -4.0770    -5.5000    -0.2260 O.2   1 <1>  -0.5700 
 19 O       -3.2780    -4.1180     1.2690 O.3   1 <1>  -0.4300 
 20 N       -2.5720    -1.2500    -2.8300 N.ar  1 <1>  -0.6200 
 21 C       -2.9180    -0.2890    -0.6620 C.ar  1 <1>  -0.1500 
 22 C       -4.5050    -4.0720     1.9730 C.3   1 <1>   0.0400 
 23 C       -3.0380    -0.2970    -2.0410 C.ar  1 <1>   0.1600 
 24 H        1.8640    -0.0120     0.1500 H     1 <1>   0.0800 
 25 H        2.5170    -1.0050     1.4500 H     1 <1>   0.0800 
 26 H       -0.9670    -3.4280     0.8300 H     1 <1>   0.0800 
 27 H       -0.0940     0.5590     1.5610 H     1 <1>   0.0800 
 28 H        1.3830     1.0190     2.3690 H     1 <1>   0.0800 
 29 H        0.5490    -0.4330     2.8630 H     1 <1>   0.0800 
 30 H        2.6690    -4.0580    -2.0970 H     1 <1>   0.4000 
 31 H        2.1340    -5.5140    -2.8940 H     1 <1>   0.4000 
 32 H       -1.5710    -3.0300    -2.8450 H     1 <1>   0.1500 
 33 H       -2.1640    -1.3530     1.0350 H     1 <1>   0.1500 
 34 H       -2.2810    -6.9950    -2.8150 H     1 <1>   0.0800 
 35 H       -2.8200    -7.3180    -1.1880 H     1 <1>   0.0800 
 36 H       -1.2480    -7.8430    -1.6930 H     1 <1>   0.0800 
 37 H       -3.3260     0.5250    -0.0910 H     1 <1>   0.1500 
 38 H       -4.3870    -3.4280     2.8250 H     1 <1>   0.0800 
 39 H       -4.7610    -5.0680     2.2930 H     1 <1>   0.0800 
 40 H       -5.2670    -3.6860     1.3180 H     1 <1>   0.0800 
 41 H       -3.5450     0.5240    -2.5200 H     1 <1>   0.1500 
@<TRIPOS>BOND
  1   1   2  2   
  2   2   3  1   
  3   2   4  1   
  4   3   5  1   
  5   4   6  2   
  6   4   7  1   
  7   5   8  1   
  8   5  24  1   
  9   5  25  1   
 10   6   9  1   
 11   6  10  1   
 12   7  11  1   
 13   7  12  1   
 14   7  26  1   
 15   8  27  1   
 16   8  28  1   
 17   8  29  1   
 18   9  13  1   
 19  10  30  1   
 20  10  31  1   
 21  11  13  2   
 22  11  14  1   
 23  12  15  ar  
 24  12  16  ar  
 25  13  17  1   
 26  14  18  2   
 27  14  19  1   
 28  15  20  ar  
 29  15  32  1   
 30  16  21  ar  
 31  16  33  1   
 32  17  34  1   
 33  17  35  1   
 34  17  36  1   
 35  19  22  1   
 36  20  23  ar  
 37  21  23  ar  
 38  21  37  1   
 39  22  38  1   
 40  22  39  1   
 41  22  40  1   
 42  23  41  1   
@<TRIPOS>SUBSTRUCTURE
  1 ****   7 GROUP 4 **** **** 0

# MOE 2024.06 (io_trps.svl 2023.06)
