@<TRIPOS>MOLECULE
NONAME
41 42 1 0 0 
SMALL
USER_CHARGES


@<TRIPOS>ATOM
  1 S       -0.1420    -0.1910     0.2640 S.o2  1 <1>   1.4470 
  2 O       -0.3630    -0.6850     1.6040 O.2   1 <1>  -0.6500 
  3 O        0.0710    -1.1060    -0.8330 O.2   1 <1>  -0.6500 
  4 N       -1.5270     0.6390    -0.1930 N.am  1 <1>  -0.9140 
  5 C        1.1260     1.1050     0.2720 C.ar  1 <1>  -0.0090 
  6 C       -2.7460    -0.1020     0.1020 C.3   1 <1>   0.1960 
  7 C        1.1850     2.0390     1.2990 C.ar  1 <1>  -0.1500 
  8 C        2.0560     1.2140    -0.7550 C.ar  1 <1>  -0.1500 
  9 C       -3.9480     0.7200    -0.3620 C.3   1 <1>  -0.0990 
 10 C        2.1370     3.0440     1.3040 C.ar  1 <1>  -0.1500 
 11 C        3.0110     2.2160    -0.7570 C.ar  1 <1>  -0.1500 
 12 C       -5.2690     0.0060    -0.1320 C.2   1 <1>   0.5690 
 13 C        3.0550     3.1390     0.2730 C.ar  1 <1>  -0.1430 
 14 O       -5.2460    -1.1030     0.3470 O.2   1 <1>  -0.5700 
 15 N       -6.4490     0.6130    -0.4760 N.am  1 <1>  -0.6600 
 16 C        4.1020     4.2380     0.2760 C.3   1 <1>  -0.0970 
 17 C       -7.7630    -0.0730    -0.2750 C.3   1 <1>   0.1400 
 18 C       -6.5990     1.9840    -1.0550 C.3   1 <1>   0.1400 
 19 C       -8.7530     0.8490     0.4550 C.3   1 <1>   0.1200 
 20 C       -7.6520     2.7880    -0.2740 C.3   1 <1>   0.1200 
 21 O       -8.8570     2.0820    -0.2010 O.3   1 <1>  -0.5600 
 22 H       -1.4420     0.6730    -1.2060 H     1 <1>   0.4200 
 23 H       -2.8230    -0.2780     1.1640 H     1 <1>   0.0800 
 24 H       -2.7300    -1.0570    -0.3990 H     1 <1>   0.0800 
 25 H        0.4750     1.9760     2.1070 H     1 <1>   0.1500 
 26 H        2.0370     0.5040    -1.5650 H     1 <1>   0.1500 
 27 H       -3.8560     0.9250    -1.4110 H     1 <1>   0.0800 
 28 H       -3.9600     1.6430     0.1860 H     1 <1>   0.0800 
 29 H        2.1600     3.7510     2.1160 H     1 <1>   0.1500 
 30 H        3.7210     2.2740    -1.5650 H     1 <1>   0.1500 
 31 H        3.7220     5.1180     0.7640 H     1 <1>   0.0800 
 32 H        4.3760     4.5010    -0.7300 H     1 <1>   0.0800 
 33 H        4.9790     3.9040     0.8000 H     1 <1>   0.0800 
 34 H       -7.6390    -0.9770     0.2960 H     1 <1>   0.0800 
 35 H       -8.1710    -0.3430    -1.2330 H     1 <1>   0.0800 
 36 H       -6.9160     1.8990    -2.0800 H     1 <1>   0.0800 
 37 H       -5.6690     2.5200    -1.0390 H     1 <1>   0.0800 
 38 H       -8.4340     1.0200     1.4680 H     1 <1>   0.0800 
 39 H       -9.7310     0.4020     0.4720 H     1 <1>   0.0800 
 40 H       -7.8510     3.7220    -0.7700 H     1 <1>   0.0800 
 41 H       -7.3100     2.9930     0.7260 H     1 <1>   0.0800 
@<TRIPOS>BOND
  1   1   2  2   
  2   1   3  2   
  3   1   4  am  
  4   1   5  1   
  5   4   6  1   
  6   4  22  1   
  7   5   7  ar  
  8   5   8  ar  
  9   6   9  1   
 10   6  23  1   
 11   6  24  1   
 12   7  10  ar  
 13   7  25  1   
 14   8  11  ar  
 15   8  26  1   
 16   9  12  1   
 17   9  27  1   
 18   9  28  1   
 19  10  13  ar  
 20  10  29  1   
 21  11  13  ar  
 22  11  30  1   
 23  12  14  2   
 24  12  15  am  
 25  13  16  1   
 26  15  17  1   
 27  15  18  1   
 28  16  31  1   
 29  16  32  1   
 30  16  33  1   
 31  17  19  1   
 32  17  34  1   
 33  17  35  1   
 34  18  20  1   
 35  18  36  1   
 36  18  37  1   
 37  19  21  1   
 38  19  38  1   
 39  19  39  1   
 40  20  21  1   
 41  20  40  1   
 42  20  41  1   
@<TRIPOS>SUBSTRUCTURE
  1 ****   4 GROUP 4 **** **** 0

# MOE 2024.06 (io_trps.svl 2023.06)
