@<TRIPOS>MOLECULE
NONAME
36 37 1 0 0 
SMALL
USER_CHARGES


@<TRIPOS>ATOM
  1 CL       0.4750     1.6230    -3.2430 Cl    1 <1>  -0.1770 
  2 C       -0.4850     2.0070    -1.8330 C.ar  1 <1>   0.1770 
  3 C        0.1200     2.4050    -0.6440 C.ar  1 <1>  -0.1440 
  4 C       -1.8580     1.8950    -1.9510 C.ar  1 <1>  -0.1500 
  5 C       -0.6970     2.6760     0.4510 C.ar  1 <1>  -0.1500 
  6 C        1.6450     2.5280    -0.5380 C.3   1 <1>   0.3440 
  7 C       -2.6400     2.1810    -0.8510 C.ar  1 <1>   0.1770 
  8 C       -2.0740     2.5680     0.3490 C.ar  1 <1>  -0.1500 
  9 O        2.0280     2.0150     0.7130 O.3   1 <1>  -0.4300 
 10 C        2.2080     3.9630    -0.6960 C.3   1 <1>   0.0610 
 11 CL      -4.3740     2.0500    -0.9780 Cl    1 <1>  -0.1770 
 12 C        3.2390     2.1640     1.2280 C.2   1 <1>   0.6590 
 13 C        3.7370     3.8400    -0.5850 C.2   1 <1>   0.4480 
 14 C        1.8080     4.5470    -2.0730 C.3   1 <1>  -0.2400 
 15 C        1.6920     4.9460     0.3820 C.3   1 <1>  -0.2400 
 16 O        3.4440     1.7830     2.3490 O.2   1 <1>  -0.5700 
 17 C        4.3460     2.8100     0.3790 C.3   1 <1>   0.1220 
 18 O        4.4540     4.5290    -1.2530 O.2   1 <1>  -0.5700 
 19 C        5.3900     3.5130     1.2830 C.3   1 <1>  -0.2400 
 20 C        5.0780     1.7130    -0.4270 C.3   1 <1>  -0.2400 
 21 H       -2.3080     1.5900    -2.8770 H     1 <1>   0.1500 
 22 H       -0.2650     2.9680     1.3940 H     1 <1>   0.1500 
 23 H        2.1020     1.8900    -1.2740 H     1 <1>   0.0800 
 24 H       -2.7070     2.7780     1.1930 H     1 <1>   0.1500 
 25 H        2.1850     3.9300    -2.8700 H     1 <1>   0.0800 
 26 H        2.2240     5.5320    -2.1980 H     1 <1>   0.0800 
 27 H        0.7400     4.6250    -2.1710 H     1 <1>   0.0800 
 28 H        1.8850     4.5860     1.3770 H     1 <1>   0.0800 
 29 H        0.6340     5.1080     0.2790 H     1 <1>   0.0800 
 30 H        2.1830     5.8980     0.2740 H     1 <1>   0.0800 
 31 H        4.9190     4.2830     1.8670 H     1 <1>   0.0800 
 32 H        6.1660     3.9650     0.6890 H     1 <1>   0.0800 
 33 H        5.8470     2.8090     1.9570 H     1 <1>   0.0800 
 34 H        4.3990     1.2000    -1.0840 H     1 <1>   0.0800 
 35 H        5.5160     0.9900     0.2390 H     1 <1>   0.0800 
 36 H        5.8630     2.1460    -1.0240 H     1 <1>   0.0800 
@<TRIPOS>BOND
  1   1   2  1   
  2   2   3  ar  
  3   2   4  ar  
  4   3   5  ar  
  5   3   6  1   
  6   4   7  ar  
  7   4  21  1   
  8   5   8  ar  
  9   5  22  1   
 10   6   9  1   
 11   6  10  1   
 12   6  23  1   
 13   7   8  ar  
 14   7  11  1   
 15   8  24  1   
 16   9  12  1   
 17  10  13  1   
 18  10  14  1   
 19  10  15  1   
 20  12  16  2   
 21  12  17  1   
 22  13  17  1   
 23  13  18  2   
 24  14  25  1   
 25  14  26  1   
 26  14  27  1   
 27  15  28  1   
 28  15  29  1   
 29  15  30  1   
 30  17  19  1   
 31  17  20  1   
 32  19  31  1   
 33  19  32  1   
 34  19  33  1   
 35  20  34  1   
 36  20  35  1   
 37  20  36  1   
@<TRIPOS>SUBSTRUCTURE
  1 ****   6 GROUP 4 **** **** 0

# MOE 2024.06 (io_trps.svl 2023.06)
