@<TRIPOS>MOLECULE
NONAME
48 50 1 0 0 
SMALL
USER_CHARGES


@<TRIPOS>ATOM
  1 O       -3.7430    -2.6980    -0.3540 O.co2 1 <1>  -0.9000 
  2 C       -3.6460    -1.4800    -0.5190 C.2   1 <1>   0.9060 
  3 O       -4.4080    -0.8660    -1.2780 O.co2 1 <1>  -0.9000 
  4 C       -2.5820    -0.7230     0.2650 C.3   1 <1>  -0.1860 
  5 C       -3.0150    -0.1650     1.6640 C.3   1 <1>  -0.0190 
  6 C       -1.8390     0.3790    -0.5410 C.3   1 <1>  -0.0800 
  7 C       -4.5100    -0.0940     2.0210 C.2   1 <1>   0.5690 
  8 C       -2.3370     1.2120     1.9000 C.3   1 <1>  -0.0800 
  9 C       -2.6700     1.6810    -0.5630 C.3   1 <1>  -0.1600 
 10 C       -0.5220     0.6870     0.2030 C.3   1 <1>  -0.1600 
 11 O       -4.8100    -0.1900     3.1910 O.2   1 <1>  -0.5700 
 12 N       -5.4580     0.1100     1.0730 N.am  1 <1>  -0.7300 
 13 C       -2.8710     2.2270     0.8670 C.3   1 <1>  -0.1600 
 14 C       -0.8150     1.0720     1.6720 C.3   1 <1>  -0.1600 
 15 C       -6.9100    -0.0740     1.2550 C.3   1 <1>   0.1400 
 16 C       -7.4300    -1.0390     0.1890 C.3   1 <1>  -0.0170 
 17 C       -8.8810    -1.4220     0.4690 C.ar  1 <1>  -0.1440 
 18 C       -9.9340    -0.5490     0.1970 C.ar  1 <1>   0.0820 
 19 C       -9.1500    -2.6700     1.0090 C.ar  1 <1>  -0.1500 
 20 O       -9.6310     0.6680    -0.3270 O.3   1 <1>  -0.3620 
 21 C      -11.2420    -0.9440     0.4710 C.ar  1 <1>  -0.1500 
 22 C      -10.4510    -3.0560     1.2780 C.ar  1 <1>  -0.1500 
 23 C      -10.6290     1.5800    -0.7220 C.3   1 <1>   0.0400 
 24 C      -11.4970    -2.1930     1.0090 C.ar  1 <1>  -0.1500 
 25 H       -1.8480    -1.4820     0.4630 H     1 <1>   0.0800 
 26 H       -2.6040    -0.8450     2.3890 H     1 <1>   0.0800 
 27 H       -1.6420     0.0380    -1.5440 H     1 <1>   0.0800 
 28 H       -2.5350     1.5560     2.9010 H     1 <1>   0.0800 
 29 H       -3.6280     1.4930    -1.0160 H     1 <1>   0.0800 
 30 H       -2.1730     2.4190    -1.1670 H     1 <1>   0.0800 
 31 H       -0.0140     1.4950    -0.2930 H     1 <1>   0.0800 
 32 H        0.1250    -0.1730     0.1730 H     1 <1>   0.0800 
 33 H       -5.1520    -0.0070     0.0840 H     1 <1>   0.3700 
 34 H       -2.3460     3.1590     0.9760 H     1 <1>   0.0800 
 35 H       -3.9150     2.4230     1.0380 H     1 <1>   0.0800 
 36 H       -0.4250     0.3150     2.3300 H     1 <1>   0.0800 
 37 H       -0.3230     1.9990     1.9080 H     1 <1>   0.0800 
 38 H       -7.4060     0.8760     1.1660 H     1 <1>   0.0800 
 39 H       -7.1050    -0.4770     2.2340 H     1 <1>   0.0800 
 40 H       -6.8110    -1.9200     0.1800 H     1 <1>   0.0800 
 41 H       -7.3500    -0.5800    -0.7810 H     1 <1>   0.0800 
 42 H       -8.3400    -3.3460     1.2210 H     1 <1>   0.1500 
 43 H      -12.0720    -0.2950     0.2740 H     1 <1>   0.1500 
 44 H      -10.6450    -4.0280     1.6970 H     1 <1>   0.1500 
 45 H      -10.1430     2.4430    -1.1390 H     1 <1>   0.0800 
 46 H      -11.2030     1.8640     0.1420 H     1 <1>   0.0800 
 47 H      -11.2500     1.1140    -1.4660 H     1 <1>   0.0800 
 48 H      -12.5080    -2.4940     1.2180 H     1 <1>   0.1500 
@<TRIPOS>BOND
  1   1   2  ar  
  2   2   3  ar  
  3   2   4  1   
  4   4   5  1   
  5   4   6  1   
  6   4  25  1   
  7   5   7  1   
  8   5   8  1   
  9   5  26  1   
 10   6   9  1   
 11   6  10  1   
 12   6  27  1   
 13   7  11  2   
 14   7  12  am  
 15   8  13  1   
 16   8  14  1   
 17   8  28  1   
 18   9  13  1   
 19   9  29  1   
 20   9  30  1   
 21  10  14  1   
 22  10  31  1   
 23  10  32  1   
 24  12  15  1   
 25  12  33  1   
 26  13  34  1   
 27  13  35  1   
 28  14  36  1   
 29  14  37  1   
 30  15  16  1   
 31  15  38  1   
 32  15  39  1   
 33  16  17  1   
 34  16  40  1   
 35  16  41  1   
 36  17  18  ar  
 37  17  19  ar  
 38  18  20  1   
 39  18  21  ar  
 40  19  22  ar  
 41  19  42  1   
 42  20  23  1   
 43  21  24  ar  
 44  21  43  1   
 45  22  24  ar  
 46  22  44  1   
 47  23  45  1   
 48  23  46  1   
 49  23  47  1   
 50  24  48  1   
@<TRIPOS>SUBSTRUCTURE
  1 ****  12 GROUP 4 **** **** 0

# MOE 2024.06 (io_trps.svl 2023.06)
