@<TRIPOS>MOLECULE
NONAME
52 54 1 0 0 
SMALL
USER_CHARGES


@<TRIPOS>ATOM
  1 S        0.0950     1.8730    -0.3730 S.o2  1 <1>   1.4470 
  2 O       -0.3420     3.0480     0.3410 O.2   1 <1>  -0.6500 
  3 O        0.7570     2.0100    -1.6490 O.2   1 <1>  -0.6500 
  4 N        1.2590     1.1640     0.6670 N.am  1 <1>  -0.7570 
  5 C       -1.2150     0.6230    -0.4350 C.ar  1 <1>  -0.0090 
  6 C        1.8340    -0.0650     0.3870 C.ar  1 <1>   0.1990 
  7 C       -1.1290    -0.4590    -1.3040 C.ar  1 <1>  -0.1500 
  8 C       -2.3170     0.6840     0.4100 C.ar  1 <1>  -0.1500 
  9 C        1.3790    -1.2510     0.9760 C.ar  1 <1>  -0.1440 
 10 C        2.8840    -0.1120    -0.5210 C.ar  1 <1>  -0.1500 
 11 C       -2.1010    -1.4430    -1.3270 C.ar  1 <1>  -0.1500 
 12 C       -3.2910    -0.2980     0.3910 C.ar  1 <1>  -0.1500 
 13 C        1.9690    -2.4630     0.6240 C.ar  1 <1>  -0.1430 
 14 C        0.2410    -1.2370     2.0000 C.3   1 <1>  -0.0970 
 15 C        3.4740    -1.3120    -0.8570 C.ar  1 <1>  -0.1500 
 16 C       -3.1950    -1.3820    -0.4750 C.ar  1 <1>   0.1170 
 17 C        3.0150    -2.4830    -0.2870 C.ar  1 <1>  -0.1500 
 18 C        1.4990    -3.7870     1.2120 C.3   1 <1>  -0.0970 
 19 N       -4.1590    -2.3930    -0.5240 N.am  1 <1>  -0.5470 
 20 C       -4.9700    -2.8930     0.4560 C.2   1 <1>   0.6900 
 21 O       -4.8270    -2.5540     1.6160 O.2   1 <1>  -0.5700 
 22 N       -5.9300    -3.8120     0.1150 N.am  1 <1>  -0.6600 
 23 C       -6.6400    -4.5600     1.1970 C.3   1 <1>   0.1400 
 24 C       -6.4400    -3.9860    -1.2800 C.3   1 <1>   0.1400 
 25 C       -7.2250    -5.8680     0.6550 C.3   1 <1>  -0.1600 
 26 C       -7.9310    -4.3390    -1.2720 C.3   1 <1>  -0.1600 
 27 C       -8.2220    -5.6330    -0.4930 C.3   1 <1>  -0.1600 
 28 H        1.9070     1.8960     0.9350 H     1 <1>   0.4200 
 29 H       -0.2810    -0.5340    -1.9660 H     1 <1>   0.1500 
 30 H       -2.4140     1.5090     1.0960 H     1 <1>   0.1500 
 31 H        3.2320     0.7990    -0.9760 H     1 <1>   0.1500 
 32 H       -2.0000    -2.2680    -2.0080 H     1 <1>   0.1500 
 33 H       -4.1330    -0.2240     1.0570 H     1 <1>   0.1500 
 34 H        0.0130    -0.2460     2.3450 H     1 <1>   0.0800 
 35 H        0.5080    -1.8180     2.8630 H     1 <1>   0.0800 
 36 H       -0.6490    -1.6550     1.5640 H     1 <1>   0.0800 
 37 H        4.2860    -1.3370    -1.5640 H     1 <1>   0.1500 
 38 H        3.4800    -3.4150    -0.5600 H     1 <1>   0.1500 
 39 H        0.4360    -3.8920     1.0920 H     1 <1>   0.0800 
 40 H        1.7410    -3.8310     2.2590 H     1 <1>   0.0800 
 41 H        1.9720    -4.6190     0.7220 H     1 <1>   0.0800 
 42 H       -4.1870    -2.9460    -1.3720 H     1 <1>   0.3700 
 43 H       -7.4260    -3.9400     1.5920 H     1 <1>   0.0800 
 44 H       -5.9510    -4.7770     1.9970 H     1 <1>   0.0800 
 45 H       -5.8870    -4.7740    -1.7600 H     1 <1>   0.0800 
 46 H       -6.3020    -3.0750    -1.8380 H     1 <1>   0.0800 
 47 H       -7.7110    -6.4030     1.4520 H     1 <1>   0.0800 
 48 H       -6.4100    -6.4800     0.3080 H     1 <1>   0.0800 
 49 H       -8.2860    -4.4390    -2.2820 H     1 <1>   0.0800 
 50 H       -8.4670    -3.5200    -0.8220 H     1 <1>   0.0800 
 51 H       -9.2220    -5.5790    -0.0980 H     1 <1>   0.0800 
 52 H       -8.1830    -6.4770    -1.1610 H     1 <1>   0.0800 
@<TRIPOS>BOND
  1   1   2  2   
  2   1   3  2   
  3   1   4  am  
  4   1   5  1   
  5   4   6  1   
  6   4  28  1   
  7   5   7  ar  
  8   5   8  ar  
  9   6   9  ar  
 10   6  10  ar  
 11   7  11  ar  
 12   7  29  1   
 13   8  12  ar  
 14   8  30  1   
 15   9  13  ar  
 16   9  14  1   
 17  10  15  ar  
 18  10  31  1   
 19  11  16  ar  
 20  11  32  1   
 21  12  16  ar  
 22  12  33  1   
 23  13  17  ar  
 24  13  18  1   
 25  14  34  1   
 26  14  35  1   
 27  14  36  1   
 28  15  17  ar  
 29  15  37  1   
 30  16  19  1   
 31  17  38  1   
 32  18  39  1   
 33  18  40  1   
 34  18  41  1   
 35  19  20  am  
 36  19  42  1   
 37  20  21  2   
 38  20  22  am  
 39  22  23  1   
 40  22  24  1   
 41  23  25  1   
 42  23  43  1   
 43  23  44  1   
 44  24  26  1   
 45  24  45  1   
 46  24  46  1   
 47  25  27  1   
 48  25  47  1   
 49  25  48  1   
 50  26  27  1   
 51  26  49  1   
 52  26  50  1   
 53  27  51  1   
 54  27  52  1   
@<TRIPOS>SUBSTRUCTURE
  1 ****  11 GROUP 4 **** **** 0

# MOE 2024.06 (io_trps.svl 2023.06)
