@<TRIPOS>MOLECULE
NONAME
44 46 1 0 0 
SMALL
USER_CHARGES


@<TRIPOS>ATOM
  1 CL      -0.9510     0.4520    -1.5570 Cl    1 <1>  -0.1770 
  2 C       -2.4000    -0.4070    -1.0910 C.ar  1 <1>   0.1770 
  3 C       -3.6360     0.0130    -1.5480 C.ar  1 <1>   0.1600 
  4 C       -2.3070    -1.5050    -0.2660 C.ar  1 <1>  -0.1500 
  5 N       -4.7850    -0.5780    -1.2450 N.ar  1 <1>  -0.6200 
  6 C       -3.4950    -2.1260     0.0540 C.ar  1 <1>  -0.1500 
  7 C       -4.7030    -1.6370    -0.4490 C.ar  1 <1>   0.4270 
  8 N       -5.9360    -2.1920    -0.1830 N.am  1 <1>  -0.5470 
  9 C       -6.3510    -3.2280     0.6030 C.2   1 <1>   0.5690 
 10 O       -5.5980    -3.8930     1.2710 O.2   1 <1>  -0.5700 
 11 C       -7.8300    -3.5790     0.6370 C.3   1 <1>   0.1310 
 12 S       -8.8900    -2.1340     0.1350 S.3   1 <1>  -0.2860 
 13 C      -10.5460    -2.8280     0.1970 C.2   1 <1>   0.2430 
 14 N      -10.7890    -4.0520     0.4990 N.2   1 <1>  -0.3380 
 15 N      -11.6390    -2.1130    -0.0670 N.pl3 1 <1>   0.0480 
 16 N      -12.1170    -4.1800     0.4420 N.2   1 <1>  -0.3380 
 17 C      -12.6080    -3.0270     0.1100 C.2   1 <1>   0.0060 
 18 C      -11.7280    -0.6860    -0.4400 C.3   1 <1>   0.0160 
 19 C      -14.0970    -2.7320    -0.0690 C.3   1 <1>   0.1000 
 20 C      -14.9750    -3.6080     0.8440 C.3   1 <1>  -0.1600 
 21 C      -14.5040    -2.9200    -1.5400 C.3   1 <1>  -0.1600 
 22 C      -16.4690    -3.3170     0.6390 C.3   1 <1>  -0.1600 
 23 C      -15.9970    -2.6330    -1.7570 C.3   1 <1>  -0.1600 
 24 C      -16.8670    -3.4940    -0.8320 C.3   1 <1>  -0.1600 
 25 H       -3.6750     0.8750    -2.1910 H     1 <1>   0.1500 
 26 H       -1.3570    -1.8510     0.1010 H     1 <1>   0.1500 
 27 H       -3.4800    -2.9880     0.6930 H     1 <1>   0.1500 
 28 H       -6.6770    -1.6760    -0.6550 H     1 <1>   0.3700 
 29 H       -8.1280    -3.8600     1.6300 H     1 <1>   0.0800 
 30 H       -8.0410    -4.3820    -0.0450 H     1 <1>   0.0800 
 31 H      -11.7710    -0.0890     0.4530 H     1 <1>   0.0800 
 32 H      -12.6080    -0.5150    -1.0320 H     1 <1>   0.0800 
 33 H      -10.8630    -0.4080    -1.0140 H     1 <1>   0.0800 
 34 H      -14.2760    -1.7080     0.2070 H     1 <1>   0.0800 
 35 H      -14.7090    -3.4350     1.8720 H     1 <1>   0.0800 
 36 H      -14.7880    -4.6470     0.6290 H     1 <1>   0.0800 
 37 H      -14.2910    -3.9350    -1.8320 H     1 <1>   0.0800 
 38 H      -13.9200    -2.2720    -2.1680 H     1 <1>   0.0800 
 39 H      -16.6850    -2.3090     0.9500 H     1 <1>   0.0800 
 40 H      -17.0510    -3.9830     1.2520 H     1 <1>   0.0800 
 41 H      -16.2570    -2.8330    -2.7820 H     1 <1>   0.0800 
 42 H      -16.1950    -1.5920    -1.5640 H     1 <1>   0.0800 
 43 H      -17.9030    -3.2300    -0.9600 H     1 <1>   0.0800 
 44 H      -16.7560    -4.5300    -1.1050 H     1 <1>   0.0800 
@<TRIPOS>BOND
  1   1   2  1   
  2   2   3  ar  
  3   2   4  ar  
  4   3   5  ar  
  5   3  25  1   
  6   4   6  ar  
  7   4  26  1   
  8   5   7  ar  
  9   6   7  ar  
 10   6  27  1   
 11   7   8  1   
 12   8   9  am  
 13   8  28  1   
 14   9  10  2   
 15   9  11  1   
 16  11  12  1   
 17  11  29  1   
 18  11  30  1   
 19  12  13  1   
 20  13  14  2   
 21  13  15  1   
 22  14  16  1   
 23  15  17  1   
 24  15  18  1   
 25  16  17  2   
 26  17  19  1   
 27  18  31  1   
 28  18  32  1   
 29  18  33  1   
 30  19  20  1   
 31  19  21  1   
 32  19  34  1   
 33  20  22  1   
 34  20  35  1   
 35  20  36  1   
 36  21  23  1   
 37  21  37  1   
 38  21  38  1   
 39  22  24  1   
 40  22  39  1   
 41  22  40  1   
 42  23  24  1   
 43  23  41  1   
 44  23  42  1   
 45  24  43  1   
 46  24  44  1   
@<TRIPOS>SUBSTRUCTURE
  1 ****  12 GROUP 4 **** **** 0

# MOE 2024.06 (io_trps.svl 2023.06)
