@<TRIPOS>MOLECULE
NONAME
40 42 1 0 0 
SMALL
USER_CHARGES


@<TRIPOS>ATOM
  1 O       -0.0990     0.8580    -1.3760 O.2   1 <1>  -0.5700 
  2 C        0.3080     1.4590    -0.4000 C.2   1 <1>   0.6900 
  3 N       -0.5540     2.0000     0.5110 N.am  1 <1>  -0.6600 
  4 N        1.6370     1.5800    -0.2040 N.am  1 <1>  -0.7300 
  5 C       -2.0130     1.6830     0.4820 C.3   1 <1>   0.1400 
  6 C       -0.2310     3.1830     1.3630 C.3   1 <1>   0.1400 
  7 C        2.6600     1.0360    -1.1320 C.3   1 <1>   0.3200 
  8 C       -2.8360     2.9480     0.1910 C.3   1 <1>   0.1200 
  9 C       -1.1610     4.3620     1.0260 C.3   1 <1>   0.1200 
 10 C        3.9310     1.8700    -1.0970 C.2   1 <1>   0.2980 
 11 O       -2.5030     3.9690     1.0900 O.3   1 <1>  -0.5600 
 12 O        3.8980     3.0770    -1.5970 O.3   1 <1>  -0.0190 
 13 N        5.0500     1.5120    -0.6130 N.2   1 <1>  -0.5650 
 14 N        5.0990     3.5270    -1.4170 N.2   1 <1>  -0.4100 
 15 C        5.7870     2.6060    -0.8380 C.2   1 <1>   0.4620 
 16 C        7.1880     2.7050    -0.4600 C.ar  1 <1>   0.0540 
 17 C        7.8600     1.6480     0.1580 C.ar  1 <1>  -0.1500 
 18 C        7.9200     3.8690    -0.7020 C.ar  1 <1>  -0.1500 
 19 C        9.1940     1.7400     0.5200 C.ar  1 <1>  -0.1440 
 20 C        9.2520     3.9720    -0.3470 C.ar  1 <1>  -0.1500 
 21 C        9.8900     2.9080     0.2640 C.ar  1 <1>  -0.1500 
 22 C        9.8970     0.5720     1.1890 C.3   1 <1>  -0.0970 
 23 H        1.9610     1.8400     0.7240 H     1 <1>   0.3700 
 24 H       -2.3070     1.2830     1.4370 H     1 <1>   0.0800 
 25 H       -2.2280     0.9380    -0.2650 H     1 <1>   0.0800 
 26 H        0.7880     3.4960     1.2170 H     1 <1>   0.0800 
 27 H       -0.3570     2.9190     2.3990 H     1 <1>   0.0800 
 28 H        2.2760     1.0220    -2.1370 H     1 <1>   0.0800 
 29 H        2.8910     0.0260    -0.8440 H     1 <1>   0.0800 
 30 H       -3.8850     2.7420     0.3000 H     1 <1>   0.0800 
 31 H       -2.6520     3.2940    -0.8120 H     1 <1>   0.0800 
 32 H       -0.9580     4.7320     0.0360 H     1 <1>   0.0800 
 33 H       -1.0200     5.1620     1.7300 H     1 <1>   0.0800 
 34 H        7.3240     0.7370     0.3560 H     1 <1>   0.1500 
 35 H        7.4400     4.7060    -1.1770 H     1 <1>   0.1500 
 36 H        9.7940     4.8800    -0.5460 H     1 <1>   0.1500 
 37 H       10.9280     2.9930     0.5370 H     1 <1>   0.1500 
 38 H        9.1830    -0.1160     1.6040 H     1 <1>   0.0800 
 39 H       10.5290     0.9260     1.9840 H     1 <1>   0.0800 
 40 H       10.5020     0.0510     0.4690 H     1 <1>   0.0800 
@<TRIPOS>BOND
  1   1   2  2   
  2   2   3  am  
  3   2   4  am  
  4   3   5  1   
  5   3   6  1   
  6   4   7  1   
  7   4  23  1   
  8   5   8  1   
  9   5  24  1   
 10   5  25  1   
 11   6   9  1   
 12   6  26  1   
 13   6  27  1   
 14   7  10  1   
 15   7  28  1   
 16   7  29  1   
 17   8  11  1   
 18   8  30  1   
 19   8  31  1   
 20   9  11  1   
 21   9  32  1   
 22   9  33  1   
 23  10  12  1   
 24  10  13  2   
 25  12  14  1   
 26  13  15  1   
 27  14  15  2   
 28  15  16  1   
 29  16  17  ar  
 30  16  18  ar  
 31  17  19  ar  
 32  17  34  1   
 33  18  20  ar  
 34  18  35  1   
 35  19  21  ar  
 36  19  22  1   
 37  20  21  ar  
 38  20  36  1   
 39  21  37  1   
 40  22  38  1   
 41  22  39  1   
 42  22  40  1   
@<TRIPOS>SUBSTRUCTURE
  1 ****  10 GROUP 4 **** **** 0

# MOE 2024.06 (io_trps.svl 2023.06)
