@<TRIPOS>MOLECULE
NONAME
50 52 1 0 0 
SMALL
USER_CHARGES


@<TRIPOS>ATOM
  1 O       -4.7500    -0.3160    -0.2820 O.2   1 <1>  -0.5700 
  2 C       -5.8110     0.2900    -0.1000 C.2   1 <1>   0.5350 
  3 N       -6.8780    -0.3980     0.4720 N.am  1 <1>  -0.4770 
  4 C       -5.9440     1.6370    -0.4690 C.3   1 <1>  -0.7150 
  5 C       -8.1540     0.1950     0.5750 C.ar  1 <1>   0.1170 
  6 C       -6.6080    -1.7450     1.0530 C.3   1 <1>   0.1400 
  7 C       -7.1980     2.2500    -0.3710 C.2   1 <1>   0.3890 
  8 C       -4.8410     2.3610    -0.9140 C.2   1 <1>   0.5350 
  9 C       -8.3240     1.5280     0.1680 C.ar  1 <1>   0.0860 
 10 C       -9.2700    -0.4970     1.0620 C.ar  1 <1>  -0.1500 
 11 C       -6.9160    -2.8310     0.0210 C.3   1 <1>  -0.2400 
 12 O       -7.3700     3.4050    -0.7740 O.2   1 <1>  -0.5700 
 13 O       -4.2920     3.2340    -0.2510 O.2   1 <1>  -0.5700 
 14 N       -4.2600     1.9610    -2.0740 N.am  1 <1>  -0.7300 
 15 C       -9.5850     2.1190     0.2890 C.ar  1 <1>  -0.1500 
 16 C      -10.5070     0.1040     1.1700 C.ar  1 <1>  -0.1500 
 17 C       -2.7910     1.8650    -2.1770 C.3   1 <1>   0.1400 
 18 C      -10.6670     1.4230     0.7840 C.ar  1 <1>  -0.1500 
 19 C       -2.2200     1.1030    -0.9610 C.3   1 <1>   0.3430 
 20 N       -1.0650     1.7900    -0.2940 N.4   1 <1>  -0.9590 
 21 C       -0.4760     0.8740     0.7170 C.3   1 <1>   0.3430 
 22 C       -1.5460     3.0510     0.3520 C.3   1 <1>   0.3430 
 23 C        0.7330     1.5410     1.3790 C.3   1 <1>  -0.1600 
 24 C       -0.3730     3.7770     1.0150 C.3   1 <1>  -0.1600 
 25 C        0.3530     2.8800     2.0250 C.3   1 <1>  -0.1600 
 26 H       -7.1910    -1.8850     1.9440 H     1 <1>   0.0800 
 27 H       -5.5760    -1.8150     1.3500 H     1 <1>   0.0800 
 28 H       -9.1890    -1.5220     1.3620 H     1 <1>   0.1500 
 29 H       -7.9430    -2.7780    -0.2920 H     1 <1>   0.0800 
 30 H       -6.7320    -3.8000     0.4460 H     1 <1>   0.0800 
 31 H       -6.2790    -2.7050    -0.8370 H     1 <1>   0.0800 
 32 H       -4.7780     1.1580    -2.4380 H     1 <1>   0.3700 
 33 H       -9.7020     3.1440    -0.0170 H     1 <1>   0.1500 
 34 H      -11.3480    -0.4470     1.5510 H     1 <1>   0.1500 
 35 H       -2.3950     2.8630    -2.2320 H     1 <1>   0.0800 
 36 H       -2.5410     1.3440    -3.0830 H     1 <1>   0.0800 
 37 H      -11.6270     1.9010     0.8670 H     1 <1>   0.1500 
 38 H       -1.9300     0.1170    -1.2810 H     1 <1>   0.0800 
 39 H       -3.0020     0.9890    -0.2300 H     1 <1>   0.0800 
 40 H       -0.3560     2.0340    -0.9910 H     1 <1>   0.4500 
 41 H       -0.1700    -0.0470     0.2480 H     1 <1>   0.0800 
 42 H       -1.2160     0.6440     1.4670 H     1 <1>   0.0800 
 43 H       -2.2990     2.8180     1.0900 H     1 <1>   0.0800 
 44 H       -2.0050     3.6980    -0.3790 H     1 <1>   0.0800 
 45 H        1.5050     1.6910     0.6440 H     1 <1>   0.0800 
 46 H        1.1280     0.8820     2.1320 H     1 <1>   0.0800 
 47 H       -0.7490     4.6510     1.5180 H     1 <1>   0.0800 
 48 H        0.3110     4.1110     0.2550 H     1 <1>   0.0800 
 49 H        1.2360     3.3770     2.3910 H     1 <1>   0.0800 
 50 H       -0.2950     2.6980     2.8670 H     1 <1>   0.0800 
@<TRIPOS>BOND
  1   1   2  2   
  2   2   3  am  
  3   2   4  1   
  4   3   5  1   
  5   3   6  1   
  6   4   7  1   
  7   4   8  1   
  8   5   9  ar  
  9   5  10  ar  
 10   6  11  1   
 11   6  26  1   
 12   6  27  1   
 13   7   9  1   
 14   7  12  2   
 15   8  13  2   
 16   8  14  am  
 17   9  15  ar  
 18  10  16  ar  
 19  10  28  1   
 20  11  29  1   
 21  11  30  1   
 22  11  31  1   
 23  14  17  1   
 24  14  32  1   
 25  15  18  ar  
 26  15  33  1   
 27  16  18  ar  
 28  16  34  1   
 29  17  19  1   
 30  17  35  1   
 31  17  36  1   
 32  18  37  1   
 33  19  20  1   
 34  19  38  1   
 35  19  39  1   
 36  20  21  1   
 37  20  22  1   
 38  20  40  1   
 39  21  23  1   
 40  21  41  1   
 41  21  42  1   
 42  22  24  1   
 43  22  43  1   
 44  22  44  1   
 45  23  25  1   
 46  23  45  1   
 47  23  46  1   
 48  24  25  1   
 49  24  47  1   
 50  24  48  1   
 51  25  49  1   
 52  25  50  1   
@<TRIPOS>SUBSTRUCTURE
  1 ****   4 GROUP 4 **** **** 0

# MOE 2024.06 (io_trps.svl 2023.06)
