@<TRIPOS>MOLECULE
NONAME
56 58 1 0 0 
SMALL
USER_CHARGES


@<TRIPOS>ATOM
  1 O        0.6060    -3.2970    -1.1020 O.2   1 <1>  -0.5700 
  2 C       -0.0540    -2.5220    -0.4520 C.2   1 <1>   0.5690 
  3 N        0.4100    -1.3380     0.0420 N.am  1 <1>  -0.5470 
  4 C       -1.5190    -2.8480    -0.1590 C.3   1 <1>   0.1710 
  5 C        1.6410    -0.6910    -0.1350 C.ar  1 <1>   0.1170 
  6 N       -2.3740    -1.6380     0.0170 N.3   1 <1>  -0.8100 
  7 C        2.8700    -1.2610     0.2080 C.ar  1 <1>  -0.1430 
  8 C        1.6220     0.5950    -0.6580 C.ar  1 <1>  -0.1500 
  9 C       -3.6750    -1.9980     0.6310 C.3   1 <1>   0.1100 
 10 C       -2.6160    -0.9680    -1.2890 C.3   1 <1>   0.1100 
 11 C        4.0380    -0.5430     0.0020 C.ar  1 <1>  -0.1500 
 12 C        2.9790    -2.6530     0.8150 C.3   1 <1>  -0.0970 
 13 C        2.7910     1.3050    -0.8550 C.ar  1 <1>  -0.1500 
 14 C       -4.6060    -0.7790     0.7890 C.3   1 <1>   0.2090 
 15 C       -3.5340     0.2630    -1.1560 C.3   1 <1>   0.2090 
 16 C        4.0090     0.7370    -0.5270 C.ar  1 <1>  -0.1430 
 17 N       -4.8310    -0.1150    -0.5270 N.pl3 1 <1>  -0.8380 
 18 C        5.3010     1.5040    -0.7450 C.3   1 <1>  -0.0970 
 19 C       -5.8220     0.8760    -0.5450 C.ar  1 <1>   0.1000 
 20 C       -5.7440     2.0940     0.1550 C.ar  1 <1>   0.0830 
 21 C       -6.9500     0.6200    -1.3110 C.ar  1 <1>  -0.1500 
 22 O       -4.6300     2.3420     0.9110 O.3   1 <1>  -0.3630 
 23 C       -6.7900     3.0090     0.0620 C.ar  1 <1>  -0.1500 
 24 C       -7.9850     1.5320    -1.3970 C.ar  1 <1>  -0.1500 
 25 C       -4.5500     3.4610     1.7610 C.3   1 <1>   0.1200 
 26 C       -7.9050     2.7290    -0.7100 C.ar  1 <1>  -0.1500 
 27 C       -3.2310     3.3780     2.5220 C.3   1 <1>  -0.2400 
 28 H       -0.3510    -0.7740     0.4330 H     1 <1>   0.3700 
 29 H       -1.5360    -3.4300     0.7440 H     1 <1>   0.0800 
 30 H       -1.9060    -3.4610    -0.9550 H     1 <1>   0.0800 
 31 H        0.6810     1.0440    -0.9200 H     1 <1>   0.1500 
 32 H       -3.5040    -2.4270     1.6030 H     1 <1>   0.0800 
 33 H       -4.1770    -2.7320     0.0230 H     1 <1>   0.0800 
 34 H       -3.0770    -1.6590    -1.9740 H     1 <1>   0.0800 
 35 H       -1.6800    -0.6520    -1.7160 H     1 <1>   0.0800 
 36 H        4.9850    -0.9850     0.2550 H     1 <1>   0.1500 
 37 H        2.9630    -3.3910     0.0330 H     1 <1>   0.0800 
 38 H        2.1600    -2.8390     1.4860 H     1 <1>   0.0800 
 39 H        3.8940    -2.7600     1.3680 H     1 <1>   0.0800 
 40 H        2.7500     2.2970    -1.2670 H     1 <1>   0.1500 
 41 H       -4.1620    -0.0830     1.4790 H     1 <1>   0.0800 
 42 H       -5.5520    -1.0960     1.1910 H     1 <1>   0.0800 
 43 H       -3.7220     0.6800    -2.1300 H     1 <1>   0.0800 
 44 H       -3.0420     1.0100    -0.5590 H     1 <1>   0.0800 
 45 H        6.0110     1.2670     0.0260 H     1 <1>   0.0800 
 46 H        5.1200     2.5630    -0.7260 H     1 <1>   0.0800 
 47 H        5.7210     1.2400    -1.6990 H     1 <1>   0.0800 
 48 H       -7.0050    -0.3120    -1.8430 H     1 <1>   0.1500 
 49 H       -6.7620     3.9480     0.5780 H     1 <1>   0.1500 
 50 H       -8.8490     1.3100    -1.9980 H     1 <1>   0.1500 
 51 H       -5.3840     3.4330     2.4410 H     1 <1>   0.0800 
 52 H       -4.5860     4.3520     1.1580 H     1 <1>   0.0800 
 53 H       -8.7090     3.4410    -0.7760 H     1 <1>   0.1500 
 54 H       -3.1970     2.4750     3.1050 H     1 <1>   0.0800 
 55 H       -3.1380     4.2200     3.1840 H     1 <1>   0.0800 
 56 H       -2.4060     3.3910     1.8320 H     1 <1>   0.0800 
@<TRIPOS>BOND
  1   1   2  2   
  2   2   3  am  
  3   2   4  1   
  4   3   5  1   
  5   3  28  1   
  6   4   6  1   
  7   4  29  1   
  8   4  30  1   
  9   5   7  ar  
 10   5   8  ar  
 11   6   9  1   
 12   6  10  1   
 13   7  11  ar  
 14   7  12  1   
 15   8  13  ar  
 16   8  31  1   
 17   9  14  1   
 18   9  32  1   
 19   9  33  1   
 20  10  15  1   
 21  10  34  1   
 22  10  35  1   
 23  11  16  ar  
 24  11  36  1   
 25  12  37  1   
 26  12  38  1   
 27  12  39  1   
 28  13  16  ar  
 29  13  40  1   
 30  14  17  1   
 31  14  41  1   
 32  14  42  1   
 33  15  17  1   
 34  15  43  1   
 35  15  44  1   
 36  16  18  1   
 37  17  19  1   
 38  18  45  1   
 39  18  46  1   
 40  18  47  1   
 41  19  20  ar  
 42  19  21  ar  
 43  20  22  1   
 44  20  23  ar  
 45  21  24  ar  
 46  21  48  1   
 47  22  25  1   
 48  23  26  ar  
 49  23  49  1   
 50  24  26  ar  
 51  24  50  1   
 52  25  27  1   
 53  25  51  1   
 54  25  52  1   
 55  26  53  1   
 56  27  54  1   
 57  27  55  1   
 58  27  56  1   
@<TRIPOS>SUBSTRUCTURE
  1 ****  10 GROUP 4 **** **** 0

# MOE 2024.06 (io_trps.svl 2023.06)
