@<TRIPOS>MOLECULE
NONAME
30 31 1 0 0 
SMALL
USER_CHARGES


@<TRIPOS>ATOM
  1 CL       4.7290    -3.4520    -2.3510 Cl    1 <1>  -0.1770 
  2 C        4.8630    -2.5060    -0.8910 C.ar  1 <1>   0.1770 
  3 C        4.8730    -1.1260    -0.9780 C.ar  1 <1>  -0.1500 
  4 C        4.9630    -3.1510     0.3260 C.ar  1 <1>  -0.1500 
  5 C        4.9840    -0.3680     0.1780 C.ar  1 <1>  -0.1440 
  6 C        5.0760    -2.3960     1.4810 C.ar  1 <1>  -0.1500 
  7 C        5.0840    -1.0120     1.4050 C.ar  1 <1>  -0.1500 
  8 C        4.9990     1.1480     0.0950 C.3   1 <1>   0.2140 
  9 S        6.6240     1.6800    -0.5210 S.3   1 <1>  -0.4600 
 10 C        7.7270     1.4800     0.9290 C.3   1 <1>   0.1310 
 11 C        8.1570     0.0340     1.1340 C.2   1 <1>   0.5690 
 12 O        8.3350    -0.3540     2.2650 O.2   1 <1>  -0.5700 
 13 N        8.3350    -0.7590     0.0440 N.am  1 <1>  -0.5790 
 14 C        8.7230    -2.1740     0.0580 C.3   1 <1>   0.0490 
 15 C        9.7320    -2.6350    -0.9400 C.3   1 <1>  -0.2000 
 16 C        8.2930    -3.0270    -1.0890 C.3   1 <1>  -0.2000 
 17 H        4.7980    -0.6570    -1.9420 H     1 <1>   0.1500 
 18 H        4.9570    -4.2250     0.3670 H     1 <1>   0.1500 
 19 H        5.1630    -2.8810     2.4380 H     1 <1>   0.1500 
 20 H        5.1790    -0.4420     2.3140 H     1 <1>   0.1500 
 21 H        4.8430     1.6100     1.0530 H     1 <1>   0.0800 
 22 H        4.2640     1.5040    -0.6050 H     1 <1>   0.0800 
 23 H        7.1980     1.8400     1.7910 H     1 <1>   0.0800 
 24 H        8.5910     2.0920     0.7540 H     1 <1>   0.0800 
 25 H        8.0510    -0.3880    -0.8650 H     1 <1>   0.3700 
 26 H        8.7380    -2.6020     1.0490 H     1 <1>   0.1000 
 27 H       10.4370    -3.3920    -0.6450 H     1 <1>   0.1000 
 28 H       10.1540    -1.9150    -1.6170 H     1 <1>   0.1000 
 29 H        7.7140    -2.5860    -1.8810 H     1 <1>   0.1000 
 30 H        8.0180    -4.0480    -0.8940 H     1 <1>   0.1000 
@<TRIPOS>BOND
  1   1   2  1   
  2   2   3  ar  
  3   2   4  ar  
  4   3   5  ar  
  5   3  17  1   
  6   4   6  ar  
  7   4  18  1   
  8   5   7  ar  
  9   5   8  1   
 10   6   7  ar  
 11   6  19  1   
 12   7  20  1   
 13   8   9  1   
 14   8  21  1   
 15   8  22  1   
 16   9  10  1   
 17  10  11  1   
 18  10  23  1   
 19  10  24  1   
 20  11  12  2   
 21  11  13  am  
 22  13  14  1   
 23  13  25  1   
 24  14  15  1   
 25  14  16  1   
 26  14  26  1   
 27  15  16  1   
 28  15  27  1   
 29  15  28  1   
 30  16  29  1   
 31  16  30  1   
@<TRIPOS>SUBSTRUCTURE
  1 ****  13 GROUP 4 **** **** 0

# MOE 2024.06 (io_trps.svl 2023.06)
