@<TRIPOS>MOLECULE
NONAME
39 40 1 0 0 
SMALL
USER_CHARGES


@<TRIPOS>ATOM
  1 O       -2.1290     0.7720     1.5450 O.2   1 <1>  -0.5700 
  2 C       -1.5820     1.2520     0.5820 C.2   1 <1>   0.4230 
  3 C       -1.6270     2.6460     0.2210 C.ar  1 <1>   0.0860 
  4 C       -0.7850     0.2870    -0.2730 C.3   1 <1>  -0.1790 
  5 C       -2.8170     3.4340     0.3000 C.ar  1 <1>   0.0000 
  6 C       -0.4720     3.2610    -0.2190 C.ar  1 <1>  -0.1500 
  7 C       -2.7750     4.8460     0.0990 C.ar  1 <1>   0.0000 
  8 C       -4.0640     2.8270     0.5570 C.ar  1 <1>  -0.1500 
  9 C       -0.4600     4.5900    -0.5850 C.ar  1 <1>  -0.1500 
 10 C       -1.5810     5.3880    -0.4890 C.ar  1 <1>   0.1000 
 11 C       -3.9380     5.6010     0.4880 C.ar  1 <1>   0.1000 
 12 C       -5.1950     3.5580     0.7680 C.ar  1 <1>  -0.1500 
 13 N       -1.4750     6.6530    -1.0580 N.pl3 1 <1>  -0.8380 
 14 N       -3.9360     6.9880     0.6840 N.pl3 1 <1>  -0.8380 
 15 C       -5.1180     4.9400     0.7600 C.ar  1 <1>  -0.1500 
 16 C       -2.4970     7.1290    -2.0250 C.3   1 <1>   0.1290 
 17 C       -0.3130     7.5520    -0.8390 C.3   1 <1>   0.1290 
 18 C       -2.9240     7.5790     1.5950 C.3   1 <1>   0.1290 
 19 C       -5.0920     7.8570     0.3470 C.3   1 <1>   0.1290 
 20 H       -0.6930     0.6540    -1.2780 H     1 <1>   0.0800 
 21 H       -1.2860    -0.6640    -0.2990 H     1 <1>   0.0800 
 22 H        0.1910     0.1500     0.1530 H     1 <1>   0.0800 
 23 H        0.4470     2.7080    -0.2910 H     1 <1>   0.1500 
 24 H       -4.1420     1.7560     0.6000 H     1 <1>   0.1500 
 25 H        0.4490     5.0030    -0.9800 H     1 <1>   0.1500 
 26 H       -6.1360     3.0770     0.9660 H     1 <1>   0.1500 
 27 H       -6.0030     5.4920     1.0050 H     1 <1>   0.1500 
 28 H       -3.2790     6.3970    -2.1270 H     1 <1>   0.0800 
 29 H       -2.0440     7.2900    -2.9870 H     1 <1>   0.0800 
 30 H       -2.9280     8.0480    -1.6730 H     1 <1>   0.0800 
 31 H        0.2630     7.2100     0.0030 H     1 <1>   0.0800 
 32 H       -0.6600     8.5500    -0.6360 H     1 <1>   0.0800 
 33 H        0.3090     7.5630    -1.7160 H     1 <1>   0.0800 
 34 H       -2.1870     6.8410     1.8610 H     1 <1>   0.0800 
 35 H       -3.4000     7.9340     2.4920 H     1 <1>   0.0800 
 36 H       -2.4300     8.3970     1.1020 H     1 <1>   0.0800 
 37 H       -5.6880     7.3930    -0.4200 H     1 <1>   0.0800 
 38 H       -4.7390     8.8050    -0.0190 H     1 <1>   0.0800 
 39 H       -5.6970     8.0160     1.2220 H     1 <1>   0.0800 
@<TRIPOS>BOND
  1   1   2  2   
  2   2   3  1   
  3   2   4  1   
  4   3   5  ar  
  5   3   6  ar  
  6   4  20  1   
  7   4  21  1   
  8   4  22  1   
  9   5   7  ar  
 10   5   8  ar  
 11   6   9  ar  
 12   6  23  1   
 13   7  10  ar  
 14   7  11  ar  
 15   8  12  ar  
 16   8  24  1   
 17   9  10  ar  
 18   9  25  1   
 19  10  13  1   
 20  11  14  1   
 21  11  15  ar  
 22  12  15  ar  
 23  12  26  1   
 24  13  16  1   
 25  13  17  1   
 26  14  18  1   
 27  14  19  1   
 28  15  27  1   
 29  16  28  1   
 30  16  29  1   
 31  16  30  1   
 32  17  31  1   
 33  17  32  1   
 34  17  33  1   
 35  18  34  1   
 36  18  35  1   
 37  18  36  1   
 38  19  37  1   
 39  19  38  1   
 40  19  39  1   
@<TRIPOS>SUBSTRUCTURE
  1 ****   7 GROUP 4 **** **** 0

# MOE 2024.06 (io_trps.svl 2023.06)
