@<TRIPOS>MOLECULE
NONAME
51 53 1 0 0 
SMALL
USER_CHARGES


@<TRIPOS>ATOM
  1 S        0.3240     0.2940     0.7780 S.o2  1 <1>   1.4470 
  2 O        0.6050     0.8950     2.0650 O.2   1 <1>  -0.6500 
  3 O       -0.9200     0.6050     0.1080 O.2   1 <1>  -0.6500 
  4 N        1.5760     0.7710    -0.2630 N.am  1 <1>  -0.8490 
  5 C        0.5230    -1.5080     0.8600 C.ar  1 <1>  -0.0090 
  6 C        2.9020     0.5790     0.3460 C.3   1 <1>   0.1960 
  7 C        1.4040     2.1630    -0.6900 C.3   1 <1>   0.1960 
  8 C        0.9860    -2.1340     2.0130 C.ar  1 <1>  -0.1500 
  9 C        0.2410    -2.3050    -0.2430 C.ar  1 <1>  -0.1500 
 10 C        4.0040     0.8490    -0.6860 C.3   1 <1>  -0.0190 
 11 C        2.4540     2.5280    -1.7450 C.3   1 <1>  -0.1600 
 12 C        1.1600    -3.5060     2.0640 C.ar  1 <1>  -0.1500 
 13 C        0.4110    -3.6780    -0.2010 C.ar  1 <1>  -0.1500 
 14 C        5.3750     0.6020    -0.0730 C.2   1 <1>   0.5690 
 15 C        3.8820     2.2810    -1.2370 C.3   1 <1>  -0.1600 
 16 C        0.8730    -4.2800     0.9550 C.ar  1 <1>  -0.1500 
 17 O        5.5870     0.9940     1.0490 O.2   1 <1>  -0.5700 
 18 N        6.2950    -0.0560    -0.8380 N.am  1 <1>  -0.5470 
 19 C        7.6240    -0.4650    -0.6230 C.ar  1 <1>   0.1170 
 20 C        8.2390    -1.2280    -1.6220 C.ar  1 <1>   0.0830 
 21 C        8.3500    -0.1480     0.5200 C.ar  1 <1>  -0.1500 
 22 O        7.4930    -1.5190    -2.7320 O.3   1 <1>  -0.3630 
 23 C        9.5530    -1.6560    -1.4610 C.ar  1 <1>  -0.1500 
 24 C        9.6570    -0.5770     0.6810 C.ar  1 <1>  -0.1430 
 25 C        8.0090    -2.3290    -3.7650 C.3   1 <1>   0.0400 
 26 C       10.2560    -1.3300    -0.3140 C.ar  1 <1>  -0.1500 
 27 C       10.4320    -0.2190     1.9370 C.3   1 <1>  -0.0970 
 28 H        3.0010    -0.4340     0.6980 H     1 <1>   0.0800 
 29 H        3.0190     1.2390     1.1920 H     1 <1>   0.0800 
 30 H        1.4870     2.8190     0.1620 H     1 <1>   0.0800 
 31 H        0.4240     2.2950    -1.1190 H     1 <1>   0.0800 
 32 H        1.2130    -1.5400     2.8830 H     1 <1>   0.1500 
 33 H       -0.1180    -1.8400    -1.1460 H     1 <1>   0.1500 
 34 H        3.8650     0.1520    -1.4920 H     1 <1>   0.0800 
 35 H        2.3410     3.5640    -2.0140 H     1 <1>   0.0800 
 36 H        2.2740     1.9390    -2.6280 H     1 <1>   0.0800 
 37 H        1.5190    -3.9710     2.9670 H     1 <1>   0.1500 
 38 H        0.1840    -4.2770    -1.0660 H     1 <1>   0.1500 
 39 H        4.5890     2.4340    -2.0340 H     1 <1>   0.0800 
 40 H        4.1070     2.9830    -0.4520 H     1 <1>   0.0800 
 41 H        1.0070    -5.3480     0.9920 H     1 <1>   0.1500 
 42 H        5.9760    -0.3480    -1.7640 H     1 <1>   0.3700 
 43 H        7.8960     0.4400     1.2940 H     1 <1>   0.1500 
 44 H       10.0500    -2.2400    -2.2100 H     1 <1>   0.1500 
 45 H        7.2480    -2.4400    -4.5170 H     1 <1>   0.0800 
 46 H        8.2630    -3.2930    -3.3600 H     1 <1>   0.0800 
 47 H        8.8720    -1.8480    -4.1890 H     1 <1>   0.0800 
 48 H       11.2720    -1.6640    -0.1980 H     1 <1>   0.1500 
 49 H        9.7590     0.0230     2.7400 H     1 <1>   0.0800 
 50 H       11.0620     0.6300     1.7460 H     1 <1>   0.0800 
 51 H       11.0450    -1.0470     2.2460 H     1 <1>   0.0800 
@<TRIPOS>BOND
  1   1   2  2   
  2   1   3  2   
  3   1   4  am  
  4   1   5  1   
  5   4   6  1   
  6   4   7  1   
  7   5   8  ar  
  8   5   9  ar  
  9   6  10  1   
 10   6  28  1   
 11   6  29  1   
 12   7  11  1   
 13   7  30  1   
 14   7  31  1   
 15   8  12  ar  
 16   8  32  1   
 17   9  13  ar  
 18   9  33  1   
 19  10  14  1   
 20  10  15  1   
 21  10  34  1   
 22  11  15  1   
 23  11  35  1   
 24  11  36  1   
 25  12  16  ar  
 26  12  37  1   
 27  13  16  ar  
 28  13  38  1   
 29  14  17  2   
 30  14  18  am  
 31  15  39  1   
 32  15  40  1   
 33  16  41  1   
 34  18  19  1   
 35  18  42  1   
 36  19  20  ar  
 37  19  21  ar  
 38  20  22  1   
 39  20  23  ar  
 40  21  24  ar  
 41  21  43  1   
 42  22  25  1   
 43  23  26  ar  
 44  23  44  1   
 45  24  26  ar  
 46  24  27  1   
 47  25  45  1   
 48  25  46  1   
 49  25  47  1   
 50  26  48  1   
 51  27  49  1   
 52  27  50  1   
 53  27  51  1   
@<TRIPOS>SUBSTRUCTURE
  1 ****  10 GROUP 4 **** **** 0

# MOE 2024.06 (io_trps.svl 2023.06)
