@<TRIPOS>MOLECULE
NONAME
51 53 1 0 0 
SMALL
USER_CHARGES


@<TRIPOS>ATOM
  1 O       -1.5600     1.3260     1.2390 O.3   1 <1>  -0.3630 
  2 C       -0.8040     2.1650     0.4770 C.ar  1 <1>   0.0820 
  3 C       -1.0130     0.7040     2.3860 C.3   1 <1>   0.0400 
  4 C       -1.3110     2.5370    -0.7640 C.ar  1 <1>  -0.1440 
  5 C        0.4290     2.6640     0.8920 C.ar  1 <1>  -0.1500 
  6 C       -0.5910     3.4000    -1.5730 C.ar  1 <1>  -0.1500 
  7 C       -2.6500     2.0080    -1.2330 C.3   1 <1>   0.4870 
  8 C        1.1420     3.5270     0.0790 C.ar  1 <1>  -0.1500 
  9 C        0.6320     3.9000    -1.1600 C.ar  1 <1>   0.0820 
 10 N       -3.6900     2.4810    -0.2890 N.4   1 <1>  -0.9590 
 11 O        1.2590     4.7430    -2.0180 O.3   1 <1>  -0.3620 
 12 C       -5.0180     1.8090    -0.4970 C.3   1 <1>   0.3430 
 13 C       -3.8170     3.9840    -0.2830 C.3   1 <1>   0.3430 
 14 C        2.5550     5.2320    -1.7440 C.3   1 <1>   0.0400 
 15 C       -6.0760     2.2640     0.5290 C.3   1 <1>   0.2090 
 16 C       -4.8590     4.4870     0.7380 C.3   1 <1>   0.2090 
 17 N       -6.1530     3.7510     0.6240 N.pl3 1 <1>  -0.8380 
 18 C       -7.2150     4.3860    -0.0190 C.ar  1 <1>   0.1000 
 19 C       -8.3210     4.8350     0.7030 C.ar  1 <1>  -0.1430 
 20 C       -7.1860     4.5780    -1.3970 C.ar  1 <1>  -0.1500 
 21 C       -9.3670     5.4590     0.0440 C.ar  1 <1>  -0.1500 
 22 C       -8.3930     4.6490     2.2120 C.3   1 <1>  -0.0970 
 23 C       -8.2330     5.2020    -2.0490 C.ar  1 <1>  -0.1500 
 24 C       -9.3270     5.6440    -1.3270 C.ar  1 <1>  -0.1500 
 25 H       -0.8010     1.4540     3.1280 H     1 <1>   0.0800 
 26 H       -0.1160     0.1780     2.1080 H     1 <1>   0.0800 
 27 H       -1.7360     0.0070     2.7720 H     1 <1>   0.0800 
 28 H        0.8510     2.3990     1.8430 H     1 <1>   0.1500 
 29 H       -0.9560     3.7020    -2.5400 H     1 <1>   0.1500 
 30 H       -2.6170     0.9300    -1.2360 H     1 <1>   0.0800 
 31 H       -2.8620     2.3530    -2.2320 H     1 <1>   0.0800 
 32 H        2.0900     3.8980     0.4240 H     1 <1>   0.1500 
 33 H       -3.3240     2.2060     0.6380 H     1 <1>   0.4500 
 34 H       -4.9040     0.7400    -0.4290 H     1 <1>   0.0800 
 35 H       -5.3890     2.0410    -1.4820 H     1 <1>   0.0800 
 36 H       -4.1150     4.3240    -1.2600 H     1 <1>   0.0800 
 37 H       -2.8640     4.4330    -0.0570 H     1 <1>   0.0800 
 38 H        2.8630     5.8440    -2.5740 H     1 <1>   0.0800 
 39 H        3.2280     4.4000    -1.6360 H     1 <1>   0.0800 
 40 H        2.5250     5.8240    -0.8470 H     1 <1>   0.0800 
 41 H       -5.8380     1.8640     1.4990 H     1 <1>   0.0800 
 42 H       -7.0400     1.8750     0.2460 H     1 <1>   0.0800 
 43 H       -5.0310     5.5390     0.5830 H     1 <1>   0.0800 
 44 H       -4.4740     4.3660     1.7350 H     1 <1>   0.0800 
 45 H       -6.3440     4.2400    -1.9650 H     1 <1>   0.1500 
 46 H      -10.2240     5.8080     0.5930 H     1 <1>   0.1500 
 47 H       -8.3680     3.6020     2.4510 H     1 <1>   0.0800 
 48 H       -9.2950     5.0720     2.6150 H     1 <1>   0.0800 
 49 H       -7.5520     5.1300     2.6780 H     1 <1>   0.0800 
 50 H       -8.2030     5.3470    -3.1150 H     1 <1>   0.1500 
 51 H      -10.1450     6.1300    -1.8290 H     1 <1>   0.1500 
@<TRIPOS>BOND
  1   1   2  1   
  2   1   3  1   
  3   2   4  ar  
  4   2   5  ar  
  5   3  25  1   
  6   3  26  1   
  7   3  27  1   
  8   4   6  ar  
  9   4   7  1   
 10   5   8  ar  
 11   5  28  1   
 12   6   9  ar  
 13   6  29  1   
 14   7  10  1   
 15   7  30  1   
 16   7  31  1   
 17   8   9  ar  
 18   8  32  1   
 19   9  11  1   
 20  10  12  1   
 21  10  13  1   
 22  10  33  1   
 23  11  14  1   
 24  12  15  1   
 25  12  34  1   
 26  12  35  1   
 27  13  16  1   
 28  13  36  1   
 29  13  37  1   
 30  14  38  1   
 31  14  39  1   
 32  14  40  1   
 33  15  17  1   
 34  15  41  1   
 35  15  42  1   
 36  16  17  1   
 37  16  43  1   
 38  16  44  1   
 39  17  18  1   
 40  18  19  ar  
 41  18  20  ar  
 42  19  21  ar  
 43  19  22  1   
 44  20  23  ar  
 45  20  45  1   
 46  21  24  ar  
 47  21  46  1   
 48  22  47  1   
 49  22  48  1   
 50  22  49  1   
 51  23  24  ar  
 52  23  50  1   
 53  24  51  1   
@<TRIPOS>SUBSTRUCTURE
  1 ****  13 GROUP 4 **** **** 0

# MOE 2024.06 (io_trps.svl 2023.06)
