@<TRIPOS>MOLECULE
NONAME
43 46 1 0 0 
SMALL
USER_CHARGES


@<TRIPOS>ATOM
  1 CL      -0.1110    -0.5470     0.7100 Cl    1 <1>  -0.1770 
  2 C        1.4530    -1.2560     0.3890 C.ar  1 <1>   0.1770 
  3 C        2.1960    -1.7650     1.4380 C.ar  1 <1>  -0.1500 
  4 C        1.9260    -1.2980    -0.9100 C.ar  1 <1>  -0.1500 
  5 C        3.4350    -2.3260     1.1810 C.ar  1 <1>  -0.1500 
  6 C        3.1660    -1.8610    -1.1580 C.ar  1 <1>  -0.1500 
  7 C        3.9310    -2.3790    -0.1190 C.ar  1 <1>   0.1000 
  8 N        5.1720    -2.9390    -0.4000 N.pl3 1 <1>  -0.8380 
  9 C        5.2760    -4.4200    -0.2650 C.3   1 <1>   0.2090 
 10 C        6.3650    -2.1870     0.0890 C.3   1 <1>   0.2090 
 11 C        6.5700    -4.9370    -0.9300 C.3   1 <1>   0.3430 
 12 C        7.6530    -2.7200    -0.5740 C.3   1 <1>   0.3430 
 13 N        7.8040    -4.2200    -0.4390 N.4   1 <1>  -0.9590 
 14 C        9.0330    -4.7090    -1.1190 C.3   1 <1>   0.4860 
 15 C       10.2370    -4.1090    -0.4200 C.ar  1 <1>  -0.1430 
 16 C       10.9050    -3.0310    -0.9960 C.ar  1 <1>  -0.1500 
 17 C       10.6740    -4.6290     0.8010 C.ar  1 <1>  -0.1500 
 18 C       11.9810    -2.4960    -0.3200 C.ar  1 <1>   0.0830 
 19 C       11.7630    -4.0760     1.4620 C.ar  1 <1>  -0.1500 
 20 O       12.7500    -1.4650    -0.6790 O.3   1 <1>  -0.3620 
 21 C       12.3990    -3.0010     0.8750 C.ar  1 <1>   0.0830 
 22 C       13.7370    -1.3140     0.3430 C.3   1 <1>   0.4000 
 23 O       13.4530    -2.3130     1.3220 O.3   1 <1>  -0.3620 
 24 H        1.8030    -1.7190     2.4380 H     1 <1>   0.1500 
 25 H        1.3300    -0.8950    -1.7090 H     1 <1>   0.1500 
 26 H        4.0160    -2.7230     1.9910 H     1 <1>   0.1500 
 27 H        3.5490    -1.9010    -2.1610 H     1 <1>   0.1500 
 28 H        4.4230    -4.8780    -0.7370 H     1 <1>   0.0800 
 29 H        5.2640    -4.6920     0.7760 H     1 <1>   0.0800 
 30 H        6.4390    -2.2760     1.1590 H     1 <1>   0.0800 
 31 H        6.2470    -1.1430    -0.1480 H     1 <1>   0.0800 
 32 H        6.4720    -4.7950    -1.9940 H     1 <1>   0.0800 
 33 H        6.6590    -5.9950    -0.7450 H     1 <1>   0.0800 
 34 H        8.5010    -2.2230    -0.1310 H     1 <1>   0.0800 
 35 H        7.6230    -2.4530    -1.6170 H     1 <1>   0.0800 
 36 H        7.9210    -4.4150     0.5630 H     1 <1>   0.4500 
 37 H        9.0280    -4.4210    -2.1580 H     1 <1>   0.0800 
 38 H        9.0890    -5.7840    -1.0620 H     1 <1>   0.0800 
 39 H       10.6180    -2.6040    -1.9410 H     1 <1>   0.1500 
 40 H       10.1790    -5.4730     1.2520 H     1 <1>   0.1500 
 41 H       12.1170    -4.4620     2.4020 H     1 <1>   0.1500 
 42 H       13.6540    -0.3380     0.7870 H     1 <1>   0.0800 
 43 H       14.7150    -1.4830    -0.0710 H     1 <1>   0.0800 
@<TRIPOS>BOND
  1   1   2  1   
  2   2   3  ar  
  3   2   4  ar  
  4   3   5  ar  
  5   3  24  1   
  6   4   6  ar  
  7   4  25  1   
  8   5   7  ar  
  9   5  26  1   
 10   6   7  ar  
 11   6  27  1   
 12   7   8  1   
 13   8   9  1   
 14   8  10  1   
 15   9  11  1   
 16   9  28  1   
 17   9  29  1   
 18  10  12  1   
 19  10  30  1   
 20  10  31  1   
 21  11  13  1   
 22  11  32  1   
 23  11  33  1   
 24  12  13  1   
 25  12  34  1   
 26  12  35  1   
 27  13  14  1   
 28  13  36  1   
 29  14  15  1   
 30  14  37  1   
 31  14  38  1   
 32  15  16  ar  
 33  15  17  ar  
 34  16  18  ar  
 35  16  39  1   
 36  17  19  ar  
 37  17  40  1   
 38  18  20  1   
 39  18  21  ar  
 40  19  21  ar  
 41  19  41  1   
 42  20  22  1   
 43  21  23  1   
 44  22  23  1   
 45  22  42  1   
 46  22  43  1   
@<TRIPOS>SUBSTRUCTURE
  1 ****  12 GROUP 4 **** **** 0

# MOE 2024.06 (io_trps.svl 2023.06)
