@<TRIPOS>MOLECULE
NONAME
65 67 1 0 0 
SMALL
USER_CHARGES


@<TRIPOS>ATOM
  1 S       -0.2040     0.2900     0.5590 S.o2  1 <1>   1.4470 
  2 O        0.2250    -0.0990     1.8860 O.2   1 <1>  -0.6500 
  3 O       -0.2910    -0.7130    -0.4800 O.2   1 <1>  -0.6500 
  4 N       -1.7570     0.9500     0.7380 N.am  1 <1>  -0.8490 
  5 C        0.7800     1.6920    -0.0400 C.ar  1 <1>  -0.0090 
  6 C       -1.8120     1.9170     1.8380 C.3   1 <1>   0.1960 
  7 C       -2.7520    -0.1080     0.9260 C.3   1 <1>   0.1960 
  8 C        1.8090     2.2330     0.7220 C.ar  1 <1>  -0.1500 
  9 C        0.5150     2.2710    -1.2750 C.ar  1 <1>  -0.1500 
 10 C       -3.1720     2.6170     1.8400 C.3   1 <1>  -0.1600 
 11 C       -4.1590     0.4940     0.8980 C.3   1 <1>  -0.1600 
 12 C        2.5450     3.3150     0.2700 C.ar  1 <1>  -0.1500 
 13 C        1.2470     3.3520    -1.7340 C.ar  1 <1>  -0.1500 
 14 C       -4.3200     1.5980     1.9580 C.3   1 <1>  -0.0190 
 15 C        2.2660     3.8820    -0.9610 C.ar  1 <1>  -0.1430 
 16 C       -5.6850     2.2700     1.8720 C.2   1 <1>   0.5690 
 17 C        3.0730     5.0670    -1.4600 C.3   1 <1>  -0.0970 
 18 O       -6.4420     2.1960     2.8070 O.2   1 <1>  -0.5700 
 19 N       -6.0310     2.9350     0.7380 N.am  1 <1>  -0.7300 
 20 C       -7.3120     3.6290     0.5690 C.3   1 <1>   0.2200 
 21 C       -8.3230     2.6610    -0.0330 C.3   1 <1>  -0.1600 
 22 C       -7.1300     4.8260    -0.3560 C.3   1 <1>  -0.1600 
 23 C       -9.6840     3.3260    -0.2650 C.3   1 <1>   0.5030 
 24 C       -8.4550     5.5600    -0.6040 C.3   1 <1>   0.5030 
 25 N       -9.5360     4.6200    -0.9540 N.4   1 <1>  -0.9060 
 26 C      -10.4650     3.5110     1.0390 C.3   1 <1>  -0.2400 
 27 C      -10.5230     2.4570    -1.2000 C.3   1 <1>  -0.2400 
 28 C       -8.3080     6.4820    -1.8130 C.3   1 <1>  -0.2400 
 29 C       -8.8740     6.4140     0.5960 C.3   1 <1>  -0.2400 
 30 H       -1.0410     2.6590     1.7140 H     1 <1>   0.0800 
 31 H       -1.6510     1.4180     2.7810 H     1 <1>   0.0800 
 32 H       -2.5780    -0.6170     1.8610 H     1 <1>   0.0800 
 33 H       -2.6740    -0.8320     0.1310 H     1 <1>   0.0800 
 34 H        2.0400     1.8020     1.6820 H     1 <1>   0.1500 
 35 H       -0.2750     1.8650    -1.8850 H     1 <1>   0.1500 
 36 H       -3.2620     3.1860     0.9320 H     1 <1>   0.0800 
 37 H       -3.2150     3.3040     2.6660 H     1 <1>   0.0800 
 38 H       -4.8790    -0.2850     1.0780 H     1 <1>   0.0800 
 39 H       -4.3360     0.8860    -0.0870 H     1 <1>   0.0800 
 40 H        3.3380     3.7110     0.8810 H     1 <1>   0.1500 
 41 H        1.0210     3.7780    -2.6960 H     1 <1>   0.1500 
 42 H       -4.2510     1.1360     2.9280 H     1 <1>   0.0800 
 43 H        2.4780     5.6810    -2.1120 H     1 <1>   0.0800 
 44 H        3.9330     4.7170    -2.0030 H     1 <1>   0.0800 
 45 H        3.4050     5.6710    -0.6350 H     1 <1>   0.0800 
 46 H       -5.3730     2.9500    -0.0430 H     1 <1>   0.3700 
 47 H       -7.6500     3.9600     1.5380 H     1 <1>   0.0800 
 48 H       -8.4480     1.8230     0.6310 H     1 <1>   0.0800 
 49 H       -7.9390     2.2820    -0.9640 H     1 <1>   0.0800 
 50 H       -6.7250     4.4880    -1.2940 H     1 <1>   0.0800 
 51 H       -6.4210     5.5080     0.0790 H     1 <1>   0.0800 
 52 H      -10.4240     5.1190    -0.8780 H     1 <1>   0.4500 
 53 H       -9.4160     4.4020    -1.9440 H     1 <1>   0.4500 
 54 H       -9.8860     3.9900     1.8020 H     1 <1>   0.0800 
 55 H      -10.7390     2.5470     1.4330 H     1 <1>   0.0800 
 56 H      -11.3720     4.0650     0.8790 H     1 <1>   0.0800 
 57 H      -10.0340     2.3130    -2.1470 H     1 <1>   0.0800 
 58 H      -11.4950     2.8890    -1.3670 H     1 <1>   0.0800 
 59 H      -10.6700     1.4850    -0.7620 H     1 <1>   0.0800 
 60 H       -8.0400     5.9320    -2.6970 H     1 <1>   0.0800 
 61 H       -7.5280     7.2020    -1.6310 H     1 <1>   0.0800 
 62 H       -9.2160     7.0290    -1.9990 H     1 <1>   0.0800 
 63 H       -8.8680     5.8630     1.5150 H     1 <1>   0.0800 
 64 H       -9.8470     6.8470     0.4480 H     1 <1>   0.0800 
 65 H       -8.1750     7.2230     0.7240 H     1 <1>   0.0800 
@<TRIPOS>BOND
  1   1   2  2   
  2   1   3  2   
  3   1   4  am  
  4   1   5  1   
  5   4   6  1   
  6   4   7  1   
  7   5   8  ar  
  8   5   9  ar  
  9   6  10  1   
 10   6  30  1   
 11   6  31  1   
 12   7  11  1   
 13   7  32  1   
 14   7  33  1   
 15   8  12  ar  
 16   8  34  1   
 17   9  13  ar  
 18   9  35  1   
 19  10  14  1   
 20  10  36  1   
 21  10  37  1   
 22  11  14  1   
 23  11  38  1   
 24  11  39  1   
 25  12  15  ar  
 26  12  40  1   
 27  13  15  ar  
 28  13  41  1   
 29  14  16  1   
 30  14  42  1   
 31  15  17  1   
 32  16  18  2   
 33  16  19  am  
 34  17  43  1   
 35  17  44  1   
 36  17  45  1   
 37  19  20  1   
 38  19  46  1   
 39  20  21  1   
 40  20  22  1   
 41  20  47  1   
 42  21  23  1   
 43  21  48  1   
 44  21  49  1   
 45  22  24  1   
 46  22  50  1   
 47  22  51  1   
 48  23  25  1   
 49  23  26  1   
 50  23  27  1   
 51  24  25  1   
 52  24  28  1   
 53  24  29  1   
 54  25  52  1   
 55  25  53  1   
 56  26  54  1   
 57  26  55  1   
 58  26  56  1   
 59  27  57  1   
 60  27  58  1   
 61  27  59  1   
 62  28  60  1   
 63  28  61  1   
 64  28  62  1   
 65  29  63  1   
 66  29  64  1   
 67  29  65  1   
@<TRIPOS>SUBSTRUCTURE
  1 ****  10 GROUP 4 **** **** 0

# MOE 2024.06 (io_trps.svl 2023.06)
