@<TRIPOS>MOLECULE
NONAME
55 57 1 0 0 
SMALL
USER_CHARGES


@<TRIPOS>ATOM
  1 O       -0.8370     0.7990    -0.3490 O.3   1 <1>  -0.3630 
  2 C       -0.3420     2.0580    -0.4840 C.ar  1 <1>   0.0820 
  3 C       -0.2170    -0.1600     0.4750 C.3   1 <1>   0.2580 
  4 C       -1.0720     2.9600    -1.2550 C.ar  1 <1>  -0.1440 
  5 C        0.8510     2.4670     0.1080 C.ar  1 <1>  -0.1500 
  6 C       -1.0690    -1.4140     0.4530 C.2   1 <1>  -0.2880 
  7 C       -0.5960     4.2510    -1.4340 C.ar  1 <1>  -0.1500 
  8 C       -2.3830     2.5410    -1.9070 C.3   1 <1>   0.2540 
  9 C        1.3100     3.7600    -0.0700 C.ar  1 <1>  -0.1500 
 10 C       -1.6040    -2.0110     1.5240 C.2   1 <1>  -0.3000 
 11 C        0.5880     4.6510    -0.8430 C.ar  1 <1>  -0.1500 
 12 N       -3.4680     2.4740    -0.9070 N.3   1 <1>  -0.8100 
 13 C       -4.6660     1.7950    -1.4220 C.3   1 <1>   0.1100 
 14 C       -3.7810     3.7710    -0.2840 C.3   1 <1>   0.1100 
 15 C       -5.6970     1.5900    -0.2960 C.3   1 <1>   0.3430 
 16 C       -4.8030     3.5910     0.8550 C.3   1 <1>   0.3430 
 17 N       -6.0470     2.8860     0.3890 N.4   1 <1>  -0.9590 
 18 C       -7.0020     2.6940     1.4970 C.3   1 <1>   0.4810 
 19 C       -8.3450     2.3920     0.8790 C.2   1 <1>  -0.2880 
 20 C       -9.3590     3.2700     0.7820 C.2   1 <1>  -0.1780 
 21 C      -10.6640     3.0490     0.1990 C.ar  1 <1>   0.0280 
 22 C      -11.4560     4.1360    -0.1630 C.ar  1 <1>  -0.1500 
 23 C      -11.1780     1.7730    -0.0230 C.ar  1 <1>  -0.1500 
 24 C      -12.7050     3.9600    -0.7310 C.ar  1 <1>  -0.1500 
 25 C      -12.4260     1.5900    -0.5910 C.ar  1 <1>  -0.1500 
 26 C      -13.1920     2.6850    -0.9480 C.ar  1 <1>  -0.1500 
 27 H        0.7640    -0.3620     0.0830 H     1 <1>   0.0800 
 28 H       -0.1480     0.2390     1.4720 H     1 <1>   0.0800 
 29 H        1.4390     1.8000     0.7080 H     1 <1>   0.1500 
 30 H       -1.2030    -1.7880    -0.5480 H     1 <1>   0.1500 
 31 H       -1.1450     4.9540    -2.0360 H     1 <1>   0.1500 
 32 H       -2.2430     1.5690    -2.3520 H     1 <1>   0.0800 
 33 H       -2.6460     3.2280    -2.6920 H     1 <1>   0.0800 
 34 H        2.2320     4.0720     0.3890 H     1 <1>   0.1500 
 35 H       -2.2030    -2.9040     1.4750 H     1 <1>   0.1500 
 36 H       -1.4870    -1.6620     2.5360 H     1 <1>   0.1500 
 37 H        0.9510     5.6550    -0.9850 H     1 <1>   0.1500 
 38 H       -5.1020     2.3650    -2.2250 H     1 <1>   0.0800 
 39 H       -4.3860     0.8300    -1.8100 H     1 <1>   0.0800 
 40 H       -2.8850     4.1960     0.1360 H     1 <1>   0.0800 
 41 H       -4.1620     4.4570    -1.0210 H     1 <1>   0.0800 
 42 H       -5.2760     0.9030     0.4210 H     1 <1>   0.0800 
 43 H       -6.5840     1.1390    -0.7100 H     1 <1>   0.0800 
 44 H       -5.0540     4.5570     1.2590 H     1 <1>   0.0800 
 45 H       -4.3300     3.0150     1.6340 H     1 <1>   0.0800 
 46 H       -6.5140     3.4810    -0.3050 H     1 <1>   0.4500 
 47 H       -6.6880     1.8950     2.1490 H     1 <1>   0.0800 
 48 H       -7.0770     3.6020     2.0740 H     1 <1>   0.0800 
 49 H       -8.4190     1.3850     0.5110 H     1 <1>   0.1500 
 50 H       -9.2390     4.2700     1.1640 H     1 <1>   0.1500 
 51 H      -11.0960     5.1370    -0.0020 H     1 <1>   0.1500 
 52 H      -10.6100     0.9060     0.2550 H     1 <1>   0.1500 
 53 H      -13.3000     4.8150    -1.0040 H     1 <1>   0.1500 
 54 H      -12.8060     0.5960    -0.7540 H     1 <1>   0.1500 
 55 H      -14.1630     2.5450    -1.3900 H     1 <1>   0.1500 
@<TRIPOS>BOND
  1   1   2  1   
  2   1   3  1   
  3   2   4  ar  
  4   2   5  ar  
  5   3   6  1   
  6   3  27  1   
  7   3  28  1   
  8   4   7  ar  
  9   4   8  1   
 10   5   9  ar  
 11   5  29  1   
 12   6  10  2   
 13   6  30  1   
 14   7  11  ar  
 15   7  31  1   
 16   8  12  1   
 17   8  32  1   
 18   8  33  1   
 19   9  11  ar  
 20   9  34  1   
 21  10  35  1   
 22  10  36  1   
 23  11  37  1   
 24  12  13  1   
 25  12  14  1   
 26  13  15  1   
 27  13  38  1   
 28  13  39  1   
 29  14  16  1   
 30  14  40  1   
 31  14  41  1   
 32  15  17  1   
 33  15  42  1   
 34  15  43  1   
 35  16  17  1   
 36  16  44  1   
 37  16  45  1   
 38  17  18  1   
 39  17  46  1   
 40  18  19  1   
 41  18  47  1   
 42  18  48  1   
 43  19  20  2   
 44  19  49  1   
 45  20  21  1   
 46  20  50  1   
 47  21  22  ar  
 48  21  23  ar  
 49  22  24  ar  
 50  22  51  1   
 51  23  25  ar  
 52  23  52  1   
 53  24  26  ar  
 54  24  53  1   
 55  25  26  ar  
 56  25  54  1   
 57  26  55  1   
@<TRIPOS>SUBSTRUCTURE
  1 ****  15 GROUP 4 **** **** 0

# MOE 2024.06 (io_trps.svl 2023.06)
