@<TRIPOS>MOLECULE
NONAME
45 46 1 0 0 
SMALL
USER_CHARGES


@<TRIPOS>ATOM
  1 CL       1.3960     0.2140    -0.6870 Cl    1 <1>  -0.1770 
  2 C        1.8450    -1.4680    -0.5780 C.ar  1 <1>   0.1770 
  3 C        2.1210    -2.0180     0.6590 C.ar  1 <1>  -0.1500 
  4 C        1.9180    -2.2270    -1.7310 C.ar  1 <1>  -0.1500 
  5 C        2.4750    -3.3540     0.7420 C.ar  1 <1>  -0.1500 
  6 C        2.2730    -3.5630    -1.6420 C.ar  1 <1>  -0.1500 
  7 C        2.5510    -4.1330    -0.4060 C.ar  1 <1>  -0.1430 
  8 C        2.9320    -5.6010    -0.3030 C.3   1 <1>   0.2640 
  9 O        4.2800    -5.6800     0.0470 O.3   1 <1>  -0.5600 
 10 C        4.7910    -6.9740     0.1360 C.3   1 <1>   0.1200 
 11 C        6.2730    -6.8730     0.5290 C.3   1 <1>   0.2000 
 12 O        6.8730    -5.8940    -0.2620 O.3   1 <1>  -0.6800 
 13 C        7.0500    -8.1920     0.3510 C.3   1 <1>   0.3430 
 14 N        8.5030    -7.8890     0.2170 N.4   1 <1>  -0.9060 
 15 C        9.3200    -8.8460    -0.5290 C.3   1 <1>   0.5660 
 16 C       10.7670    -8.5160    -0.2120 C.ar  1 <1>  -0.1430 
 17 C        9.0120    -8.7390    -2.0190 C.3   1 <1>  -0.2400 
 18 C       11.3380    -7.2980    -0.5680 C.ar  1 <1>  -0.1500 
 19 C       11.5390    -9.4510     0.4650 C.ar  1 <1>  -0.1500 
 20 C       12.6560    -7.0230    -0.2470 C.ar  1 <1>  -0.1500 
 21 C       12.8560    -9.1740     0.7840 C.ar  1 <1>  -0.1500 
 22 C       13.4150    -7.9600     0.4300 C.ar  1 <1>  -0.1500 
 23 H        2.0590    -1.4060     1.5410 H     1 <1>   0.1500 
 24 H        1.7010    -1.7740    -2.6810 H     1 <1>   0.1500 
 25 H        2.6960    -3.7870     1.7030 H     1 <1>   0.1500 
 26 H        2.3320    -4.1520    -2.5410 H     1 <1>   0.1500 
 27 H        2.7850    -6.0990    -1.2460 H     1 <1>   0.0800 
 28 H        2.3440    -6.0840     0.4590 H     1 <1>   0.0800 
 29 H        4.6830    -7.4510    -0.8240 H     1 <1>   0.0800 
 30 H        4.2340    -7.5200     0.8780 H     1 <1>   0.0800 
 31 H        6.3380    -6.5470     1.5530 H     1 <1>   0.0800 
 32 H        6.2140    -5.1590    -0.3560 H     1 <1>   0.4000 
 33 H        6.6960    -8.6710    -0.5470 H     1 <1>   0.0800 
 34 H        6.8680    -8.8550     1.1810 H     1 <1>   0.0800 
 35 H        8.9510    -7.7190     1.1230 H     1 <1>   0.4500 
 36 H        8.5360    -6.9770    -0.2700 H     1 <1>   0.4500 
 37 H        9.1120    -9.8480    -0.1890 H     1 <1>   0.0800 
 38 H        9.1330    -7.7310    -2.3750 H     1 <1>   0.0800 
 39 H        8.0150    -9.0760    -2.2330 H     1 <1>   0.0800 
 40 H        9.6950    -9.3670    -2.5640 H     1 <1>   0.0800 
 41 H       10.7770    -6.5480    -1.0990 H     1 <1>   0.1500 
 42 H       11.1320   -10.4060     0.7520 H     1 <1>   0.1500 
 43 H       13.0960    -6.0800    -0.5250 H     1 <1>   0.1500 
 44 H       13.4520    -9.9020     1.3090 H     1 <1>   0.1500 
 45 H       14.4410    -7.7450     0.6780 H     1 <1>   0.1500 
@<TRIPOS>BOND
  1   1   2  1   
  2   2   3  ar  
  3   2   4  ar  
  4   3   5  ar  
  5   3  23  1   
  6   4   6  ar  
  7   4  24  1   
  8   5   7  ar  
  9   5  25  1   
 10   6   7  ar  
 11   6  26  1   
 12   7   8  1   
 13   8   9  1   
 14   8  27  1   
 15   8  28  1   
 16   9  10  1   
 17  10  11  1   
 18  10  29  1   
 19  10  30  1   
 20  11  12  1   
 21  11  13  1   
 22  11  31  1   
 23  12  32  1   
 24  13  14  1   
 25  13  33  1   
 26  13  34  1   
 27  14  15  1   
 28  14  35  1   
 29  14  36  1   
 30  15  16  1   
 31  15  17  1   
 32  15  37  1   
 33  16  18  ar  
 34  16  19  ar  
 35  17  38  1   
 36  17  39  1   
 37  17  40  1   
 38  18  20  ar  
 39  18  41  1   
 40  19  21  ar  
 41  19  42  1   
 42  20  22  ar  
 43  20  43  1   
 44  21  22  ar  
 45  21  44  1   
 46  22  45  1   
@<TRIPOS>SUBSTRUCTURE
  1 ****  12 GROUP 4 **** **** 0

# MOE 2024.06 (io_trps.svl 2023.06)
