@<TRIPOS>MOLECULE
NONAME
49 52 1 0 0 
SMALL
USER_CHARGES


@<TRIPOS>ATOM
  1 O        1.5440     0.8950     0.6080 O.3   1 <1>  -0.3630 
  2 C        0.8370     1.8950     0.0130 C.ar  1 <1>   0.0830 
  3 C        0.9260     0.0090     1.5190 C.3   1 <1>   0.0400 
  4 C        1.4460     2.5830    -1.0350 C.ar  1 <1>  -0.1440 
  5 C       -0.4500     2.2480     0.4120 C.ar  1 <1>  -0.1500 
  6 C        0.7650     3.6100    -1.6710 C.ar  1 <1>  -0.1500 
  7 C        2.8510     2.2150    -1.4810 C.3   1 <1>  -0.0160 
  8 C       -1.1190     3.2750    -0.2280 C.ar  1 <1>  -0.1500 
  9 C       -0.5130     3.9550    -1.2690 C.ar  1 <1>  -0.1500 
 10 C        3.8350     2.5990    -0.3790 C.3   1 <1>   0.3430 
 11 N        5.2080     2.1380    -0.7170 N.4   1 <1>  -0.9060 
 12 C        6.2130     2.4490     0.3260 C.3   1 <1>   0.4230 
 13 C        6.4960     3.9690     0.3930 C.3   1 <1>  -0.0800 
 14 C        7.5230     1.6970     0.0060 C.3   1 <1>  -0.0800 
 15 C        7.1130     4.4750    -0.9320 C.3   1 <1>  -0.1600 
 16 C        7.5040     4.2250     1.5320 C.3   1 <1>  -0.1600 
 17 C        8.1430     2.2020    -1.3200 C.3   1 <1>  -0.1600 
 18 C        8.5280     1.9600     1.1470 C.3   1 <1>  -0.1600 
 19 C        8.4210     3.7140    -1.2270 C.3   1 <1>  -0.0800 
 20 C        8.8180     3.4690     1.2560 C.3   1 <1>  -0.0800 
 21 C        9.4120     3.9660    -0.0750 C.3   1 <1>  -0.1600 
 22 H        1.6380    -0.7510     1.7880 H     1 <1>   0.0800 
 23 H        0.0740    -0.4440     1.0430 H     1 <1>   0.0800 
 24 H        0.6290     0.5560     2.3960 H     1 <1>   0.0800 
 25 H       -0.9490     1.7430     1.2160 H     1 <1>   0.1500 
 26 H        1.2140     4.1510    -2.4850 H     1 <1>   0.1500 
 27 H        3.0960     2.7300    -2.3930 H     1 <1>   0.0800 
 28 H        2.8860     1.1550    -1.6620 H     1 <1>   0.0800 
 29 H       -2.1140     3.5460     0.0810 H     1 <1>   0.1500 
 30 H       -1.0390     4.7520    -1.7660 H     1 <1>   0.1500 
 31 H        3.5190     2.1480     0.5480 H     1 <1>   0.0800 
 32 H        3.8180     3.6690    -0.2510 H     1 <1>   0.0800 
 33 H        5.5320     2.5710    -1.5880 H     1 <1>   0.4500 
 34 H        5.1970     1.1230    -0.8640 H     1 <1>   0.4500 
 35 H        5.8490     2.1150     1.2840 H     1 <1>   0.0800 
 36 H        5.5960     4.5140     0.6150 H     1 <1>   0.0800 
 37 H        7.3390     0.6380    -0.0490 H     1 <1>   0.0800 
 38 H        6.4270     4.3610    -1.7510 H     1 <1>   0.0800 
 39 H        7.3270     5.5280    -0.8490 H     1 <1>   0.0800 
 40 H        7.0920     3.9060     2.4750 H     1 <1>   0.0800 
 41 H        7.7060     5.2800     1.6130 H     1 <1>   0.0800 
 42 H        7.4990     1.9960    -2.1560 H     1 <1>   0.0800 
 43 H        9.0680     1.6820    -1.5040 H     1 <1>   0.0800 
 44 H        9.4460     1.4300     0.9570 H     1 <1>   0.0800 
 45 H        8.1360     1.5970     2.0820 H     1 <1>   0.0800 
 46 H        8.8500     4.0660    -2.1510 H     1 <1>   0.0800 
 47 H        9.5190     3.6500     2.0550 H     1 <1>   0.0800 
 48 H        9.6340     5.0170    -0.0050 H     1 <1>   0.0800 
 49 H       10.3400     3.4560    -0.2720 H     1 <1>   0.0800 
@<TRIPOS>BOND
  1   1   2  1   
  2   1   3  1   
  3   2   4  ar  
  4   2   5  ar  
  5   3  22  1   
  6   3  23  1   
  7   3  24  1   
  8   4   6  ar  
  9   4   7  1   
 10   5   8  ar  
 11   5  25  1   
 12   6   9  ar  
 13   6  26  1   
 14   7  10  1   
 15   7  27  1   
 16   7  28  1   
 17   8   9  ar  
 18   8  29  1   
 19   9  30  1   
 20  10  11  1   
 21  10  31  1   
 22  10  32  1   
 23  11  12  1   
 24  11  33  1   
 25  11  34  1   
 26  12  13  1   
 27  12  14  1   
 28  12  35  1   
 29  13  15  1   
 30  13  16  1   
 31  13  36  1   
 32  14  17  1   
 33  14  18  1   
 34  14  37  1   
 35  15  19  1   
 36  15  38  1   
 37  15  39  1   
 38  16  20  1   
 39  16  40  1   
 40  16  41  1   
 41  17  19  1   
 42  17  42  1   
 43  17  43  1   
 44  18  20  1   
 45  18  44  1   
 46  18  45  1   
 47  19  21  1   
 48  19  46  1   
 49  20  21  1   
 50  20  47  1   
 51  21  48  1   
 52  21  49  1   
@<TRIPOS>SUBSTRUCTURE
  1 ****  10 GROUP 4 **** **** 0

# MOE 2024.06 (io_trps.svl 2023.06)
