@<TRIPOS>MOLECULE
NONAME
57 60 1 0 0 
SMALL
USER_CHARGES


@<TRIPOS>ATOM
  1 O       -0.7350    -0.5550     0.5310 O.2   1 <1>  -0.5700 
  2 C       -1.8600    -0.3950     0.1020 C.2   1 <1>   0.6900 
  3 N       -2.2310     0.8300    -0.4390 N.am  1 <1>  -0.4200 
  4 N       -2.7720    -1.4410     0.1520 N.am  1 <1>  -0.4360 
  5 C       -3.4980     1.0260    -0.9700 C.2   1 <1>   0.7030 
  6 C       -1.2270     1.9370    -0.4980 C.3   1 <1>   0.0600 
  7 C       -4.0660    -1.1940    -0.2700 C.2   1 <1>   0.4260 
  8 C       -2.3720    -2.7720     0.6990 C.3   1 <1>   0.0600 
  9 O       -3.7420     2.0260    -1.6220 O.2   1 <1>  -0.5700 
 10 C       -4.4740    -0.0110    -0.7860 C.2   1 <1>   0.2770 
 11 N       -5.1280    -2.0440    -0.2420 N.pl3 1 <1>  -0.7000 
 12 N       -5.8410    -0.1460    -1.0350 N.pl3 1 <1>  -0.7640 
 13 C       -6.1900    -1.3860    -0.7070 C.cat 1 <1>   0.6560 
 14 C       -6.7220     0.9880    -1.4470 C.3   1 <1>   0.4970 
 15 C       -7.6080    -1.9840    -0.8180 C.3   1 <1>   0.2540 
 16 C       -6.7460     2.0730    -0.3690 C.ar  1 <1>  -0.1430 
 17 N       -8.5890    -1.3120     0.0650 N.3   1 <1>  -0.8100 
 18 C       -6.6310     3.4280    -0.6810 C.ar  1 <1>  -0.1430 
 19 C       -6.9000     1.7020     0.9610 C.ar  1 <1>  -0.1500 
 20 C       -8.4570    -1.7270     1.4810 C.3   1 <1>   0.1100 
 21 C       -9.9830    -1.5420    -0.3790 C.3   1 <1>   0.1100 
 22 C       -6.6440     4.3650     0.3400 C.ar  1 <1>  -0.1500 
 23 C       -6.4990     3.9370    -2.1120 C.3   1 <1>  -0.0970 
 24 C       -6.9160     2.6390     1.9780 C.ar  1 <1>  -0.1430 
 25 C       -9.5020    -1.0180     2.3610 C.3   1 <1>   0.1200 
 26 C      -10.9860    -0.8530     0.5640 C.3   1 <1>   0.1200 
 27 C       -6.7830     3.9770     1.6590 C.ar  1 <1>  -0.1500 
 28 C       -7.0870     2.2120     3.4240 C.3   1 <1>  -0.0970 
 29 O      -10.7860    -1.2820     1.8790 O.3   1 <1>  -0.5600 
 30 H       -0.5900     1.9120     0.3700 H     1 <1>   0.0800 
 31 H       -1.7170     2.8960    -0.5260 H     1 <1>   0.0800 
 32 H       -0.6200     1.8270    -1.3790 H     1 <1>   0.0800 
 33 H       -1.3070    -2.9110     0.6140 H     1 <1>   0.0800 
 34 H       -2.8540    -3.5630     0.1530 H     1 <1>   0.0800 
 35 H       -2.6430    -2.8330     1.7390 H     1 <1>   0.0800 
 36 H       -5.1020    -3.0040     0.1000 H     1 <1>   0.4500 
 37 H       -7.7280     0.6430    -1.6080 H     1 <1>   0.0800 
 38 H       -6.3550     1.3810    -2.3780 H     1 <1>   0.0800 
 39 H       -7.5820    -3.0370    -0.6000 H     1 <1>   0.0800 
 40 H       -7.9210    -1.8720    -1.8410 H     1 <1>   0.0800 
 41 H       -7.0150     0.6680     1.2190 H     1 <1>   0.1500 
 42 H       -7.4750    -1.4890     1.8490 H     1 <1>   0.0800 
 43 H       -8.6030    -2.7910     1.5730 H     1 <1>   0.0800 
 44 H      -10.2000    -2.5970    -0.3990 H     1 <1>   0.0800 
 45 H      -10.1200    -1.1510    -1.3720 H     1 <1>   0.0800 
 46 H       -6.5480     5.4130     0.1180 H     1 <1>   0.1500 
 47 H       -7.3010     3.5620    -2.7210 H     1 <1>   0.0800 
 48 H       -5.5580     3.6350    -2.5340 H     1 <1>   0.0800 
 49 H       -6.5410     5.0110    -2.1420 H     1 <1>   0.0800 
 50 H       -9.3450     0.0480     2.3620 H     1 <1>   0.0800 
 51 H       -9.4520    -1.3790     3.3730 H     1 <1>   0.0800 
 52 H      -11.9950    -1.1030     0.2880 H     1 <1>   0.0800 
 53 H      -10.8710     0.2170     0.5280 H     1 <1>   0.0800 
 54 H       -6.7930     4.7240     2.4340 H     1 <1>   0.1500 
 55 H       -8.1300     2.2200     3.6840 H     1 <1>   0.0800 
 56 H       -6.5640     2.8880     4.0780 H     1 <1>   0.0800 
 57 H       -6.6960     1.2230     3.5780 H     1 <1>   0.0800 
@<TRIPOS>BOND
  1   1   2  2   
  2   2   3  am  
  3   2   4  am  
  4   3   5  am  
  5   3   6  1   
  6   4   7  1   
  7   4   8  1   
  8   5   9  2   
  9   5  10  1   
 10   6  30  1   
 11   6  31  1   
 12   6  32  1   
 13   7  10  2   
 14   7  11  1   
 15   8  33  1   
 16   8  34  1   
 17   8  35  1   
 18  10  12  1   
 19  11  13  ar  
 20  11  36  1   
 21  12  13  ar  
 22  12  14  1   
 23  13  15  1   
 24  14  16  1   
 25  14  37  1   
 26  14  38  1   
 27  15  17  1   
 28  15  39  1   
 29  15  40  1   
 30  16  18  ar  
 31  16  19  ar  
 32  17  20  1   
 33  17  21  1   
 34  18  22  ar  
 35  18  23  1   
 36  19  24  ar  
 37  19  41  1   
 38  20  25  1   
 39  20  42  1   
 40  20  43  1   
 41  21  26  1   
 42  21  44  1   
 43  21  45  1   
 44  22  27  ar  
 45  22  46  1   
 46  23  47  1   
 47  23  48  1   
 48  23  49  1   
 49  24  27  ar  
 50  24  28  1   
 51  25  29  1   
 52  25  50  1   
 53  25  51  1   
 54  26  29  1   
 55  26  52  1   
 56  26  53  1   
 57  27  54  1   
 58  28  55  1   
 59  28  56  1   
 60  28  57  1   
@<TRIPOS>SUBSTRUCTURE
  1 ****  12 GROUP 4 **** **** 0

# MOE 2024.06 (io_trps.svl 2023.06)
