@<TRIPOS>MOLECULE
NONAME
47 49 1 0 0 
SMALL
USER_CHARGES


@<TRIPOS>ATOM
  1 CL      -3.7520     5.2850    -1.8460 Cl    1 <1>  -0.1770 
  2 C       -3.6930     3.7560    -1.0080 C.ar  1 <1>   0.1770 
  3 C       -4.8610     3.0440    -0.8200 C.ar  1 <1>  -0.1500 
  4 C       -2.4780     3.2850    -0.5460 C.ar  1 <1>  -0.1500 
  5 C       -4.8330     1.8250    -0.1530 C.ar  1 <1>   0.1170 
  6 C       -2.4390     2.0710     0.1180 C.ar  1 <1>  -0.1500 
  7 N       -6.0390     1.1300     0.0140 N.am  1 <1>  -0.5470 
  8 C       -3.6070     1.3510     0.3100 C.ar  1 <1>  -0.1500 
  9 C       -6.3990     0.0370     0.7510 C.2   1 <1>   0.5690 
 10 O       -5.6530    -0.5800     1.4740 O.2   1 <1>  -0.5700 
 11 C       -7.8580    -0.4040     0.6290 C.3   1 <1>   0.1710 
 12 N       -8.7700     0.6850     0.1700 N.3   1 <1>  -0.8100 
 13 C      -10.0500     0.1280    -0.3320 C.3   1 <1>   0.1100 
 14 C       -9.0540     1.6400     1.2750 C.3   1 <1>   0.1100 
 15 C      -11.0270     1.2280    -0.7880 C.3   1 <1>   0.2090 
 16 C      -10.0180     2.7630     0.8460 C.3   1 <1>   0.2090 
 17 N      -11.2910     2.1930     0.3180 N.pl3 1 <1>  -0.8380 
 18 C      -12.3130     3.1220     0.0770 C.ar  1 <1>   0.1000 
 19 C      -12.2590     4.1320    -0.9020 C.ar  1 <1>   0.0830 
 20 C      -13.4470     3.0240     0.8700 C.ar  1 <1>  -0.1500 
 21 O      -11.1380     4.2270    -1.6840 O.3   1 <1>  -0.3620 
 22 C      -13.3360     5.0020    -1.0510 C.ar  1 <1>  -0.1500 
 23 C      -14.5130     3.8910     0.7150 C.ar  1 <1>  -0.1500 
 24 C      -11.0250     5.2000    -2.6980 C.3   1 <1>   0.0400 
 25 C      -14.4570     4.8820    -0.2470 C.ar  1 <1>  -0.1500 
 26 H       -5.7850     3.4410    -1.1930 H     1 <1>   0.1500 
 27 H       -1.5830     3.8590    -0.7050 H     1 <1>   0.1500 
 28 H       -1.5030     1.6860     0.4850 H     1 <1>   0.1500 
 29 H       -6.8620     1.5220    -0.4580 H     1 <1>   0.3700 
 30 H       -3.5550     0.4090     0.8240 H     1 <1>   0.1500 
 31 H       -8.1890    -0.7910     1.5770 H     1 <1>   0.0800 
 32 H       -7.8810    -1.2110    -0.0820 H     1 <1>   0.0800 
 33 H      -10.5250    -0.4510     0.4410 H     1 <1>   0.0800 
 34 H       -9.8530    -0.5220    -1.1660 H     1 <1>   0.0800 
 35 H       -8.1370     2.0880     1.6150 H     1 <1>   0.0800 
 36 H       -9.4960     1.1170     2.1060 H     1 <1>   0.0800 
 37 H      -11.9560     0.7820    -1.0950 H     1 <1>   0.0800 
 38 H      -10.6080     1.7460    -1.6320 H     1 <1>   0.0800 
 39 H       -9.5470     3.3660     0.0900 H     1 <1>   0.0800 
 40 H      -10.2380     3.3930     1.6900 H     1 <1>   0.0800 
 41 H      -13.4840     2.2520     1.6150 H     1 <1>   0.1500 
 42 H      -13.3290     5.7830    -1.7860 H     1 <1>   0.1500 
 43 H      -15.3810     3.7940     1.3420 H     1 <1>   0.1500 
 44 H      -10.0710     5.0730    -3.1760 H     1 <1>   0.0800 
 45 H      -11.0830     6.1770    -2.2530 H     1 <1>   0.0800 
 46 H      -11.8140     5.0520    -3.4130 H     1 <1>   0.0800 
 47 H      -15.2840     5.5590    -0.3700 H     1 <1>   0.1500 
@<TRIPOS>BOND
  1   1   2  1   
  2   2   3  ar  
  3   2   4  ar  
  4   3   5  ar  
  5   3  26  1   
  6   4   6  ar  
  7   4  27  1   
  8   5   7  1   
  9   5   8  ar  
 10   6   8  ar  
 11   6  28  1   
 12   7   9  am  
 13   7  29  1   
 14   8  30  1   
 15   9  10  2   
 16   9  11  1   
 17  11  12  1   
 18  11  31  1   
 19  11  32  1   
 20  12  13  1   
 21  12  14  1   
 22  13  15  1   
 23  13  33  1   
 24  13  34  1   
 25  14  16  1   
 26  14  35  1   
 27  14  36  1   
 28  15  17  1   
 29  15  37  1   
 30  15  38  1   
 31  16  17  1   
 32  16  39  1   
 33  16  40  1   
 34  17  18  1   
 35  18  19  ar  
 36  18  20  ar  
 37  19  21  1   
 38  19  22  ar  
 39  20  23  ar  
 40  20  41  1   
 41  21  24  1   
 42  22  25  ar  
 43  22  42  1   
 44  23  25  ar  
 45  23  43  1   
 46  24  44  1   
 47  24  45  1   
 48  24  46  1   
 49  25  47  1   
@<TRIPOS>SUBSTRUCTURE
  1 ****  14 GROUP 4 **** **** 0

# MOE 2024.06 (io_trps.svl 2023.06)
