@<TRIPOS>MOLECULE
NONAME
47 50 1 0 0 
SMALL
USER_CHARGES


@<TRIPOS>ATOM
  1 S        0.1240    -0.9520     1.1160 S.o2  1 <1>   1.3330 
  2 O        0.3380    -0.8250     2.5410 O.2   1 <1>  -0.6500 
  3 O       -1.2250    -0.8470     0.6110 O.2   1 <1>  -0.6500 
  4 N        1.0650     0.2510     0.3690 N.am  1 <1>  -0.8490 
  5 C        0.8830    -2.4810     0.5500 C.3   1 <1>   0.0250 
  6 C        0.3410     1.5270     0.3020 C.3   1 <1>   0.1960 
  7 C        2.4000     0.3980     0.9690 C.3   1 <1>   0.1960 
  8 C        0.9000    -2.5890    -0.9920 C.3   1 <1>   0.2070 
  9 C        0.2810    -3.7870     1.1770 C.3   1 <1>  -0.1600 
 10 C        1.0040     2.4920    -0.6800 C.3   1 <1>  -0.2400 
 11 C        3.4560     0.1550    -0.1050 C.3   1 <1>  -0.2400 
 12 C       -0.4860    -3.0430    -1.4540 C.ar  1 <1>  -0.1440 
 13 C        1.8250    -3.7780    -1.2590 C.ar  1 <1>  -0.1440 
 14 C        0.0780    -4.8620     0.0840 C.3   1 <1>   0.2070 
 15 C       -0.9130    -4.2400    -0.8970 C.ar  1 <1>  -0.1440 
 16 C       -1.2930    -2.3630    -2.3490 C.ar  1 <1>  -0.1500 
 17 C        1.4020    -4.9670    -0.6790 C.ar  1 <1>  -0.1440 
 18 C        3.0010    -3.7330    -1.9880 C.ar  1 <1>  -0.1500 
 19 C       -2.1470    -4.7670    -1.2360 C.ar  1 <1>  -0.1500 
 20 C       -2.5290    -2.8890    -2.6870 C.ar  1 <1>  -0.1500 
 21 C        2.1570    -6.1180    -0.8210 C.ar  1 <1>  -0.1500 
 22 C        3.7560    -4.8860    -2.1290 C.ar  1 <1>  -0.1500 
 23 C       -2.9540    -4.0870    -2.1340 C.ar  1 <1>  -0.1500 
 24 C        3.3370    -6.0730    -1.5470 C.ar  1 <1>  -0.1500 
 25 H        1.9110    -2.4460     0.8540 H     1 <1>   0.0800 
 26 H        0.2730     1.9670     1.2850 H     1 <1>   0.0800 
 27 H       -0.6630     1.3580    -0.0500 H     1 <1>   0.0800 
 28 H        2.5560    -0.3110     1.7650 H     1 <1>   0.0800 
 29 H        2.5250     1.3800     1.3950 H     1 <1>   0.0800 
 30 H        1.2320    -1.6940    -1.4850 H     1 <1>   0.0800 
 31 H        0.9400    -4.1580     1.9410 H     1 <1>   0.0800 
 32 H       -0.6710    -3.5710     1.6310 H     1 <1>   0.0800 
 33 H        1.9630     2.8180    -0.3250 H     1 <1>   0.0800 
 34 H        0.3820     3.3600    -0.7980 H     1 <1>   0.0800 
 35 H        1.1130     2.0210    -1.6410 H     1 <1>   0.0800 
 36 H        3.3930    -0.8520    -0.4740 H     1 <1>   0.0800 
 37 H        4.4350     0.2990     0.3160 H     1 <1>   0.0800 
 38 H        3.3340     0.8410    -0.9220 H     1 <1>   0.0800 
 39 H       -0.2610    -5.8040     0.4780 H     1 <1>   0.0800 
 40 H       -0.9690    -1.4300    -2.7750 H     1 <1>   0.1500 
 41 H        3.3280    -2.8160    -2.4430 H     1 <1>   0.1500 
 42 H       -2.4810    -5.6950    -0.8080 H     1 <1>   0.1500 
 43 H       -3.1620    -2.3640    -3.3790 H     1 <1>   0.1500 
 44 H        1.8330    -7.0420    -0.3770 H     1 <1>   0.1500 
 45 H        4.6710    -4.8620    -2.6950 H     1 <1>   0.1500 
 46 H       -3.9150    -4.4890    -2.4020 H     1 <1>   0.1500 
 47 H        3.9280    -6.9640    -1.6630 H     1 <1>   0.1500 
@<TRIPOS>BOND
  1   1   2  2   
  2   1   3  2   
  3   1   4  am  
  4   1   5  1   
  5   4   6  1   
  6   4   7  1   
  7   5   8  1   
  8   5   9  1   
  9   5  25  1   
 10   6  10  1   
 11   6  26  1   
 12   6  27  1   
 13   7  11  1   
 14   7  28  1   
 15   7  29  1   
 16   8  12  1   
 17   8  13  1   
 18   8  30  1   
 19   9  14  1   
 20   9  31  1   
 21   9  32  1   
 22  10  33  1   
 23  10  34  1   
 24  10  35  1   
 25  11  36  1   
 26  11  37  1   
 27  11  38  1   
 28  12  15  ar  
 29  12  16  ar  
 30  13  17  ar  
 31  13  18  ar  
 32  14  15  1   
 33  14  17  1   
 34  14  39  1   
 35  15  19  ar  
 36  16  20  ar  
 37  16  40  1   
 38  17  21  ar  
 39  18  22  ar  
 40  18  41  1   
 41  19  23  ar  
 42  19  42  1   
 43  20  23  ar  
 44  20  43  1   
 45  21  24  ar  
 46  21  44  1   
 47  22  24  ar  
 48  22  45  1   
 49  23  46  1   
 50  24  47  1   
@<TRIPOS>SUBSTRUCTURE
  1 ****   8 GROUP 4 **** **** 0

# MOE 2024.06 (io_trps.svl 2023.06)
