@<TRIPOS>MOLECULE
NONAME
46 49 1 0 0 
SMALL
USER_CHARGES


@<TRIPOS>ATOM
  1 O        1.3090    -3.4790     1.7550 O.2   1 <1>  -0.5700 
  2 C        1.2560    -3.6590     0.5630 C.2   1 <1>   0.5690 
  3 N        0.0870    -3.9360    -0.0750 N.am  1 <1>  -0.7300 
  4 C        2.5630    -3.5240    -0.2370 C.3   1 <1>   0.4040 
  5 C       -1.2290    -4.0750     0.5920 C.3   1 <1>   0.2200 
  6 N        3.0910    -2.1070    -0.3320 N.4   1 <1>  -0.9590 
  7 C       -1.8120    -5.4810     0.3310 C.3   1 <1>  -0.0800 
  8 C       -2.2090    -3.0060     0.0630 C.3   1 <1>  -0.0800 
  9 C        4.3460    -1.9790    -1.1070 C.3   1 <1>   0.3430 
 10 C        3.3720    -1.5180     1.0050 C.3   1 <1>   0.3430 
 11 C       -3.1400    -5.6080     1.1050 C.3   1 <1>  -0.1600 
 12 C       -2.0990    -5.6900    -1.1740 C.3   1 <1>  -0.1600 
 13 C       -3.5370    -3.1370     0.8370 C.3   1 <1>  -0.1600 
 14 C       -2.4950    -3.2150    -1.4420 C.3   1 <1>  -0.1600 
 15 C        4.9250    -0.6430    -0.6610 C.3   1 <1>  -0.1600 
 16 C        4.3220    -0.3630     0.7190 C.3   1 <1>  -0.1600 
 17 C       -4.1390    -4.5390     0.6190 C.3   1 <1>  -0.0800 
 18 C       -3.0870    -4.6190    -1.6760 C.3   1 <1>  -0.0800 
 19 C       -4.4030    -4.7440    -0.8850 C.3   1 <1>  -0.1600 
 20 H        0.0270    -4.1080    -1.0800 H     1 <1>   0.3700 
 21 H        2.3940    -3.9120    -1.2260 H     1 <1>   0.0800 
 22 H        3.2990    -4.1460     0.2410 H     1 <1>   0.0800 
 23 H       -1.1050    -3.9410     1.6550 H     1 <1>   0.0800 
 24 H        2.3760    -1.5090    -0.7680 H     1 <1>   0.4500 
 25 H       -1.1250    -6.2280     0.6890 H     1 <1>   0.0800 
 26 H       -1.8000    -2.0250     0.2340 H     1 <1>   0.0800 
 27 H        4.1690    -2.0030    -2.1710 H     1 <1>   0.0800 
 28 H        5.0260    -2.7720    -0.8360 H     1 <1>   0.0800 
 29 H        3.8640    -2.2470     1.6300 H     1 <1>   0.0800 
 30 H        2.4690    -1.1890     1.4960 H     1 <1>   0.0800 
 31 H       -2.9630    -5.4870     2.1600 H     1 <1>   0.0800 
 32 H       -3.5570    -6.5890     0.9570 H     1 <1>   0.0800 
 33 H       -2.5240    -6.6680    -1.3250 H     1 <1>   0.0800 
 34 H       -1.1890    -5.6490    -1.7440 H     1 <1>   0.0800 
 35 H       -3.3670    -2.9740     1.8870 H     1 <1>   0.0800 
 36 H       -4.2320    -2.3870     0.5020 H     1 <1>   0.0800 
 37 H       -1.5980    -3.0940    -2.0200 H     1 <1>   0.0800 
 38 H       -3.1950    -2.4710    -1.7820 H     1 <1>   0.0800 
 39 H        4.6410     0.1270    -1.3570 H     1 <1>   0.0800 
 40 H        6.0010    -0.6900    -0.6260 H     1 <1>   0.0800 
 41 H        5.0790    -0.3080     1.4830 H     1 <1>   0.0800 
 42 H        3.7770     0.5660     0.7120 H     1 <1>   0.0800 
 43 H       -5.0630    -4.6280     1.1650 H     1 <1>   0.0800 
 44 H       -3.2820    -4.7640    -2.7250 H     1 <1>   0.0800 
 45 H       -5.1090    -4.0110    -1.2340 H     1 <1>   0.0800 
 46 H       -4.8370    -5.7150    -1.0490 H     1 <1>   0.0800 
@<TRIPOS>BOND
  1   1   2  2   
  2   2   3  am  
  3   2   4  1   
  4   3   5  1   
  5   3  20  1   
  6   4   6  1   
  7   4  21  1   
  8   4  22  1   
  9   5   7  1   
 10   5   8  1   
 11   5  23  1   
 12   6   9  1   
 13   6  10  1   
 14   6  24  1   
 15   7  11  1   
 16   7  12  1   
 17   7  25  1   
 18   8  13  1   
 19   8  14  1   
 20   8  26  1   
 21   9  15  1   
 22   9  27  1   
 23   9  28  1   
 24  10  16  1   
 25  10  29  1   
 26  10  30  1   
 27  11  17  1   
 28  11  31  1   
 29  11  32  1   
 30  12  18  1   
 31  12  33  1   
 32  12  34  1   
 33  13  17  1   
 34  13  35  1   
 35  13  36  1   
 36  14  18  1   
 37  14  37  1   
 38  14  38  1   
 39  15  16  1   
 40  15  39  1   
 41  15  40  1   
 42  16  41  1   
 43  16  42  1   
 44  17  19  1   
 45  17  43  1   
 46  18  19  1   
 47  18  44  1   
 48  19  45  1   
 49  19  46  1   
@<TRIPOS>SUBSTRUCTURE
  1 ****   3 GROUP 4 **** **** 0

# MOE 2024.06 (io_trps.svl 2023.06)
