@<TRIPOS>MOLECULE
NONAME
40 40 1 0 0 
SMALL
USER_CHARGES


@<TRIPOS>ATOM
  1 F        0.7220     0.6640     2.2580 F     1 <1>  -0.3400 
  2 C        1.5150     0.7430     1.1970 C.3   1 <1>   1.0200 
  3 F        2.7560     0.8130     1.6690 F     1 <1>  -0.3400 
  4 F        1.4520    -0.4540     0.6280 F     1 <1>  -0.3400 
  5 C        1.1430     1.8920     0.2040 C.3   1 <1>   0.3000 
  6 N        2.0020     1.8750    -1.0670 N.am  1 <1>  -0.7300 
  7 C        1.2480     3.2160     1.0410 C.3   1 <1>   1.0200 
  8 C       -0.3310     1.7600    -0.3190 C.3   1 <1>  -0.1600 
  9 C        3.2020     2.4620    -1.2520 C.2   1 <1>   0.6900 
 10 F        2.4090     3.4160     1.6480 F     1 <1>  -0.3400 
 11 F        0.3270     3.3100     1.9940 F     1 <1>  -0.3400 
 12 F        1.0610     4.2880     0.2810 F     1 <1>  -0.3400 
 13 C       -0.6580     0.5860    -1.2660 C.3   1 <1>  -0.2400 
 14 O        3.3250     3.1430    -2.2430 O.2   1 <1>  -0.5700 
 15 N        4.2090     2.2580    -0.3590 N.am  1 <1>  -0.5470 
 16 C        5.4620     2.8760    -0.2320 C.ar  1 <1>   0.1170 
 17 C        6.4600     2.2160     0.4750 C.ar  1 <1>  -0.1500 
 18 C        5.7470     4.1310    -0.7610 C.ar  1 <1>  -0.1500 
 19 C        7.7100     2.7840     0.6490 C.ar  1 <1>  -0.1500 
 20 C        6.9940     4.7030    -0.5900 C.ar  1 <1>  -0.1500 
 21 C        7.9840     4.0400     0.1140 C.ar  1 <1>   0.0820 
 22 O        9.1770     4.6830     0.2350 O.3   1 <1>  -0.3620 
 23 C       10.2980     4.1040     0.8700 C.3   1 <1>   0.1200 
 24 C       10.9940     3.1460    -0.0970 C.3   1 <1>  -0.2400 
 25 H        1.4360     1.9720    -1.9130 H     1 <1>   0.3700 
 26 H       -0.5910     2.6690    -0.8370 H     1 <1>   0.0800 
 27 H       -1.0040     1.6940     0.5200 H     1 <1>   0.0800 
 28 H       -0.0230     0.5760    -2.1340 H     1 <1>   0.0800 
 29 H       -1.6750     0.6760    -1.6070 H     1 <1>   0.0800 
 30 H       -0.5730    -0.3620    -0.7660 H     1 <1>   0.0800 
 31 H        4.0600     1.4800     0.2790 H     1 <1>   0.3700 
 32 H        6.2610     1.2470     0.8940 H     1 <1>   0.1500 
 33 H        4.9940     4.6710    -1.3070 H     1 <1>   0.1500 
 34 H        8.4500     2.2380     1.2000 H     1 <1>   0.1500 
 35 H        7.2060     5.6730    -1.0030 H     1 <1>   0.1500 
 36 H        9.9860     3.6220     1.7790 H     1 <1>   0.0800 
 37 H       10.9640     4.9100     1.1260 H     1 <1>   0.0800 
 38 H       10.3390     2.3410    -0.3760 H     1 <1>   0.0800 
 39 H       11.8670     2.7290     0.3700 H     1 <1>   0.0800 
 40 H       11.2990     3.6770    -0.9810 H     1 <1>   0.0800 
@<TRIPOS>BOND
  1   1   2  1   
  2   2   3  1   
  3   2   4  1   
  4   2   5  1   
  5   5   6  1   
  6   5   7  1   
  7   5   8  1   
  8   6   9  am  
  9   6  25  1   
 10   7  10  1   
 11   7  11  1   
 12   7  12  1   
 13   8  13  1   
 14   8  26  1   
 15   8  27  1   
 16   9  14  2   
 17   9  15  am  
 18  13  28  1   
 19  13  29  1   
 20  13  30  1   
 21  15  16  1   
 22  15  31  1   
 23  16  17  ar  
 24  16  18  ar  
 25  17  19  ar  
 26  17  32  1   
 27  18  20  ar  
 28  18  33  1   
 29  19  21  ar  
 30  19  34  1   
 31  20  21  ar  
 32  20  35  1   
 33  21  22  1   
 34  22  23  1   
 35  23  24  1   
 36  23  36  1   
 37  23  37  1   
 38  24  38  1   
 39  24  39  1   
 40  24  40  1   
@<TRIPOS>SUBSTRUCTURE
  1 ****  15 GROUP 4 **** **** 0

# MOE 2024.06 (io_trps.svl 2023.06)
