@<TRIPOS>MOLECULE
NONAME
30 31 1 0 0 
SMALL
USER_CHARGES


@<TRIPOS>ATOM
  1 CL      -0.1600    -0.0130     1.7370 Cl    1 <1>  -0.1770 
  2 C       -1.4330     0.8690     0.9240 C.ar  1 <1>   0.1770 
  3 C       -1.2200     2.1680     0.4640 C.ar  1 <1>   0.0830 
  4 C       -2.6550     0.2470     0.7550 C.ar  1 <1>  -0.1500 
  5 O       -0.0350     2.7980     0.6220 O.3   1 <1>  -0.3630 
  6 C       -2.2540     2.8550    -0.1570 C.ar  1 <1>  -0.1500 
  7 C       -3.6690     0.9440     0.1250 C.ar  1 <1>   0.1770 
  8 C        1.0010     2.4380    -0.2840 C.3   1 <1>   0.1810 
  9 C       -3.4840     2.2390    -0.3300 C.ar  1 <1>  -0.1500 
 10 CL      -5.2200     0.1750    -0.1000 Cl    1 <1>  -0.1770 
 11 C        2.2750     3.2490    -0.0550 C.2   1 <1>   0.5690 
 12 O        3.3080     2.6370     0.0960 O.2   1 <1>  -0.5700 
 13 N        2.2610     4.6200    -0.0660 N.am  1 <1>  -0.6600 
 14 C        1.0680     5.4830    -0.2000 C.3   1 <1>   0.1400 
 15 C        3.4790     5.4270     0.1570 C.3   1 <1>   0.1400 
 16 C        1.6260     6.8950    -0.3350 C.3   1 <1>  -0.1600 
 17 C        2.9710     6.8460     0.3840 C.3   1 <1>  -0.1600 
 18 H       -2.8150    -0.7550     1.1080 H     1 <1>   0.1500 
 19 H       -2.0950     3.8620    -0.4980 H     1 <1>   0.1500 
 20 H        0.6490     2.6040    -1.2840 H     1 <1>   0.0800 
 21 H        1.2200     1.3950    -0.1540 H     1 <1>   0.0800 
 22 H       -4.2960     2.7550    -0.8120 H     1 <1>   0.1500 
 23 H        0.4740     5.4010     0.6950 H     1 <1>   0.0800 
 24 H        0.4790     5.2060    -1.0580 H     1 <1>   0.0800 
 25 H        4.0970     5.3790    -0.7230 H     1 <1>   0.0800 
 26 H        4.0320     5.0590     1.0060 H     1 <1>   0.0800 
 27 H        0.9620     7.6300     0.0840 H     1 <1>   0.0800 
 28 H        1.7770     7.1130    -1.3780 H     1 <1>   0.0800 
 29 H        3.6630     7.5820     0.0140 H     1 <1>   0.0800 
 30 H        2.8280     6.9990     1.4400 H     1 <1>   0.0800 
@<TRIPOS>BOND
  1   1   2  1   
  2   2   3  ar  
  3   2   4  ar  
  4   3   5  1   
  5   3   6  ar  
  6   4   7  ar  
  7   4  18  1   
  8   5   8  1   
  9   6   9  ar  
 10   6  19  1   
 11   7   9  ar  
 12   7  10  1   
 13   8  11  1   
 14   8  20  1   
 15   8  21  1   
 16   9  22  1   
 17  11  12  2   
 18  11  13  am  
 19  13  14  1   
 20  13  15  1   
 21  14  16  1   
 22  14  23  1   
 23  14  24  1   
 24  15  17  1   
 25  15  25  1   
 26  15  26  1   
 27  16  17  1   
 28  16  27  1   
 29  16  28  1   
 30  17  29  1   
 31  17  30  1   
@<TRIPOS>SUBSTRUCTURE
  1 ****   5 GROUP 4 **** **** 0

# MOE 2024.06 (io_trps.svl 2023.06)
