@<TRIPOS>MOLECULE
NONAME
33 35 1 0 0 
SMALL
USER_CHARGES


@<TRIPOS>ATOM
  1 O       -0.1490    -0.9010    -1.6080 O.co2 1 <1>  -0.9000 
  2 C       -1.1160    -1.6440    -1.4150 C.2   1 <1>   0.9060 
  3 O       -1.3850    -2.5810    -2.1730 O.co2 1 <1>  -0.9000 
  4 C       -1.9480    -1.3850    -0.1630 C.3   1 <1>  -0.1860 
  5 C       -2.3860    -2.5970     0.7120 C.3   1 <1>  -0.0190 
  6 C       -3.2670    -0.6050    -0.3880 C.3   1 <1>  -0.0800 
  7 C       -1.9250    -4.0340     0.3890 C.2   1 <1>   0.4230 
  8 C       -3.9180    -2.3790     0.8060 C.3   1 <1>  -0.0800 
  9 C       -3.9960    -0.8630     0.9220 C.3   1 <1>  -0.1600 
 10 C       -4.1770    -1.3590    -1.3680 C.3   1 <1>  -0.1600 
 11 O       -2.7530    -4.9140     0.4680 O.2   1 <1>  -0.5700 
 12 C       -0.5230    -4.3530     0.1710 C.ar  1 <1>   0.0860 
 13 C       -4.5800    -2.6070    -0.5680 C.3   1 <1>  -0.1600 
 14 C        0.5310    -3.5040     0.5260 C.ar  1 <1>  -0.1500 
 15 C       -0.1690    -5.5840    -0.3870 C.ar  1 <1>  -0.1500 
 16 C        1.8530    -3.8650     0.3380 C.ar  1 <1>  -0.1500 
 17 C        1.1500    -5.9560    -0.5740 C.ar  1 <1>  -0.1500 
 18 C        2.1670    -5.0950    -0.2100 C.ar  1 <1>  -0.1500 
 19 H       -1.3270    -0.7630     0.4540 H     1 <1>   0.0800 
 20 H       -2.0040    -2.4150     1.6990 H     1 <1>   0.0800 
 21 H       -3.1180     0.4310    -0.6410 H     1 <1>   0.0800 
 22 H       -4.3810    -2.9250     1.6080 H     1 <1>   0.0800 
 23 H       -3.4670    -0.4760     1.7760 H     1 <1>   0.0800 
 24 H       -5.0090    -0.4960     0.9150 H     1 <1>   0.0800 
 25 H       -5.0460    -0.7680    -1.5970 H     1 <1>   0.0800 
 26 H       -3.6810    -1.6110    -2.2880 H     1 <1>   0.0800 
 27 H       -4.2250    -3.5010    -1.0500 H     1 <1>   0.0800 
 28 H       -5.6490    -2.6600    -0.4700 H     1 <1>   0.0800 
 29 H        0.3250    -2.5370     0.9430 H     1 <1>   0.1500 
 30 H       -0.9550    -6.2560    -0.6850 H     1 <1>   0.1500 
 31 H        2.6360    -3.1780     0.6080 H     1 <1>   0.1500 
 32 H        1.3810    -6.9110    -1.0110 H     1 <1>   0.1500 
 33 H        3.1950    -5.3730    -0.3610 H     1 <1>   0.1500 
@<TRIPOS>BOND
  1   1   2  ar  
  2   2   3  ar  
  3   2   4  1   
  4   4   5  1   
  5   4   6  1   
  6   4  19  1   
  7   5   7  1   
  8   5   8  1   
  9   5  20  1   
 10   6   9  1   
 11   6  10  1   
 12   6  21  1   
 13   7  11  2   
 14   7  12  1   
 15   8   9  1   
 16   8  13  1   
 17   8  22  1   
 18   9  23  1   
 19   9  24  1   
 20  10  13  1   
 21  10  25  1   
 22  10  26  1   
 23  12  14  ar  
 24  12  15  ar  
 25  13  27  1   
 26  13  28  1   
 27  14  16  ar  
 28  14  29  1   
 29  15  17  ar  
 30  15  30  1   
 31  16  18  ar  
 32  16  31  1   
 33  17  18  ar  
 34  17  32  1   
 35  18  33  1   
@<TRIPOS>SUBSTRUCTURE
  1 ****   7 GROUP 4 **** **** 0

# MOE 2024.06 (io_trps.svl 2023.06)
