@<TRIPOS>MOLECULE
NONAME
42 43 1 0 0 
SMALL
USER_CHARGES


@<TRIPOS>ATOM
  1 S       -0.5410    -0.1770     0.0530 S.o2  1 <1>   1.0900 
  2 O       -1.3300     0.0760     1.2350 O.2   1 <1>  -0.6500 
  3 O       -1.0910    -0.0480    -1.2760 O.2   1 <1>  -0.6500 
  4 C        0.9460     0.7800     0.1170 C.3   1 <1>  -0.0550 
  5 C        0.2870    -1.7490     0.1750 C.3   1 <1>  -0.0550 
  6 C        2.0410    -0.1000    -0.4890 C.3   1 <1>   0.2760 
  7 C        1.8000    -1.4940     0.1240 C.3   1 <1>  -0.1600 
  8 N        3.3820     0.4590    -0.2070 N.am  1 <1>  -0.8490 
  9 S        4.6690    -0.5510    -0.6880 S.o2  1 <1>   1.4470 
 10 C        3.5220     1.7990    -0.8170 C.3   1 <1>   0.1960 
 11 O        4.5600    -0.6610    -2.1260 O.2   1 <1>  -0.6500 
 12 O        4.6500    -1.7460     0.1260 O.2   1 <1>  -0.6500 
 13 C        6.1640     0.3830    -0.2420 C.ar  1 <1>  -0.0090 
 14 C        3.6430     2.8480     0.2910 C.3   1 <1>  -0.1600 
 15 C        7.0050     0.9130    -1.2200 C.ar  1 <1>  -0.1500 
 16 C        6.4880     0.6010     1.0960 C.ar  1 <1>  -0.1500 
 17 C        3.8420     4.2510    -0.2940 C.3   1 <1>  -0.1600 
 18 C        8.1300     1.6460    -0.8810 C.ar  1 <1>  -0.1500 
 19 C        7.6090     1.3310     1.4570 C.ar  1 <1>  -0.1500 
 20 C        3.9700     5.2950     0.8180 C.3   1 <1>  -0.2400 
 21 C        8.4110     1.8430     0.4570 C.ar  1 <1>   0.1900 
 22 F        9.4670     2.5350     0.7850 F     1 <1>  -0.1900 
 23 H        1.1920     0.9860     1.1420 H     1 <1>   0.0800 
 24 H        0.8170     1.7010    -0.4160 H     1 <1>   0.0800 
 25 H       -0.0060    -2.3710    -0.6490 H     1 <1>   0.0800 
 26 H        0.0270    -2.2500     1.0890 H     1 <1>   0.0800 
 27 H        1.8920    -0.1670    -1.5570 H     1 <1>   0.0800 
 28 H        2.2690    -2.2690    -0.4570 H     1 <1>   0.0800 
 29 H        2.1900    -1.5140     1.1280 H     1 <1>   0.0800 
 30 H        2.6870     2.0340    -1.4550 H     1 <1>   0.0800 
 31 H        4.3960     1.8580    -1.4440 H     1 <1>   0.0800 
 32 H        4.4830     2.6090     0.9180 H     1 <1>   0.0800 
 33 H        2.7560     2.8410     0.8980 H     1 <1>   0.0800 
 34 H        6.7780     0.7490    -2.2610 H     1 <1>   0.1500 
 35 H        5.8510     0.1920     1.8640 H     1 <1>   0.1500 
 36 H        3.0060     4.5080    -0.9240 H     1 <1>   0.0800 
 37 H        4.7340     4.2720    -0.8980 H     1 <1>   0.0800 
 38 H        8.7800     2.0560    -1.6340 H     1 <1>   0.1500 
 39 H        7.8600     1.5000     2.4890 H     1 <1>   0.1500 
 40 H        3.0820     5.3120     1.4250 H     1 <1>   0.0800 
 41 H        4.1080     6.2730     0.3910 H     1 <1>   0.0800 
 42 H        4.8150     5.0750     1.4460 H     1 <1>   0.0800 
@<TRIPOS>BOND
  1   1   2  2   
  2   1   3  2   
  3   1   4  1   
  4   1   5  1   
  5   4   6  1   
  6   4  23  1   
  7   4  24  1   
  8   5   7  1   
  9   5  25  1   
 10   5  26  1   
 11   6   7  1   
 12   6   8  1   
 13   6  27  1   
 14   7  28  1   
 15   7  29  1   
 16   8   9  am  
 17   8  10  1   
 18   9  11  2   
 19   9  12  2   
 20   9  13  1   
 21  10  14  1   
 22  10  30  1   
 23  10  31  1   
 24  13  15  ar  
 25  13  16  ar  
 26  14  17  1   
 27  14  32  1   
 28  14  33  1   
 29  15  18  ar  
 30  15  34  1   
 31  16  19  ar  
 32  16  35  1   
 33  17  20  1   
 34  17  36  1   
 35  17  37  1   
 36  18  21  ar  
 37  18  38  1   
 38  19  21  ar  
 39  19  39  1   
 40  20  40  1   
 41  20  41  1   
 42  20  42  1   
 43  21  22  1   
@<TRIPOS>SUBSTRUCTURE
  1 ****   8 GROUP 4 **** **** 0

# MOE 2024.06 (io_trps.svl 2023.06)
