@<TRIPOS>MOLECULE
NONAME
40 42 1 0 0 
SMALL
USER_CHARGES


@<TRIPOS>ATOM
  1 S       -0.3000     0.4800    -0.0010 S.3   1 <1>  -0.0800 
  2 C        1.0760    -0.5670    -0.1040 C.2   1 <1>   0.4420 
  3 C        0.6230     1.6550    -0.8740 C.2   1 <1>   0.1980 
  4 N        2.0530    -0.0270    -0.7350 N.2   1 <1>  -0.3380 
  5 N        0.9620    -1.8130     0.4700 N.am  1 <1>  -0.4940 
  6 N        1.7880     1.2410    -1.1710 N.2   1 <1>  -0.3380 
  7 C       -0.0200     2.9940    -1.1890 C.3   1 <1>   0.0200 
  8 C        1.8620    -2.8220     0.6220 C.2   1 <1>   0.5690 
  9 C       -0.2870     3.8490     0.0660 C.3   1 <1>  -0.0800 
 10 O        1.4780    -3.8610     1.0960 O.2   1 <1>  -0.5700 
 11 C        3.3240    -2.6960     0.2170 C.3   1 <1>   0.1310 
 12 C       -0.9900     5.1560    -0.3200 C.3   1 <1>  -0.2400 
 13 C        1.0110     4.1660     0.8240 C.3   1 <1>  -0.2400 
 14 S        4.2370    -1.6580     1.4530 S.3   1 <1>  -0.2860 
 15 C        5.9230    -1.7700     0.8810 C.2   1 <1>   0.2420 
 16 N        6.2940    -2.5030    -0.1070 N.2   1 <1>  -0.5650 
 17 N        6.8960    -1.0620     1.4940 N.pl3 1 <1>   0.0330 
 18 C        7.6380    -2.2720    -0.1660 C.ar  1 <1>   0.2270 
 19 C        8.0320    -1.3800     0.8200 C.ar  1 <1>  -0.1520 
 20 C        8.5860    -2.7950    -1.0430 C.ar  1 <1>  -0.1500 
 21 C        9.3650    -0.9910     0.9570 C.ar  1 <1>  -0.1500 
 22 C        9.9050    -2.4170    -0.9150 C.ar  1 <1>  -0.1500 
 23 C       10.2930    -1.5160     0.0840 C.ar  1 <1>  -0.1500 
 24 H        0.0500    -2.0470     0.8520 H     1 <1>   0.3700 
 25 H       -0.9450     2.8120    -1.7070 H     1 <1>   0.0800 
 26 H        0.6270     3.5330    -1.8580 H     1 <1>   0.0800 
 27 H       -0.9400     3.3020     0.7260 H     1 <1>   0.0800 
 28 H        3.4390    -2.2340    -0.7450 H     1 <1>   0.0800 
 29 H        3.7950    -3.6610     0.2120 H     1 <1>   0.0800 
 30 H       -0.3690     5.7440    -0.9740 H     1 <1>   0.0800 
 31 H       -1.2060     5.7370     0.5590 H     1 <1>   0.0800 
 32 H       -1.9190     4.9510    -0.8220 H     1 <1>   0.0800 
 33 H        1.7020     4.6940     0.1900 H     1 <1>   0.0800 
 34 H        1.4850     3.2630     1.1650 H     1 <1>   0.0800 
 35 H        0.8010     4.7760     1.6850 H     1 <1>   0.0800 
 36 H        6.7780    -0.4260     2.2830 H     1 <1>   0.2700 
 37 H        8.2620    -3.4840    -1.8010 H     1 <1>   0.1500 
 38 H        9.6540    -0.2970     1.7270 H     1 <1>   0.1500 
 39 H       10.6490    -2.8130    -1.5840 H     1 <1>   0.1500 
 40 H       11.3300    -1.2370     0.1630 H     1 <1>   0.1500 
@<TRIPOS>BOND
  1   1   2  1   
  2   1   3  1   
  3   2   4  2   
  4   2   5  1   
  5   3   6  2   
  6   3   7  1   
  7   4   6  1   
  8   5   8  am  
  9   5  24  1   
 10   7   9  1   
 11   7  25  1   
 12   7  26  1   
 13   8  10  2   
 14   8  11  1   
 15   9  12  1   
 16   9  13  1   
 17   9  27  1   
 18  11  14  1   
 19  11  28  1   
 20  11  29  1   
 21  12  30  1   
 22  12  31  1   
 23  12  32  1   
 24  13  33  1   
 25  13  34  1   
 26  13  35  1   
 27  14  15  1   
 28  15  16  2   
 29  15  17  1   
 30  16  18  1   
 31  17  19  1   
 32  17  36  1   
 33  18  19  ar  
 34  18  20  ar  
 35  19  21  ar  
 36  20  22  ar  
 37  20  37  1   
 38  21  23  ar  
 39  21  38  1   
 40  22  23  ar  
 41  22  39  1   
 42  23  40  1   
@<TRIPOS>SUBSTRUCTURE
  1 ****  14 GROUP 4 **** **** 0

# MOE 2024.06 (io_trps.svl 2023.06)
