@<TRIPOS>MOLECULE
NONAME
35 36 1 0 0 
SMALL
USER_CHARGES


@<TRIPOS>ATOM
  1 O        0.4730     2.7760     1.7820 O.2   1 <1>  -0.5700 
  2 C        0.2080     2.8540     0.6090 C.2   1 <1>   0.5690 
  3 N        1.0690     2.5180    -0.3990 N.am  1 <1>  -0.5470 
  4 C       -1.1620     3.3770     0.2170 C.3   1 <1>  -0.0990 
  5 C        2.3730     1.9960    -0.3780 C.ar  1 <1>   0.1170 
  6 C       -2.2560     2.2920     0.2450 C.3   1 <1>  -0.0800 
  7 C        3.1350     2.0710    -1.5390 C.ar  1 <1>  -0.1500 
  8 C        2.9380     1.3920     0.7420 C.ar  1 <1>  -0.1500 
  9 C       -1.9790     1.1630    -0.7670 C.3   1 <1>  -0.1600 
 10 C       -3.6320     2.9270    -0.0220 C.3   1 <1>  -0.1600 
 11 C        4.4220     1.5650    -1.5830 C.ar  1 <1>  -0.1500 
 12 C        4.2240     0.8850     0.7030 C.ar  1 <1>  -0.1500 
 13 C       -3.1010     0.1160    -0.7650 C.3   1 <1>  -0.1600 
 14 C       -4.7510     1.8770    -0.0170 C.3   1 <1>  -0.1600 
 15 C        4.9690     0.9710    -0.4600 C.ar  1 <1>  -0.1500 
 16 C       -4.4670     0.7610    -1.0290 C.3   1 <1>  -0.1600 
 17 H        0.7030     2.6790    -1.3340 H     1 <1>   0.3700 
 18 H       -1.1130     3.8260    -0.7570 H     1 <1>   0.0800 
 19 H       -1.4210     4.1520     0.9160 H     1 <1>   0.0800 
 20 H       -2.2710     1.8620     1.2340 H     1 <1>   0.0800 
 21 H        2.7240     2.5320    -2.4180 H     1 <1>   0.1500 
 22 H        2.3750     1.3110     1.6530 H     1 <1>   0.1500 
 23 H       -1.0540     0.6670    -0.5240 H     1 <1>   0.0800 
 24 H       -1.8880     1.5760    -1.7560 H     1 <1>   0.0800 
 25 H       -3.6230     3.4230    -0.9780 H     1 <1>   0.0800 
 26 H       -3.8430     3.6660     0.7320 H     1 <1>   0.0800 
 27 H        4.9990     1.6320    -2.4880 H     1 <1>   0.1500 
 28 H        4.6440     0.4240     1.5800 H     1 <1>   0.1500 
 29 H       -3.1220    -0.3800     0.1900 H     1 <1>   0.0800 
 30 H       -2.9020    -0.6280    -1.5180 H     1 <1>   0.0800 
 31 H       -5.6900     2.3480    -0.2540 H     1 <1>   0.0800 
 32 H       -4.8360     1.4510     0.9680 H     1 <1>   0.0800 
 33 H        5.9700     0.5760    -0.4890 H     1 <1>   0.1500 
 34 H       -5.2370     0.0130    -0.9670 H     1 <1>   0.0800 
 35 H       -4.4830     1.1690    -2.0260 H     1 <1>   0.0800 
@<TRIPOS>BOND
  1   1   2  2   
  2   2   3  am  
  3   2   4  1   
  4   3   5  1   
  5   3  17  1   
  6   4   6  1   
  7   4  18  1   
  8   4  19  1   
  9   5   7  ar  
 10   5   8  ar  
 11   6   9  1   
 12   6  10  1   
 13   6  20  1   
 14   7  11  ar  
 15   7  21  1   
 16   8  12  ar  
 17   8  22  1   
 18   9  13  1   
 19   9  23  1   
 20   9  24  1   
 21  10  14  1   
 22  10  25  1   
 23  10  26  1   
 24  11  15  ar  
 25  11  27  1   
 26  12  15  ar  
 27  12  28  1   
 28  13  16  1   
 29  13  29  1   
 30  13  30  1   
 31  14  16  1   
 32  14  31  1   
 33  14  32  1   
 34  15  33  1   
 35  16  34  1   
 36  16  35  1   
@<TRIPOS>SUBSTRUCTURE
  1 ****   3 GROUP 4 **** **** 0

# MOE 2024.06 (io_trps.svl 2023.06)
