@<TRIPOS>MOLECULE
NONAME
45 46 1 0 0 
SMALL
USER_CHARGES


@<TRIPOS>ATOM
  1 O        1.3350     0.7990     3.4340 O.2   1 <1>  -0.5700 
  2 C        0.7060     0.3850     2.4900 C.2   1 <1>   0.5690 
  3 N        1.0290     0.6420     1.1950 N.am  1 <1>  -0.7300 
  4 C       -0.5030    -0.4940     2.7680 C.3   1 <1>   0.0440 
  5 C        2.2960     1.1220     0.6120 C.3   1 <1>   0.3640 
  6 C       -0.9270    -1.3330     1.5630 C.ar  1 <1>  -0.1440 
  7 C        3.1950    -0.0860     0.3720 C.ar  1 <1>  -0.1440 
  8 C        2.9730     2.2220     1.4310 C.3   1 <1>  -0.2400 
  9 C       -0.0640    -2.2900     1.0470 C.ar  1 <1>  -0.1500 
 10 C       -2.1630    -1.1410     0.9640 C.ar  1 <1>  -0.1500 
 11 C        3.4870    -0.4890    -0.9220 C.ar  1 <1>  -0.1500 
 12 C        3.7160    -0.8130     1.4310 C.ar  1 <1>  -0.1500 
 13 C       -0.4310    -3.0370    -0.0570 C.ar  1 <1>  -0.1500 
 14 C       -2.5330    -1.8910    -0.1390 C.ar  1 <1>  -0.1500 
 15 C        4.2840    -1.5970    -1.1670 C.ar  1 <1>  -0.1430 
 16 C        4.5120    -1.9180     1.1960 C.ar  1 <1>  -0.1500 
 17 C       -1.6640    -2.8460    -0.6580 C.ar  1 <1>   0.0830 
 18 C        4.8020    -2.3190    -0.0980 C.ar  1 <1>  -0.1430 
 19 C        4.5690    -1.9980    -2.6080 C.3   1 <1>  -0.0970 
 20 O       -1.9460    -3.6200    -1.7360 O.3   1 <1>  -0.3630 
 21 C        5.6800    -3.5430    -0.3130 C.3   1 <1>  -0.0970 
 22 C       -3.1870    -3.5290    -2.3990 C.3   1 <1>   0.0400 
 23 H        0.4800     0.1180     0.5090 H     1 <1>   0.3700 
 24 H       -1.3090     0.1400     3.0880 H     1 <1>   0.0800 
 25 H       -0.2620    -1.1510     3.5840 H     1 <1>   0.0800 
 26 H        2.0530     1.5560    -0.3430 H     1 <1>   0.0800 
 27 H        3.3460     1.8430     2.3630 H     1 <1>   0.0800 
 28 H        2.2780     3.0180     1.6240 H     1 <1>   0.0800 
 29 H        3.8050     2.6150     0.8780 H     1 <1>   0.0800 
 30 H        0.9030    -2.4520     1.4950 H     1 <1>   0.1500 
 31 H       -2.8450    -0.4050     1.3520 H     1 <1>   0.1500 
 32 H        3.0850     0.0650    -1.7520 H     1 <1>   0.1500 
 33 H        3.4980    -0.5230     2.4440 H     1 <1>   0.1500 
 34 H        0.2400    -3.7740    -0.4600 H     1 <1>   0.1500 
 35 H       -3.4960    -1.7180    -0.5790 H     1 <1>   0.1500 
 36 H        4.9040    -2.4650     2.0350 H     1 <1>   0.1500 
 37 H        4.0940    -1.3260    -3.2980 H     1 <1>   0.0800 
 38 H        4.1980    -2.9900    -2.7930 H     1 <1>   0.0800 
 39 H        5.6280    -1.9790    -2.7920 H     1 <1>   0.0800 
 40 H        5.1420    -4.2900    -0.8680 H     1 <1>   0.0800 
 41 H        5.9800    -3.9720     0.6250 H     1 <1>   0.0800 
 42 H        6.5650    -3.2690    -0.8580 H     1 <1>   0.0800 
 43 H       -3.1870    -4.2410    -3.2050 H     1 <1>   0.0800 
 44 H       -3.3020    -2.5340    -2.7900 H     1 <1>   0.0800 
 45 H       -3.9720    -3.7650    -1.7020 H     1 <1>   0.0800 
@<TRIPOS>BOND
  1   1   2  2   
  2   2   3  am  
  3   2   4  1   
  4   3   5  1   
  5   3  23  1   
  6   4   6  1   
  7   4  24  1   
  8   4  25  1   
  9   5   7  1   
 10   5   8  1   
 11   5  26  1   
 12   6   9  ar  
 13   6  10  ar  
 14   7  11  ar  
 15   7  12  ar  
 16   8  27  1   
 17   8  28  1   
 18   8  29  1   
 19   9  13  ar  
 20   9  30  1   
 21  10  14  ar  
 22  10  31  1   
 23  11  15  ar  
 24  11  32  1   
 25  12  16  ar  
 26  12  33  1   
 27  13  17  ar  
 28  13  34  1   
 29  14  17  ar  
 30  14  35  1   
 31  15  18  ar  
 32  15  19  1   
 33  16  18  ar  
 34  16  36  1   
 35  17  20  1   
 36  18  21  1   
 37  19  37  1   
 38  19  38  1   
 39  19  39  1   
 40  20  22  1   
 41  21  40  1   
 42  21  41  1   
 43  21  42  1   
 44  22  43  1   
 45  22  44  1   
 46  22  45  1   
@<TRIPOS>SUBSTRUCTURE
  1 ****   9 GROUP 4 **** **** 0

# MOE 2024.06 (io_trps.svl 2023.06)
