@<TRIPOS>MOLECULE
NONAME
42 43 1 0 0 
SMALL
USER_CHARGES


@<TRIPOS>ATOM
  1 BR      -0.4840     0.1420    -1.8750 Br    1 <1>  -0.1110 
  2 C        0.2440    -1.5390    -1.2850 C.ar  1 <1>   0.1110 
  3 C       -0.6010    -2.6260    -1.1800 C.ar  1 <1>  -0.1500 
  4 C        1.5890    -1.6140    -0.9830 C.ar  1 <1>  -0.1500 
  5 C       -0.0790    -3.8390    -0.7540 C.ar  1 <1>  -0.1440 
  6 C        2.1080    -2.8240    -0.5570 C.ar  1 <1>  -0.1500 
  7 C        1.2770    -3.9400    -0.4390 C.ar  1 <1>   0.0830 
  8 C       -0.9790    -5.0490    -0.6380 C.3   1 <1>   0.4870 
  9 O        1.7260    -5.1520    -0.0130 O.3   1 <1>  -0.3630 
 10 N       -0.9670    -5.4670     0.7780 N.4   1 <1>  -0.9060 
 11 C        3.1090    -5.4190     0.1010 C.3   1 <1>   0.1200 
 12 C       -1.7510    -6.6910     1.0500 C.3   1 <1>   0.4860 
 13 C        3.2770    -6.8880     0.4730 C.3   1 <1>  -0.2400 
 14 C       -3.1900    -6.4280     0.6520 C.ar  1 <1>  -0.1430 
 15 C       -4.0100    -5.6420     1.4500 C.ar  1 <1>  -0.1500 
 16 C       -3.6930    -6.9620    -0.5260 C.ar  1 <1>  -0.1500 
 17 C       -5.3140    -5.3780     1.0680 C.ar  1 <1>  -0.1500 
 18 C       -4.9950    -6.6960    -0.9080 C.ar  1 <1>  -0.1500 
 19 C       -5.8120    -5.9020    -0.1200 C.ar  1 <1>   0.0830 
 20 O       -7.0710    -5.6890    -0.5720 O.3   1 <1>  -0.3620 
 21 C       -8.0180    -4.9710     0.1880 C.3   1 <1>   0.0400 
 22 H       -1.6410    -2.5070    -1.4350 H     1 <1>   0.1500 
 23 H        2.2130    -0.7420    -1.0800 H     1 <1>   0.1500 
 24 H        3.1550    -2.8710    -0.3220 H     1 <1>   0.1500 
 25 H       -0.6000    -5.8390    -1.2660 H     1 <1>   0.0800 
 26 H       -1.9810    -4.8010    -0.9510 H     1 <1>   0.0800 
 27 H       -1.3240    -4.6870     1.3360 H     1 <1>   0.4500 
 28 H        0.0290    -5.5880     1.0180 H     1 <1>   0.4500 
 29 H        3.5230    -4.7850     0.8670 H     1 <1>   0.0800 
 30 H        3.5790    -5.2110    -0.8460 H     1 <1>   0.0800 
 31 H       -1.7050    -6.9390     2.0990 H     1 <1>   0.0800 
 32 H       -1.3580    -7.5210     0.4850 H     1 <1>   0.0800 
 33 H        2.8120    -7.0940     1.4200 H     1 <1>   0.0800 
 34 H        4.3250    -7.1190     0.5550 H     1 <1>   0.0800 
 35 H        2.8540    -7.5190    -0.2890 H     1 <1>   0.0800 
 36 H       -3.6520    -5.2290     2.3780 H     1 <1>   0.1500 
 37 H       -3.0890    -7.5900    -1.1600 H     1 <1>   0.1500 
 38 H       -5.9280    -4.7660     1.7020 H     1 <1>   0.1500 
 39 H       -5.3950    -7.1040    -1.8200 H     1 <1>   0.1500 
 40 H       -8.9450    -4.9620    -0.3580 H     1 <1>   0.0800 
 41 H       -7.6670    -3.9640     0.3250 H     1 <1>   0.0800 
 42 H       -8.1560    -5.4660     1.1330 H     1 <1>   0.0800 
@<TRIPOS>BOND
  1   1   2  1   
  2   2   3  ar  
  3   2   4  ar  
  4   3   5  ar  
  5   3  22  1   
  6   4   6  ar  
  7   4  23  1   
  8   5   7  ar  
  9   5   8  1   
 10   6   7  ar  
 11   6  24  1   
 12   7   9  1   
 13   8  10  1   
 14   8  25  1   
 15   8  26  1   
 16   9  11  1   
 17  10  12  1   
 18  10  27  1   
 19  10  28  1   
 20  11  13  1   
 21  11  29  1   
 22  11  30  1   
 23  12  14  1   
 24  12  31  1   
 25  12  32  1   
 26  13  33  1   
 27  13  34  1   
 28  13  35  1   
 29  14  15  ar  
 30  14  16  ar  
 31  15  17  ar  
 32  15  36  1   
 33  16  18  ar  
 34  16  37  1   
 35  17  19  ar  
 36  17  38  1   
 37  18  19  ar  
 38  18  39  1   
 39  19  20  1   
 40  20  21  1   
 41  21  40  1   
 42  21  41  1   
 43  21  42  1   
@<TRIPOS>SUBSTRUCTURE
  1 ****   8 GROUP 4 **** **** 0

# MOE 2024.06 (io_trps.svl 2023.06)
