@<TRIPOS>MOLECULE
NONAME
27 27 1 0 0 
SMALL
USER_CHARGES


@<TRIPOS>ATOM
  1 I       -0.1810     0.5430     1.7330 I     1 <1>  -0.0810 
  2 C        1.7420     1.1680     1.0630 C.ar  1 <1>   0.0810 
  3 C        2.4780     2.0480     1.8340 C.ar  1 <1>   0.1600 
  4 C        2.2240     0.6840    -0.1330 C.ar  1 <1>  -0.1500 
  5 N        3.6810     2.4870     1.4910 N.ar  1 <1>  -0.6200 
  6 C        3.4740     1.1400    -0.4890 C.ar  1 <1>  -0.1500 
  7 C        4.1640     2.0310     0.3410 C.ar  1 <1>   0.4270 
  8 N        5.4150     2.5370     0.0650 N.am  1 <1>  -0.5470 
  9 C        6.2980     2.3400    -0.9530 C.2   1 <1>   0.5690 
 10 O        6.0930     1.6100    -1.8890 O.2   1 <1>  -0.5700 
 11 C        7.6140     3.0920    -0.8920 C.3   1 <1>  -0.0990 
 12 C        8.5590     2.5250     0.1810 C.3   1 <1>  -0.1600 
 13 C        9.8840     3.2940     0.2190 C.3   1 <1>  -0.1600 
 14 C       10.8190     2.7250     1.2890 C.3   1 <1>  -0.2400 
 15 H        2.0650     2.4030     2.7620 H     1 <1>   0.1500 
 16 H        1.6630    -0.0010    -0.7440 H     1 <1>   0.1500 
 17 H        3.9120     0.8050    -1.4090 H     1 <1>   0.1500 
 18 H        5.7150     3.1660     0.8040 H     1 <1>   0.3700 
 19 H        7.4120     4.1290    -0.6960 H     1 <1>   0.0800 
 20 H        8.0870     3.0260    -1.8560 H     1 <1>   0.0800 
 21 H        8.7520     1.4870    -0.0360 H     1 <1>   0.0800 
 22 H        8.0870     2.5790     1.1470 H     1 <1>   0.0800 
 23 H        9.6980     4.3340     0.4300 H     1 <1>   0.0800 
 24 H       10.3680     3.2310    -0.7420 H     1 <1>   0.0800 
 25 H       10.3670     2.7970     2.2630 H     1 <1>   0.0800 
 26 H       11.7440     3.2740     1.3000 H     1 <1>   0.0800 
 27 H       11.0390     1.6910     1.0850 H     1 <1>   0.0800 
@<TRIPOS>BOND
  1   1   2  1   
  2   2   3  ar  
  3   2   4  ar  
  4   3   5  ar  
  5   3  15  1   
  6   4   6  ar  
  7   4  16  1   
  8   5   7  ar  
  9   6   7  ar  
 10   6  17  1   
 11   7   8  1   
 12   8   9  am  
 13   8  18  1   
 14   9  10  2   
 15   9  11  1   
 16  11  12  1   
 17  11  19  1   
 18  11  20  1   
 19  12  13  1   
 20  12  21  1   
 21  12  22  1   
 22  13  14  1   
 23  13  23  1   
 24  13  24  1   
 25  14  25  1   
 26  14  26  1   
 27  14  27  1   
@<TRIPOS>SUBSTRUCTURE
  1 ****   8 GROUP 4 **** **** 0

# MOE 2024.06 (io_trps.svl 2023.06)
