@<TRIPOS>MOLECULE
NONAME
50 53 1 0 0 
SMALL
USER_CHARGES


@<TRIPOS>ATOM
  1 F        0.8620    -0.4010    -1.9070 F     1 <1>  -0.3400 
  2 C        1.1100    -0.8100    -0.6690 C.3   1 <1>   1.1640 
  3 F        0.1040    -0.3700     0.0780 F     1 <1>  -0.3400 
  4 F        1.0050    -2.1340    -0.6860 F     1 <1>  -0.3400 
  5 C        2.4830    -0.3340    -0.1680 C.ar  1 <1>  -0.1440 
  6 C        3.6300    -1.0660    -0.4530 C.ar  1 <1>  -0.1500 
  7 C        2.6120     0.8400     0.5680 C.ar  1 <1>  -0.1500 
  8 C        4.8840    -0.6580    -0.0170 C.ar  1 <1>   0.1000 
  9 C        3.8550     1.2620     1.0070 C.ar  1 <1>  -0.1500 
 10 N        6.0000    -1.4340    -0.3180 N.pl3 1 <1>  -0.8380 
 11 C        4.9820     0.5180     0.7180 C.ar  1 <1>  -0.1500 
 12 C        7.2600    -0.7980    -0.8110 C.3   1 <1>   0.2090 
 13 C        6.1330    -2.7750     0.3250 C.3   1 <1>   0.2090 
 14 C        8.3820    -0.8640     0.2470 C.3   1 <1>   0.3430 
 15 C        7.2700    -2.7860     1.3690 C.3   1 <1>   0.3430 
 16 N        8.5680    -2.2510     0.8200 N.4   1 <1>  -0.9590 
 17 C        9.6560    -2.2900     1.8340 C.3   1 <1>   0.4860 
 18 C       10.9570    -1.9180     1.1530 C.ar  1 <1>  -0.1430 
 19 C       11.4910    -0.6420     1.3210 C.ar  1 <1>  -0.1500 
 20 C       11.6180    -2.8420     0.3500 C.ar  1 <1>  -0.1500 
 21 C       12.6670    -0.2560     0.6900 C.ar  1 <1>   0.0820 
 22 C       12.7870    -2.4460    -0.2690 C.ar  1 <1>   0.0820 
 23 O       13.0790     1.0200     0.9210 O.3   1 <1>  -0.3630 
 24 C       13.3110    -1.1950    -0.1160 C.ar  1 <1>   0.0820 
 25 O       13.5520    -3.1830    -1.0780 O.3   1 <1>  -0.3620 
 26 C       14.3070     1.4900     0.4110 C.3   1 <1>   0.0400 
 27 O       14.4430    -1.1000    -0.8370 O.3   1 <1>  -0.3620 
 28 C       14.6530    -2.3640    -1.4620 C.3   1 <1>   0.4000 
 29 H        3.5650    -1.9700    -1.0330 H     1 <1>   0.1500 
 30 H        1.7450     1.4380     0.8030 H     1 <1>   0.1500 
 31 H        3.9390     2.1730     1.5750 H     1 <1>   0.1500 
 32 H        5.9360     0.8570     1.0680 H     1 <1>   0.1500 
 33 H        7.0710     0.2290    -1.0740 H     1 <1>   0.0800 
 34 H        7.5790    -1.3030    -1.7070 H     1 <1>   0.0800 
 35 H        6.3250    -3.5130    -0.4340 H     1 <1>   0.0800 
 36 H        5.2070    -3.0380     0.8090 H     1 <1>   0.0800 
 37 H        8.1340    -0.1790     1.0400 H     1 <1>   0.0800 
 38 H        9.3010    -0.5250    -0.2030 H     1 <1>   0.0800 
 39 H        7.4060    -3.7940     1.7240 H     1 <1>   0.0800 
 40 H        6.9560    -2.1810     2.2040 H     1 <1>   0.0800 
 41 H        8.8630    -2.8520     0.0400 H     1 <1>   0.4500 
 42 H        9.7430    -3.2810     2.2510 H     1 <1>   0.0800 
 43 H        9.4480    -1.5990     2.6340 H     1 <1>   0.0800 
 44 H       11.0050     0.0850     1.9490 H     1 <1>   0.1500 
 45 H       11.2610    -3.8450     0.1950 H     1 <1>   0.1500 
 46 H       14.4490     2.4990     0.7520 H     1 <1>   0.0800 
 47 H       14.2700     1.4700    -0.6640 H     1 <1>   0.0800 
 48 H       15.1020     0.8650     0.7770 H     1 <1>   0.0800 
 49 H       14.6610    -2.2440    -2.5310 H     1 <1>   0.0800 
 50 H       15.5690    -2.7980    -1.1020 H     1 <1>   0.0800 
@<TRIPOS>BOND
  1   1   2  1   
  2   2   3  1   
  3   2   4  1   
  4   2   5  1   
  5   5   6  ar  
  6   5   7  ar  
  7   6   8  ar  
  8   6  29  1   
  9   7   9  ar  
 10   7  30  1   
 11   8  10  1   
 12   8  11  ar  
 13   9  11  ar  
 14   9  31  1   
 15  10  12  1   
 16  10  13  1   
 17  11  32  1   
 18  12  14  1   
 19  12  33  1   
 20  12  34  1   
 21  13  15  1   
 22  13  35  1   
 23  13  36  1   
 24  14  16  1   
 25  14  37  1   
 26  14  38  1   
 27  15  16  1   
 28  15  39  1   
 29  15  40  1   
 30  16  17  1   
 31  16  41  1   
 32  17  18  1   
 33  17  42  1   
 34  17  43  1   
 35  18  19  ar  
 36  18  20  ar  
 37  19  21  ar  
 38  19  44  1   
 39  20  22  ar  
 40  20  45  1   
 41  21  23  1   
 42  21  24  ar  
 43  22  24  ar  
 44  22  25  1   
 45  23  26  1   
 46  24  27  1   
 47  25  28  1   
 48  26  46  1   
 49  26  47  1   
 50  26  48  1   
 51  27  28  1   
 52  28  49  1   
 53  28  50  1   
@<TRIPOS>SUBSTRUCTURE
  1 ****  14 GROUP 4 **** **** 0

# MOE 2024.06 (io_trps.svl 2023.06)
