@<TRIPOS>MOLECULE
NONAME
50 52 1 0 0 
SMALL
USER_CHARGES


@<TRIPOS>ATOM
  1 S       -0.7230     0.8460     0.2490 S.o2  1 <1>   1.3330 
  2 O        0.6380     1.2430    -0.0160 O.2   1 <1>  -0.6500 
  3 O       -1.4670     1.4710     1.3180 O.2   1 <1>  -0.6500 
  4 N       -0.7160    -0.8590     0.5530 N.am  1 <1>  -0.6930 
  5 C       -1.6410     0.9960    -1.2720 C.3   1 <1>  -0.1350 
  6 C        0.3890    -1.6550     0.2840 C.ar  1 <1>   0.1990 
  7 C       -1.8430    -1.3860     1.3560 C.3   1 <1>   0.3390 
  8 C        1.0020    -2.4000     1.2890 C.ar  1 <1>  -0.1500 
  9 C        0.9150    -1.7450    -1.0010 C.ar  1 <1>  -0.1500 
 10 C       -3.1530    -1.3160     0.5770 C.ar  1 <1>  -0.1430 
 11 C        2.0870    -3.2100     1.0140 C.ar  1 <1>  -0.1500 
 12 C        2.0000    -2.5550    -1.2730 C.ar  1 <1>  -0.1500 
 13 C       -3.4500    -2.1840    -0.4730 C.ar  1 <1>  -0.1430 
 14 C       -4.0770    -0.3430     0.9360 C.ar  1 <1>  -0.1500 
 15 C        2.6180    -3.3050    -0.2730 C.ar  1 <1>   0.0860 
 16 C       -4.6560    -2.0530    -1.1450 C.ar  1 <1>  -0.1500 
 17 C       -2.4910    -3.2800    -0.9200 C.3   1 <1>  -0.0970 
 18 C       -5.2770    -0.2220     0.2620 C.ar  1 <1>  -0.1500 
 19 C        3.7570    -4.1480    -0.5720 C.2   1 <1>   0.5440 
 20 C       -5.5670    -1.0780    -0.7820 C.ar  1 <1>  -0.1500 
 21 O        3.6990    -4.9280    -1.5050 O.2   1 <1>  -0.5700 
 22 N        4.9160    -4.0870     0.1680 N.am  1 <1>  -0.6600 
 23 C        5.3020    -2.9530     1.0380 C.3   1 <1>   0.1400 
 24 C        6.0840    -4.9450    -0.1300 C.3   1 <1>   0.1400 
 25 C        6.8260    -2.9680     1.0390 C.3   1 <1>  -0.1600 
 26 C        7.1960    -4.4250     0.7750 C.3   1 <1>  -0.1600 
 27 H       -1.6790     2.0240    -1.5730 H     1 <1>   0.0800 
 28 H       -2.6440     0.6430    -1.1490 H     1 <1>   0.0800 
 29 H       -1.1710     0.4300    -2.0500 H     1 <1>   0.0800 
 30 H       -1.9220    -0.8210     2.2690 H     1 <1>   0.0800 
 31 H       -1.6560    -2.4080     1.6310 H     1 <1>   0.0800 
 32 H        0.6290    -2.3370     2.2940 H     1 <1>   0.1500 
 33 H        0.4690    -1.1770    -1.7940 H     1 <1>   0.1500 
 34 H        2.5390    -3.7850     1.8040 H     1 <1>   0.1500 
 35 H        2.3870    -2.6180    -2.2750 H     1 <1>   0.1500 
 36 H       -3.8640     0.3370     1.7450 H     1 <1>   0.1500 
 37 H       -4.8980    -2.7140    -1.9590 H     1 <1>   0.1500 
 38 H       -1.6670    -2.8480    -1.4560 H     1 <1>   0.0800 
 39 H       -2.9840    -3.9800    -1.5690 H     1 <1>   0.0800 
 40 H       -2.1120    -3.8260    -0.0760 H     1 <1>   0.0800 
 41 H       -5.9830     0.5380     0.5500 H     1 <1>   0.1500 
 42 H       -6.5000    -0.9880    -1.3100 H     1 <1>   0.1500 
 43 H        4.9290    -3.1280     2.0320 H     1 <1>   0.0800 
 44 H        4.9180    -2.0200     0.6610 H     1 <1>   0.0800 
 45 H        6.3510    -4.8260    -1.1670 H     1 <1>   0.0800 
 46 H        5.8560    -5.9790     0.0660 H     1 <1>   0.0800 
 47 H        7.2300    -2.6030     1.9670 H     1 <1>   0.0800 
 48 H        7.1820    -2.3500     0.2340 H     1 <1>   0.0800 
 49 H        8.1640    -4.5280     0.3170 H     1 <1>   0.0800 
 50 H        7.1830    -4.9800     1.6960 H     1 <1>   0.0800 
@<TRIPOS>BOND
  1   1   2  2   
  2   1   3  2   
  3   1   4  am  
  4   1   5  1   
  5   4   6  1   
  6   4   7  1   
  7   5  27  1   
  8   5  28  1   
  9   5  29  1   
 10   6   8  ar  
 11   6   9  ar  
 12   7  10  1   
 13   7  30  1   
 14   7  31  1   
 15   8  11  ar  
 16   8  32  1   
 17   9  12  ar  
 18   9  33  1   
 19  10  13  ar  
 20  10  14  ar  
 21  11  15  ar  
 22  11  34  1   
 23  12  15  ar  
 24  12  35  1   
 25  13  16  ar  
 26  13  17  1   
 27  14  18  ar  
 28  14  36  1   
 29  15  19  1   
 30  16  20  ar  
 31  16  37  1   
 32  17  38  1   
 33  17  39  1   
 34  17  40  1   
 35  18  20  ar  
 36  18  41  1   
 37  19  21  2   
 38  19  22  am  
 39  20  42  1   
 40  22  23  1   
 41  22  24  1   
 42  23  25  1   
 43  23  43  1   
 44  23  44  1   
 45  24  26  1   
 46  24  45  1   
 47  24  46  1   
 48  25  26  1   
 49  25  47  1   
 50  25  48  1   
 51  26  49  1   
 52  26  50  1   
@<TRIPOS>SUBSTRUCTURE
  1 ****   6 GROUP 4 **** **** 0

# MOE 2024.06 (io_trps.svl 2023.06)
