@<TRIPOS>MOLECULE
NONAME
39 40 1 0 0 
SMALL
USER_CHARGES


@<TRIPOS>ATOM
  1 O       -5.9490     7.7920    -0.3550 O.2   1 <1>  -0.5760 
  2 C       -5.1660     6.9490    -0.0090 C.2   1 <1>   0.6540 
  3 O       -4.0980     6.6270    -0.7390 O.3   1 <1>  -0.4370 
  4 C       -5.3370     6.1800     1.3040 C.3   1 <1>   0.4080 
  5 C       -3.8100     7.2940    -1.9550 C.3   1 <1>   0.0300 
  6 N       -5.8480     4.7740     1.1530 N.pl3 1 <1>  -0.7680 
  7 C       -5.3020     3.7600     0.4830 C.cat 1 <1>   1.0680 
  8 C       -6.9880     4.2840     1.7810 C.ar  1 <1>   0.3010 
  9 N       -4.2100     3.8420    -0.2410 N.pl3 1 <1>  -0.8400 
 10 N       -6.0020     2.6410     0.6410 N.pl3 1 <1>  -0.7680 
 11 C       -7.0780     2.9390     1.4660 C.ar  1 <1>   0.3010 
 12 C       -7.9450     4.8840     2.5940 C.ar  1 <1>  -0.1190 
 13 C       -5.7500     1.3020     0.0660 C.3   1 <1>   0.3460 
 14 C       -8.1160     2.1580     1.9620 C.ar  1 <1>  -0.1190 
 15 C       -8.9790     4.1100     3.0850 C.ar  1 <1>  -0.1600 
 16 C       -4.8890     0.4900     1.0330 C.3   1 <1>  -0.1690 
 17 C       -9.0630     2.7530     2.7730 C.ar  1 <1>  -0.1600 
 18 C       -4.5780    -0.9020     0.4680 C.3   1 <1>  -0.1690 
 19 C       -3.7130    -1.7040     1.4420 C.3   1 <1>  -0.2490 
 20 H       -6.0120     6.7420     1.9230 H     1 <1>   0.0700 
 21 H       -4.3880     6.1540     1.8090 H     1 <1>   0.0700 
 22 H       -3.6850     8.3450    -1.7560 H     1 <1>   0.0700 
 23 H       -4.6280     7.1460    -2.6400 H     1 <1>   0.0700 
 24 H       -2.9040     6.8890    -2.3680 H     1 <1>   0.0700 
 25 H       -3.8060     3.0350    -0.7050 H     1 <1>   0.4430 
 26 H       -3.7660     4.7390    -0.4520 H     1 <1>   0.4430 
 27 H       -7.8900     5.9290     2.8380 H     1 <1>   0.1400 
 28 H       -5.2500     1.3970    -0.8830 H     1 <1>   0.0700 
 29 H       -6.6870     0.7980    -0.1060 H     1 <1>   0.0700 
 30 H       -8.1780     1.1120     1.7210 H     1 <1>   0.1400 
 31 H       -9.7330     4.5520     3.7170 H     1 <1>   0.1400 
 32 H       -5.4110     0.3800     1.9680 H     1 <1>   0.0700 
 33 H       -3.9640     1.0080     1.2160 H     1 <1>   0.0700 
 34 H       -9.8790     2.1690     3.1700 H     1 <1>   0.1400 
 35 H       -4.0570    -0.8130    -0.4710 H     1 <1>   0.0700 
 36 H       -5.4950    -1.4400     0.2920 H     1 <1>   0.0700 
 37 H       -2.7760    -1.2050     1.6180 H     1 <1>   0.0700 
 38 H       -3.5060    -2.6770     1.0330 H     1 <1>   0.0700 
 39 H       -4.2200    -1.8320     2.3820 H     1 <1>   0.0700 
@<TRIPOS>BOND
  1   1   2  2   
  2   2   3  1   
  3   2   4  1   
  4   3   5  1   
  5   4   6  1   
  6   4  20  1   
  7   4  21  1   
  8   5  22  1   
  9   5  23  1   
 10   5  24  1   
 11   6   7  ar  
 12   6   8  1   
 13   7   9  ar  
 14   7  10  ar  
 15   8  11  ar  
 16   8  12  ar  
 17   9  25  1   
 18   9  26  1   
 19  10  11  1   
 20  10  13  1   
 21  11  14  ar  
 22  12  15  ar  
 23  12  27  1   
 24  13  16  1   
 25  13  28  1   
 26  13  29  1   
 27  14  17  ar  
 28  14  30  1   
 29  15  17  ar  
 30  15  31  1   
 31  16  18  1   
 32  16  32  1   
 33  16  33  1   
 34  17  34  1   
 35  18  19  1   
 36  18  35  1   
 37  18  36  1   
 38  19  37  1   
 39  19  38  1   
 40  19  39  1   
@<TRIPOS>SUBSTRUCTURE
  1 ****   7 GROUP 4 **** **** 0

# MOE 2024.06 (io_trps.svl 2023.06)
