@<TRIPOS>MOLECULE
NONAME
37 38 1 0 0 
SMALL
USER_CHARGES


@<TRIPOS>ATOM
  1 O        0.2540     0.2200    -0.4440 O.3   1 <1>  -0.3630 
  2 C        1.3490     1.0240    -0.3490 C.ar  1 <1>   0.0830 
  3 C       -0.6970     0.2090     0.5970 C.3   1 <1>   0.0400 
  4 C        1.3210     2.3560     0.0870 C.ar  1 <1>   0.0830 
  5 C        2.5480     0.4490    -0.7260 C.ar  1 <1>  -0.1500 
  6 O        0.1320     2.9370     0.4170 O.3   1 <1>  -0.3630 
  7 C        2.5210     3.0600     0.1520 C.ar  1 <1>  -0.1500 
  8 C        3.7570     1.1430    -0.6690 C.ar  1 <1>   0.0860 
  9 C        0.0010     4.3340     0.5590 C.3   1 <1>   0.0400 
 10 C        3.7160     2.4670    -0.2180 C.ar  1 <1>  -0.1440 
 11 C        5.0190     0.5220    -1.0300 C.2   1 <1>   0.4140 
 12 C        5.0120     3.2740    -0.1560 C.3   1 <1>  -0.0160 
 13 N        5.1480    -0.7390    -1.2590 N.2   1 <1>  -0.5030 
 14 N        6.1520     1.3380    -1.1020 N.pl3 1 <1>  -0.8190 
 15 C        6.2740     2.3880    -0.0910 C.3   1 <1>   0.3690 
 16 N        6.4020    -1.2970    -1.4550 N.pl3 1 <1>  -0.5690 
 17 C        7.5210     3.1990    -0.4380 C.3   1 <1>  -0.2400 
 18 C        6.4520     1.7400     1.2870 C.3   1 <1>  -0.2400 
 19 H       -1.2140    -0.7330     0.5680 H     1 <1>   0.0800 
 20 H       -1.3960     1.0100     0.4380 H     1 <1>   0.0800 
 21 H       -0.1910     0.3250     1.5390 H     1 <1>   0.0800 
 22 H        2.5450    -0.5700    -1.0690 H     1 <1>   0.1500 
 23 H        2.5390     4.0780     0.4880 H     1 <1>   0.1500 
 24 H       -1.0420     4.5590     0.6890 H     1 <1>   0.0800 
 25 H        0.3690     4.8120    -0.3320 H     1 <1>   0.0800 
 26 H        0.5520     4.6510     1.4260 H     1 <1>   0.0800 
 27 H        4.9970     3.9340     0.6920 H     1 <1>   0.0800 
 28 H        5.0620     3.8830    -1.0410 H     1 <1>   0.0800 
 29 H        6.9590     0.7180    -1.1590 H     1 <1>   0.4000 
 30 H        6.9820    -1.3340    -0.6090 H     1 <1>   0.3110 
 31 H        6.3680    -2.2340    -1.8760 H     1 <1>   0.3110 
 32 H        8.3980     2.5790    -0.3970 H     1 <1>   0.0800 
 33 H        7.6440     4.0090     0.2580 H     1 <1>   0.0800 
 34 H        7.4340     3.6110    -1.4280 H     1 <1>   0.0800 
 35 H        6.6070     2.4980     2.0330 H     1 <1>   0.0800 
 36 H        7.3050     1.0860     1.2880 H     1 <1>   0.0800 
 37 H        5.5810     1.1760     1.5660 H     1 <1>   0.0800 
@<TRIPOS>BOND
  1   1   2  1   
  2   1   3  1   
  3   2   4  ar  
  4   2   5  ar  
  5   3  19  1   
  6   3  20  1   
  7   3  21  1   
  8   4   6  1   
  9   4   7  ar  
 10   5   8  ar  
 11   5  22  1   
 12   6   9  1   
 13   7  10  ar  
 14   7  23  1   
 15   8  10  ar  
 16   8  11  1   
 17   9  24  1   
 18   9  25  1   
 19   9  26  1   
 20  10  12  1   
 21  11  13  2   
 22  11  14  1   
 23  12  15  1   
 24  12  27  1   
 25  12  28  1   
 26  13  16  1   
 27  14  15  1   
 28  14  29  1   
 29  15  17  1   
 30  15  18  1   
 31  16  30  1   
 32  16  31  1   
 33  17  32  1   
 34  17  33  1   
 35  17  34  1   
 36  18  35  1   
 37  18  36  1   
 38  18  37  1   
@<TRIPOS>SUBSTRUCTURE
  1 ****   8 GROUP 4 **** **** 0

# MOE 2024.06 (io_trps.svl 2023.06)
