@<TRIPOS>MOLECULE
NONAME
51 53 1 0 0 
SMALL
USER_CHARGES


@<TRIPOS>ATOM
  1 S        0.3790    -0.0220     1.1000 S.o2  1 <1>   1.4470 
  2 O       -1.0100    -0.3850     1.2750 O.2   1 <1>  -0.6500 
  3 O        1.2910    -0.1410     2.2180 O.2   1 <1>  -0.6500 
  4 N        1.0040    -0.9950    -0.1400 N.am  1 <1>  -0.8490 
  5 C        0.4720     1.6460     0.3900 C.ar  1 <1>  -0.0090 
  6 C        2.4490    -0.8100    -0.3120 C.3   1 <1>   0.1960 
  7 C        0.6800    -2.4080     0.0810 C.3   1 <1>   0.1960 
  8 C        1.3760     2.5870     0.8610 C.ar  1 <1>  -0.1500 
  9 C       -0.3510     2.0140    -0.6650 C.ar  1 <1>  -0.1500 
 10 C        2.9410    -1.5840    -1.5390 C.3   1 <1>  -0.1600 
 11 C        1.1150    -3.2500    -1.1230 C.3   1 <1>  -0.1600 
 12 C        1.4870     3.8680     0.3190 C.ar  1 <1>   0.0860 
 13 C       -0.2710     3.2770    -1.2230 C.ar  1 <1>  -0.1500 
 14 C        2.6080    -3.0760    -1.4240 C.3   1 <1>  -0.1600 
 15 C        0.6380     4.2020    -0.7420 C.ar  1 <1>  -0.1430 
 16 C        2.4740     4.7830     0.8650 C.2   1 <1>   0.5440 
 17 C        0.6970     5.5810    -1.3900 C.3   1 <1>  -0.0970 
 18 O        2.1640     5.8870     1.2650 O.2   1 <1>  -0.5700 
 19 N        3.7820     4.4020     0.9340 N.am  1 <1>  -0.7300 
 20 C        4.9160     5.2390     1.3920 C.3   1 <1>   0.1400 
 21 C        6.0380     5.2220     0.3440 C.3   1 <1>   0.2000 
 22 O        6.3460     3.9110    -0.0210 O.3   1 <1>  -0.5600 
 23 C        7.3590     5.8000     0.8300 C.3   1 <1>  -0.1600 
 24 C        7.6420     3.8380    -0.5280 C.3   1 <1>   0.1200 
 25 C        8.3720     5.0930    -0.0530 C.3   1 <1>  -0.1600 
 26 H        2.9720    -1.1520     0.5670 H     1 <1>   0.0800 
 27 H        2.6710     0.2340    -0.4510 H     1 <1>   0.0800 
 28 H       -0.3830    -2.5230     0.2130 H     1 <1>   0.0800 
 29 H        1.1690    -2.7580     0.9760 H     1 <1>   0.0800 
 30 H        2.0190     2.3240     1.6850 H     1 <1>   0.1500 
 31 H       -1.0610     1.3020    -1.0510 H     1 <1>   0.1500 
 32 H        4.0040    -1.4570    -1.6400 H     1 <1>   0.0800 
 33 H        2.4740    -1.1730    -2.4180 H     1 <1>   0.0800 
 34 H        0.5350    -2.9510    -1.9790 H     1 <1>   0.0800 
 35 H        0.9030    -4.2860    -0.9290 H     1 <1>   0.0800 
 36 H       -0.9280     3.5310    -2.0380 H     1 <1>   0.1500 
 37 H        3.1870    -3.5120    -0.6270 H     1 <1>   0.0800 
 38 H        2.8620    -3.5820    -2.3390 H     1 <1>   0.0800 
 39 H        1.7100     5.8230    -1.6590 H     1 <1>   0.0800 
 40 H        0.3390     6.3230    -0.6990 H     1 <1>   0.0800 
 41 H        0.0930     5.6220    -2.2770 H     1 <1>   0.0800 
 42 H        4.0950     3.5440     0.4690 H     1 <1>   0.3700 
 43 H        5.2840     4.8460     2.3230 H     1 <1>   0.0800 
 44 H        4.5900     6.2510     1.5600 H     1 <1>   0.0800 
 45 H        5.7160     5.7380    -0.5450 H     1 <1>   0.0800 
 46 H        7.5180     5.5340     1.8610 H     1 <1>   0.0800 
 47 H        7.3920     6.8700     0.7270 H     1 <1>   0.0800 
 48 H        7.5850     3.7990    -1.6030 H     1 <1>   0.0800 
 49 H        8.1010     2.9400    -0.1510 H     1 <1>   0.0800 
 50 H        9.2720     4.8470     0.4840 H     1 <1>   0.0800 
 51 H        8.6280     5.7010    -0.9030 H     1 <1>   0.0800 
@<TRIPOS>BOND
  1   1   2  2   
  2   1   3  2   
  3   1   4  am  
  4   1   5  1   
  5   4   6  1   
  6   4   7  1   
  7   5   8  ar  
  8   5   9  ar  
  9   6  10  1   
 10   6  26  1   
 11   6  27  1   
 12   7  11  1   
 13   7  28  1   
 14   7  29  1   
 15   8  12  ar  
 16   8  30  1   
 17   9  13  ar  
 18   9  31  1   
 19  10  14  1   
 20  10  32  1   
 21  10  33  1   
 22  11  14  1   
 23  11  34  1   
 24  11  35  1   
 25  12  15  ar  
 26  12  16  1   
 27  13  15  ar  
 28  13  36  1   
 29  14  37  1   
 30  14  38  1   
 31  15  17  1   
 32  16  18  2   
 33  16  19  am  
 34  17  39  1   
 35  17  40  1   
 36  17  41  1   
 37  19  20  1   
 38  19  42  1   
 39  20  21  1   
 40  20  43  1   
 41  20  44  1   
 42  21  22  1   
 43  21  23  1   
 44  21  45  1   
 45  22  24  1   
 46  23  25  1   
 47  23  46  1   
 48  23  47  1   
 49  24  25  1   
 50  24  48  1   
 51  24  49  1   
 52  25  50  1   
 53  25  51  1   
@<TRIPOS>SUBSTRUCTURE
  1 ****   8 GROUP 4 **** **** 0

# MOE 2024.06 (io_trps.svl 2023.06)
