@<TRIPOS>MOLECULE
ka-03720
33 33 1 0 0 
SMALL
USER_CHARGES


@<TRIPOS>ATOM
  1 O        0.5540     1.8750     1.8490 O.2   1 <1>  -0.5700 
  2 C        0.5580     2.0950     0.6650 C.2   1 <1>   0.6590 
  3 O        1.2200     1.3190    -0.1860 O.3   1 <1>  -0.4300 
  4 C       -0.1960     3.2490     0.0490 C.3   1 <1>   0.0420 
  5 C        1.9640     0.2010     0.2530 C.3   1 <1>   0.0400 
  6 C        0.5650     4.4820     0.4810 C.2   1 <1>   0.6590 
  7 C       -1.7100     3.2530     0.3960 C.3   1 <1>  -0.0800 
  8 O        0.1860     5.2220     1.3530 O.2   1 <1>  -0.5700 
  9 O        1.6930     4.7120    -0.1820 O.3   1 <1>  -0.4300 
 10 C       -2.3750     1.9060     0.0360 C.3   1 <1>  -0.1600 
 11 C       -2.4440     4.4070    -0.3220 C.3   1 <1>  -0.1600 
 12 C        2.5180     5.8200     0.1180 C.3   1 <1>   0.0400 
 13 C       -3.8780     1.9110     0.3450 C.3   1 <1>  -0.1600 
 14 C       -3.9460     4.4090    -0.0090 C.3   1 <1>  -0.1600 
 15 C       -4.5890     3.0650    -0.3690 C.3   1 <1>  -0.1600 
 16 H       -0.1010     3.1710    -1.0170 H     1 <1>   0.0800 
 17 H        1.3000    -0.4850     0.7520 H     1 <1>   0.0800 
 18 H        2.7280     0.5370     0.9330 H     1 <1>   0.0800 
 19 H        2.4110    -0.2710    -0.6030 H     1 <1>   0.0800 
 20 H       -1.8100     3.3990     1.4600 H     1 <1>   0.0800 
 21 H       -1.9220     1.1050     0.5950 H     1 <1>   0.0800 
 22 H       -2.2340     1.7000    -1.0110 H     1 <1>   0.0800 
 23 H       -2.3100     4.3160    -1.3860 H     1 <1>   0.0800 
 24 H       -2.0360     5.3550    -0.0190 H     1 <1>   0.0800 
 25 H        1.9540     6.7250    -0.0320 H     1 <1>   0.0800 
 26 H        3.3700     5.8000    -0.5370 H     1 <1>   0.0800 
 27 H        2.8360     5.7480     1.1440 H     1 <1>   0.0800 
 28 H       -4.0210     2.0090     1.4080 H     1 <1>   0.0800 
 29 H       -4.3130     0.9760     0.0390 H     1 <1>   0.0800 
 30 H       -4.4280     5.1980    -0.5580 H     1 <1>   0.0800 
 31 H       -4.0890     4.6030     1.0410 H     1 <1>   0.0800 
 32 H       -5.6280     3.0770    -0.0890 H     1 <1>   0.0800 
 33 H       -4.5350     2.9160    -1.4340 H     1 <1>   0.0800 
@<TRIPOS>BOND
  1   1   2  2   
  2   2   3  1   
  3   2   4  1   
  4   3   5  1   
  5   4   6  1   
  6   4   7  1   
  7   4  16  1   
  8   5  17  1   
  9   5  18  1   
 10   5  19  1   
 11   6   8  2   
 12   6   9  1   
 13   7  10  1   
 14   7  11  1   
 15   7  20  1   
 16   9  12  1   
 17  10  13  1   
 18  10  21  1   
 19  10  22  1   
 20  11  14  1   
 21  11  23  1   
 22  11  24  1   
 23  12  25  1   
 24  12  26  1   
 25  12  27  1   
 26  13  15  1   
 27  13  28  1   
 28  13  29  1   
 29  14  15  1   
 30  14  30  1   
 31  14  31  1   
 32  15  32  1   
 33  15  33  1   
@<TRIPOS>SUBSTRUCTURE
  1 ****   4 GROUP 4 **** **** 0

# MOE 2024.06 (io_trps.svl 2023.06)
