@<TRIPOS>MOLECULE
NONAME
49 51 1 0 0 
SMALL
USER_CHARGES


@<TRIPOS>ATOM
  1 S       -0.0270     0.3480     0.4760 S.o2  1 <1>   1.5010 
  2 O        0.0150     0.9320     1.7980 O.2   1 <1>  -0.6500 
  3 O       -0.0230     1.1940    -0.6950 O.2   1 <1>  -0.6500 
  4 N        1.3900    -0.5840     0.3720 N.am  1 <1>  -0.8490 
  5 C       -1.3250    -0.8880     0.3670 C.2   1 <1>  -0.0630 
  6 C        2.5630     0.2790     0.1190 C.3   1 <1>   0.1960 
  7 C        1.6200    -1.4080     1.5760 C.3   1 <1>   0.1960 
  8 C       -2.1340    -1.2560     1.4330 C.2   1 <1>   0.1390 
  9 C       -1.7440    -1.6860    -0.6470 C.2   1 <1>  -0.3020 
 10 C        3.9010    -0.5020     0.1100 C.3   1 <1>   0.3430 
 11 C        2.8740    -2.3090     1.4390 C.3   1 <1>   0.3430 
 12 N       -2.9660    -2.2020     1.1260 N.2   1 <1>  -0.7070 
 13 N       -2.7350    -2.4620    -0.1710 N.pl3 1 <1>   0.3140 
 14 N        3.6940    -1.9940     0.2090 N.4   1 <1>  -0.9590 
 15 C       -3.5130    -3.4720    -0.9190 C.3   1 <1>   0.0960 
 16 C        4.9440    -2.8070     0.0800 C.3   1 <1>   0.4230 
 17 C       -2.7100    -4.7660    -1.1050 C.3   1 <1>  -0.2400 
 18 C        5.6610    -2.4720    -1.2420 C.3   1 <1>  -0.1600 
 19 C        4.6060    -4.3090     0.1380 C.3   1 <1>  -0.1600 
 20 C        6.8930    -3.3580    -1.4740 C.3   1 <1>  -0.1600 
 21 C        5.8420    -5.1900    -0.0960 C.3   1 <1>  -0.1600 
 22 C        6.5270    -4.8440    -1.4210 C.3   1 <1>  -0.1600 
 23 H        2.6160     1.0580     0.8630 H     1 <1>   0.0800 
 24 H        2.4470     0.7640    -0.8370 H     1 <1>   0.0800 
 25 H        0.7650    -2.0370     1.7610 H     1 <1>   0.0800 
 26 H        1.7410    -0.7740     2.4400 H     1 <1>   0.0800 
 27 H       -2.0830    -0.8120     2.4150 H     1 <1>   0.1500 
 28 H       -1.3950    -1.7350    -1.6630 H     1 <1>   0.1500 
 29 H        4.5080    -0.1640     0.9330 H     1 <1>   0.0800 
 30 H        4.4230    -0.2560    -0.7990 H     1 <1>   0.0800 
 31 H        2.5440    -3.3330     1.4000 H     1 <1>   0.0800 
 32 H        3.4790    -2.1990     2.3240 H     1 <1>   0.0800 
 33 H        3.0820    -2.2280    -0.5860 H     1 <1>   0.4500 
 34 H       -3.7830    -3.0580    -1.8730 H     1 <1>   0.0800 
 35 H       -4.4140    -3.6760    -0.3690 H     1 <1>   0.0800 
 36 H        5.6090    -2.5750     0.8970 H     1 <1>   0.0800 
 37 H       -1.8160    -4.5780    -1.6730 H     1 <1>   0.0800 
 38 H       -3.3060    -5.4880    -1.6350 H     1 <1>   0.0800 
 39 H       -2.4490    -5.1790    -0.1470 H     1 <1>   0.0800 
 40 H        6.0030    -1.4530    -1.2400 H     1 <1>   0.0800 
 41 H        4.9830    -2.6080    -2.0660 H     1 <1>   0.0800 
 42 H        3.8730    -4.5450    -0.6140 H     1 <1>   0.0800 
 43 H        4.2100    -4.5720     1.1020 H     1 <1>   0.0800 
 44 H        7.6400    -3.1490    -0.7260 H     1 <1>   0.0800 
 45 H        7.3260    -3.1340    -2.4350 H     1 <1>   0.0800 
 46 H        5.5510    -6.2280    -0.1080 H     1 <1>   0.0800 
 47 H        6.5430    -5.0590     0.7120 H     1 <1>   0.0800 
 48 H        7.4190    -5.4380    -1.5310 H     1 <1>   0.0800 
 49 H        5.8730    -5.0860    -2.2420 H     1 <1>   0.0800 
@<TRIPOS>BOND
  1   1   2  2   
  2   1   3  2   
  3   1   4  am  
  4   1   5  1   
  5   4   6  1   
  6   4   7  1   
  7   5   8  1   
  8   5   9  2   
  9   6  10  1   
 10   6  23  1   
 11   6  24  1   
 12   7  11  1   
 13   7  25  1   
 14   7  26  1   
 15   8  12  2   
 16   8  27  1   
 17   9  13  1   
 18   9  28  1   
 19  10  14  1   
 20  10  29  1   
 21  10  30  1   
 22  11  14  1   
 23  11  31  1   
 24  11  32  1   
 25  12  13  1   
 26  13  15  1   
 27  14  16  1   
 28  14  33  1   
 29  15  17  1   
 30  15  34  1   
 31  15  35  1   
 32  16  18  1   
 33  16  19  1   
 34  16  36  1   
 35  17  37  1   
 36  17  38  1   
 37  17  39  1   
 38  18  20  1   
 39  18  40  1   
 40  18  41  1   
 41  19  21  1   
 42  19  42  1   
 43  19  43  1   
 44  20  22  1   
 45  20  44  1   
 46  20  45  1   
 47  21  22  1   
 48  21  46  1   
 49  21  47  1   
 50  22  48  1   
 51  22  49  1   
@<TRIPOS>SUBSTRUCTURE
  1 ****   4 GROUP 4 **** **** 0

# MOE 2024.06 (io_trps.svl 2023.06)
