@<TRIPOS>MOLECULE
NONAME
33 33 1 0 0 
SMALL
USER_CHARGES


@<TRIPOS>ATOM
  1 CL      -0.5450    -0.6270    -1.2460 Cl    1 <1>  -0.1770 
  2 C       -2.1700    -1.0810    -0.8000 C.ar  1 <1>   0.1770 
  3 C       -2.5380    -1.0590     0.5330 C.ar  1 <1>  -0.1500 
  4 C       -3.0640    -1.4550    -1.7860 C.ar  1 <1>  -0.1500 
  5 C       -3.8270    -1.4190     0.8900 C.ar  1 <1>  -0.1500 
  6 C       -4.3520    -1.8140    -1.4270 C.ar  1 <1>  -0.1500 
  7 C       -4.7410    -1.7980    -0.0940 C.ar  1 <1>   0.0830 
  8 O       -6.0200    -2.1610     0.1680 O.3   1 <1>  -0.3630 
  9 C       -6.5360    -2.1340     1.4940 C.3   1 <1>   0.1810 
 10 C       -8.0030    -2.5350     1.5230 C.2   1 <1>   0.5690 
 11 O       -8.5130    -2.7780     2.5970 O.2   1 <1>  -0.5700 
 12 N       -8.6940    -2.6160     0.3540 N.am  1 <1>  -0.4300 
 13 N      -10.1520    -2.7350     0.2350 N.am  1 <1>  -0.4300 
 14 C      -11.0030    -1.6880     0.0770 C.2   1 <1>   0.5690 
 15 O      -10.6170    -0.5650    -0.1640 O.2   1 <1>  -0.5700 
 16 C      -12.4950    -1.9390     0.1890 C.3   1 <1>  -0.0990 
 17 C      -13.0760    -2.5680    -1.0880 C.3   1 <1>  -0.1600 
 18 C      -14.5820    -2.8120    -0.9520 C.3   1 <1>  -0.2400 
 19 H       -1.8200    -0.7640     1.2770 H     1 <1>   0.1500 
 20 H       -2.7540    -1.4640    -2.8150 H     1 <1>   0.1500 
 21 H       -4.0930    -1.3960     1.9300 H     1 <1>   0.1500 
 22 H       -5.0620    -2.1070    -2.1800 H     1 <1>   0.1500 
 23 H       -6.4380    -1.1360     1.8790 H     1 <1>   0.0800 
 24 H       -5.9680    -2.8210     2.0950 H     1 <1>   0.0800 
 25 H       -8.1820    -2.4020    -0.5110 H     1 <1>   0.3700 
 26 H      -10.5380    -3.6630     0.4290 H     1 <1>   0.3700 
 27 H      -12.9820    -1.0000     0.3800 H     1 <1>   0.0800 
 28 H      -12.6770    -2.5790     1.0330 H     1 <1>   0.0800 
 29 H      -12.5820    -3.5020    -1.2940 H     1 <1>   0.0800 
 30 H      -12.8960    -1.9080    -1.9200 H     1 <1>   0.0800 
 31 H      -14.7850    -3.4860    -0.1380 H     1 <1>   0.0800 
 32 H      -14.9670    -3.2460    -1.8580 H     1 <1>   0.0800 
 33 H      -15.0990    -1.8850    -0.7730 H     1 <1>   0.0800 
@<TRIPOS>BOND
  1   1   2  1   
  2   2   3  ar  
  3   2   4  ar  
  4   3   5  ar  
  5   3  19  1   
  6   4   6  ar  
  7   4  20  1   
  8   5   7  ar  
  9   5  21  1   
 10   6   7  ar  
 11   6  22  1   
 12   7   8  1   
 13   8   9  1   
 14   9  10  1   
 15   9  23  1   
 16   9  24  1   
 17  10  11  2   
 18  10  12  am  
 19  12  13  1   
 20  12  25  1   
 21  13  14  am  
 22  13  26  1   
 23  14  15  2   
 24  14  16  1   
 25  16  17  1   
 26  16  27  1   
 27  16  28  1   
 28  17  18  1   
 29  17  29  1   
 30  17  30  1   
 31  18  31  1   
 32  18  32  1   
 33  18  33  1   
@<TRIPOS>SUBSTRUCTURE
  1 ****   8 GROUP 4 **** **** 0

# MOE 2024.06 (io_trps.svl 2023.06)
