@<TRIPOS>MOLECULE
NONAME
42 44 1 0 0 
SMALL
USER_CHARGES


@<TRIPOS>ATOM
  1 O        0.3260     1.2720    -0.1230 O.co2 1 <1>  -0.9000 
  2 C        0.0680     2.0510     0.8020 C.2   1 <1>   0.9060 
  3 O        0.6350     1.9640     1.8940 O.co2 1 <1>  -0.9000 
  4 C       -1.0190     3.1010     0.6120 C.3   1 <1>  -0.1860 
  5 C       -2.6010     2.5120     0.5860 C.3   1 <1>  -0.0190 
  6 C       -0.7990     3.9830    -0.7560 C.3   1 <1>  -0.0800 
  7 C       -2.8580     1.0490     0.9720 C.2   1 <1>   0.5690 
  8 C       -3.2420     2.8980    -0.8730 C.3   1 <1>  -0.0800 
  9 C       -2.0290     3.4630    -0.8050 C.3   1 <1>  -0.1600 
 10 C       -1.4670     4.3950    -2.1910 C.3   1 <1>  -0.1600 
 11 O       -3.8060     0.8040     1.6830 O.2   1 <1>  -0.5700 
 12 N       -2.0750     0.0550     0.4950 N.am  1 <1>  -0.7300 
 13 C       -3.0340     3.8120    -2.2110 C.3   1 <1>  -0.1600 
 14 C       -2.1390    -1.3420     0.9500 C.3   1 <1>   0.2840 
 15 C       -1.5320    -2.2530    -0.1040 C.ar  1 <1>  -0.1440 
 16 C       -0.2820    -2.8480     0.0620 C.ar  1 <1>   0.0820 
 17 C       -2.2510    -2.5130    -1.2610 C.ar  1 <1>  -0.1500 
 18 O        0.4800    -2.6300     1.1560 O.3   1 <1>  -0.3630 
 19 C        0.2160    -3.7060    -0.9060 C.ar  1 <1>  -0.1500 
 20 C       -1.7480    -3.3640    -2.2310 C.ar  1 <1>  -0.1500 
 21 C        1.1200    -1.3690     1.2390 C.3   1 <1>   0.0400 
 22 C       -0.5140    -3.9650    -2.0520 C.ar  1 <1>  -0.1500 
 23 H       -0.9260     3.7510     1.4650 H     1 <1>   0.0800 
 24 H       -3.1420     3.0770     1.3320 H     1 <1>   0.0800 
 25 H       -0.6080     4.9600    -0.3340 H     1 <1>   0.0800 
 26 H       -3.3830     1.9190    -1.3150 H     1 <1>   0.0800 
 27 H       -1.5790     2.5010    -1.3140 H     1 <1>   0.0800 
 28 H       -2.4640     4.4220    -0.2850 H     1 <1>   0.0800 
 29 H       -0.8970     3.9520    -2.9940 H     1 <1>   0.0800 
 30 H       -1.4560     5.4630    -2.3330 H     1 <1>   0.0800 
 31 H       -1.1650     0.3170     0.0590 H     1 <1>   0.3700 
 32 H       -3.7370     4.6320    -2.2130 H     1 <1>   0.0800 
 33 H       -3.2070     3.2310    -3.1030 H     1 <1>   0.0800 
 34 H       -3.1660    -1.6160     1.1180 H     1 <1>   0.0800 
 35 H       -1.6170    -1.4330     1.8860 H     1 <1>   0.0800 
 36 H       -3.2090    -2.0450    -1.4050 H     1 <1>   0.1500 
 37 H        1.1770    -4.1600    -0.7530 H     1 <1>   0.1500 
 38 H       -2.3160    -3.5540    -3.1240 H     1 <1>   0.1500 
 39 H        1.9740    -1.4570     1.8830 H     1 <1>   0.0800 
 40 H        0.4400    -0.6460     1.6500 H     1 <1>   0.0800 
 41 H        1.4300    -1.0550     0.2570 H     1 <1>   0.0800 
 42 H       -0.1210    -4.6260    -2.8030 H     1 <1>   0.1500 
@<TRIPOS>BOND
  1   1   2  ar  
  2   2   3  ar  
  3   2   4  1   
  4   4   5  1   
  5   4   6  1   
  6   4  23  1   
  7   5   7  1   
  8   5   8  1   
  9   5  24  1   
 10   6   9  1   
 11   6  10  1   
 12   6  25  1   
 13   7  11  2   
 14   7  12  am  
 15   8   9  1   
 16   8  13  1   
 17   8  26  1   
 18   9  27  1   
 19   9  28  1   
 20  10  13  1   
 21  10  29  1   
 22  10  30  1   
 23  12  14  1   
 24  12  31  1   
 25  13  32  1   
 26  13  33  1   
 27  14  15  1   
 28  14  34  1   
 29  14  35  1   
 30  15  16  ar  
 31  15  17  ar  
 32  16  18  1   
 33  16  19  ar  
 34  17  20  ar  
 35  17  36  1   
 36  18  21  1   
 37  19  22  ar  
 38  19  37  1   
 39  20  22  ar  
 40  20  38  1   
 41  21  39  1   
 42  21  40  1   
 43  21  41  1   
 44  22  42  1   
@<TRIPOS>SUBSTRUCTURE
  1 ****  12 GROUP 4 **** **** 0

# MOE 2024.06 (io_trps.svl 2023.06)
