@<TRIPOS>MOLECULE
NONAME
44 44 1 0 0 
SMALL
USER_CHARGES


@<TRIPOS>ATOM
  1 S        0.0670     0.4340    -0.3470 S.3   1 <1>  -0.3320 
  2 C       -1.2630    -0.7720    -0.1920 C.ar  1 <1>   0.1020 
  3 C        1.5840    -0.3610     0.3430 C.3   1 <1>   0.0700 
  4 C       -1.0710    -2.0120     0.3980 C.ar  1 <1>  -0.1500 
  5 C       -2.5010    -0.4080    -0.6910 C.ar  1 <1>  -0.1500 
  6 C        2.7370     0.6320     0.2170 C.3   1 <1>  -0.0990 
  7 C       -2.1370    -2.8940     0.4830 C.ar  1 <1>  -0.1500 
  8 C       -3.5620    -1.2930    -0.6030 C.ar  1 <1>  -0.1500 
  9 C        4.0240    -0.0150     0.6650 C.2   1 <1>   0.5690 
 10 C       -3.3790    -2.5350    -0.0160 C.ar  1 <1>  -0.1500 
 11 O        4.1610    -0.2850     1.8320 O.2   1 <1>  -0.5700 
 12 N        4.9690    -0.2890    -0.2670 N.am  1 <1>  -0.7300 
 13 C        6.2600    -0.9700    -0.0030 C.3   1 <1>   0.2200 
 14 C        7.4150    -0.0190    -0.4260 C.3   1 <1>  -0.0800 
 15 C        6.3030    -2.3680    -0.6980 C.3   1 <1>  -0.0800 
 16 C        8.8110    -0.6030    -0.1470 C.3   1 <1>  -0.2400 
 17 C        7.3250     1.3460     0.2830 C.3   1 <1>  -0.2400 
 18 C        4.9380    -2.9170    -1.1630 C.3   1 <1>  -0.2400 
 19 C        6.9230    -3.4180     0.2410 C.3   1 <1>  -0.2400 
 20 H        1.7690    -1.2540    -0.2280 H     1 <1>   0.0800 
 21 H        1.3900    -0.6030     1.3740 H     1 <1>   0.0800 
 22 H       -0.1180    -2.3050     0.7910 H     1 <1>   0.1500 
 23 H       -2.6290     0.5580    -1.1440 H     1 <1>   0.1500 
 24 H        2.5460     1.4880     0.8380 H     1 <1>   0.0800 
 25 H        2.8260     0.9600    -0.8020 H     1 <1>   0.0800 
 26 H       -2.0010    -3.8590     0.9390 H     1 <1>   0.1500 
 27 H       -4.5280    -1.0160    -0.9890 H     1 <1>   0.1500 
 28 H       -4.2040    -3.2220     0.0520 H     1 <1>   0.1500 
 29 H        4.8050    -0.0570    -1.2440 H     1 <1>   0.3700 
 30 H        6.3360    -1.1230     1.0620 H     1 <1>   0.0800 
 31 H        7.3410     0.1490    -1.4870 H     1 <1>   0.0800 
 32 H        6.9280    -2.2960    -1.5720 H     1 <1>   0.0800 
 33 H        8.9170    -0.8430     0.8960 H     1 <1>   0.0800 
 34 H        9.5740     0.1080    -0.4110 H     1 <1>   0.0800 
 35 H        8.9840    -1.4900    -0.7290 H     1 <1>   0.0800 
 36 H        7.3370     1.2130     1.3510 H     1 <1>   0.0800 
 37 H        6.4210     1.8630     0.0170 H     1 <1>   0.0800 
 38 H        8.1540     1.9730     0.0060 H     1 <1>   0.0800 
 39 H        4.2560    -2.9820    -0.3330 H     1 <1>   0.0800 
 40 H        5.0540    -3.8990    -1.5860 H     1 <1>   0.0800 
 41 H        4.5090    -2.2860    -1.9200 H     1 <1>   0.0800 
 42 H        6.2990    -3.5590     1.1060 H     1 <1>   0.0800 
 43 H        7.8980    -3.1180     0.5770 H     1 <1>   0.0800 
 44 H        7.0230    -4.3630    -0.2650 H     1 <1>   0.0800 
@<TRIPOS>BOND
  1   1   2  1   
  2   1   3  1   
  3   2   4  ar  
  4   2   5  ar  
  5   3   6  1   
  6   3  20  1   
  7   3  21  1   
  8   4   7  ar  
  9   4  22  1   
 10   5   8  ar  
 11   5  23  1   
 12   6   9  1   
 13   6  24  1   
 14   6  25  1   
 15   7  10  ar  
 16   7  26  1   
 17   8  10  ar  
 18   8  27  1   
 19   9  11  2   
 20   9  12  am  
 21  10  28  1   
 22  12  13  1   
 23  12  29  1   
 24  13  14  1   
 25  13  15  1   
 26  13  30  1   
 27  14  16  1   
 28  14  17  1   
 29  14  31  1   
 30  15  18  1   
 31  15  19  1   
 32  15  32  1   
 33  16  33  1   
 34  16  34  1   
 35  16  35  1   
 36  17  36  1   
 37  17  37  1   
 38  17  38  1   
 39  18  39  1   
 40  18  40  1   
 41  18  41  1   
 42  19  42  1   
 43  19  43  1   
 44  19  44  1   
@<TRIPOS>SUBSTRUCTURE
  1 ****   3 GROUP 4 **** **** 0

# MOE 2024.06 (io_trps.svl 2023.06)
