@<TRIPOS>MOLECULE
NONAME
49 53 1 0 0 
SMALL
USER_CHARGES


@<TRIPOS>ATOM
  1 S       -0.8260    -0.7670     0.2090 S.3   1 <1>  -0.0800 
  2 C        0.6410     0.1950     0.1560 C.2   1 <1>  -0.0360 
  3 C       -1.7980     0.6890     0.0990 C.2   1 <1>  -0.1400 
  4 N        1.9320    -0.3230     0.2110 N.pl3 1 <1>   0.3790 
  5 C        0.3830     1.5260     0.0570 C.2   1 <1>  -0.0860 
  6 C       -1.0330     1.7850     0.0170 C.2   1 <1>  -0.1810 
  7 C       -3.3120     0.6450     0.0980 C.3   1 <1>   0.3000 
  8 C        2.5690    -1.5050     0.2930 C.2   1 <1>   0.2420 
  9 C        2.9820     0.5360     0.1670 C.2   1 <1>   0.2500 
 10 C        1.4880     2.4570     0.0120 C.2   1 <1>   0.7160 
 11 C       -1.7100     3.1410    -0.0910 C.3   1 <1>   0.0210 
 12 O       -3.8150     1.9530     0.2410 O.3   1 <1>  -0.5600 
 13 S        1.7080    -3.0830     0.3800 S.3   1 <1>  -0.2860 
 14 N        3.8500    -1.4020     0.3010 N.2   1 <1>  -0.3380 
 15 N        4.1200    -0.0920     0.2220 N.2   1 <1>  -0.3380 
 16 N        2.7860     1.9400     0.0720 N.am  1 <1>  -0.2410 
 17 O        1.2960     3.6580    -0.0760 O.2   1 <1>  -0.5700 
 18 C       -3.2060     2.9930    -0.4840 C.3   1 <1>   0.2800 
 19 C        3.0750    -4.3210     0.4810 C.3   1 <1>  -0.0100 
 20 C        3.9090     2.7960     0.0390 C.ar  1 <1>   0.1170 
 21 C       -3.3870     2.7260    -1.9870 C.3   1 <1>  -0.2400 
 22 C       -3.9790     4.2580    -0.1080 C.3   1 <1>  -0.2400 
 23 C        4.1490     3.6960     1.0720 C.ar  1 <1>  -0.1500 
 24 C        4.8010     2.7550    -1.0280 C.ar  1 <1>  -0.1500 
 25 C        5.2510     4.5310     1.0390 C.ar  1 <1>  -0.1500 
 26 C        5.9050     3.5880    -1.0650 C.ar  1 <1>  -0.1500 
 27 C        6.1360     4.4850    -0.0250 C.ar  1 <1>   0.0820 
 28 O        7.1930     5.3370     0.0210 O.3   1 <1>  -0.3630 
 29 C        8.1620     5.3490    -1.0030 C.3   1 <1>   0.0400 
 30 H       -3.6750     0.0630     0.9270 H     1 <1>   0.0800 
 31 H       -3.6850     0.2270    -0.8200 H     1 <1>   0.0800 
 32 H       -1.2120     3.7490    -0.8250 H     1 <1>   0.0800 
 33 H       -1.6270     3.6420     0.8560 H     1 <1>   0.0800 
 34 H        3.6520    -4.1030     1.3620 H     1 <1>   0.0800 
 35 H        3.6770    -4.2210    -0.4040 H     1 <1>   0.0800 
 36 H        2.6320    -5.2990     0.5400 H     1 <1>   0.0800 
 37 H       -2.7990     1.8860    -2.3080 H     1 <1>   0.0800 
 38 H       -3.0650     3.5820    -2.5520 H     1 <1>   0.0800 
 39 H       -4.4230     2.5440    -2.2110 H     1 <1>   0.0800 
 40 H       -3.9160     4.4310     0.9510 H     1 <1>   0.0800 
 41 H       -5.0140     4.1570    -0.3820 H     1 <1>   0.0800 
 42 H       -3.5720     5.1120    -0.6190 H     1 <1>   0.0800 
 43 H        3.4690     3.7460     1.9040 H     1 <1>   0.1500 
 44 H        4.6320     2.0610    -1.8310 H     1 <1>   0.1500 
 45 H        5.4320     5.2260     1.8390 H     1 <1>   0.1500 
 46 H        6.5710     3.5240    -1.9040 H     1 <1>   0.1500 
 47 H        8.9020     6.0880    -0.7540 H     1 <1>   0.0800 
 48 H        7.6860     5.6080    -1.9320 H     1 <1>   0.0800 
 49 H        8.6210     4.3780    -1.0610 H     1 <1>   0.0800 
@<TRIPOS>BOND
  1   1   2  1   
  2   1   3  1   
  3   2   4  1   
  4   2   5  2   
  5   3   6  2   
  6   3   7  1   
  7   4   8  1   
  8   4   9  1   
  9   5   6  1   
 10   5  10  1   
 11   6  11  1   
 12   7  12  1   
 13   7  30  1   
 14   7  31  1   
 15   8  13  1   
 16   8  14  2   
 17   9  15  2   
 18   9  16  1   
 19  10  16  am  
 20  10  17  2   
 21  11  18  1   
 22  11  32  1   
 23  11  33  1   
 24  12  18  1   
 25  13  19  1   
 26  14  15  1   
 27  16  20  1   
 28  18  21  1   
 29  18  22  1   
 30  19  34  1   
 31  19  35  1   
 32  19  36  1   
 33  20  23  ar  
 34  20  24  ar  
 35  21  37  1   
 36  21  38  1   
 37  21  39  1   
 38  22  40  1   
 39  22  41  1   
 40  22  42  1   
 41  23  25  ar  
 42  23  43  1   
 43  24  26  ar  
 44  24  44  1   
 45  25  27  ar  
 46  25  45  1   
 47  26  27  ar  
 48  26  46  1   
 49  27  28  1   
 50  28  29  1   
 51  29  47  1   
 52  29  48  1   
 53  29  49  1   
@<TRIPOS>SUBSTRUCTURE
  1 ****  10 GROUP 4 **** **** 0

# MOE 2024.06 (io_trps.svl 2023.06)
