@<TRIPOS>MOLECULE
NONAME
60 62 1 0 0 
SMALL
USER_CHARGES


@<TRIPOS>ATOM
  1 O        0.8250    -0.7450    -0.6980 O.2   1 <1>  -0.5700 
  2 C        1.7110    -1.2170    -0.0350 C.2   1 <1>   0.5690 
  3 N        2.8820    -0.5550     0.0800 N.am  1 <1>  -0.7300 
  4 C        1.4650    -2.5660     0.6470 C.3   1 <1>  -0.0190 
  5 C        4.1470    -0.9470     0.7230 C.3   1 <1>   0.2840 
  6 C        1.3710    -3.6870    -0.4060 C.3   1 <1>  -0.1600 
  7 C        0.1760    -2.5230     1.4930 C.3   1 <1>  -0.1600 
  8 C        5.2360    -0.0200     0.2220 C.ar  1 <1>  -0.1440 
  9 C        0.9760    -5.0290     0.2060 C.3   1 <1>   0.3430 
 10 C       -0.1850    -3.8900     2.0680 C.3   1 <1>   0.3430 
 11 C        5.6660     1.0440     1.0010 C.ar  1 <1>  -0.1500 
 12 C        5.8110    -0.2250    -1.0240 C.ar  1 <1>  -0.1500 
 13 N       -0.3000    -4.8780     0.9630 N.4   1 <1>  -0.9590 
 14 C        6.6610     1.8870     0.5400 C.ar  1 <1>  -0.1500 
 15 C        6.8060     0.6180    -1.4870 C.ar  1 <1>  -0.1500 
 16 C       -0.7830    -6.1960     1.4610 C.3   1 <1>   0.4860 
 17 C        7.2380     1.6830    -0.7020 C.ar  1 <1>   0.0830 
 18 C       -1.1550    -7.0680     0.2800 C.ar  1 <1>  -0.1430 
 19 O        8.2070     2.5550    -1.0770 O.3   1 <1>  -0.3620 
 20 C       -0.2640    -8.0360    -0.1720 C.ar  1 <1>   0.0830 
 21 C       -2.3810    -6.9090    -0.3480 C.ar  1 <1>  -0.1500 
 22 C        8.8540     2.4410    -2.3240 C.3   1 <1>   0.0400 
 23 O        0.9240    -8.1340     0.4830 O.3   1 <1>  -0.3630 
 24 C       -0.6040    -8.8400    -1.2560 C.ar  1 <1>  -0.1500 
 25 C       -2.7130    -7.7090    -1.4250 C.ar  1 <1>  -0.1500 
 26 C        1.7970    -9.2230     0.2570 C.3   1 <1>   0.0400 
 27 C       -1.8330    -8.6750    -1.8840 C.ar  1 <1>   0.0830 
 28 O       -2.2460    -9.4100    -2.9460 O.3   1 <1>  -0.3620 
 29 C       -1.4670   -10.4620    -3.4710 C.3   1 <1>   0.0400 
 30 H        2.9410     0.3390    -0.4180 H     1 <1>   0.3700 
 31 H        2.2850    -2.7850     1.3060 H     1 <1>   0.0800 
 32 H        4.3900    -1.9650     0.4720 H     1 <1>   0.0800 
 33 H        4.0500    -0.8630     1.7920 H     1 <1>   0.0800 
 34 H        2.3210    -3.7920    -0.9010 H     1 <1>   0.0800 
 35 H        0.6490    -3.4210    -1.1600 H     1 <1>   0.0800 
 36 H       -0.6470    -2.1700     0.8960 H     1 <1>   0.0800 
 37 H        0.3040    -1.8230     2.3000 H     1 <1>   0.0800 
 38 H        1.7540    -5.3780     0.8650 H     1 <1>   0.0800 
 39 H        0.8550    -5.7550    -0.5830 H     1 <1>   0.0800 
 40 H       -1.1210    -3.8180     2.6000 H     1 <1>   0.0800 
 41 H        0.5780    -4.2050     2.7620 H     1 <1>   0.0800 
 42 H        5.2300     1.2260     1.9680 H     1 <1>   0.1500 
 43 H        5.4830    -1.0420    -1.6430 H     1 <1>   0.1500 
 44 H       -1.0030    -4.5420     0.2920 H     1 <1>   0.4500 
 45 H        6.9970     2.7130     1.1410 H     1 <1>   0.1500 
 46 H        7.2310     0.4330    -2.4550 H     1 <1>   0.1500 
 47 H       -1.6520    -6.0620     2.0830 H     1 <1>   0.0800 
 48 H       -0.0170    -6.6780     2.0480 H     1 <1>   0.0800 
 49 H       -3.0910    -6.1730    -0.0110 H     1 <1>   0.1500 
 50 H        9.5730     3.2360    -2.4010 H     1 <1>   0.0800 
 51 H        8.1220     2.5320    -3.1070 H     1 <1>   0.0800 
 52 H        9.3550     1.4900    -2.3710 H     1 <1>   0.0800 
 53 H        0.0770    -9.5860    -1.6130 H     1 <1>   0.1500 
 54 H       -3.6630    -7.5960    -1.9200 H     1 <1>   0.1500 
 55 H        2.1660    -9.1760    -0.7530 H     1 <1>   0.0800 
 56 H        1.2630   -10.1430     0.4270 H     1 <1>   0.0800 
 57 H        2.6180    -9.1480     0.9470 H     1 <1>   0.0800 
 58 H       -2.0120   -10.9050    -4.2860 H     1 <1>   0.0800 
 59 H       -1.3030   -11.1950    -2.7020 H     1 <1>   0.0800 
 60 H       -0.5360   -10.0620    -3.8320 H     1 <1>   0.0800 
@<TRIPOS>BOND
  1   1   2  2   
  2   2   3  am  
  3   2   4  1   
  4   3   5  1   
  5   3  30  1   
  6   4   6  1   
  7   4   7  1   
  8   4  31  1   
  9   5   8  1   
 10   5  32  1   
 11   5  33  1   
 12   6   9  1   
 13   6  34  1   
 14   6  35  1   
 15   7  10  1   
 16   7  36  1   
 17   7  37  1   
 18   8  11  ar  
 19   8  12  ar  
 20   9  13  1   
 21   9  38  1   
 22   9  39  1   
 23  10  13  1   
 24  10  40  1   
 25  10  41  1   
 26  11  14  ar  
 27  11  42  1   
 28  12  15  ar  
 29  12  43  1   
 30  13  16  1   
 31  13  44  1   
 32  14  17  ar  
 33  14  45  1   
 34  15  17  ar  
 35  15  46  1   
 36  16  18  1   
 37  16  47  1   
 38  16  48  1   
 39  17  19  1   
 40  18  20  ar  
 41  18  21  ar  
 42  19  22  1   
 43  20  23  1   
 44  20  24  ar  
 45  21  25  ar  
 46  21  49  1   
 47  22  50  1   
 48  22  51  1   
 49  22  52  1   
 50  23  26  1   
 51  24  27  ar  
 52  24  53  1   
 53  25  27  ar  
 54  25  54  1   
 55  26  55  1   
 56  26  56  1   
 57  26  57  1   
 58  27  28  1   
 59  28  29  1   
 60  29  58  1   
 61  29  59  1   
 62  29  60  1   
@<TRIPOS>SUBSTRUCTURE
  1 ****   6 GROUP 4 **** **** 0

# MOE 2024.06 (io_trps.svl 2023.06)
