@<TRIPOS>MOLECULE
NONAME
47 48 1 0 0 
SMALL
USER_CHARGES


@<TRIPOS>ATOM
  1 S       -0.2230     0.0150     0.6480 S.o2  1 <1>   1.3330 
  2 O       -1.6510    -0.1540     0.7710 O.2   1 <1>  -0.6500 
  3 O        0.6790    -0.4950     1.6510 O.2   1 <1>  -0.6500 
  4 N        0.0780     1.7090     0.4610 N.am  1 <1>  -0.6930 
  5 C        0.2680    -0.6130    -0.9430 C.3   1 <1>  -0.1350 
  6 C        1.3670     2.2110     0.3470 C.ar  1 <1>   0.1990 
  7 C       -1.1290     2.5510     0.2890 C.3   1 <1>   0.3340 
  8 C        1.8070     2.8130    -0.8270 C.ar  1 <1>  -0.1500 
  9 C        2.2620     2.1260     1.4070 C.ar  1 <1>  -0.1500 
 10 C       -0.8020     4.0330     0.3660 C.2   1 <1>  -0.2880 
 11 C        3.0920     3.3060    -0.9360 C.ar  1 <1>  -0.1500 
 12 C        3.5470     2.6220     1.2980 C.ar  1 <1>  -0.1500 
 13 C       -1.0180     4.9320    -0.6000 C.2   1 <1>  -0.3000 
 14 C        4.0030     3.2230     0.1210 C.ar  1 <1>   0.0860 
 15 C        5.3530     3.7450    -0.0080 C.2   1 <1>   0.5440 
 16 O        5.6720     4.4580    -0.9420 O.2   1 <1>  -0.5700 
 17 N        6.3520     3.4220     0.8810 N.am  1 <1>  -0.6600 
 18 C        6.9210     2.0470     0.8220 C.3   1 <1>   0.1400 
 19 C        7.3660     4.4670     1.2070 C.3   1 <1>   0.1400 
 20 C        8.0940     2.0000    -0.1840 C.3   1 <1>   0.3430 
 21 C        8.5220     4.4220     0.1890 C.3   1 <1>   0.3430 
 22 N        9.1430     3.0480     0.0980 N.4   1 <1>  -0.9590 
 23 C       10.2050     3.0270    -0.9530 C.3   1 <1>   0.2630 
 24 H        0.1200    -1.6740    -0.9790 H     1 <1>   0.0800 
 25 H        1.3050    -0.4050    -1.1190 H     1 <1>   0.0800 
 26 H       -0.3150    -0.1570    -1.7180 H     1 <1>   0.0800 
 27 H       -1.8350     2.3190     1.0690 H     1 <1>   0.0800 
 28 H       -1.5880     2.3220    -0.6560 H     1 <1>   0.0800 
 29 H        1.1280     2.8980    -1.6550 H     1 <1>   0.1500 
 30 H        1.9360     1.6690     2.3250 H     1 <1>   0.1500 
 31 H       -0.3610     4.2970     1.3130 H     1 <1>   0.1500 
 32 H        3.4000     3.7730    -1.8560 H     1 <1>   0.1500 
 33 H        4.2030     2.5470     2.1460 H     1 <1>   0.1500 
 34 H       -0.7710     5.9770    -0.5100 H     1 <1>   0.1500 
 35 H       -1.4550     4.7080    -1.5580 H     1 <1>   0.1500 
 36 H        6.1610     1.3500     0.5130 H     1 <1>   0.0800 
 37 H        7.2590     1.7530     1.8010 H     1 <1>   0.0800 
 38 H        7.7370     4.3150     2.2050 H     1 <1>   0.0800 
 39 H        6.9020     5.4390     1.1720 H     1 <1>   0.0800 
 40 H        7.6910     2.1570    -1.1720 H     1 <1>   0.0800 
 41 H        8.5390     1.0190    -0.1610 H     1 <1>   0.0800 
 42 H        9.2690     5.1470     0.4680 H     1 <1>   0.0800 
 43 H        8.1270     4.7070    -0.7730 H     1 <1>   0.0800 
 44 H        9.5700     2.8360     1.0100 H     1 <1>   0.4500 
 45 H        9.7810     3.2560    -1.9180 H     1 <1>   0.0800 
 46 H       10.6670     2.0540    -1.0010 H     1 <1>   0.0800 
 47 H       10.9670     3.7580    -0.7310 H     1 <1>   0.0800 
@<TRIPOS>BOND
  1   1   2  2   
  2   1   3  2   
  3   1   4  am  
  4   1   5  1   
  5   4   6  1   
  6   4   7  1   
  7   5  24  1   
  8   5  25  1   
  9   5  26  1   
 10   6   8  ar  
 11   6   9  ar  
 12   7  10  1   
 13   7  27  1   
 14   7  28  1   
 15   8  11  ar  
 16   8  29  1   
 17   9  12  ar  
 18   9  30  1   
 19  10  13  2   
 20  10  31  1   
 21  11  14  ar  
 22  11  32  1   
 23  12  14  ar  
 24  12  33  1   
 25  13  34  1   
 26  13  35  1   
 27  14  15  1   
 28  15  16  2   
 29  15  17  am  
 30  17  18  1   
 31  17  19  1   
 32  18  20  1   
 33  18  36  1   
 34  18  37  1   
 35  19  21  1   
 36  19  38  1   
 37  19  39  1   
 38  20  22  1   
 39  20  40  1   
 40  20  41  1   
 41  21  22  1   
 42  21  42  1   
 43  21  43  1   
 44  22  23  1   
 45  22  44  1   
 46  23  45  1   
 47  23  46  1   
 48  23  47  1   
@<TRIPOS>SUBSTRUCTURE
  1 ****  14 GROUP 4 **** **** 0

# MOE 2024.06 (io_trps.svl 2023.06)
