@<TRIPOS>MOLECULE
NONAME
53 56 1 0 0 
SMALL
USER_CHARGES


@<TRIPOS>ATOM
  1 O       -0.4040     0.1880    -1.0100 O.2   1 <1>  -0.5700 
  2 C       -0.7010     0.8900    -0.0630 C.2   1 <1>   0.5440 
  3 N       -1.8250     0.5830     0.6530 N.am  1 <1>  -0.7300 
  4 C        0.1240     2.0230     0.3120 C.ar  1 <1>   0.0860 
  5 C       -2.8280    -0.4510     0.2940 C.3   1 <1>   0.1400 
  6 C        1.4940     2.0320     0.0480 C.ar  1 <1>  -0.1500 
  7 C       -0.4100     3.1490     0.9460 C.ar  1 <1>  -0.1500 
  8 C       -4.2610     0.1220     0.2570 C.3   1 <1>   0.0000 
  9 C        2.3000     3.0970     0.4070 C.ar  1 <1>  -0.1500 
 10 C        0.3880     4.2170     1.3100 C.ar  1 <1>  -0.1500 
 11 C       -5.2410    -1.0090    -0.1330 C.3   1 <1>  -0.1600 
 12 C       -4.3810     1.2510    -0.7940 C.3   1 <1>  -0.1600 
 13 C       -4.6850     0.6790     1.6370 C.3   1 <1>  -0.1600 
 14 C        1.7470     4.2020     1.0470 C.ar  1 <1>   0.0830 
 15 C       -6.6930    -0.4940    -0.1940 C.3   1 <1>   0.0000 
 16 C       -5.8230     1.7960    -0.8600 C.3   1 <1>   0.0000 
 17 C       -6.1280     1.2120     1.5850 C.3   1 <1>  -0.0800 
 18 O        2.4590     5.2830     1.4360 O.3   1 <1>  -0.3630 
 19 C       -6.7740     0.6410    -1.2350 C.3   1 <1>  -0.1600 
 20 C       -7.0780     0.0680     1.1890 C.3   1 <1>  -0.1600 
 21 C       -7.6420    -1.6350    -0.5820 C.3   1 <1>  -0.2400 
 22 C       -6.2160     2.3320     0.5320 C.3   1 <1>  -0.1600 
 23 C       -5.9160     2.9170    -1.9030 C.3   1 <1>  -0.2400 
 24 C        3.8470     5.3790     1.2060 C.3   1 <1>   0.0400 
 25 H       -2.0320     1.1100     1.5010 H     1 <1>   0.3700 
 26 H       -2.7740    -1.2480     1.0150 H     1 <1>   0.0800 
 27 H       -2.5860    -0.8660    -0.6710 H     1 <1>   0.0800 
 28 H        1.9270     1.1810    -0.4510 H     1 <1>   0.1500 
 29 H       -1.4650     3.1940     1.1490 H     1 <1>   0.1500 
 30 H        3.3490     3.0510     0.1820 H     1 <1>   0.1500 
 31 H       -0.0370     5.0760     1.7980 H     1 <1>   0.1500 
 32 H       -5.1740    -1.8080     0.5840 H     1 <1>   0.0800 
 33 H       -4.9640    -1.4090    -1.0930 H     1 <1>   0.0800 
 34 H       -4.0900     0.8760    -1.7600 H     1 <1>   0.0800 
 35 H       -3.7100     2.0550    -0.5480 H     1 <1>   0.0800 
 36 H       -4.6150    -0.0950     2.3810 H     1 <1>   0.0800 
 37 H       -4.0320     1.4790     1.9340 H     1 <1>   0.0800 
 38 H       -6.4090     1.5980     2.5500 H     1 <1>   0.0800 
 39 H       -6.5120     0.2600    -2.2060 H     1 <1>   0.0800 
 40 H       -7.7830     1.0090    -1.2900 H     1 <1>   0.0800 
 41 H       -7.0310    -0.7110     1.9290 H     1 <1>   0.0800 
 42 H       -8.0900     0.4350     1.1660 H     1 <1>   0.0800 
 43 H       -7.3780    -2.0320    -1.5460 H     1 <1>   0.0800 
 44 H       -8.6570    -1.2800    -0.6270 H     1 <1>   0.0800 
 45 H       -7.5910    -2.4300     0.1400 H     1 <1>   0.0800 
 46 H       -7.2200     2.7190     0.5040 H     1 <1>   0.0800 
 47 H       -5.5640     3.1410     0.8110 H     1 <1>   0.0800 
 48 H       -5.6410     2.5480    -2.8750 H     1 <1>   0.0800 
 49 H       -5.2540     3.7250    -1.6460 H     1 <1>   0.0800 
 50 H       -6.9190     3.3000    -1.9540 H     1 <1>   0.0800 
 51 H        4.1850     6.3220     1.5960 H     1 <1>   0.0800 
 52 H        4.0300     5.3350     0.1470 H     1 <1>   0.0800 
 53 H        4.3420     4.5730     1.7180 H     1 <1>   0.0800 
@<TRIPOS>BOND
  1   1   2  2   
  2   2   3  am  
  3   2   4  1   
  4   3   5  1   
  5   3  25  1   
  6   4   6  ar  
  7   4   7  ar  
  8   5   8  1   
  9   5  26  1   
 10   5  27  1   
 11   6   9  ar  
 12   6  28  1   
 13   7  10  ar  
 14   7  29  1   
 15   8  11  1   
 16   8  12  1   
 17   8  13  1   
 18   9  14  ar  
 19   9  30  1   
 20  10  14  ar  
 21  10  31  1   
 22  11  15  1   
 23  11  32  1   
 24  11  33  1   
 25  12  16  1   
 26  12  34  1   
 27  12  35  1   
 28  13  17  1   
 29  13  36  1   
 30  13  37  1   
 31  14  18  1   
 32  15  19  1   
 33  15  20  1   
 34  15  21  1   
 35  16  19  1   
 36  16  22  1   
 37  16  23  1   
 38  17  20  1   
 39  17  22  1   
 40  17  38  1   
 41  18  24  1   
 42  19  39  1   
 43  19  40  1   
 44  20  41  1   
 45  20  42  1   
 46  21  43  1   
 47  21  44  1   
 48  21  45  1   
 49  22  46  1   
 50  22  47  1   
 51  23  48  1   
 52  23  49  1   
 53  23  50  1   
 54  24  51  1   
 55  24  52  1   
 56  24  53  1   
@<TRIPOS>SUBSTRUCTURE
  1 ****   3 GROUP 4 **** **** 0

# MOE 2024.06 (io_trps.svl 2023.06)
