@<TRIPOS>MOLECULE
NONAME
32 33 1 0 0 
SMALL
USER_CHARGES


@<TRIPOS>ATOM
  1 CL      -0.1080     0.0740     0.1710 Cl    1 <1>  -0.1770 
  2 C        0.9540    -1.3080     0.2040 C.ar  1 <1>   0.1770 
  3 C        2.0500    -1.3380    -0.6350 C.ar  1 <1>  -0.1500 
  4 C        0.6870    -2.3490     1.0690 C.ar  1 <1>  -0.1500 
  5 C        2.9170    -2.4260    -0.6240 C.ar  1 <1>  -0.0090 
  6 C        1.5370    -3.4400     1.0900 C.ar  1 <1>  -0.1500 
  7 S        4.3570    -2.4660    -1.7170 S.o2  1 <1>   1.6670 
  8 C        2.6470    -3.4810     0.2460 C.ar  1 <1>   0.0830 
  9 O        4.5840    -1.1540    -2.2690 O.2   1 <1>  -0.6500 
 10 O        4.3500    -3.6210    -2.5830 O.2   1 <1>  -0.6500 
 11 N        5.7090    -2.7160    -0.6540 N.pl3 1 <1>  -0.7020 
 12 O        3.5010    -4.5350     0.2400 O.3   1 <1>  -0.3630 
 13 C        6.1530    -1.9670     0.3130 C.cat 1 <1>   0.6040 
 14 C        6.5380    -3.9230    -0.8390 C.3   1 <1>   0.3290 
 15 C        3.1050    -5.7970     0.7440 C.3   1 <1>   0.0400 
 16 N        7.2080    -2.4770     0.8850 N.pl3 1 <1>  -0.7940 
 17 C        5.5490    -0.6540     0.7560 C.3   1 <1>  -0.1350 
 18 C        7.6040    -3.7630     0.2620 C.3   1 <1>   0.3290 
 19 H        2.2150    -0.5030    -1.2970 H     1 <1>   0.1500 
 20 H       -0.1740    -2.3020     1.7130 H     1 <1>   0.1500 
 21 H        1.3170    -4.2410     1.7730 H     1 <1>   0.1500 
 22 H        6.9870    -3.9310    -1.8190 H     1 <1>   0.0800 
 23 H        5.9580    -4.8190    -0.6960 H     1 <1>   0.0800 
 24 H        3.8560    -6.5200     0.4780 H     1 <1>   0.0800 
 25 H        2.1650    -6.0760     0.2990 H     1 <1>   0.0800 
 26 H        3.0200    -5.7410     1.8150 H     1 <1>   0.0800 
 27 H        7.7440    -2.0800     1.6660 H     1 <1>   0.4500 
 28 H        4.5630    -0.8120     1.1520 H     1 <1>   0.0800 
 29 H        5.4960     0.0300    -0.0720 H     1 <1>   0.0800 
 30 H        6.1530    -0.2040     1.5230 H     1 <1>   0.0800 
 31 H        8.5930    -3.7020    -0.1600 H     1 <1>   0.0800 
 32 H        7.5520    -4.5700     0.9730 H     1 <1>   0.0800 
@<TRIPOS>BOND
  1   1   2  1   
  2   2   3  ar  
  3   2   4  ar  
  4   3   5  ar  
  5   3  19  1   
  6   4   6  ar  
  7   4  20  1   
  8   5   7  1   
  9   5   8  ar  
 10   6   8  ar  
 11   6  21  1   
 12   7   9  2   
 13   7  10  2   
 14   7  11  1   
 15   8  12  1   
 16  11  13  ar  
 17  11  14  1   
 18  12  15  1   
 19  13  16  ar  
 20  13  17  1   
 21  14  18  1   
 22  14  22  1   
 23  14  23  1   
 24  15  24  1   
 25  15  25  1   
 26  15  26  1   
 27  16  18  1   
 28  16  27  1   
 29  17  28  1   
 30  17  29  1   
 31  17  30  1   
 32  18  31  1   
 33  18  32  1   
@<TRIPOS>SUBSTRUCTURE
  1 ****   5 GROUP 4 **** **** 0

# MOE 2024.06 (io_trps.svl 2023.06)
