@<TRIPOS>MOLECULE
NONAME
43 45 1 0 0 
SMALL
USER_CHARGES


@<TRIPOS>ATOM
  1 O       -5.0410    -0.9440     1.0190 O.2   1 <1>  -0.5700 
  2 C       -3.9590    -0.9270     0.4830 C.2   1 <1>   0.5690 
  3 N       -3.3060    -2.0430     0.0380 N.am  1 <1>  -0.4930 
  4 C       -3.2890     0.4460     0.3040 C.3   1 <1>   0.4040 
  5 C       -3.6130    -3.4140     0.0640 C.2   1 <1>   0.0630 
  6 N       -4.2640     1.6020     0.3320 N.4   1 <1>  -0.9590 
  7 C       -2.6570    -4.3750    -0.0930 C.2   1 <1>   0.0550 
  8 C       -4.8510    -4.0870     0.2240 C.ar  1 <1>   0.0000 
  9 C       -5.1690     1.5890    -0.8560 C.3   1 <1>   0.3430 
 10 C       -3.5910     2.9160     0.5320 C.3   1 <1>   0.3430 
 11 O       -3.2150    -5.5960    -0.0140 O.3   1 <1>  -0.2800 
 12 C       -1.2550    -4.2110    -0.3190 C.2   1 <1>   0.5940 
 13 C       -4.5220    -5.4330     0.1740 C.ar  1 <1>   0.1400 
 14 C       -6.2000    -3.7490     0.3860 C.ar  1 <1>  -0.1500 
 15 C       -6.2440     2.6640    -0.6930 C.3   1 <1>  -0.1600 
 16 C       -4.6450     4.0100     0.7160 C.3   1 <1>  -0.1600 
 17 O       -0.7490    -3.1150    -0.4400 O.2   1 <1>  -0.5700 
 18 C       -0.3500    -5.4200    -0.4260 C.3   1 <1>  -0.1790 
 19 C       -5.4650    -6.4430     0.2960 C.ar  1 <1>  -0.1500 
 20 C       -7.1500    -4.7430     0.5080 C.ar  1 <1>  -0.1500 
 21 C       -5.6340     4.0520    -0.4570 C.3   1 <1>  -0.1600 
 22 C       -6.7870    -6.0900     0.4660 C.ar  1 <1>  -0.1500 
 23 H       -2.3310    -1.9050    -0.2670 H     1 <1>   0.3700 
 24 H       -2.7480     0.4520    -0.6270 H     1 <1>   0.0800 
 25 H       -2.5780     0.5640     1.1040 H     1 <1>   0.0800 
 26 H       -4.8790     1.4210     1.1430 H     1 <1>   0.4500 
 27 H       -5.6450     0.6250    -0.9500 H     1 <1>   0.0800 
 28 H       -4.6020     1.7810    -1.7530 H     1 <1>   0.0800 
 29 H       -2.9800     3.1490    -0.3260 H     1 <1>   0.0800 
 30 H       -2.9570     2.8810     1.4040 H     1 <1>   0.0800 
 31 H       -6.5040    -2.7210     0.4140 H     1 <1>   0.1500 
 32 H       -6.8880     2.4000     0.1290 H     1 <1>   0.0800 
 33 H       -6.8540     2.6890    -1.5800 H     1 <1>   0.0800 
 34 H       -4.1520     4.9630     0.7990 H     1 <1>   0.0800 
 35 H       -5.1760     3.8430     1.6370 H     1 <1>   0.0800 
 36 H       -0.6000    -6.1370     0.3340 H     1 <1>   0.0800 
 37 H        0.6750    -5.1240    -0.3000 H     1 <1>   0.0800 
 38 H       -0.4690    -5.8720    -1.3930 H     1 <1>   0.0800 
 39 H       -5.1560    -7.4720     0.2540 H     1 <1>   0.1500 
 40 H       -8.1870    -4.4830     0.6380 H     1 <1>   0.1500 
 41 H       -6.4160     4.7650    -0.2500 H     1 <1>   0.0800 
 42 H       -5.1230     4.3770    -1.3480 H     1 <1>   0.0800 
 43 H       -7.5450    -6.8480     0.5650 H     1 <1>   0.1500 
@<TRIPOS>BOND
  1   1   2  2   
  2   2   3  am  
  3   2   4  1   
  4   3   5  1   
  5   3  23  1   
  6   4   6  1   
  7   4  24  1   
  8   4  25  1   
  9   5   7  2   
 10   5   8  1   
 11   6   9  1   
 12   6  10  1   
 13   6  26  1   
 14   7  11  1   
 15   7  12  1   
 16   8  13  ar  
 17   8  14  ar  
 18   9  15  1   
 19   9  27  1   
 20   9  28  1   
 21  10  16  1   
 22  10  29  1   
 23  10  30  1   
 24  11  13  1   
 25  12  17  2   
 26  12  18  1   
 27  13  19  ar  
 28  14  20  ar  
 29  14  31  1   
 30  15  21  1   
 31  15  32  1   
 32  15  33  1   
 33  16  21  1   
 34  16  34  1   
 35  16  35  1   
 36  18  36  1   
 37  18  37  1   
 38  18  38  1   
 39  19  22  ar  
 40  19  39  1   
 41  20  22  ar  
 42  20  40  1   
 43  21  41  1   
 44  21  42  1   
 45  22  43  1   
@<TRIPOS>SUBSTRUCTURE
  1 ****   3 GROUP 4 **** **** 0

# MOE 2024.06 (io_trps.svl 2023.06)
