@<TRIPOS>MOLECULE
NONAME
54 55 1 0 0 
SMALL
USER_CHARGES


@<TRIPOS>ATOM
  1 S       -0.3890    -0.8310     0.2280 S.o2  1 <1>   1.3330 
  2 O       -0.9040    -0.6380    -1.1050 O.2   1 <1>  -0.6500 
  3 O        0.4890    -1.9260     0.5550 O.2   1 <1>  -0.6500 
  4 N        0.4000     0.6270     0.7320 N.am  1 <1>  -0.6930 
  5 C       -1.7560    -0.9000     1.3650 C.3   1 <1>  -0.1350 
  6 C       -0.2520     1.8560     0.7390 C.ar  1 <1>   0.1990 
  7 C        1.8920     0.6350     0.5960 C.3   1 <1>   0.2570 
  8 C       -0.8300     2.3790    -0.4090 C.ar  1 <1>  -0.1500 
  9 C       -0.2920     2.5980     1.9100 C.ar  1 <1>  -0.1500 
 10 C        2.4040     0.9010    -0.8280 C.2   1 <1>   0.5690 
 11 C       -1.4460     3.6260    -0.4060 C.ar  1 <1>   0.0830 
 12 C       -0.8950     3.8410     1.9310 C.ar  1 <1>  -0.1500 
 13 O        2.6260    -0.0350    -1.5540 O.2   1 <1>  -0.5700 
 14 N        2.6650     2.1530    -1.2870 N.am  1 <1>  -0.7300 
 15 O       -1.9900     4.1510    -1.5430 O.3   1 <1>  -0.3630 
 16 C       -1.4770     4.3640     0.7880 C.ar  1 <1>   0.0830 
 17 C        2.4700     3.4600    -0.6350 C.3   1 <1>   0.2200 
 18 C       -2.1080     3.3950    -2.7310 C.3   1 <1>   0.0400 
 19 O       -2.0330     5.6020     0.9350 O.3   1 <1>  -0.3630 
 20 C        1.8660     4.4140    -1.6680 C.3   1 <1>  -0.1600 
 21 C        3.8110     3.9250    -0.0550 C.3   1 <1>  -0.1600 
 22 C       -3.2530     5.9060     0.2930 C.3   1 <1>   0.0400 
 23 C        1.5780     5.8250    -1.1320 C.3   1 <1>  -0.1600 
 24 C        3.6280     5.0530     0.9740 C.3   1 <1>  -0.1600 
 25 C        2.8570     6.6550    -0.9570 C.3   1 <1>  -0.1600 
 26 C        3.5790     6.4730     0.3870 C.3   1 <1>  -0.1600 
 27 H       -2.3330    -1.7860     1.1890 H     1 <1>   0.0800 
 28 H       -2.3910    -0.0460     1.2360 H     1 <1>   0.0800 
 29 H       -1.3970    -0.9180     2.3750 H     1 <1>   0.0800 
 30 H        2.2870    -0.3110     0.9190 H     1 <1>   0.0800 
 31 H        2.2980     1.3820     1.2510 H     1 <1>   0.0800 
 32 H       -0.7640     1.7980    -1.3080 H     1 <1>   0.1500 
 33 H        0.1540     2.2010     2.8040 H     1 <1>   0.1500 
 34 H       -0.9210     4.4190     2.8380 H     1 <1>   0.1500 
 35 H        3.0310     2.1950    -2.2390 H     1 <1>   0.3700 
 36 H        1.7700     3.3500     0.1720 H     1 <1>   0.0800 
 37 H       -2.6320     3.9900    -3.4560 H     1 <1>   0.0800 
 38 H       -2.6650     2.4980    -2.5240 H     1 <1>   0.0800 
 39 H       -1.1240     3.1590    -3.0980 H     1 <1>   0.0800 
 40 H        0.9350     3.9950    -2.0030 H     1 <1>   0.0800 
 41 H        2.5150     4.4830    -2.5230 H     1 <1>   0.0800 
 42 H        4.4820     4.2310    -0.8380 H     1 <1>   0.0800 
 43 H        4.2600     3.0930     0.4580 H     1 <1>   0.0800 
 44 H       -3.7190     6.7150     0.8250 H     1 <1>   0.0800 
 45 H       -3.8880     5.0370     0.3090 H     1 <1>   0.0800 
 46 H       -3.0470     6.2090    -0.7180 H     1 <1>   0.0800 
 47 H        1.0180     5.7820    -0.2120 H     1 <1>   0.0800 
 48 H        0.9540     6.3240    -1.8540 H     1 <1>   0.0800 
 49 H        4.4470     5.0180     1.6720 H     1 <1>   0.0800 
 50 H        2.7310     4.8770     1.5440 H     1 <1>   0.0800 
 51 H        2.6020     7.6970    -1.0500 H     1 <1>   0.0800 
 52 H        3.5390     6.4350    -1.7610 H     1 <1>   0.0800 
 53 H        4.5880     6.8300     0.2670 H     1 <1>   0.0800 
 54 H        3.1110     7.1130     1.1160 H     1 <1>   0.0800 
@<TRIPOS>BOND
  1   1   2  2   
  2   1   3  2   
  3   1   4  am  
  4   1   5  1   
  5   4   6  1   
  6   4   7  1   
  7   5  27  1   
  8   5  28  1   
  9   5  29  1   
 10   6   8  ar  
 11   6   9  ar  
 12   7  10  1   
 13   7  30  1   
 14   7  31  1   
 15   8  11  ar  
 16   8  32  1   
 17   9  12  ar  
 18   9  33  1   
 19  10  13  2   
 20  10  14  am  
 21  11  15  1   
 22  11  16  ar  
 23  12  16  ar  
 24  12  34  1   
 25  14  17  1   
 26  14  35  1   
 27  15  18  1   
 28  16  19  1   
 29  17  20  1   
 30  17  21  1   
 31  17  36  1   
 32  18  37  1   
 33  18  38  1   
 34  18  39  1   
 35  19  22  1   
 36  20  23  1   
 37  20  40  1   
 38  20  41  1   
 39  21  24  1   
 40  21  42  1   
 41  21  43  1   
 42  22  44  1   
 43  22  45  1   
 44  22  46  1   
 45  23  25  1   
 46  23  47  1   
 47  23  48  1   
 48  24  26  1   
 49  24  49  1   
 50  24  50  1   
 51  25  26  1   
 52  25  51  1   
 53  25  52  1   
 54  26  53  1   
 55  26  54  1   
@<TRIPOS>SUBSTRUCTURE
  1 ****   8 GROUP 4 **** **** 0

# MOE 2024.06 (io_trps.svl 2023.06)
