@<TRIPOS>MOLECULE
NONAME
38 39 1 0 0 
SMALL
USER_CHARGES


@<TRIPOS>ATOM
  1 O        0.9590    -0.0650    -0.6430 O.2   1 <1>  -0.5700 
  2 C        1.9140     0.6420    -0.4280 C.2   1 <1>   0.5410 
  3 C        2.5800     1.3610    -1.4790 C.2   1 <1>  -0.1360 
  4 C        2.4550     0.8050     0.8940 C.2   1 <1>  -0.1360 
  5 C        3.6360     2.1720    -1.2700 C.2   1 <1>  -0.2880 
  6 C        3.5080     1.6000     1.1730 C.2   1 <1>  -0.2880 
  7 C        4.2420     2.4270     0.1130 C.3   1 <1>   0.4150 
  8 C        5.7290     2.1070     0.0910 C.2   1 <1>  -0.0380 
  9 C        4.2010     3.9270     0.4580 C.3   1 <1>  -0.1600 
 10 N        6.4290     3.2720     0.1610 N.pl3 1 <1>  -0.8690 
 11 C        6.2610     0.8610     0.0120 C.2   1 <1>  -0.1360 
 12 C        5.6270     4.4730     0.2640 C.3   1 <1>   0.3690 
 13 C        7.6300     0.4750    -0.0150 C.2   1 <1>   0.7060 
 14 C        6.1190     5.2790     1.4610 C.3   1 <1>  -0.2400 
 15 C        5.7860     5.2570    -1.0360 C.3   1 <1>  -0.2400 
 16 O        8.5730     1.2460     0.0310 O.2   1 <1>  -0.5700 
 17 O        7.8780    -0.8370    -0.0970 O.3   1 <1>  -0.4300 
 18 C        9.1990    -1.3300    -0.1320 C.3   1 <1>   0.1200 
 19 C        9.1350    -2.8510    -0.2270 C.3   1 <1>  -0.2400 
 20 H        2.1690     1.1970    -2.4580 H     1 <1>   0.1500 
 21 H        1.9510     0.2340     1.6530 H     1 <1>   0.1500 
 22 H        4.1420     2.7010    -2.0570 H     1 <1>   0.1500 
 23 H        3.9200     1.7150     2.1600 H     1 <1>   0.1500 
 24 H        3.9110     4.0510     1.4850 H     1 <1>   0.0800 
 25 H        3.4860     4.4550    -0.1450 H     1 <1>   0.0800 
 26 H        7.4590     3.3250     0.1530 H     1 <1>   0.4000 
 27 H        5.5920     0.0250    -0.0410 H     1 <1>   0.1500 
 28 H        6.0720     4.6850     2.3560 H     1 <1>   0.0800 
 29 H        5.5080     6.1520     1.5940 H     1 <1>   0.0800 
 30 H        7.1350     5.5940     1.3070 H     1 <1>   0.0800 
 31 H        5.4890     4.6580    -1.8760 H     1 <1>   0.0800 
 32 H        6.8100     5.5550    -1.1670 H     1 <1>   0.0800 
 33 H        5.1750     6.1400    -1.0110 H     1 <1>   0.0800 
 34 H        9.7040    -1.0190     0.7680 H     1 <1>   0.0800 
 35 H        9.6980    -0.9090    -0.9890 H     1 <1>   0.0800 
 36 H        8.6260    -3.2540     0.6300 H     1 <1>   0.0800 
 37 H       10.1310    -3.2540    -0.2550 H     1 <1>   0.0800 
 38 H        8.6200    -3.1450    -1.1240 H     1 <1>   0.0800 
@<TRIPOS>BOND
  1   1   2  2   
  2   2   3  1   
  3   2   4  1   
  4   3   5  2   
  5   3  20  1   
  6   4   6  2   
  7   4  21  1   
  8   5   7  1   
  9   5  22  1   
 10   6   7  1   
 11   6  23  1   
 12   7   8  1   
 13   7   9  1   
 14   8  10  1   
 15   8  11  2   
 16   9  12  1   
 17   9  24  1   
 18   9  25  1   
 19  10  12  1   
 20  10  26  1   
 21  11  13  1   
 22  11  27  1   
 23  12  14  1   
 24  12  15  1   
 25  13  16  2   
 26  13  17  1   
 27  14  28  1   
 28  14  29  1   
 29  14  30  1   
 30  15  31  1   
 31  15  32  1   
 32  15  33  1   
 33  17  18  1   
 34  18  19  1   
 35  18  34  1   
 36  18  35  1   
 37  19  36  1   
 38  19  37  1   
 39  19  38  1   
@<TRIPOS>SUBSTRUCTURE
  1 ****   8 GROUP 4 **** **** 0

# MOE 2024.06 (io_trps.svl 2023.06)
