@<TRIPOS>MOLECULE
NONAME
39 40 1 0 0 
SMALL
USER_CHARGES


@<TRIPOS>ATOM
  1 O        4.7010     3.0830    -1.7300 O.2   1 <1>  -0.5700 
  2 C        4.3230     3.7150    -0.7760 C.2   1 <1>   0.4230 
  3 C        2.9620     3.6580    -0.2780 C.ar  1 <1>   0.0860 
  4 C        5.3610     4.5890    -0.0840 C.3   1 <1>  -0.0990 
  5 C        2.0520     2.7560    -0.8340 C.ar  1 <1>  -0.1500 
  6 C        2.4880     4.4740     0.7570 C.ar  1 <1>  -0.1500 
  7 C        6.7770     4.4240    -0.6550 C.3   1 <1>   0.3430 
  8 C        0.7490     2.6600    -0.3830 C.ar  1 <1>  -0.1500 
  9 C        1.1860     4.3830     1.2130 C.ar  1 <1>  -0.1500 
 10 N        7.5630     3.3240    -0.0040 N.4   1 <1>  -0.9590 
 11 C        0.3130     3.4740     0.6450 C.ar  1 <1>  -0.1500 
 12 C        9.0030     3.4870    -0.3550 C.3   1 <1>   0.3430 
 13 C        7.0290     1.9760    -0.3760 C.3   1 <1>   0.3430 
 14 C        9.8820     2.9090     0.7530 C.3   1 <1>  -0.1600 
 15 C        7.7000     0.8360     0.3930 C.3   1 <1>  -0.1600 
 16 C       10.2040     1.4120     0.6120 C.3   1 <1>  -0.1600 
 17 C        9.1350     0.5480    -0.0710 C.3   1 <1>  -0.1600 
 18 H        5.3640     4.4090     0.9750 H     1 <1>   0.0800 
 19 H        5.0650     5.6090    -0.2480 H     1 <1>   0.0800 
 20 H        2.3690     2.1140    -1.6390 H     1 <1>   0.1500 
 21 H        3.1270     5.1990     1.2250 H     1 <1>   0.1500 
 22 H        7.3010     5.3540    -0.5010 H     1 <1>   0.0800 
 23 H        6.7220     4.2580    -1.7200 H     1 <1>   0.0800 
 24 H        0.0710     1.9530    -0.8320 H     1 <1>   0.1500 
 25 H        0.8430     5.0200     2.0110 H     1 <1>   0.1500 
 26 H        7.4880     3.4150     1.0160 H     1 <1>   0.4500 
 27 H       -0.7020     3.4020     0.9990 H     1 <1>   0.1500 
 28 H        9.2280     4.5380    -0.4420 H     1 <1>   0.0800 
 29 H        9.2240     3.0190    -1.3010 H     1 <1>   0.0800 
 30 H        7.1390     1.8170    -1.4370 H     1 <1>   0.0800 
 31 H        5.9750     1.9390    -0.1550 H     1 <1>   0.0800 
 32 H        9.4330     3.0990     1.7120 H     1 <1>   0.0800 
 33 H       10.8190     3.4390     0.7450 H     1 <1>   0.0800 
 34 H        7.1180    -0.0490     0.1980 H     1 <1>   0.0800 
 35 H        7.6580     1.0070     1.4540 H     1 <1>   0.0800 
 36 H       10.3990     1.0150     1.5950 H     1 <1>   0.0800 
 37 H       11.1180     1.3020     0.0530 H     1 <1>   0.0800 
 38 H        9.2000     0.6590    -1.1400 H     1 <1>   0.0800 
 39 H        9.3650    -0.4830     0.1440 H     1 <1>   0.0800 
@<TRIPOS>BOND
  1   1   2  2   
  2   2   3  1   
  3   2   4  1   
  4   3   5  ar  
  5   3   6  ar  
  6   4   7  1   
  7   4  18  1   
  8   4  19  1   
  9   5   8  ar  
 10   5  20  1   
 11   6   9  ar  
 12   6  21  1   
 13   7  10  1   
 14   7  22  1   
 15   7  23  1   
 16   8  11  ar  
 17   8  24  1   
 18   9  11  ar  
 19   9  25  1   
 20  10  12  1   
 21  10  13  1   
 22  10  26  1   
 23  11  27  1   
 24  12  14  1   
 25  12  28  1   
 26  12  29  1   
 27  13  15  1   
 28  13  30  1   
 29  13  31  1   
 30  14  16  1   
 31  14  32  1   
 32  14  33  1   
 33  15  17  1   
 34  15  34  1   
 35  15  35  1   
 36  16  17  1   
 37  16  36  1   
 38  16  37  1   
 39  17  38  1   
 40  17  39  1   
@<TRIPOS>SUBSTRUCTURE
  1 ****   2 GROUP 4 **** **** 0

# MOE 2024.06 (io_trps.svl 2023.06)
