@<TRIPOS>MOLECULE
NONAME
37 38 1 0 0 
SMALL
USER_CHARGES


@<TRIPOS>ATOM
  1 O        0.8740    -1.3110     1.8690 O.2   1 <1>  -0.5700 
  2 C        1.2110    -1.9010     0.8710 C.2   1 <1>   0.5690 
  3 N        0.3750    -2.5540     0.0030 N.am  1 <1>  -0.2370 
  4 C        2.6710    -1.9830     0.4140 C.3   1 <1>   0.0610 
  5 C       -1.0380    -2.5360     0.0620 C.ar  1 <1>   0.1170 
  6 C        1.1190    -3.2270    -0.9300 C.2   1 <1>   0.5690 
  7 C        2.6130    -3.1840    -0.5950 C.3   1 <1>   0.0610 
  8 C        3.6480    -2.1770     1.5970 C.3   1 <1>  -0.2400 
  9 C        3.0250    -0.6340    -0.2560 C.3   1 <1>  -0.2400 
 10 C       -1.7770    -3.7020    -0.1100 C.ar  1 <1>  -0.1500 
 11 C       -1.7300    -1.3500     0.2910 C.ar  1 <1>  -0.1500 
 12 O        0.6860    -3.8070    -1.8960 O.2   1 <1>  -0.5700 
 13 C        2.9860    -4.5430     0.0450 C.3   1 <1>  -0.2400 
 14 C        3.4950    -3.0140    -1.8560 C.3   1 <1>  -0.2400 
 15 C       -3.1590    -3.6860    -0.0530 C.ar  1 <1>  -0.1500 
 16 C       -3.1120    -1.3310     0.3490 C.ar  1 <1>  -0.1500 
 17 C       -3.8350    -2.4990     0.1790 C.ar  1 <1>  -0.1430 
 18 C       -5.3520    -2.4790     0.2400 C.3   1 <1>  -0.0970 
 19 H        3.3570    -3.0060     2.2160 H     1 <1>   0.0800 
 20 H        3.6490    -1.3010     2.2240 H     1 <1>   0.0800 
 21 H        4.6500    -2.3390     1.2410 H     1 <1>   0.0800 
 22 H        2.3710    -0.4290    -1.0870 H     1 <1>   0.0800 
 23 H        4.0430    -0.6270    -0.6030 H     1 <1>   0.0800 
 24 H        2.9120     0.1700     0.4520 H     1 <1>   0.0800 
 25 H       -1.2700    -4.6320    -0.2950 H     1 <1>   0.1500 
 26 H       -1.1850    -0.4340     0.4320 H     1 <1>   0.1500 
 27 H        2.7950    -5.3420    -0.6500 H     1 <1>   0.0800 
 28 H        2.3990    -4.7310     0.9270 H     1 <1>   0.0800 
 29 H        4.0290    -4.5760     0.3060 H     1 <1>   0.0800 
 30 H        4.5260    -2.8790    -1.5830 H     1 <1>   0.0800 
 31 H        3.1740    -2.1770    -2.4490 H     1 <1>   0.0800 
 32 H        3.4210    -3.8890    -2.4790 H     1 <1>   0.0800 
 33 H       -3.7060    -4.6010    -0.1920 H     1 <1>   0.1500 
 34 H       -3.6220    -0.4010     0.5300 H     1 <1>   0.1500 
 35 H       -5.7260    -3.4200     0.6020 H     1 <1>   0.0800 
 36 H       -5.7530    -2.3000    -0.7410 H     1 <1>   0.0800 
 37 H       -5.6910    -1.7030     0.9020 H     1 <1>   0.0800 
@<TRIPOS>BOND
  1   1   2  2   
  2   2   3  am  
  3   2   4  1   
  4   3   5  1   
  5   3   6  am  
  6   4   7  1   
  7   4   8  1   
  8   4   9  1   
  9   5  10  ar  
 10   5  11  ar  
 11   6   7  1   
 12   6  12  2   
 13   7  13  1   
 14   7  14  1   
 15   8  19  1   
 16   8  20  1   
 17   8  21  1   
 18   9  22  1   
 19   9  23  1   
 20   9  24  1   
 21  10  15  ar  
 22  10  25  1   
 23  11  16  ar  
 24  11  26  1   
 25  13  27  1   
 26  13  28  1   
 27  13  29  1   
 28  14  30  1   
 29  14  31  1   
 30  14  32  1   
 31  15  17  ar  
 32  15  33  1   
 33  16  17  ar  
 34  16  34  1   
 35  17  18  1   
 36  18  35  1   
 37  18  36  1   
 38  18  37  1   
@<TRIPOS>SUBSTRUCTURE
  1 ****   3 GROUP 4 **** **** 0

# MOE 2024.06 (io_trps.svl 2023.06)
