@<TRIPOS>MOLECULE
NONAME
43 45 1 0 0 
SMALL
USER_CHARGES


@<TRIPOS>ATOM
  1 BR       0.4880    -0.2070    -2.5500 Br    1 <1>  -0.1110 
  2 C       -0.0380    -1.7960    -1.5920 C.ar  1 <1>   0.1110 
  3 C        0.8460    -2.4110    -0.7200 C.ar  1 <1>   0.0820 
  4 C       -1.3130    -2.2840    -1.8040 C.ar  1 <1>  -0.1500 
  5 O        2.0860    -1.9220    -0.5130 O.3   1 <1>  -0.5330 
  6 C        0.4430    -3.5590    -0.0460 C.ar  1 <1>   0.0830 
  7 C       -1.7260    -3.4190    -1.1180 C.ar  1 <1>  -0.1430 
  8 O        1.3480    -4.1380     0.7920 O.3   1 <1>  -0.3630 
  9 C       -0.8440    -4.0570    -0.2490 C.ar  1 <1>  -0.1500 
 10 C       -3.1350    -3.9480    -1.3150 C.3   1 <1>   0.4860 
 11 C        1.1690    -5.4490     1.2850 C.3   1 <1>   0.0400 
 12 N       -3.9660    -3.5400    -0.1510 N.4   1 <1>  -0.9590 
 13 C       -5.3330    -4.1880    -0.2050 C.3   1 <1>   0.3430 
 14 C       -4.0680    -2.0290    -0.0420 C.3   1 <1>   0.3430 
 15 C       -6.2560    -3.7190     0.9380 C.3   1 <1>   0.2090 
 16 C       -5.0090    -1.5660     1.0890 C.3   1 <1>   0.2090 
 17 N       -6.3340    -2.2310     0.9360 N.pl3 1 <1>  -0.8380 
 18 C       -7.3060    -1.5880     0.2050 C.ar  1 <1>   0.7200 
 19 N       -7.8930    -2.2910    -0.7620 N.ar  1 <1>  -0.6200 
 20 N       -7.5300    -0.3160     0.5080 N.ar  1 <1>  -0.6200 
 21 C       -8.8260    -1.6630    -1.4380 C.ar  1 <1>   0.1600 
 22 C       -8.4670     0.2850    -0.1840 C.ar  1 <1>   0.1600 
 23 C       -9.1590    -0.3550    -1.1830 C.ar  1 <1>  -0.1500 
 24 H       -1.9550    -1.7690    -2.4990 H     1 <1>   0.1500 
 25 H        2.5720    -2.4900     0.1190 H     1 <1>   0.4500 
 26 H       -1.1600    -4.9420     0.2710 H     1 <1>   0.1500 
 27 H       -3.1050    -5.0220    -1.3940 H     1 <1>   0.0800 
 28 H       -3.5530    -3.5510    -2.2270 H     1 <1>   0.0800 
 29 H        2.0630    -5.7310     1.8140 H     1 <1>   0.0800 
 30 H        1.0120    -6.1180     0.4580 H     1 <1>   0.0800 
 31 H        0.3320    -5.4610     1.9600 H     1 <1>   0.0800 
 32 H       -3.4880    -3.8640     0.6980 H     1 <1>   0.4500 
 33 H       -5.2370    -5.2600    -0.1620 H     1 <1>   0.0800 
 34 H       -5.8160    -3.9360    -1.1360 H     1 <1>   0.0800 
 35 H       -4.4470    -1.6280    -0.9680 H     1 <1>   0.0800 
 36 H       -3.0910    -1.6050     0.1240 H     1 <1>   0.0800 
 37 H       -5.8770    -4.0580     1.8860 H     1 <1>   0.0800 
 38 H       -7.2380    -4.1450     0.8150 H     1 <1>   0.0800 
 39 H       -5.1110    -0.4940     1.0510 H     1 <1>   0.0800 
 40 H       -4.5910    -1.8150     2.0490 H     1 <1>   0.0800 
 41 H       -9.3420    -2.2020    -2.2170 H     1 <1>   0.1500 
 42 H       -8.6890     1.3140     0.0510 H     1 <1>   0.1500 
 43 H       -9.9270     0.1470    -1.7410 H     1 <1>   0.1500 
@<TRIPOS>BOND
  1   1   2  1   
  2   2   3  ar  
  3   2   4  ar  
  4   3   5  1   
  5   3   6  ar  
  6   4   7  ar  
  7   4  24  1   
  8   5  25  1   
  9   6   8  1   
 10   6   9  ar  
 11   7   9  ar  
 12   7  10  1   
 13   8  11  1   
 14   9  26  1   
 15  10  12  1   
 16  10  27  1   
 17  10  28  1   
 18  11  29  1   
 19  11  30  1   
 20  11  31  1   
 21  12  13  1   
 22  12  14  1   
 23  12  32  1   
 24  13  15  1   
 25  13  33  1   
 26  13  34  1   
 27  14  16  1   
 28  14  35  1   
 29  14  36  1   
 30  15  17  1   
 31  15  37  1   
 32  15  38  1   
 33  16  17  1   
 34  16  39  1   
 35  16  40  1   
 36  17  18  1   
 37  18  19  ar  
 38  18  20  ar  
 39  19  21  ar  
 40  20  22  ar  
 41  21  23  ar  
 42  21  41  1   
 43  22  23  ar  
 44  22  42  1   
 45  23  43  1   
@<TRIPOS>SUBSTRUCTURE
  1 ****  14 GROUP 4 **** **** 0

# MOE 2024.06 (io_trps.svl 2023.06)
