@<TRIPOS>MOLECULE
NONAME
33 35 1 0 0 
SMALL
USER_CHARGES


@<TRIPOS>ATOM
  1 O        0.0460    -2.7560     1.2620 O.3   1 <1>  -0.6800 
  2 C        1.2550    -3.2550     0.8450 C.3   1 <1>   0.2000 
  3 C        1.1430    -3.6890    -0.6870 C.3   1 <1>  -0.0800 
  4 C        1.5900    -4.4900     1.7890 C.3   1 <1>   0.3430 
  5 C        0.0450    -4.8470    -0.8170 C.3   1 <1>   0.0630 
  6 C        2.5120    -4.4470    -0.9700 C.3   1 <1>  -0.1600 
  7 N        1.5830    -5.6660     0.8720 N.4   1 <1>  -0.9590 
  8 C       -1.3830    -4.3100    -0.9000 C.ar  1 <1>  -0.1440 
  9 C        0.2610    -5.9920     0.2670 C.3   1 <1>   0.3430 
 10 C        2.7410    -5.7120    -0.0450 C.3   1 <1>   0.3430 
 11 C       -1.8280    -3.8230    -2.1230 C.ar  1 <1>  -0.1500 
 12 C       -2.2580    -4.2890     0.1810 C.ar  1 <1>  -0.1500 
 13 C       -3.1130    -3.3310    -2.2660 C.ar  1 <1>  -0.1500 
 14 C       -3.5440    -3.7980     0.0380 C.ar  1 <1>  -0.1500 
 15 C       -3.9730    -3.3190    -1.1850 C.ar  1 <1>  -0.1500 
 16 H       -0.2940    -2.0510     0.6680 H     1 <1>   0.4000 
 17 H        1.9870    -2.4740     0.9790 H     1 <1>   0.0800 
 18 H        0.9840    -2.8600    -1.3580 H     1 <1>   0.0800 
 19 H        0.8420    -4.5930     2.5590 H     1 <1>   0.0800 
 20 H        2.5620    -4.3750     2.2410 H     1 <1>   0.0800 
 21 H        0.2070    -5.3280    -1.7670 H     1 <1>   0.0800 
 22 H        3.3380    -3.7670    -0.8360 H     1 <1>   0.0800 
 23 H        2.5530    -4.7620    -2.0000 H     1 <1>   0.0800 
 24 H        1.4070    -4.9390     0.2910 H     1 <1>   0.4500 
 25 H        0.2720    -6.9670    -0.1940 H     1 <1>   0.0800 
 26 H       -0.5050    -5.9680     1.0230 H     1 <1>   0.0800 
 27 H        3.6690    -5.6420     0.5020 H     1 <1>   0.0800 
 28 H        2.7320    -6.6260    -0.6190 H     1 <1>   0.0800 
 29 H       -1.1810    -3.8210    -2.9840 H     1 <1>   0.1500 
 30 H       -1.9660    -4.6360     1.1550 H     1 <1>   0.1500 
 31 H       -3.4460    -2.9570    -3.2190 H     1 <1>   0.1500 
 32 H       -4.2140    -3.7850     0.8810 H     1 <1>   0.1500 
 33 H       -4.9740    -2.9370    -1.2950 H     1 <1>   0.1500 
@<TRIPOS>BOND
  1   1   2  1   
  2   1  16  1   
  3   2   3  1   
  4   2   4  1   
  5   2  17  1   
  6   3   5  1   
  7   3   6  1   
  8   3  18  1   
  9   4   7  1   
 10   4  19  1   
 11   4  20  1   
 12   5   8  1   
 13   5   9  1   
 14   5  21  1   
 15   6  10  1   
 16   6  22  1   
 17   6  23  1   
 18   7   9  1   
 19   7  10  1   
 20   7  24  1   
 21   8  11  ar  
 22   8  12  ar  
 23   9  25  1   
 24   9  26  1   
 25  10  27  1   
 26  10  28  1   
 27  11  13  ar  
 28  11  29  1   
 29  12  14  ar  
 30  12  30  1   
 31  13  15  ar  
 32  13  31  1   
 33  14  15  ar  
 34  14  32  1   
 35  15  33  1   
@<TRIPOS>SUBSTRUCTURE
  1 ****   5 GROUP 4 **** **** 0

# MOE 2024.06 (io_trps.svl 2023.06)
