@<TRIPOS>MOLECULE
NONAME
41 43 1 0 0 
SMALL
USER_CHARGES


@<TRIPOS>ATOM
  1 S       -0.8950     0.7760    -1.3780 S.o2  1 <1>   1.5010 
  2 O       -1.7520     1.2650    -2.4360 O.2   1 <1>  -0.6500 
  3 O       -0.0320    -0.3580    -1.6300 O.2   1 <1>  -0.6500 
  4 N       -1.9030     0.3380    -0.0900 N.am  1 <1>  -0.8490 
  5 C        0.0700     2.1360    -0.6950 C.2   1 <1>  -0.0630 
  6 C       -2.8840     1.3910     0.2400 C.3   1 <1>   0.1960 
  7 C       -2.6350    -0.9060    -0.3850 C.3   1 <1>   0.1960 
  8 C        0.9290     2.0600     0.3980 C.2   1 <1>   0.1080 
  9 C        0.1410     3.4400    -1.0640 C.2   1 <1>  -0.3020 
 10 C       -3.7500     1.0140     1.4600 C.3   1 <1>   0.2090 
 11 C       -3.4810    -1.3790     0.8140 C.3   1 <1>   0.2090 
 12 N        1.4750     3.2000     0.6840 N.2   1 <1>  -0.7070 
 13 C        1.2250     0.8090     1.1990 C.3   1 <1>  -0.0590 
 14 N        0.9910     4.0550    -0.2250 N.pl3 1 <1>   0.3140 
 15 N       -4.4160    -0.3170     1.2940 N.pl3 1 <1>  -0.8380 
 16 C        1.3890     5.4660    -0.2400 C.3   1 <1>   0.0160 
 17 C       -5.6980    -0.3480     0.7850 C.ar  1 <1>   0.4100 
 18 N       -5.9770     0.4810    -0.2150 N.ar  1 <1>  -0.6200 
 19 C       -6.6230    -1.2400     1.3190 C.ar  1 <1>  -0.1500 
 20 C       -7.2090     0.4140    -0.6920 C.ar  1 <1>   0.1600 
 21 C       -7.9010    -1.2980     0.8140 C.ar  1 <1>  -0.1500 
 22 C       -8.1930    -0.4390    -0.2250 C.ar  1 <1>  -0.1500 
 23 H       -3.5340     1.5690    -0.6010 H     1 <1>   0.0800 
 24 H       -2.3720     2.3100     0.4610 H     1 <1>   0.0800 
 25 H       -1.9370    -1.6860    -0.6350 H     1 <1>   0.0800 
 26 H       -3.2840    -0.7570    -1.2330 H     1 <1>   0.0800 
 27 H       -0.3660     3.9400    -1.8700 H     1 <1>   0.1500 
 28 H       -4.4980     1.7730     1.6120 H     1 <1>   0.0800 
 29 H       -3.1290     0.9860     2.3380 H     1 <1>   0.0800 
 30 H       -2.8250    -1.6590     1.6200 H     1 <1>   0.0800 
 31 H       -4.0420    -2.2510     0.5260 H     1 <1>   0.0800 
 32 H        1.6160     0.0430     0.5550 H     1 <1>   0.0800 
 33 H        0.3290     0.4530     1.6720 H     1 <1>   0.0800 
 34 H        1.9550     1.0260     1.9590 H     1 <1>   0.0800 
 35 H        0.7680     6.0100    -0.9260 H     1 <1>   0.0800 
 36 H        2.4170     5.5330    -0.5420 H     1 <1>   0.0800 
 37 H        1.2790     5.8680     0.7500 H     1 <1>   0.0800 
 38 H       -6.3190    -1.8720     2.1300 H     1 <1>   0.1500 
 39 H       -7.4490     1.0800    -1.5030 H     1 <1>   0.1500 
 40 H       -8.6370    -1.9770     1.2090 H     1 <1>   0.1500 
 41 H       -9.1730    -0.4310    -0.6680 H     1 <1>   0.1500 
@<TRIPOS>BOND
  1   1   2  2   
  2   1   3  2   
  3   1   4  am  
  4   1   5  1   
  5   4   6  1   
  6   4   7  1   
  7   5   8  1   
  8   5   9  2   
  9   6  10  1   
 10   6  23  1   
 11   6  24  1   
 12   7  11  1   
 13   7  25  1   
 14   7  26  1   
 15   8  12  2   
 16   8  13  1   
 17   9  14  1   
 18   9  27  1   
 19  10  15  1   
 20  10  28  1   
 21  10  29  1   
 22  11  15  1   
 23  11  30  1   
 24  11  31  1   
 25  12  14  1   
 26  13  32  1   
 27  13  33  1   
 28  13  34  1   
 29  14  16  1   
 30  15  17  1   
 31  16  35  1   
 32  16  36  1   
 33  16  37  1   
 34  17  18  ar  
 35  17  19  ar  
 36  18  20  ar  
 37  19  21  ar  
 38  19  38  1   
 39  20  22  ar  
 40  20  39  1   
 41  21  22  ar  
 42  21  40  1   
 43  22  41  1   
@<TRIPOS>SUBSTRUCTURE
  1 ****   6 GROUP 4 **** **** 0

# MOE 2024.06 (io_trps.svl 2023.06)
