@<TRIPOS>MOLECULE
NONAME
39 40 1 0 0 
SMALL
USER_CHARGES


@<TRIPOS>ATOM
  1 O       -0.3810    -0.8930    -0.2940 O.2   1 <1>  -0.5700 
  2 C       -1.4500    -1.3850     0.0090 C.2   1 <1>   0.7060 
  3 O       -2.5480    -0.7510    -0.3950 O.3   1 <1>  -0.2330 
  4 C       -1.5950    -2.5900     0.7800 C.2   1 <1>  -0.1240 
  5 C       -3.8020    -1.1560    -0.0970 C.ar  1 <1>   0.0820 
  6 C       -2.8310    -3.0610     1.0970 C.2   1 <1>  -0.1670 
  7 C       -0.2890    -3.2840     1.1880 C.3   1 <1>   0.0390 
  8 C       -3.9890    -2.3180     0.6690 C.ar  1 <1>   0.0280 
  9 C       -4.8730    -0.3930    -0.5560 C.ar  1 <1>  -0.1440 
 10 C       -3.0720    -4.3580     1.8760 C.3   1 <1>  -0.1020 
 11 C        0.0520    -4.4170     0.2430 C.2   1 <1>   0.6590 
 12 C       -5.3080    -2.6750     0.9680 C.ar  1 <1>  -0.1500 
 13 C       -6.1700    -0.7750    -0.2350 C.ar  1 <1>   0.0830 
 14 C       -4.6210     0.8610    -1.3960 C.3   1 <1>  -0.0960 
 15 O        0.0820    -5.5600     0.6210 O.2   1 <1>  -0.5700 
 16 O        0.3090    -4.0810    -1.0150 O.3   1 <1>  -0.4300 
 17 C       -6.3750    -1.9240     0.5290 C.ar  1 <1>  -0.1500 
 18 O       -7.1960    -0.0060    -0.6750 O.3   1 <1>  -0.3630 
 19 C        0.6310    -5.0450    -1.9950 C.3   1 <1>   0.0400 
 20 C       -8.5430    -0.3010    -0.3920 C.3   1 <1>   0.1200 
 21 C       -9.4070     0.7760    -1.0400 C.3   1 <1>  -0.2400 
 22 H       -0.3670    -3.6710     2.1850 H     1 <1>   0.0800 
 23 H        0.5360    -2.5960     1.2000 H     1 <1>   0.0800 
 24 H       -3.5480    -4.1390     2.8150 H     1 <1>   0.0800 
 25 H       -2.1740    -4.9070     2.0820 H     1 <1>   0.0800 
 26 H       -3.7100    -5.0110     1.3060 H     1 <1>   0.0800 
 27 H       -5.5140    -3.5500     1.5550 H     1 <1>   0.1500 
 28 H       -3.7410     0.7520    -2.0030 H     1 <1>   0.0800 
 29 H       -4.4910     1.7080    -0.7470 H     1 <1>   0.0800 
 30 H       -5.4440     1.0590    -2.0580 H     1 <1>   0.0800 
 31 H       -7.3660    -2.2440     0.7900 H     1 <1>   0.1500 
 32 H        0.7980    -4.5390    -2.9280 H     1 <1>   0.0800 
 33 H       -0.1910    -5.7340    -2.0870 H     1 <1>   0.0800 
 34 H        1.5210    -5.5670    -1.6900 H     1 <1>   0.0800 
 35 H       -8.6750    -0.3030     0.6760 H     1 <1>   0.0800 
 36 H       -8.7730    -1.2700    -0.8010 H     1 <1>   0.0800 
 37 H       -9.1570     1.7420    -0.6370 H     1 <1>   0.0800 
 38 H      -10.4450     0.5800    -0.8420 H     1 <1>   0.0800 
 39 H       -9.2550     0.7810    -2.1050 H     1 <1>   0.0800 
@<TRIPOS>BOND
  1   1   2  2   
  2   2   3  1   
  3   2   4  1   
  4   3   5  1   
  5   4   6  2   
  6   4   7  1   
  7   5   8  ar  
  8   5   9  ar  
  9   6   8  1   
 10   6  10  1   
 11   7  11  1   
 12   7  22  1   
 13   7  23  1   
 14   8  12  ar  
 15   9  13  ar  
 16   9  14  1   
 17  10  24  1   
 18  10  25  1   
 19  10  26  1   
 20  11  15  2   
 21  11  16  1   
 22  12  17  ar  
 23  12  27  1   
 24  13  17  ar  
 25  13  18  1   
 26  14  28  1   
 27  14  29  1   
 28  14  30  1   
 29  16  19  1   
 30  17  31  1   
 31  18  20  1   
 32  19  32  1   
 33  19  33  1   
 34  19  34  1   
 35  20  21  1   
 36  20  35  1   
 37  20  36  1   
 38  21  37  1   
 39  21  38  1   
 40  21  39  1   
@<TRIPOS>SUBSTRUCTURE
  1 ****   8 GROUP 4 **** **** 0

# MOE 2024.06 (io_trps.svl 2023.06)
