@<TRIPOS>MOLECULE
NONAME
34 35 1 0 0 
SMALL
USER_CHARGES


@<TRIPOS>ATOM
  1 O       -2.9610    -1.7570    -2.2830 O.2   1 <1>  -0.5700 
  2 C       -2.6500    -1.7460    -1.1180 C.2   1 <1>   0.4230 
  3 C       -1.6070    -2.6060    -0.5910 C.ar  1 <1>   0.0860 
  4 C       -3.4120    -0.7920    -0.1870 C.3   1 <1>  -0.0190 
  5 C       -1.2280    -3.7500    -1.2990 C.ar  1 <1>  -0.1500 
  6 C       -0.9300    -2.3590     0.6100 C.ar  1 <1>  -0.1500 
  7 C       -4.9140    -0.7180    -0.5290 C.3   1 <1>  -0.1600 
  8 C       -2.8050     0.6230    -0.2290 C.3   1 <1>  -0.1600 
  9 C       -0.2470    -4.6060    -0.8360 C.ar  1 <1>  -0.1500 
 10 C        0.0520    -3.2110     1.0800 C.ar  1 <1>  -0.1500 
 11 C       -5.6550     0.2540     0.3930 C.3   1 <1>   0.1400 
 12 C       -3.5610     1.5910     0.6870 C.3   1 <1>   0.1400 
 13 C        0.3960    -4.3390     0.3580 C.ar  1 <1>  -0.1500 
 14 N       -5.0060     1.5940     0.3300 N.am  1 <1>  -0.6600 
 15 C       -5.6360     2.7580    -0.0330 C.2   1 <1>   0.5690 
 16 O       -5.0740     3.8260    -0.0230 O.2   1 <1>  -0.5700 
 17 C       -7.0840     2.7500    -0.4660 C.3   1 <1>  -0.1790 
 18 H       -3.3420    -1.1660     0.8180 H     1 <1>   0.0800 
 19 H       -1.7180    -3.9690    -2.2330 H     1 <1>   0.1500 
 20 H       -1.1590    -1.4860     1.1930 H     1 <1>   0.1500 
 21 H       -5.3520    -1.6960    -0.4430 H     1 <1>   0.0800 
 22 H       -5.0440    -0.3920    -1.5470 H     1 <1>   0.0800 
 23 H       -2.8420     1.0030    -1.2360 H     1 <1>   0.0800 
 24 H       -1.7720     0.5940     0.0670 H     1 <1>   0.0800 
 25 H        0.0190    -5.4800    -1.4060 H     1 <1>   0.1500 
 26 H        0.5560    -2.9990     2.0070 H     1 <1>   0.1500 
 27 H       -5.6170    -0.1030     1.4070 H     1 <1>   0.0800 
 28 H       -6.6880     0.3030     0.1000 H     1 <1>   0.0800 
 29 H       -3.1400     2.5780     0.5870 H     1 <1>   0.0800 
 30 H       -3.4550     1.2900     1.7150 H     1 <1>   0.0800 
 31 H        1.1600    -5.0050     0.7220 H     1 <1>   0.1500 
 32 H       -7.2060     2.1080    -1.3170 H     1 <1>   0.0800 
 33 H       -7.3840     3.7450    -0.7410 H     1 <1>   0.0800 
 34 H       -7.7050     2.4150     0.3420 H     1 <1>   0.0800 
@<TRIPOS>BOND
  1   1   2  2   
  2   2   3  1   
  3   2   4  1   
  4   3   5  ar  
  5   3   6  ar  
  6   4   7  1   
  7   4   8  1   
  8   4  18  1   
  9   5   9  ar  
 10   5  19  1   
 11   6  10  ar  
 12   6  20  1   
 13   7  11  1   
 14   7  21  1   
 15   7  22  1   
 16   8  12  1   
 17   8  23  1   
 18   8  24  1   
 19   9  13  ar  
 20   9  25  1   
 21  10  13  ar  
 22  10  26  1   
 23  11  14  1   
 24  11  27  1   
 25  11  28  1   
 26  12  14  1   
 27  12  29  1   
 28  12  30  1   
 29  13  31  1   
 30  14  15  am  
 31  15  16  2   
 32  15  17  1   
 33  17  32  1   
 34  17  33  1   
 35  17  34  1   
@<TRIPOS>SUBSTRUCTURE
  1 ****   4 GROUP 4 **** **** 0

# MOE 2024.06 (io_trps.svl 2023.06)
