@<TRIPOS>MOLECULE
NONAME
42 42 1 0 0 
SMALL
USER_CHARGES


@<TRIPOS>ATOM
  1 S       -0.2410    -0.1370     0.1070 S.o2  1 <1>   1.3330 
  2 O        0.7350     0.7270     0.7280 O.2   1 <1>  -0.6500 
  3 O       -1.6450     0.1150     0.3260 O.2   1 <1>  -0.6500 
  4 N        0.1400    -1.7570     0.5980 N.am  1 <1>  -0.6930 
  5 C        0.0720    -0.1520    -1.6470 C.3   1 <1>  -0.1350 
  6 C        1.3970    -2.2930     0.3500 C.ar  1 <1>   0.1990 
  7 C       -0.9460    -2.6760     1.0650 C.3   1 <1>   0.3370 
  8 C        1.5590    -3.3060    -0.5890 C.ar  1 <1>  -0.1500 
  9 C        2.5140    -1.8280     1.0310 C.ar  1 <1>  -0.1500 
 10 C       -2.0060    -3.0550    -0.0100 C.2   1 <1>   0.5690 
 11 C       -1.5210    -2.1310     2.3860 C.3   1 <1>  -0.2400 
 12 C        2.8070    -3.8510    -0.8390 C.ar  1 <1>  -0.1440 
 13 C        3.7670    -2.3620     0.7900 C.ar  1 <1>  -0.1440 
 14 O       -1.8990    -2.5890    -1.1250 O.2   1 <1>  -0.5700 
 15 N       -3.0210    -3.9560     0.2580 N.am  1 <1>  -0.6600 
 16 C        3.9070    -3.3760    -0.1440 C.ar  1 <1>  -0.1500 
 17 C        2.9810    -4.9570    -1.8640 C.3   1 <1>  -0.0970 
 18 C        4.9820    -1.8460     1.5400 C.3   1 <1>  -0.0970 
 19 C       -3.0750    -4.8780     1.4250 C.3   1 <1>   0.0600 
 20 C       -4.1500    -4.1350    -0.6990 C.3   1 <1>   0.0600 
 21 H       -0.0830     0.8280    -2.0510 H     1 <1>   0.0800 
 22 H       -0.5870    -0.8320    -2.1460 H     1 <1>   0.0800 
 23 H        1.0840    -0.4470    -1.8390 H     1 <1>   0.0800 
 24 H       -0.4600    -3.6010     1.3170 H     1 <1>   0.0800 
 25 H        0.6990    -3.6570    -1.1290 H     1 <1>   0.1500 
 26 H        2.3860    -1.0410     1.7520 H     1 <1>   0.1500 
 27 H       -2.2410    -1.3550     2.2010 H     1 <1>   0.0800 
 28 H       -0.7310    -1.7420     3.0020 H     1 <1>   0.0800 
 29 H       -2.0170    -2.9060     2.9340 H     1 <1>   0.0800 
 30 H        4.8800    -3.7960    -0.3330 H     1 <1>   0.1500 
 31 H        2.0510    -5.1770    -2.3560 H     1 <1>   0.0800 
 32 H        3.3340    -5.8500    -1.3800 H     1 <1>   0.0800 
 33 H        3.6990    -4.6580    -2.6060 H     1 <1>   0.0800 
 34 H        4.7680    -0.9010     2.0070 H     1 <1>   0.0800 
 35 H        5.8050    -1.7100     0.8620 H     1 <1>   0.0800 
 36 H        5.2680    -2.5510     2.2990 H     1 <1>   0.0800 
 37 H       -3.4140    -5.8490     1.1070 H     1 <1>   0.0800 
 38 H       -3.7640    -4.4930     2.1580 H     1 <1>   0.0800 
 39 H       -2.1050    -4.9950     1.8730 H     1 <1>   0.0800 
 40 H       -4.1870    -3.3220    -1.4040 H     1 <1>   0.0800 
 41 H       -5.0840    -4.1600    -0.1640 H     1 <1>   0.0800 
 42 H       -4.0240    -5.0560    -1.2410 H     1 <1>   0.0800 
@<TRIPOS>BOND
  1   1   2  2   
  2   1   3  2   
  3   1   4  am  
  4   1   5  1   
  5   4   6  1   
  6   4   7  1   
  7   5  21  1   
  8   5  22  1   
  9   5  23  1   
 10   6   8  ar  
 11   6   9  ar  
 12   7  10  1   
 13   7  11  1   
 14   7  24  1   
 15   8  12  ar  
 16   8  25  1   
 17   9  13  ar  
 18   9  26  1   
 19  10  14  2   
 20  10  15  am  
 21  11  27  1   
 22  11  28  1   
 23  11  29  1   
 24  12  16  ar  
 25  12  17  1   
 26  13  16  ar  
 27  13  18  1   
 28  15  19  1   
 29  15  20  1   
 30  16  30  1   
 31  17  31  1   
 32  17  32  1   
 33  17  33  1   
 34  18  34  1   
 35  18  35  1   
 36  18  36  1   
 37  19  37  1   
 38  19  38  1   
 39  19  39  1   
 40  20  40  1   
 41  20  41  1   
 42  20  42  1   
@<TRIPOS>SUBSTRUCTURE
  1 ****   4 GROUP 4 **** **** 0

# MOE 2024.06 (io_trps.svl 2023.06)
