@<TRIPOS>MOLECULE
NONAME
32 32 1 0 0 
SMALL
USER_CHARGES


@<TRIPOS>ATOM
  1 O       -0.5330    -0.7960    -1.0380 O.2   1 <1>  -0.5700 
  2 C       -0.3860    -1.5470    -0.0890 C.2   1 <1>   0.6900 
  3 N        0.7550    -2.2940     0.0550 N.am  1 <1>  -0.6600 
  4 N       -1.3770    -1.6690     0.8220 N.am  1 <1>  -0.7300 
  5 C        1.8090    -2.2760    -0.9920 C.3   1 <1>   0.1400 
  6 C        1.0360    -3.1430     1.2410 C.3   1 <1>   0.1400 
  7 C       -2.7490    -1.1660     0.6050 C.3   1 <1>   0.2840 
  8 C        2.8650    -1.2320    -0.6380 C.3   1 <1>  -0.2400 
  9 C        0.4740    -4.5440     1.0100 C.3   1 <1>  -0.2400 
 10 C       -3.6280    -2.2960     0.0890 C.ar  1 <1>   0.1670 
 11 N       -4.2240    -3.0610     0.9960 N.ar  1 <1>  -0.6200 
 12 C       -3.7490    -2.4800    -1.2810 C.ar  1 <1>  -0.1500 
 13 C       -4.9780    -4.0360     0.5140 C.ar  1 <1>   0.1600 
 14 C       -4.5370    -3.5010    -1.7670 C.ar  1 <1>  -0.1500 
 15 C       -5.1670    -4.2950    -0.8330 C.ar  1 <1>  -0.1500 
 16 H       -1.3470    -2.5050     1.3990 H     1 <1>   0.3700 
 17 H        1.3710    -2.0370    -1.9470 H     1 <1>   0.0800 
 18 H        2.2590    -3.2510    -1.0710 H     1 <1>   0.0800 
 19 H        0.5950    -2.7050     2.1200 H     1 <1>   0.0800 
 20 H        2.0990    -3.1980     1.4050 H     1 <1>   0.0800 
 21 H       -2.7420    -0.3520    -0.0990 H     1 <1>   0.0800 
 22 H       -3.1450    -0.7990     1.5350 H     1 <1>   0.0800 
 23 H        2.4090    -0.2600    -0.5740 H     1 <1>   0.0800 
 24 H        3.6170    -1.2050    -1.4050 H     1 <1>   0.0800 
 25 H        3.3370    -1.4680     0.2980 H     1 <1>   0.0800 
 26 H       -0.5890    -4.5040     0.8480 H     1 <1>   0.0800 
 27 H        0.6650    -5.1590     1.8700 H     1 <1>   0.0800 
 28 H        0.9430    -4.9980     0.1560 H     1 <1>   0.0800 
 29 H       -3.2220    -1.8300    -1.9580 H     1 <1>   0.1500 
 30 H       -5.4740    -4.6660     1.2330 H     1 <1>   0.1500 
 31 H       -4.6520    -3.6690    -2.8240 H     1 <1>   0.1500 
 32 H       -5.7960    -5.1090    -1.1440 H     1 <1>   0.1500 
@<TRIPOS>BOND
  1   1   2  2   
  2   2   3  am  
  3   2   4  am  
  4   3   5  1   
  5   3   6  1   
  6   4   7  1   
  7   4  16  1   
  8   5   8  1   
  9   5  17  1   
 10   5  18  1   
 11   6   9  1   
 12   6  19  1   
 13   6  20  1   
 14   7  10  1   
 15   7  21  1   
 16   7  22  1   
 17   8  23  1   
 18   8  24  1   
 19   8  25  1   
 20   9  26  1   
 21   9  27  1   
 22   9  28  1   
 23  10  11  ar  
 24  10  12  ar  
 25  11  13  ar  
 26  12  14  ar  
 27  12  29  1   
 28  13  15  ar  
 29  13  30  1   
 30  14  15  ar  
 31  14  31  1   
 32  15  32  1   
@<TRIPOS>SUBSTRUCTURE
  1 ****   4 GROUP 4 **** **** 0

# MOE 2024.06 (io_trps.svl 2023.06)
