@<TRIPOS>MOLECULE
NONAME
47 48 1 0 0 
SMALL
USER_CHARGES


@<TRIPOS>ATOM
  1 O       -0.9620    -2.1590     1.4680 O.2   1 <1>  -0.5700 
  2 C       -0.1110    -2.1670     0.5980 C.2   1 <1>   0.7060 
  3 O       -0.4340    -1.6400    -0.5900 O.3   1 <1>  -0.4300 
  4 C        1.2080    -2.7080     0.7660 C.2   1 <1>  -0.1240 
  5 C       -1.6810    -1.0210    -0.8110 C.3   1 <1>   0.1200 
  6 C        1.6090    -3.6460     1.6680 C.2   1 <1>  -0.0380 
  7 C        2.2530    -2.1060    -0.1860 C.3   1 <1>   0.3400 
  8 C       -1.6920    -0.4760    -2.2350 C.3   1 <1>  -0.2400 
  9 N        2.9160    -4.0660     1.7320 N.pl3 1 <1>  -0.6000 
 10 C        0.7160    -4.3460     2.6810 C.3   1 <1>  -0.1020 
 11 C        3.6530    -2.7330    -0.1050 C.2   1 <1>  -0.1240 
 12 C        2.3720    -0.6050     0.1010 C.ar  1 <1>  -0.1430 
 13 C        3.8960    -3.6690     0.8540 C.2   1 <1>  -0.0380 
 14 C        4.5790    -2.2160    -1.0720 C.2   1 <1>   0.7060 
 15 C        2.0440     0.3330    -0.8670 C.ar  1 <1>  -0.1500 
 16 C        2.8100    -0.1650     1.3410 C.ar  1 <1>  -0.1500 
 17 C        5.2170    -4.3900     1.0790 C.3   1 <1>  -0.1020 
 18 O        5.7870    -2.2090    -0.9260 O.2   1 <1>  -0.5700 
 19 O        4.0890    -1.7150    -2.2170 O.3   1 <1>  -0.4300 
 20 C        2.1520     1.6870    -0.6000 C.ar  1 <1>  -0.1500 
 21 C        2.9180     1.1880     1.6080 C.ar  1 <1>  -0.1500 
 22 C        4.9290    -1.1280    -3.1920 C.3   1 <1>   0.0400 
 23 C        2.5910     2.1220     0.6400 C.ar  1 <1>  -0.1430 
 24 C        2.7090     3.6050     0.9370 C.3   1 <1>  -0.0970 
 25 H       -1.7990    -0.2260    -0.0930 H     1 <1>   0.0800 
 26 H       -2.4560    -1.7560    -0.6680 H     1 <1>   0.0800 
 27 H        1.8940    -2.2580    -1.1890 H     1 <1>   0.0800 
 28 H       -0.9140     0.2550    -2.3560 H     1 <1>   0.0800 
 29 H       -2.6380    -0.0050    -2.4340 H     1 <1>   0.0800 
 30 H       -1.5520    -1.2760    -2.9400 H     1 <1>   0.0800 
 31 H        3.1670    -4.7490     2.4560 H     1 <1>   0.4000 
 32 H        0.8420    -3.8940     3.6480 H     1 <1>   0.0800 
 33 H        0.9740    -5.3880     2.7470 H     1 <1>   0.0800 
 34 H       -0.3220    -4.2950     2.4120 H     1 <1>   0.0800 
 35 H        1.7010     0.0150    -1.8360 H     1 <1>   0.1500 
 36 H        3.0690    -0.8800     2.1040 H     1 <1>   0.1500 
 37 H        5.7310    -3.9510     1.9150 H     1 <1>   0.0800 
 38 H        5.8570    -4.3430     0.2200 H     1 <1>   0.0800 
 39 H        5.0410    -5.4300     1.2860 H     1 <1>   0.0800 
 40 H        1.8910     2.4000    -1.3610 H     1 <1>   0.1500 
 41 H        3.2590     1.5090     2.5770 H     1 <1>   0.1500 
 42 H        4.3190    -0.7940    -4.0110 H     1 <1>   0.0800 
 43 H        5.6370    -1.8650    -3.5310 H     1 <1>   0.0800 
 44 H        5.4440    -0.2940    -2.7470 H     1 <1>   0.0800 
 45 H        1.7980     3.9590     1.3840 H     1 <1>   0.0800 
 46 H        2.8910     4.1570     0.0330 H     1 <1>   0.0800 
 47 H        3.5230     3.7870     1.6150 H     1 <1>   0.0800 
@<TRIPOS>BOND
  1   1   2  2   
  2   2   3  1   
  3   2   4  1   
  4   3   5  1   
  5   4   6  2   
  6   4   7  1   
  7   5   8  1   
  8   5  25  1   
  9   5  26  1   
 10   6   9  1   
 11   6  10  1   
 12   7  11  1   
 13   7  12  1   
 14   7  27  1   
 15   8  28  1   
 16   8  29  1   
 17   8  30  1   
 18   9  13  1   
 19   9  31  1   
 20  10  32  1   
 21  10  33  1   
 22  10  34  1   
 23  11  13  2   
 24  11  14  1   
 25  12  15  ar  
 26  12  16  ar  
 27  13  17  1   
 28  14  18  2   
 29  14  19  1   
 30  15  20  ar  
 31  15  35  1   
 32  16  21  ar  
 33  16  36  1   
 34  17  37  1   
 35  17  38  1   
 36  17  39  1   
 37  19  22  1   
 38  20  23  ar  
 39  20  40  1   
 40  21  23  ar  
 41  21  41  1   
 42  22  42  1   
 43  22  43  1   
 44  22  44  1   
 45  23  24  1   
 46  24  45  1   
 47  24  46  1   
 48  24  47  1   
@<TRIPOS>SUBSTRUCTURE
  1 ****   7 GROUP 4 **** **** 0

# MOE 2024.06 (io_trps.svl 2023.06)
