@<TRIPOS>MOLECULE
NONAME
36 39 1 0 0 
SMALL
USER_CHARGES


@<TRIPOS>ATOM
  1 O       -0.3110     0.2840     0.1740 O.2   1 <1>  -0.5700 
  2 C       -0.0280     1.4210    -0.1080 C.2   1 <1>   0.6300 
  3 N        1.2440     1.8760    -0.3030 N.am  1 <1>  -0.5470 
  4 C       -1.1510     2.4360    -0.2650 C.3   1 <1>  -0.1000 
  5 C        2.4910     1.2300    -0.2470 C.ar  1 <1>   0.1170 
  6 C       -1.0870     3.7950     0.3770 C.3   1 <1>  -0.2000 
  7 C       -2.0460     2.7680     0.8930 C.3   1 <1>  -0.2000 
  8 C        3.6350     2.0220    -0.1470 C.ar  1 <1>  -0.1500 
  9 C        2.6350    -0.1630    -0.3000 C.ar  1 <1>  -0.1500 
 10 C        4.8630     1.3960    -0.1000 C.ar  1 <1>   0.0820 
 11 C        3.8870    -0.7630    -0.2490 C.ar  1 <1>  -0.1500 
 12 O        6.0820     1.9130    -0.0070 O.3   1 <1>  -0.3630 
 13 C        4.9860     0.0640    -0.1480 C.ar  1 <1>   0.0820 
 14 C        7.1620     0.9310     0.0280 C.3   1 <1>   0.5600 
 15 O        6.2810    -0.2280    -0.0830 O.3   1 <1>  -0.3630 
 16 C        8.3440    -0.0990     0.1690 C.3   1 <1>  -0.1600 
 17 C        8.1490     2.1560     0.0490 C.3   1 <1>  -0.1600 
 18 C        9.6880     0.4970     0.5600 C.3   1 <1>  -0.1600 
 19 C        9.6210     1.8130    -0.1320 C.3   1 <1>  -0.1600 
 20 H        1.2940     2.8750    -0.4850 H     1 <1>   0.3700 
 21 H       -1.6220     2.3500    -1.2270 H     1 <1>   0.1000 
 22 H       -1.4820     4.6410    -0.1580 H     1 <1>   0.1000 
 23 H       -0.2570     4.0570     1.0090 H     1 <1>   0.1000 
 24 H       -1.8490     2.2900     1.8380 H     1 <1>   0.1000 
 25 H       -3.0990     2.8920     0.7070 H     1 <1>   0.1000 
 26 H        3.5810     3.0920    -0.1030 H     1 <1>   0.1500 
 27 H        1.7670    -0.7910    -0.3840 H     1 <1>   0.1500 
 28 H        4.0070    -1.8300    -0.2880 H     1 <1>   0.1500 
 29 H        8.4770    -0.5820    -0.7850 H     1 <1>   0.0800 
 30 H        8.1340    -0.8620     0.9040 H     1 <1>   0.0800 
 31 H        8.0540     2.6410     1.0070 H     1 <1>   0.0800 
 32 H        7.9180     2.8800    -0.7180 H     1 <1>   0.0800 
 33 H       10.5200    -0.1020     0.2300 H     1 <1>   0.0800 
 34 H        9.7390     0.6390     1.6270 H     1 <1>   0.0800 
 35 H       10.2750     2.5460     0.3080 H     1 <1>   0.0800 
 36 H        9.8510     1.6970    -1.1790 H     1 <1>   0.0800 
@<TRIPOS>BOND
  1   1   2  2   
  2   2   3  am  
  3   2   4  1   
  4   3   5  1   
  5   3  20  1   
  6   4   6  1   
  7   4   7  1   
  8   4  21  1   
  9   5   8  ar  
 10   5   9  ar  
 11   6   7  1   
 12   6  22  1   
 13   6  23  1   
 14   7  24  1   
 15   7  25  1   
 16   8  10  ar  
 17   8  26  1   
 18   9  11  ar  
 19   9  27  1   
 20  10  12  1   
 21  10  13  ar  
 22  11  13  ar  
 23  11  28  1   
 24  12  14  1   
 25  13  15  1   
 26  14  15  1   
 27  14  16  1   
 28  14  17  1   
 29  16  18  1   
 30  16  29  1   
 31  16  30  1   
 32  17  19  1   
 33  17  31  1   
 34  17  32  1   
 35  18  19  1   
 36  18  33  1   
 37  18  34  1   
 38  19  35  1   
 39  19  36  1   
@<TRIPOS>SUBSTRUCTURE
  1 ****   8 GROUP 4 **** **** 0

# MOE 2024.06 (io_trps.svl 2023.06)
