@<TRIPOS>MOLECULE
NONAME
40 42 1 0 0 
SMALL
USER_CHARGES


@<TRIPOS>ATOM
  1 O        0.7280     1.1630     1.4210 O.2   1 <1>  -0.5700 
  2 C        1.5840     1.1430     0.5560 C.2   1 <1>   0.7060 
  3 O        1.5450     2.0770    -0.4010 O.3   1 <1>  -0.4300 
  4 C        2.6090     0.1510     0.5170 C.2   1 <1>  -0.1240 
  5 C        0.5160     3.0470    -0.4490 C.3   1 <1>   0.0400 
  6 C        3.8850     0.2570     0.0350 C.2   1 <1>  -0.0380 
  7 C        2.1140    -1.1850     1.1010 C.3   1 <1>   0.4570 
  8 N        4.7540    -0.8100     0.0860 N.pl3 1 <1>  -0.5840 
  9 C        4.5060     1.5090    -0.5670 C.3   1 <1>  -0.1020 
 10 N        3.2180    -2.1610     1.2590 N.pl3 1 <1>   0.3140 
 11 C        1.0390    -1.7730     0.1830 C.ar  1 <1>  -0.1440 
 12 C        4.4220    -1.9760     0.7590 C.2   1 <1>   0.2700 
 13 N        3.2120    -3.3320     1.8740 N.2   1 <1>  -0.4180 
 14 C       -0.2750    -1.8610     0.6180 C.ar  1 <1>  -0.1500 
 15 C        1.3550    -2.2140    -1.0970 C.ar  1 <1>  -0.1500 
 16 N        5.1680    -2.9840     1.0170 N.2   1 <1>  -0.3380 
 17 N        4.3930    -3.8180     1.7140 N.2   1 <1>   0.0000 
 18 C       -1.2640    -2.3840    -0.1990 C.ar  1 <1>   0.0820 
 19 C        0.3730    -2.7370    -1.9200 C.ar  1 <1>  -0.1500 
 20 O       -2.5170    -2.4280     0.3160 O.3   1 <1>  -0.3630 
 21 C       -0.9340    -2.8250    -1.4770 C.ar  1 <1>  -0.1500 
 22 C       -3.5960    -2.9460    -0.4250 C.3   1 <1>   0.1200 
 23 C       -4.8490    -2.8530     0.4390 C.3   1 <1>  -0.2400 
 24 H        0.6840     3.6810    -1.3010 H     1 <1>   0.0800 
 25 H        0.5420     3.6280     0.4570 H     1 <1>   0.0800 
 26 H       -0.4320     2.5450    -0.5420 H     1 <1>   0.0800 
 27 H        1.7050    -1.0220     2.0810 H     1 <1>   0.0800 
 28 H        5.7170    -0.7480    -0.2660 H     1 <1>   0.4000 
 29 H        5.5170     1.6260    -0.2190 H     1 <1>   0.0800 
 30 H        3.9720     2.3980    -0.2900 H     1 <1>   0.0800 
 31 H        4.5170     1.4320    -1.6390 H     1 <1>   0.0800 
 32 H       -0.5560    -1.5210     1.6000 H     1 <1>   0.1500 
 33 H        2.3660    -2.1540    -1.4650 H     1 <1>   0.1500 
 34 H        0.6290    -3.0780    -2.9080 H     1 <1>   0.1500 
 35 H       -1.6750    -3.2360    -2.1360 H     1 <1>   0.1500 
 36 H       -3.3790    -3.9710    -0.6720 H     1 <1>   0.0800 
 37 H       -3.7070    -2.3600    -1.3210 H     1 <1>   0.0800 
 38 H       -4.7200    -3.4280     1.3390 H     1 <1>   0.0800 
 39 H       -5.6940    -3.2420    -0.0990 H     1 <1>   0.0800 
 40 H       -5.0460    -1.8270     0.6940 H     1 <1>   0.0800 
@<TRIPOS>BOND
  1   1   2  2   
  2   2   3  1   
  3   2   4  1   
  4   3   5  1   
  5   4   6  2   
  6   4   7  1   
  7   5  24  1   
  8   5  25  1   
  9   5  26  1   
 10   6   8  1   
 11   6   9  1   
 12   7  10  1   
 13   7  11  1   
 14   7  27  1   
 15   8  12  1   
 16   8  28  1   
 17   9  29  1   
 18   9  30  1   
 19   9  31  1   
 20  10  12  1   
 21  10  13  1   
 22  11  14  ar  
 23  11  15  ar  
 24  12  16  2   
 25  13  17  2   
 26  14  18  ar  
 27  14  32  1   
 28  15  19  ar  
 29  15  33  1   
 30  16  17  1   
 31  18  20  1   
 32  18  21  ar  
 33  19  21  ar  
 34  19  34  1   
 35  20  22  1   
 36  21  35  1   
 37  22  23  1   
 38  22  36  1   
 39  22  37  1   
 40  23  38  1   
 41  23  39  1   
 42  23  40  1   
@<TRIPOS>SUBSTRUCTURE
  1 ****  11 GROUP 4 **** **** 0

# MOE 2024.06 (io_trps.svl 2023.06)
