@<TRIPOS>MOLECULE
NONAME
50 53 1 0 0 
SMALL
USER_CHARGES


@<TRIPOS>ATOM
  1 O       -1.0430    -0.0450     3.2020 O.2   1 <1>  -0.5700 
  2 C       -0.6140    -0.5820     2.2080 C.2   1 <1>   0.5690 
  3 N       -1.3710    -0.7610     1.0980 N.am  1 <1>  -0.7300 
  4 C        0.8280    -1.0760     2.2040 C.3   1 <1>   0.1810 
  5 C       -2.7760    -0.3570     0.9040 C.3   1 <1>   0.2200 
  6 O        1.1600    -1.6790     0.9590 O.3   1 <1>  -0.3630 
  7 C       -3.6470    -1.5970     0.6070 C.3   1 <1>  -0.0800 
  8 C       -2.8840     0.6380    -0.2710 C.3   1 <1>  -0.0800 
  9 C        2.3930    -2.1930     0.7160 C.ar  1 <1>   0.0820 
 10 C       -3.2200    -2.2640    -0.7210 C.3   1 <1>  -0.1600 
 11 C       -5.1160    -1.1440     0.4790 C.3   1 <1>  -0.1600 
 12 C       -2.4570    -0.0290    -1.5990 C.3   1 <1>  -0.1600 
 13 C       -4.3540     1.0880    -0.3980 C.3   1 <1>  -0.1600 
 14 C        2.6180    -2.7600    -0.5350 C.ar  1 <1>  -0.1430 
 15 C        3.4200    -2.1730     1.6570 C.ar  1 <1>  -0.1500 
 16 C       -3.3460    -1.2570    -1.8810 C.3   1 <1>  -0.0800 
 17 C       -5.2580    -0.1300    -0.6740 C.3   1 <1>  -0.0800 
 18 C        3.8610    -3.2970    -0.8290 C.ar  1 <1>  -0.1500 
 19 C        1.5120    -2.7950    -1.5810 C.3   1 <1>  -0.0970 
 20 C        4.6550    -2.7130     1.3490 C.ar  1 <1>  -0.1500 
 21 C       -4.8130    -0.7980    -1.9890 C.3   1 <1>  -0.1600 
 22 C        4.8830    -3.2760     0.1050 C.ar  1 <1>  -0.1430 
 23 C        6.2380    -3.8700    -0.2340 C.3   1 <1>  -0.0970 
 24 H       -0.9380    -1.2230     0.2960 H     1 <1>   0.3700 
 25 H        0.9550    -1.8070     2.9810 H     1 <1>   0.0800 
 26 H        1.4880    -0.2440     2.3660 H     1 <1>   0.0800 
 27 H       -3.1290     0.1170     1.8050 H     1 <1>   0.0800 
 28 H       -3.5600    -2.2960     1.4200 H     1 <1>   0.0800 
 29 H       -2.2660     1.4960    -0.0690 H     1 <1>   0.0800 
 30 H       -2.2080    -2.6210    -0.6530 H     1 <1>   0.0800 
 31 H       -3.8470    -3.1170    -0.9140 H     1 <1>   0.0800 
 32 H       -5.4400    -0.6940     1.4010 H     1 <1>   0.0800 
 33 H       -5.7470    -1.9960     0.2940 H     1 <1>   0.0800 
 34 H       -1.4240    -0.3250    -1.5550 H     1 <1>   0.0800 
 35 H       -2.5510     0.6780    -2.4040 H     1 <1>   0.0800 
 36 H       -4.4500     1.8020    -1.1970 H     1 <1>   0.0800 
 37 H       -4.6660     1.5740     0.5110 H     1 <1>   0.0800 
 38 H        3.2820    -1.7460     2.6310 H     1 <1>   0.1500 
 39 H       -3.0430    -1.7220    -2.8040 H     1 <1>   0.0800 
 40 H       -6.2830     0.1880    -0.7560 H     1 <1>   0.0800 
 41 H        4.0380    -3.7370    -1.7940 H     1 <1>   0.1500 
 42 H        0.6700    -3.3460    -1.2020 H     1 <1>   0.0800 
 43 H        1.8500    -3.2660    -2.4870 H     1 <1>   0.0800 
 44 H        1.1970    -1.7940    -1.8120 H     1 <1>   0.0800 
 45 H        5.4410    -2.6940     2.0840 H     1 <1>   0.1500 
 46 H       -5.4440    -1.6440    -2.1990 H     1 <1>   0.0800 
 47 H       -4.9190    -0.1030    -2.8040 H     1 <1>   0.0800 
 48 H        6.4670    -3.7130    -1.2720 H     1 <1>   0.0800 
 49 H        6.2320    -4.9270    -0.0360 H     1 <1>   0.0800 
 50 H        7.0110    -3.4110     0.3560 H     1 <1>   0.0800 
@<TRIPOS>BOND
  1   1   2  2   
  2   2   3  am  
  3   2   4  1   
  4   3   5  1   
  5   3  24  1   
  6   4   6  1   
  7   4  25  1   
  8   4  26  1   
  9   5   7  1   
 10   5   8  1   
 11   5  27  1   
 12   6   9  1   
 13   7  10  1   
 14   7  11  1   
 15   7  28  1   
 16   8  12  1   
 17   8  13  1   
 18   8  29  1   
 19   9  14  ar  
 20   9  15  ar  
 21  10  16  1   
 22  10  30  1   
 23  10  31  1   
 24  11  17  1   
 25  11  32  1   
 26  11  33  1   
 27  12  16  1   
 28  12  34  1   
 29  12  35  1   
 30  13  17  1   
 31  13  36  1   
 32  13  37  1   
 33  14  18  ar  
 34  14  19  1   
 35  15  20  ar  
 36  15  38  1   
 37  16  21  1   
 38  16  39  1   
 39  17  21  1   
 40  17  40  1   
 41  18  22  ar  
 42  18  41  1   
 43  19  42  1   
 44  19  43  1   
 45  19  44  1   
 46  20  22  ar  
 47  20  45  1   
 48  21  46  1   
 49  21  47  1   
 50  22  23  1   
 51  23  48  1   
 52  23  49  1   
 53  23  50  1   
@<TRIPOS>SUBSTRUCTURE
  1 ****   3 GROUP 4 **** **** 0

# MOE 2024.06 (io_trps.svl 2023.06)
