@<TRIPOS>MOLECULE
NONAME
33 34 1 0 0 
SMALL
USER_CHARGES


@<TRIPOS>ATOM
  1 CL       0.7060     1.4990    -0.9290 Cl    1 <1>  -0.1230 
  2 C       -0.8020     2.0460    -0.2110 C.2   1 <1>   0.1230 
  3 C       -1.3170     3.3280    -0.3000 C.2   1 <1>   0.1080 
  4 C       -1.6720     1.3210     0.5150 C.2   1 <1>  -0.3320 
  5 N       -2.4460     3.4190     0.3280 N.2   1 <1>  -0.7070 
  6 C       -0.6840     4.4960    -1.0230 C.3   1 <1>  -0.0590 
  7 N       -2.6940     2.1680     0.8700 N.pl3 1 <1>   0.5840 
  8 C       -1.5830    -0.1550     0.8860 C.3   1 <1>  -0.0600 
  9 S       -4.2090     1.7170     1.7560 S.o2  1 <1>   1.4240 
 10 O       -4.8580     2.8760     2.3410 O.2   1 <1>  -0.6500 
 11 O       -3.9510     0.5910     2.6360 O.2   1 <1>  -0.6500 
 12 N       -5.2760     1.1450     0.5560 N.am  1 <1>  -0.8490 
 13 C       -6.4290     0.4690     1.1590 C.3   1 <1>   0.1960 
 14 C       -5.7180     2.2320    -0.3290 C.3   1 <1>   0.1960 
 15 C       -7.3100    -0.1550     0.0710 C.3   1 <1>  -0.1600 
 16 C       -6.5610     1.6690    -1.4770 C.3   1 <1>  -0.1600 
 17 C       -7.7720     0.8930    -0.9480 C.3   1 <1>  -0.1600 
 18 H       -0.0850     4.1500    -1.8450 H     1 <1>   0.0800 
 19 H       -0.0630     5.0470    -0.3410 H     1 <1>   0.0800 
 20 H       -1.4500     5.1480    -1.4010 H     1 <1>   0.0800 
 21 H       -0.7190    -0.6070     0.4330 H     1 <1>   0.0800 
 22 H       -2.4580    -0.6820     0.5440 H     1 <1>   0.0800 
 23 H       -1.5040    -0.2710     1.9530 H     1 <1>   0.0800 
 24 H       -7.0020     1.1720     1.7430 H     1 <1>   0.0800 
 25 H       -6.0920    -0.3160     1.8170 H     1 <1>   0.0800 
 26 H       -4.8650     2.7420    -0.7440 H     1 <1>   0.0800 
 27 H       -6.2980     2.9510     0.2290 H     1 <1>   0.0800 
 28 H       -8.1660    -0.6180     0.5280 H     1 <1>   0.0800 
 29 H       -6.7470    -0.9240    -0.4280 H     1 <1>   0.0800 
 30 H       -5.9440     1.0210    -2.0750 H     1 <1>   0.0800 
 31 H       -6.8950     2.4770    -2.1040 H     1 <1>   0.0800 
 32 H       -8.4550     1.5770    -0.4730 H     1 <1>   0.0800 
 33 H       -8.2890     0.4140    -1.7620 H     1 <1>   0.0800 
@<TRIPOS>BOND
  1   1   2  1   
  2   2   3  1   
  3   2   4  2   
  4   3   5  2   
  5   3   6  1   
  6   4   7  1   
  7   4   8  1   
  8   5   7  1   
  9   6  18  1   
 10   6  19  1   
 11   6  20  1   
 12   7   9  1   
 13   8  21  1   
 14   8  22  1   
 15   8  23  1   
 16   9  10  2   
 17   9  11  2   
 18   9  12  am  
 19  12  13  1   
 20  12  14  1   
 21  13  15  1   
 22  13  24  1   
 23  13  25  1   
 24  14  16  1   
 25  14  26  1   
 26  14  27  1   
 27  15  17  1   
 28  15  28  1   
 29  15  29  1   
 30  16  17  1   
 31  16  30  1   
 32  16  31  1   
 33  17  32  1   
 34  17  33  1   
@<TRIPOS>SUBSTRUCTURE
  1 ****   7 GROUP 4 **** **** 0

# MOE 2024.06 (io_trps.svl 2023.06)
