@<TRIPOS>MOLECULE
NONAME
49 51 1 0 0 
SMALL
USER_CHARGES


@<TRIPOS>ATOM
  1 O        0.2170    -0.1080    -0.2890 O.2   1 <1>  -0.5700 
  2 C        1.2110    -0.7920    -0.1330 C.2   1 <1>   0.6340 
  3 O        1.1080    -2.1340    -0.0250 O.3   1 <1>  -0.0870 
  4 C        2.5440    -0.2270    -0.0590 C.ar  1 <1>   0.0860 
  5 N       -0.0500    -2.7870    -0.0270 N.2   1 <1>  -0.5130 
  6 C        2.7770     1.0940    -0.4470 C.ar  1 <1>  -0.1500 
  7 C        3.6420    -0.9620     0.3980 C.ar  1 <1>  -0.1500 
  8 C       -0.0500    -4.0630    -0.0440 C.2   1 <1>   0.3030 
  9 C        4.0360     1.6600    -0.3870 C.ar  1 <1>   0.0830 
 10 C        4.9190    -0.4150     0.4580 C.ar  1 <1>   0.0830 
 11 C       -1.2650    -4.8450    -0.0090 C.ar  1 <1>   0.0860 
 12 C        1.2440    -4.8760    -0.0850 C.3   1 <1>  -0.0990 
 13 O        4.1580     2.9520    -0.7790 O.3   1 <1>  -0.3620 
 14 C        5.1240     0.9030     0.0530 C.ar  1 <1>   0.0830 
 15 O        5.9970    -1.1270     0.8930 O.3   1 <1>  -0.3630 
 16 C       -1.2210    -6.2420    -0.1200 C.ar  1 <1>   0.0830 
 17 C       -2.5230    -4.2590     0.1520 C.ar  1 <1>  -0.1500 
 18 C        1.0370    -6.1780    -0.8570 C.3   1 <1>   0.1200 
 19 C        4.5030     3.8860     0.2210 C.3   1 <1>   0.0400 
 20 O        6.3720     1.4300     0.0950 O.3   1 <1>  -0.3630 
 21 C        5.8480    -2.3030     1.6570 C.3   1 <1>   0.0400 
 22 O       -0.0490    -6.8900    -0.3090 O.3   1 <1>  -0.3630 
 23 C       -2.3710    -7.0060    -0.0440 C.ar  1 <1>  -0.1500 
 24 C       -3.6770    -5.0180     0.2180 C.ar  1 <1>  -0.1500 
 25 C        7.0460     1.5100    -1.1390 C.3   1 <1>   0.0400 
 26 C       -3.6060    -6.4060     0.1240 C.ar  1 <1>   0.0830 
 27 O       -4.6840    -7.2220     0.1860 O.3   1 <1>  -0.3630 
 28 C       -5.9870    -6.7110     0.3600 C.3   1 <1>   0.0400 
 29 H        1.9580     1.6960    -0.8010 H     1 <1>   0.1500 
 30 H        3.4840    -1.9780     0.7050 H     1 <1>   0.1500 
 31 H        1.5510    -5.1020     0.9200 H     1 <1>   0.0800 
 32 H        2.0340    -4.3280    -0.5630 H     1 <1>   0.0800 
 33 H       -2.5950    -3.1870     0.2300 H     1 <1>   0.1500 
 34 H        1.9080    -6.8060    -0.7990 H     1 <1>   0.0800 
 35 H        0.8110    -5.9780    -1.8910 H     1 <1>   0.0800 
 36 H        4.4300     4.8710    -0.2010 H     1 <1>   0.0800 
 37 H        5.5100     3.7030     0.5490 H     1 <1>   0.0800 
 38 H        3.8170     3.7840     1.0440 H     1 <1>   0.0800 
 39 H        6.8200    -2.5940     2.0120 H     1 <1>   0.0800 
 40 H        5.4420    -3.0780     1.0320 H     1 <1>   0.0800 
 41 H        5.2020    -2.0980     2.4930 H     1 <1>   0.0800 
 42 H       -2.3080    -8.0750    -0.1210 H     1 <1>   0.1500 
 43 H       -4.6170    -4.5160     0.3440 H     1 <1>   0.1500 
 44 H        8.0190     1.9320    -0.9640 H     1 <1>   0.0800 
 45 H        6.4830     2.1370    -1.8070 H     1 <1>   0.0800 
 46 H        7.1410     0.5180    -1.5440 H     1 <1>   0.0800 
 47 H       -6.6710    -7.5400     0.3810 H     1 <1>   0.0800 
 48 H       -6.2210    -6.0640    -0.4670 H     1 <1>   0.0800 
 49 H       -6.0300    -6.1770     1.2930 H     1 <1>   0.0800 
@<TRIPOS>BOND
  1   1   2  2   
  2   2   3  1   
  3   2   4  1   
  4   3   5  1   
  5   4   6  ar  
  6   4   7  ar  
  7   5   8  2   
  8   6   9  ar  
  9   6  29  1   
 10   7  10  ar  
 11   7  30  1   
 12   8  11  1   
 13   8  12  1   
 14   9  13  1   
 15   9  14  ar  
 16  10  14  ar  
 17  10  15  1   
 18  11  16  ar  
 19  11  17  ar  
 20  12  18  1   
 21  12  31  1   
 22  12  32  1   
 23  13  19  1   
 24  14  20  1   
 25  15  21  1   
 26  16  22  1   
 27  16  23  ar  
 28  17  24  ar  
 29  17  33  1   
 30  18  22  1   
 31  18  34  1   
 32  18  35  1   
 33  19  36  1   
 34  19  37  1   
 35  19  38  1   
 36  20  25  1   
 37  21  39  1   
 38  21  40  1   
 39  21  41  1   
 40  23  26  ar  
 41  23  42  1   
 42  24  26  ar  
 43  24  43  1   
 44  25  44  1   
 45  25  45  1   
 46  25  46  1   
 47  26  27  1   
 48  27  28  1   
 49  28  47  1   
 50  28  48  1   
 51  28  49  1   
@<TRIPOS>SUBSTRUCTURE
  1 ****   3 GROUP 4 **** **** 0

# MOE 2024.06 (io_trps.svl 2023.06)
