@<TRIPOS>MOLECULE
NONAME
36 37 1 0 0 
SMALL
USER_CHARGES


@<TRIPOS>ATOM
  1 S       -0.3350     0.2270     0.2080 S.o2  1 <1>   1.4470 
  2 O        0.1760     0.3360     1.5560 O.2   1 <1>  -0.6500 
  3 O        0.5780    -0.0880    -0.8710 O.2   1 <1>  -0.6500 
  4 N       -1.5320    -0.9740     0.2080 N.am  1 <1>  -0.8490 
  5 C       -1.2650     1.7360    -0.1900 C.ar  1 <1>  -0.0090 
  6 C       -1.9940    -1.2930    -1.1480 C.3   1 <1>   0.1960 
  7 C       -1.0810    -2.1810     0.9060 C.3   1 <1>   0.1960 
  8 C       -2.4870     2.0040     0.4110 C.ar  1 <1>  -0.1500 
  9 C       -0.7690     2.6650    -1.0960 C.ar  1 <1>  -0.1500 
 10 C       -3.1890    -2.2490    -1.0870 C.3   1 <1>  -0.1600 
 11 C       -2.2330    -3.1840     1.0330 C.3   1 <1>  -0.1600 
 12 C       -3.2330     3.1520     0.1360 C.ar  1 <1>   0.0860 
 13 C       -1.4760     3.8150    -1.3930 C.ar  1 <1>  -0.1500 
 14 C       -2.8300    -3.5360    -0.3340 C.3   1 <1>  -0.1600 
 15 C       -4.5130     3.3840     0.7820 C.2   1 <1>   0.6340 
 16 C       -2.6930     4.0520    -0.7840 C.ar  1 <1>  -0.1500 
 17 O       -5.0300     2.5870     1.5370 O.2   1 <1>  -0.5700 
 18 O       -5.1490     4.5330     0.5260 O.3   1 <1>  -0.4300 
 19 C       -6.3990     4.8400     1.1140 C.3   1 <1>   0.0400 
 20 H       -1.1940    -1.7440    -1.7140 H     1 <1>   0.0800 
 21 H       -2.2960    -0.3900    -1.6520 H     1 <1>   0.0800 
 22 H       -0.7410    -1.9250     1.8970 H     1 <1>   0.0800 
 23 H       -0.2560    -2.6260     0.3730 H     1 <1>   0.0800 
 24 H       -2.8780     1.2920     1.1210 H     1 <1>   0.1500 
 25 H        0.1810     2.4850    -1.5740 H     1 <1>   0.1500 
 26 H       -3.5050    -2.4900    -2.0860 H     1 <1>   0.0800 
 27 H       -4.0060    -1.7520    -0.5920 H     1 <1>   0.0800 
 28 H       -2.9940    -2.7540     1.6620 H     1 <1>   0.0800 
 29 H       -1.8770    -4.0770     1.5140 H     1 <1>   0.0800 
 30 H       -1.0770     4.5250    -2.0990 H     1 <1>   0.1500 
 31 H       -2.1100    -4.0960    -0.9060 H     1 <1>   0.0800 
 32 H       -3.7080    -4.1460    -0.2070 H     1 <1>   0.0800 
 33 H       -3.2310     4.9530    -1.0270 H     1 <1>   0.1500 
 34 H       -6.7130     5.8070     0.7630 H     1 <1>   0.0800 
 35 H       -6.2860     4.8520     2.1840 H     1 <1>   0.0800 
 36 H       -7.1130     4.0890     0.8240 H     1 <1>   0.0800 
@<TRIPOS>BOND
  1   1   2  2   
  2   1   3  2   
  3   1   4  am  
  4   1   5  1   
  5   4   6  1   
  6   4   7  1   
  7   5   8  ar  
  8   5   9  ar  
  9   6  10  1   
 10   6  20  1   
 11   6  21  1   
 12   7  11  1   
 13   7  22  1   
 14   7  23  1   
 15   8  12  ar  
 16   8  24  1   
 17   9  13  ar  
 18   9  25  1   
 19  10  14  1   
 20  10  26  1   
 21  10  27  1   
 22  11  14  1   
 23  11  28  1   
 24  11  29  1   
 25  12  15  1   
 26  12  16  ar  
 27  13  16  ar  
 28  13  30  1   
 29  14  31  1   
 30  14  32  1   
 31  15  17  2   
 32  15  18  1   
 33  16  33  1   
 34  18  19  1   
 35  19  34  1   
 36  19  35  1   
 37  19  36  1   
@<TRIPOS>SUBSTRUCTURE
  1 ****   8 GROUP 4 **** **** 0

# MOE 2024.06 (io_trps.svl 2023.06)
