@<TRIPOS>MOLECULE
NONAME
50 53 1 0 0 
SMALL
USER_CHARGES


@<TRIPOS>ATOM
  1 S        0.0780     0.2850    -0.7610 S.o2  1 <1>   1.4470 
  2 O       -0.1120    -0.8580     0.1050 O.2   1 <1>  -0.6500 
  3 O        0.3060     0.0750    -2.1750 O.2   1 <1>  -0.6500 
  4 N        1.4250     1.1240    -0.1690 N.am  1 <1>  -0.8490 
  5 C       -1.2820     1.4590    -0.5070 C.ar  1 <1>  -0.0090 
  6 C        1.8060     2.2600    -1.0350 C.3   1 <1>   0.1960 
  7 C        2.5830     0.2220    -0.0110 C.3   1 <1>   0.1960 
  8 C       -1.9130     2.0830    -1.5770 C.ar  1 <1>  -0.1500 
  9 C       -1.7140     1.7860     0.7730 C.ar  1 <1>  -0.1500 
 10 C        3.0120     3.0400    -0.4750 C.3   1 <1>   0.2090 
 11 C        3.8160     0.9440     0.5670 C.3   1 <1>   0.2090 
 12 C       -2.9330     2.9950    -1.3760 C.ar  1 <1>  -0.1500 
 13 C       -2.7350     2.6980     0.9780 C.ar  1 <1>  -0.1500 
 14 N        4.1800     2.1380    -0.2520 N.pl3 1 <1>  -0.8380 
 15 C       -3.3640     3.3200    -0.0950 C.ar  1 <1>   0.1170 
 16 C        5.3810     2.7600     0.0670 C.ar  1 <1>   0.1000 
 17 N       -4.4070     4.2420     0.1080 N.am  1 <1>  -0.4770 
 18 C        5.5650     3.4190     1.2780 C.ar  1 <1>  -0.1500 
 19 C        6.4300     2.7270    -0.8410 C.ar  1 <1>  -0.1500 
 20 C       -4.6690     5.3810    -0.6000 C.2   1 <1>   0.5690 
 21 C       -5.4320     4.0230     1.1490 C.3   1 <1>   0.1400 
 22 C        6.7700     4.0320     1.5720 C.ar  1 <1>  -0.1500 
 23 C        7.6370     3.3380    -0.5520 C.ar  1 <1>  -0.1500 
 24 O       -4.0120     5.8380    -1.5030 O.2   1 <1>  -0.5700 
 25 C       -5.9250     6.0530    -0.1130 C.3   1 <1>  -0.0990 
 26 C       -6.5590     5.0050     0.8100 C.3   1 <1>  -0.1600 
 27 C        7.8080     3.9920     0.6570 C.ar  1 <1>  -0.1500 
 28 H        0.9760     2.9380    -1.1300 H     1 <1>   0.0800 
 29 H        2.0600     1.9050    -2.0200 H     1 <1>   0.0800 
 30 H        2.8460    -0.2050    -0.9650 H     1 <1>   0.0800 
 31 H        2.3230    -0.5860     0.6510 H     1 <1>   0.0800 
 32 H       -1.6040     1.8530    -2.5840 H     1 <1>   0.1500 
 33 H       -1.2380     1.3180     1.6190 H     1 <1>   0.1500 
 34 H        2.7320     3.5070     0.4530 H     1 <1>   0.0800 
 35 H        3.2920     3.8140    -1.1690 H     1 <1>   0.0800 
 36 H        4.6500     0.2650     0.5900 H     1 <1>   0.0800 
 37 H        3.6040     1.2490     1.5760 H     1 <1>   0.0800 
 38 H       -3.4010     3.4630    -2.2250 H     1 <1>   0.1500 
 39 H       -3.0360     2.9310     1.9820 H     1 <1>   0.1500 
 40 H        4.7600     3.4500     1.9870 H     1 <1>   0.1500 
 41 H        6.2860     2.2170    -1.7750 H     1 <1>   0.1500 
 42 H       -5.0110     4.2510     2.1140 H     1 <1>   0.0800 
 43 H       -5.7790     3.0040     1.1320 H     1 <1>   0.0800 
 44 H        6.9030     4.5400     2.5120 H     1 <1>   0.1500 
 45 H        8.4410     3.3040    -1.2650 H     1 <1>   0.1500 
 46 H       -6.5660     6.3050    -0.9380 H     1 <1>   0.0800 
 47 H       -5.6560     6.9400     0.4290 H     1 <1>   0.0800 
 48 H       -6.9830     5.4460     1.6950 H     1 <1>   0.0800 
 49 H       -7.3330     4.4780     0.2810 H     1 <1>   0.0800 
 50 H        8.7460     4.4670     0.8840 H     1 <1>   0.1500 
@<TRIPOS>BOND
  1   1   2  2   
  2   1   3  2   
  3   1   4  am  
  4   1   5  1   
  5   4   6  1   
  6   4   7  1   
  7   5   8  ar  
  8   5   9  ar  
  9   6  10  1   
 10   6  28  1   
 11   6  29  1   
 12   7  11  1   
 13   7  30  1   
 14   7  31  1   
 15   8  12  ar  
 16   8  32  1   
 17   9  13  ar  
 18   9  33  1   
 19  10  14  1   
 20  10  34  1   
 21  10  35  1   
 22  11  14  1   
 23  11  36  1   
 24  11  37  1   
 25  12  15  ar  
 26  12  38  1   
 27  13  15  ar  
 28  13  39  1   
 29  14  16  1   
 30  15  17  1   
 31  16  18  ar  
 32  16  19  ar  
 33  17  20  am  
 34  17  21  1   
 35  18  22  ar  
 36  18  40  1   
 37  19  23  ar  
 38  19  41  1   
 39  20  24  2   
 40  20  25  1   
 41  21  26  1   
 42  21  42  1   
 43  21  43  1   
 44  22  27  ar  
 45  22  44  1   
 46  23  27  ar  
 47  23  45  1   
 48  25  26  1   
 49  25  46  1   
 50  25  47  1   
 51  26  48  1   
 52  26  49  1   
 53  27  50  1   
@<TRIPOS>SUBSTRUCTURE
  1 ****   6 GROUP 4 **** **** 0

# MOE 2024.06 (io_trps.svl 2023.06)
