@<TRIPOS>MOLECULE
NONAME
61 65 1 0 0 
SMALL
USER_CHARGES


@<TRIPOS>ATOM
  1 O       -1.9390    -0.0910    -1.1260 O.2   1 <1>  -0.5700 
  2 C       -1.2650    -0.6520    -0.2770 C.2   1 <1>   0.5440 
  3 N       -1.2380    -0.0600     0.9610 N.am  1 <1>  -0.6600 
  4 C       -0.5990    -1.9090    -0.5470 C.ar  1 <1>   0.0860 
  5 C       -2.4890    -0.0790     1.7750 C.3   1 <1>   0.1400 
  6 C       -0.4840     1.2250     1.0890 C.3   1 <1>   0.1400 
  7 C        0.7650    -2.1140    -0.2990 C.ar  1 <1>   0.0830 
  8 C       -1.3460    -2.9600    -1.0790 C.ar  1 <1>  -0.1500 
  9 C       -3.4160     1.1140     1.4310 C.3   1 <1>   0.3430 
 10 C       -1.4090     2.4580     0.9450 C.3   1 <1>   0.3430 
 11 O        1.4710    -1.0280     0.1320 O.3   1 <1>  -0.3630 
 12 C        1.3360    -3.3820    -0.5110 C.ar  1 <1>   0.0830 
 13 C       -0.7810    -4.1930    -1.3240 C.ar  1 <1>  -0.1500 
 14 N       -2.7780     2.0680     0.4540 N.4   1 <1>  -0.9590 
 15 C        2.8260    -0.8230    -0.2110 C.3   1 <1>   0.0400 
 16 O        2.6440    -3.6010    -0.1850 O.3   1 <1>  -0.3630 
 17 C        0.5530    -4.4070    -1.0340 C.ar  1 <1>  -0.1500 
 18 C       -3.6440     3.1690    -0.0580 C.3   1 <1>   0.5030 
 19 C        3.2220    -4.8890    -0.1930 C.3   1 <1>   0.0400 
 20 C       -3.9880     4.1730     1.0610 C.3   1 <1>  -0.1600 
 21 C       -2.9140     3.9140    -1.2000 C.3   1 <1>  -0.1600 
 22 C       -4.9550     2.5810    -0.6300 C.3   1 <1>  -0.1600 
 23 C       -4.8810     5.3010     0.5050 C.3   1 <1>  -0.0800 
 24 C       -3.7980     5.0410    -1.7640 C.3   1 <1>  -0.0800 
 25 C       -5.8520     3.7000    -1.1910 C.3   1 <1>  -0.0800 
 26 C       -4.1350     6.0290    -0.6300 C.3   1 <1>  -0.1600 
 27 C       -6.1790     4.6940    -0.0610 C.3   1 <1>  -0.1600 
 28 C       -5.1010     4.4360    -2.3140 C.3   1 <1>  -0.1600 
 29 H       -2.2320    -0.0490     2.8200 H     1 <1>   0.0800 
 30 H       -3.0170    -1.0010     1.6010 H     1 <1>   0.0800 
 31 H        0.2710     1.2700     0.3230 H     1 <1>   0.0800 
 32 H        0.0230     1.2520     2.0380 H     1 <1>   0.0800 
 33 H       -2.3860    -2.8010    -1.3040 H     1 <1>   0.1500 
 34 H       -3.6800     1.6320     2.3370 H     1 <1>   0.0800 
 35 H       -4.3210     0.7130     1.0080 H     1 <1>   0.0800 
 36 H       -0.9410     3.1440     0.2620 H     1 <1>   0.0800 
 37 H       -1.4930     2.9520     1.8980 H     1 <1>   0.0800 
 38 H       -1.3760    -4.9900    -1.7370 H     1 <1>   0.1500 
 39 H       -2.5750     1.4560    -0.3670 H     1 <1>   0.4500 
 40 H        3.0420     0.2260    -0.1240 H     1 <1>   0.0800 
 41 H        2.9880    -1.1510    -1.2230 H     1 <1>   0.0800 
 42 H        3.4450    -1.3770     0.4720 H     1 <1>   0.0800 
 43 H        0.9570    -5.3820    -1.2290 H     1 <1>   0.1500 
 44 H        4.2270    -4.8050     0.1790 H     1 <1>   0.0800 
 45 H        3.2380    -5.2600    -1.2030 H     1 <1>   0.0800 
 46 H        2.6490    -5.5340     0.4490 H     1 <1>   0.0800 
 47 H       -3.0930     4.6120     1.4630 H     1 <1>   0.0800 
 48 H       -4.5140     3.6810     1.8590 H     1 <1>   0.0800 
 49 H       -2.6710     3.2260    -1.9910 H     1 <1>   0.0800 
 50 H       -2.0050     4.3660    -0.8520 H     1 <1>   0.0800 
 51 H       -5.5180     2.0740     0.1300 H     1 <1>   0.0800 
 52 H       -4.7320     1.8790    -1.4150 H     1 <1>   0.0800 
 53 H       -5.1200     6.0020     1.2880 H     1 <1>   0.0800 
 54 H       -3.2780     5.5580    -2.5540 H     1 <1>   0.0800 
 55 H       -6.7640     3.2800    -1.5820 H     1 <1>   0.0800 
 56 H       -3.2330     6.4780    -0.2510 H     1 <1>   0.0800 
 57 H       -4.7510     6.8250    -1.0160 H     1 <1>   0.0800 
 58 H       -6.8090     5.4800    -0.4430 H     1 <1>   0.0800 
 59 H       -6.7260     4.1980     0.7220 H     1 <1>   0.0800 
 60 H       -5.7240     5.2180    -2.7160 H     1 <1>   0.0800 
 61 H       -4.8810     3.7550    -3.1180 H     1 <1>   0.0800 
@<TRIPOS>BOND
  1   1   2  2   
  2   2   3  am  
  3   2   4  1   
  4   3   5  1   
  5   3   6  1   
  6   4   7  ar  
  7   4   8  ar  
  8   5   9  1   
  9   5  29  1   
 10   5  30  1   
 11   6  10  1   
 12   6  31  1   
 13   6  32  1   
 14   7  11  1   
 15   7  12  ar  
 16   8  13  ar  
 17   8  33  1   
 18   9  14  1   
 19   9  34  1   
 20   9  35  1   
 21  10  14  1   
 22  10  36  1   
 23  10  37  1   
 24  11  15  1   
 25  12  16  1   
 26  12  17  ar  
 27  13  17  ar  
 28  13  38  1   
 29  14  18  1   
 30  14  39  1   
 31  15  40  1   
 32  15  41  1   
 33  15  42  1   
 34  16  19  1   
 35  17  43  1   
 36  18  20  1   
 37  18  21  1   
 38  18  22  1   
 39  19  44  1   
 40  19  45  1   
 41  19  46  1   
 42  20  23  1   
 43  20  47  1   
 44  20  48  1   
 45  21  24  1   
 46  21  49  1   
 47  21  50  1   
 48  22  25  1   
 49  22  51  1   
 50  22  52  1   
 51  23  26  1   
 52  23  27  1   
 53  23  53  1   
 54  24  26  1   
 55  24  28  1   
 56  24  54  1   
 57  25  27  1   
 58  25  28  1   
 59  25  55  1   
 60  26  56  1   
 61  26  57  1   
 62  27  58  1   
 63  27  59  1   
 64  28  60  1   
 65  28  61  1   
@<TRIPOS>SUBSTRUCTURE
  1 ****   1 GROUP 4 **** **** 0

# MOE 2024.06 (io_trps.svl 2023.06)
