@<TRIPOS>MOLECULE
NONAME
34 35 1 0 0 
SMALL
USER_CHARGES


@<TRIPOS>ATOM
  1 CL      -0.2990    -0.1380    -0.5890 Cl    1 <1>  -0.1770 
  2 C        1.2310    -0.9270    -0.2990 C.ar  1 <1>   0.1770 
  3 C        1.2460    -2.1770     0.2920 C.ar  1 <1>  -0.1500 
  4 C        2.4010    -0.2870    -0.6670 C.ar  1 <1>  -0.1500 
  5 C        2.4620    -2.8010     0.5210 C.ar  1 <1>  -0.1500 
  6 C        3.6190    -0.9090    -0.4390 C.ar  1 <1>  -0.1500 
  7 C        3.6370    -2.1640     0.1550 C.ar  1 <1>   0.1020 
  8 S        5.1710    -3.0480     0.4900 S.3   1 <1>  -0.3320 
  9 C        6.5540    -1.9570    -0.0490 C.3   1 <1>   0.0700 
 10 C        7.8490    -2.7210     0.2450 C.3   1 <1>   0.3430 
 11 N        9.0730    -1.9660    -0.1700 N.4   1 <1>  -0.9590 
 12 C       10.2830    -2.8620    -0.0900 C.3   1 <1>   0.3430 
 13 C        9.2960    -0.7260     0.6610 C.3   1 <1>   0.3430 
 14 C       11.5790    -2.1150    -0.4720 C.3   1 <1>   0.1100 
 15 C       10.6020     0.0000     0.2720 C.3   1 <1>   0.1100 
 16 N       11.7570    -0.9070     0.3470 N.3   1 <1>  -0.9000 
 17 H        0.3210    -2.6520     0.5670 H     1 <1>   0.1500 
 18 H        2.3510     0.6850    -1.1250 H     1 <1>   0.1500 
 19 H        2.4970    -3.7740     0.9790 H     1 <1>   0.1500 
 20 H        4.5200    -0.4070    -0.7280 H     1 <1>   0.1500 
 21 H        6.4760    -1.0500     0.5220 H     1 <1>   0.0800 
 22 H        6.4230    -1.7780    -1.1010 H     1 <1>   0.0800 
 23 H        7.8100    -3.6610    -0.2830 H     1 <1>   0.0800 
 24 H        7.8970    -2.9380     1.3000 H     1 <1>   0.0800 
 25 H        8.9830    -1.6760    -1.1520 H     1 <1>   0.4500 
 26 H       10.1590    -3.7100    -0.7440 H     1 <1>   0.0800 
 27 H       10.3940    -3.2320     0.9160 H     1 <1>   0.0800 
 28 H        9.3600    -0.9950     1.7030 H     1 <1>   0.0800 
 29 H        8.4690    -0.0460     0.5440 H     1 <1>   0.0800 
 30 H       11.5560    -1.8510    -1.5160 H     1 <1>   0.0800 
 31 H       12.4210    -2.7690    -0.3170 H     1 <1>   0.0800 
 32 H       10.7610     0.8240     0.9470 H     1 <1>   0.0800 
 33 H       10.5150     0.4020    -0.7240 H     1 <1>   0.0800 
 34 H       12.6160    -0.4090     0.0590 H     1 <1>   0.3600 
@<TRIPOS>BOND
  1   1   2  1   
  2   2   3  ar  
  3   2   4  ar  
  4   3   5  ar  
  5   3  17  1   
  6   4   6  ar  
  7   4  18  1   
  8   5   7  ar  
  9   5  19  1   
 10   6   7  ar  
 11   6  20  1   
 12   7   8  1   
 13   8   9  1   
 14   9  10  1   
 15   9  21  1   
 16   9  22  1   
 17  10  11  1   
 18  10  23  1   
 19  10  24  1   
 20  11  12  1   
 21  11  13  1   
 22  11  25  1   
 23  12  14  1   
 24  12  26  1   
 25  12  27  1   
 26  13  15  1   
 27  13  28  1   
 28  13  29  1   
 29  14  16  1   
 30  14  30  1   
 31  14  31  1   
 32  15  16  1   
 33  15  32  1   
 34  15  33  1   
 35  16  34  1   
@<TRIPOS>SUBSTRUCTURE
  1 ****   9 GROUP 4 **** **** 0

# MOE 2024.06 (io_trps.svl 2023.06)
