@<TRIPOS>MOLECULE
NONAME
38 38 1 0 0 
SMALL
USER_CHARGES


@<TRIPOS>ATOM
  1 O        0.6100    -3.2350    -1.3530 O.2   1 <1>  -0.5700 
  2 C        1.3590    -3.8000    -0.5890 C.2   1 <1>   0.5690 
  3 N        2.6440    -3.4080    -0.3360 N.am  1 <1>  -0.5470 
  4 C        0.7860    -5.0230     0.1440 C.3   1 <1>   0.4040 
  5 C        3.4230    -2.3320    -0.8000 C.ar  1 <1>   0.1170 
  6 N       -0.7280    -5.0370     0.1140 N.4   1 <1>  -0.9590 
  7 C        4.6970    -2.1770    -0.2420 C.ar  1 <1>   0.0830 
  8 C        3.0010    -1.4300    -1.7710 C.ar  1 <1>  -0.1500 
  9 C       -1.3520    -4.5770     1.3870 C.3   1 <1>   0.3430 
 10 C       -1.2520    -6.3420    -0.3610 C.3   1 <1>   0.3430 
 11 O        5.0740    -3.0890     0.7070 O.3   1 <1>  -0.3630 
 12 C        5.5180    -1.1320    -0.6550 C.ar  1 <1>  -0.1500 
 13 C        3.8220    -0.3930    -2.1780 C.ar  1 <1>  -0.1500 
 14 C       -1.0270    -3.1090     1.6360 C.3   1 <1>  -0.2400 
 15 C       -2.6730    -6.1650    -0.8830 C.3   1 <1>  -0.2400 
 16 C        6.3450    -3.0180     1.3190 C.3   1 <1>   0.0400 
 17 C        5.0780    -0.2430    -1.6210 C.ar  1 <1>  -0.1500 
 18 H        3.1940    -3.9500     0.3370 H     1 <1>   0.3700 
 19 H        1.1350    -5.0220     1.1620 H     1 <1>   0.0800 
 20 H        1.1680    -5.9030    -0.3430 H     1 <1>   0.0800 
 21 H       -0.9540    -4.3280    -0.6130 H     1 <1>   0.4500 
 22 H        2.0330    -1.5210    -2.2250 H     1 <1>   0.1500 
 23 H       -1.0050    -5.1790     2.2120 H     1 <1>   0.0800 
 24 H       -2.4230    -4.6820     1.3230 H     1 <1>   0.0800 
 25 H       -1.2350    -7.0670     0.4370 H     1 <1>   0.0800 
 26 H       -0.6360    -6.7080    -1.1670 H     1 <1>   0.0800 
 27 H        6.4980    -0.9880    -0.2440 H     1 <1>   0.1500 
 28 H        3.4810     0.2980    -2.9300 H     1 <1>   0.1500 
 29 H        0.0170    -2.9600     1.8440 H     1 <1>   0.0800 
 30 H       -1.5790    -2.7680     2.4950 H     1 <1>   0.0800 
 31 H       -1.3180    -2.5040     0.7950 H     1 <1>   0.0800 
 32 H       -3.3540    -5.8930    -0.0980 H     1 <1>   0.0800 
 33 H       -3.0130    -7.0960    -1.3010 H     1 <1>   0.0800 
 34 H       -2.7030    -5.4240    -1.6630 H     1 <1>   0.0800 
 35 H        6.4280    -3.8270     2.0210 H     1 <1>   0.0800 
 36 H        6.4340    -2.0780     1.8350 H     1 <1>   0.0800 
 37 H        7.1040    -3.1140     0.5620 H     1 <1>   0.0800 
 38 H        5.7130     0.5660    -1.9390 H     1 <1>   0.1500 
@<TRIPOS>BOND
  1   1   2  2   
  2   2   3  am  
  3   2   4  1   
  4   3   5  1   
  5   3  18  1   
  6   4   6  1   
  7   4  19  1   
  8   4  20  1   
  9   5   7  ar  
 10   5   8  ar  
 11   6   9  1   
 12   6  10  1   
 13   6  21  1   
 14   7  11  1   
 15   7  12  ar  
 16   8  13  ar  
 17   8  22  1   
 18   9  14  1   
 19   9  23  1   
 20   9  24  1   
 21  10  15  1   
 22  10  25  1   
 23  10  26  1   
 24  11  16  1   
 25  12  17  ar  
 26  12  27  1   
 27  13  17  ar  
 28  13  28  1   
 29  14  29  1   
 30  14  30  1   
 31  14  31  1   
 32  15  32  1   
 33  15  33  1   
 34  15  34  1   
 35  16  35  1   
 36  16  36  1   
 37  16  37  1   
 38  17  38  1   
@<TRIPOS>SUBSTRUCTURE
  1 ****   3 GROUP 4 **** **** 0

# MOE 2024.06 (io_trps.svl 2023.06)
