@<TRIPOS>MOLECULE
NONAME
40 42 1 0 0 
SMALL
USER_CHARGES


@<TRIPOS>ATOM
  1 O        0.1320     0.4840    -0.0010 O.2   1 <1>  -0.5700 
  2 C        0.0650     1.6970     0.1060 C.2   1 <1>   0.7150 
  3 N       -1.1750     2.2930    -0.0300 N.am  1 <1>  -0.6600 
  4 C        1.2560     2.4760     0.3810 C.2   1 <1>   0.0550 
  5 C       -2.4080     1.4520    -0.1450 C.3   1 <1>   0.1400 
  6 C       -1.3380     3.7520    -0.3260 C.3   1 <1>   0.1400 
  7 O        2.4100     2.1940    -0.2170 O.3   1 <1>  -0.2800 
  8 C        1.4570     3.5420     1.2080 C.2   1 <1>  -0.1500 
  9 C       -3.6730     2.2230     0.2630 C.3   1 <1>   0.1400 
 10 C       -2.6020     4.0450    -1.1490 C.3   1 <1>   0.1400 
 11 C        3.3260     3.0390     0.1980 C.2   1 <1>  -0.0100 
 12 C        2.7980     3.9070     1.0860 C.2   1 <1>  -0.1500 
 13 N       -3.8350     3.5130    -0.4840 N.am  1 <1>  -0.6600 
 14 C       -5.0250     4.1930    -0.6000 C.2   1 <1>   0.5690 
 15 O       -5.1050     5.1870    -1.2840 O.2   1 <1>  -0.5700 
 16 C       -6.2850     3.7030     0.1290 C.3   1 <1>  -0.0190 
 17 C       -7.1430     2.7510    -0.7100 C.3   1 <1>  -0.1600 
 18 C       -7.2810     4.7960     0.5300 C.3   1 <1>  -0.1600 
 19 C       -8.5340     2.7820    -0.0690 C.3   1 <1>  -0.1600 
 20 C       -8.5900     4.0510     0.7890 C.3   1 <1>  -0.1600 
 21 H       -2.3100     0.5820     0.4810 H     1 <1>   0.0800 
 22 H       -2.5080     1.1140    -1.1620 H     1 <1>   0.0800 
 23 H       -0.4820     4.1110    -0.8700 H     1 <1>   0.0800 
 24 H       -1.3990     4.2950     0.6010 H     1 <1>   0.0800 
 25 H        0.7400     4.0230     1.8500 H     1 <1>   0.1500 
 26 H       -3.6250     2.4330     1.3170 H     1 <1>   0.0800 
 27 H       -4.5260     1.5930     0.0860 H     1 <1>   0.0800 
 28 H       -2.5070     3.5980    -2.1230 H     1 <1>   0.0800 
 29 H       -2.6870     5.1090    -1.2850 H     1 <1>   0.0800 
 30 H        4.3280     2.9530    -0.1870 H     1 <1>   0.1500 
 31 H        3.2850     4.7120     1.6070 H     1 <1>   0.1500 
 32 H       -6.0000     3.2000     1.0340 H     1 <1>   0.0800 
 33 H       -6.7370     1.7560    -0.7430 H     1 <1>   0.0800 
 34 H       -7.2090     3.1340    -1.7150 H     1 <1>   0.0800 
 35 H       -7.4250     5.4800    -0.2900 H     1 <1>   0.0800 
 36 H       -6.9480     5.3500     1.3910 H     1 <1>   0.0800 
 37 H       -8.6780     1.9150     0.5540 H     1 <1>   0.0800 
 38 H       -9.2970     2.7930    -0.8280 H     1 <1>   0.0800 
 39 H       -9.4400     4.6630     0.5380 H     1 <1>   0.0800 
 40 H       -8.6530     3.7800     1.8300 H     1 <1>   0.0800 
@<TRIPOS>BOND
  1   1   2  2   
  2   2   3  am  
  3   2   4  1   
  4   3   5  1   
  5   3   6  1   
  6   4   7  1   
  7   4   8  2   
  8   5   9  1   
  9   5  21  1   
 10   5  22  1   
 11   6  10  1   
 12   6  23  1   
 13   6  24  1   
 14   7  11  1   
 15   8  12  1   
 16   8  25  1   
 17   9  13  1   
 18   9  26  1   
 19   9  27  1   
 20  10  13  1   
 21  10  28  1   
 22  10  29  1   
 23  11  12  2   
 24  11  30  1   
 25  12  31  1   
 26  13  14  am  
 27  14  15  2   
 28  14  16  1   
 29  16  17  1   
 30  16  18  1   
 31  16  32  1   
 32  17  19  1   
 33  17  33  1   
 34  17  34  1   
 35  18  20  1   
 36  18  35  1   
 37  18  36  1   
 38  19  20  1   
 39  19  37  1   
 40  19  38  1   
 41  20  39  1   
 42  20  40  1   
@<TRIPOS>SUBSTRUCTURE
  1 ****  13 GROUP 4 **** **** 0

# MOE 2024.06 (io_trps.svl 2023.06)
