@<TRIPOS>MOLECULE
NONAME
37 37 1 0 0 
SMALL
USER_CHARGES


@<TRIPOS>ATOM
  1 CL       2.9800     0.8970    -1.8320 Cl    1 <1>  -0.1770 
  2 C        1.8670     1.9720    -1.0100 C.ar  1 <1>   0.1770 
  3 C        2.3240     2.8100     0.0020 C.ar  1 <1>   0.0820 
  4 C        0.5400     1.9660    -1.3900 C.ar  1 <1>  -0.1500 
  5 O        3.6340     2.7940     0.3440 O.3   1 <1>  -0.3630 
  6 C        1.4230     3.6390     0.6640 C.ar  1 <1>  -0.1440 
  7 C       -0.3570     2.8040    -0.7470 C.ar  1 <1>  -0.1430 
  8 C        4.4480     3.7820    -0.2390 C.3   1 <1>   0.1200 
  9 C        0.0910     3.6290     0.2740 C.ar  1 <1>  -0.1500 
 10 C        1.8520     4.5500     1.8060 C.3   1 <1>  -0.0960 
 11 C       -1.8210     2.8160    -1.1480 C.3   1 <1>  -0.0970 
 12 C        5.9090     3.3230    -0.1670 C.3   1 <1>  -0.1600 
 13 C        6.1390     2.0100    -0.9250 C.3   1 <1>   0.3430 
 14 N        6.4550     0.8650    -0.0140 N.4   1 <1>  -0.9590 
 15 C        6.8420    -0.3310    -0.8210 C.3   1 <1>   0.2630 
 16 C        5.3060     0.5130     0.8800 C.3   1 <1>   0.2630 
 17 H        0.2160     1.3110    -2.1790 H     1 <1>   0.1500 
 18 H        4.3050     4.7010     0.3030 H     1 <1>   0.0800 
 19 H        4.1410     3.9230    -1.2630 H     1 <1>   0.0800 
 20 H       -0.6140     4.2710     0.7740 H     1 <1>   0.1500 
 21 H        2.2370     5.4740     1.4140 H     1 <1>   0.0800 
 22 H        2.6130     4.0780     2.4010 H     1 <1>   0.0800 
 23 H        1.0180     4.7710     2.4470 H     1 <1>   0.0800 
 24 H       -1.9470     2.4310    -2.1440 H     1 <1>   0.0800 
 25 H       -2.2080     3.8190    -1.1220 H     1 <1>   0.0800 
 26 H       -2.3900     2.2070    -0.4680 H     1 <1>   0.0800 
 27 H        6.2280     3.2600     0.8580 H     1 <1>   0.0800 
 28 H        6.5030     4.0850    -0.6390 H     1 <1>   0.0800 
 29 H        6.9640     2.1510    -1.6040 H     1 <1>   0.0800 
 30 H        5.2690     1.7780    -1.5170 H     1 <1>   0.0800 
 31 H        7.2530     1.1380     0.5770 H     1 <1>   0.4500 
 32 H        6.0210    -0.6370    -1.4510 H     1 <1>   0.0800 
 33 H        7.1020    -1.1520    -0.1730 H     1 <1>   0.0800 
 34 H        7.6910    -0.1040    -1.4460 H     1 <1>   0.0800 
 35 H        4.4310     0.2830     0.2940 H     1 <1>   0.0800 
 36 H        5.0680     1.3400     1.5290 H     1 <1>   0.0800 
 37 H        5.5490    -0.3410     1.4910 H     1 <1>   0.0800 
@<TRIPOS>BOND
  1   1   2  1   
  2   2   3  ar  
  3   2   4  ar  
  4   3   5  1   
  5   3   6  ar  
  6   4   7  ar  
  7   4  17  1   
  8   5   8  1   
  9   6   9  ar  
 10   6  10  1   
 11   7   9  ar  
 12   7  11  1   
 13   8  12  1   
 14   8  18  1   
 15   8  19  1   
 16   9  20  1   
 17  10  21  1   
 18  10  22  1   
 19  10  23  1   
 20  11  24  1   
 21  11  25  1   
 22  11  26  1   
 23  12  13  1   
 24  12  27  1   
 25  12  28  1   
 26  13  14  1   
 27  13  29  1   
 28  13  30  1   
 29  14  15  1   
 30  14  16  1   
 31  14  31  1   
 32  15  32  1   
 33  15  33  1   
 34  15  34  1   
 35  16  35  1   
 36  16  36  1   
 37  16  37  1   
@<TRIPOS>SUBSTRUCTURE
  1 ****   3 GROUP 4 **** **** 0

# MOE 2024.06 (io_trps.svl 2023.06)
