@<TRIPOS>MOLECULE
NONAME
58 60 1 0 0 
SMALL
USER_CHARGES


@<TRIPOS>ATOM
  1 O       -1.4190     0.6360     0.4180 O.3   1 <1>  -0.3630 
  2 C       -0.9120     1.7920    -0.0700 C.ar  1 <1>   0.0820 
  3 C       -0.8470    -0.5500    -0.0870 C.3   1 <1>   0.0400 
  4 C       -1.5900     2.4420    -1.0990 C.ar  1 <1>  -0.1440 
  5 C        0.2640     2.3220     0.4600 C.ar  1 <1>  -0.1440 
  6 C       -1.0520     3.6000    -1.6350 C.ar  1 <1>  -0.1500 
  7 C       -2.9120     1.9110    -1.6430 C.3   1 <1>   0.2540 
  8 C        0.7950     3.4840    -0.0940 C.ar  1 <1>   0.0820 
  9 C        0.9750     1.6580     1.6390 C.3   1 <1>  -0.0960 
 10 C        0.1320     4.1160    -1.1430 C.ar  1 <1>  -0.1500 
 11 N       -4.0090     2.0810    -0.6660 N.3   1 <1>  -0.8100 
 12 O        1.9620     3.9600     0.4210 O.3   1 <1>  -0.3630 
 13 C       -5.2750     1.4960    -1.1330 C.3   1 <1>   0.1100 
 14 C       -4.1750     3.4680    -0.1920 C.3   1 <1>   0.1100 
 15 C        2.5930     5.1110    -0.0940 C.3   1 <1>   0.0400 
 16 C       -6.3390     1.5420    -0.0180 C.3   1 <1>   0.3430 
 17 C       -5.2240     3.5350     0.9340 C.3   1 <1>   0.3430 
 18 N       -6.5390     2.9370     0.5120 N.4   1 <1>  -0.9590 
 19 C       -7.5270     2.9870     1.6090 C.3   1 <1>   0.4810 
 20 C       -8.8870     2.7760     0.9900 C.2   1 <1>  -0.2880 
 21 C       -9.7850     3.7510     0.7670 C.2   1 <1>  -0.1780 
 22 C      -11.0990     3.6210     0.1750 C.ar  1 <1>   0.0280 
 23 C      -11.7490     4.7450    -0.3290 C.ar  1 <1>  -0.1500 
 24 C      -11.7610     2.3970     0.0840 C.ar  1 <1>  -0.1500 
 25 C      -13.0010     4.6540    -0.9080 C.ar  1 <1>  -0.1500 
 26 C      -13.0130     2.2990    -0.4940 C.ar  1 <1>  -0.1500 
 27 C      -13.6360     3.4280    -0.9940 C.ar  1 <1>  -0.1500 
 28 H        0.2000    -0.5700     0.1600 H     1 <1>   0.0800 
 29 H       -0.9770    -0.5730    -1.1540 H     1 <1>   0.0800 
 30 H       -1.3480    -1.3860     0.3670 H     1 <1>   0.0800 
 31 H       -1.5510     4.1110    -2.4390 H     1 <1>   0.1500 
 32 H       -2.7960     0.8650    -1.8660 H     1 <1>   0.0800 
 33 H       -3.1600     2.4180    -2.5590 H     1 <1>   0.0800 
 34 H        1.8170     1.0950     1.2830 H     1 <1>   0.0800 
 35 H        0.3180     1.0030     2.1790 H     1 <1>   0.0800 
 36 H        1.3270     2.4030     2.3300 H     1 <1>   0.0800 
 37 H        0.5210     5.0110    -1.5890 H     1 <1>   0.1500 
 38 H       -5.6290     2.0230    -2.0030 H     1 <1>   0.0800 
 39 H       -5.1090     0.4680    -1.4080 H     1 <1>   0.0800 
 40 H       -3.2440     3.8310     0.2080 H     1 <1>   0.0800 
 41 H       -4.4610     4.1100    -1.0070 H     1 <1>   0.0800 
 42 H        3.4950     5.2760     0.4680 H     1 <1>   0.0800 
 43 H        1.9320     5.9520     0.0220 H     1 <1>   0.0800 
 44 H        2.8320     4.9450    -1.1290 H     1 <1>   0.0800 
 45 H       -6.0150     0.8950     0.7800 H     1 <1>   0.0800 
 46 H       -7.2680     1.1570    -0.4040 H     1 <1>   0.0800 
 47 H       -5.3610     4.5620     1.2280 H     1 <1>   0.0800 
 48 H       -4.8340     2.9940     1.7810 H     1 <1>   0.0800 
 49 H       -6.9180     3.5050    -0.2540 H     1 <1>   0.4500 
 50 H       -7.3200     2.2350     2.3540 H     1 <1>   0.0800 
 51 H       -7.5000     3.9560     2.0790 H     1 <1>   0.0800 
 52 H       -9.0770     1.7490     0.7370 H     1 <1>   0.1500 
 53 H       -9.5510     4.7680     1.0360 H     1 <1>   0.1500 
 54 H      -11.2730     5.7070    -0.2720 H     1 <1>   0.1500 
 55 H      -11.3050     1.5070     0.4740 H     1 <1>   0.1500 
 56 H      -13.4850     5.5350    -1.2930 H     1 <1>   0.1500 
 57 H      -13.5080     1.3450    -0.5550 H     1 <1>   0.1500 
 58 H      -14.6100     3.3540    -1.4450 H     1 <1>   0.1500 
@<TRIPOS>BOND
  1   1   2  1   
  2   1   3  1   
  3   2   4  ar  
  4   2   5  ar  
  5   3  28  1   
  6   3  29  1   
  7   3  30  1   
  8   4   6  ar  
  9   4   7  1   
 10   5   8  ar  
 11   5   9  1   
 12   6  10  ar  
 13   6  31  1   
 14   7  11  1   
 15   7  32  1   
 16   7  33  1   
 17   8  10  ar  
 18   8  12  1   
 19   9  34  1   
 20   9  35  1   
 21   9  36  1   
 22  10  37  1   
 23  11  13  1   
 24  11  14  1   
 25  12  15  1   
 26  13  16  1   
 27  13  38  1   
 28  13  39  1   
 29  14  17  1   
 30  14  40  1   
 31  14  41  1   
 32  15  42  1   
 33  15  43  1   
 34  15  44  1   
 35  16  18  1   
 36  16  45  1   
 37  16  46  1   
 38  17  18  1   
 39  17  47  1   
 40  17  48  1   
 41  18  19  1   
 42  18  49  1   
 43  19  20  1   
 44  19  50  1   
 45  19  51  1   
 46  20  21  2   
 47  20  52  1   
 48  21  22  1   
 49  21  53  1   
 50  22  23  ar  
 51  22  24  ar  
 52  23  25  ar  
 53  23  54  1   
 54  24  26  ar  
 55  24  55  1   
 56  25  27  ar  
 57  25  56  1   
 58  26  27  ar  
 59  26  57  1   
 60  27  58  1   
@<TRIPOS>SUBSTRUCTURE
  1 ****  14 GROUP 4 **** **** 0

# MOE 2024.06 (io_trps.svl 2023.06)
