@<TRIPOS>MOLECULE
NONAME
53 54 1 0 0 
SMALL
USER_CHARGES


@<TRIPOS>ATOM
  1 O       -1.5550     1.5630     0.6230 O.2   1 <1>  -0.5700 
  2 C       -1.1270     2.6480     0.2590 C.2   1 <1>   0.5440 
  3 N       -2.0090     3.5990    -0.1700 N.am  1 <1>  -0.4300 
  4 C        0.2930     2.9380     0.3050 C.ar  1 <1>   0.0860 
  5 N       -3.4090     3.3500    -0.5270 N.am  1 <1>  -0.4300 
  6 C        1.0950     2.4430     1.3290 C.ar  1 <1>  -0.1500 
  7 C        0.9170     3.7200    -0.6640 C.ar  1 <1>  -0.1500 
  8 C       -3.8620     3.0980    -1.7850 C.2   1 <1>   0.5690 
  9 C        2.4460     2.7320     1.3930 C.ar  1 <1>  -0.1500 
 10 C        2.2680     4.0110    -0.6020 C.ar  1 <1>  -0.1500 
 11 O       -3.1780     3.2870    -2.7690 O.2   1 <1>  -0.5700 
 12 C       -5.2720     2.5680    -1.9760 C.3   1 <1>   0.0440 
 13 C        3.0630     3.5240     0.4320 C.ar  1 <1>  -0.1430 
 14 C       -6.2090     2.9710    -0.8410 C.ar  1 <1>  -0.1430 
 15 C        4.5760     3.8190     0.5460 C.3   1 <1>   0.1440 
 16 C       -6.3780     2.1440     0.2570 C.ar  1 <1>  -0.1500 
 17 C       -6.8910     4.1740    -0.8910 C.ar  1 <1>  -0.1500 
 18 C        5.3600     2.5000     0.5010 C.3   1 <1>  -0.2400 
 19 C        5.1070     4.7140    -0.5880 C.3   1 <1>  -0.2400 
 20 C        4.8620     4.5370     1.8730 C.3   1 <1>  -0.2400 
 21 C       -7.2140     2.5000     1.3030 C.ar  1 <1>   0.0830 
 22 C       -7.7250     4.5500     0.1480 C.ar  1 <1>  -0.1500 
 23 O       -7.2840     1.5840     2.3100 O.3   1 <1>  -0.3620 
 24 C       -7.8940     3.7280     1.2610 C.ar  1 <1>   0.0830 
 25 C       -8.4640     1.4100     3.0630 C.3   1 <1>   0.0400 
 26 O       -8.6870     4.1060     2.3070 O.3   1 <1>  -0.3630 
 27 C       -9.2850     5.3820     2.3760 C.3   1 <1>   0.0400 
 28 H       -1.6540     4.5340    -0.3900 H     1 <1>   0.3700 
 29 H       -4.0550     3.1980     0.2590 H     1 <1>   0.3700 
 30 H        0.6470     1.8220     2.0860 H     1 <1>   0.1500 
 31 H        0.3410     4.1000    -1.4900 H     1 <1>   0.1500 
 32 H        3.0160     2.3240     2.2080 H     1 <1>   0.1500 
 33 H        2.6810     4.6210    -1.3840 H     1 <1>   0.1500 
 34 H       -5.2210     1.4970    -2.0480 H     1 <1>   0.0800 
 35 H       -5.6540     2.9370    -2.9100 H     1 <1>   0.0800 
 36 H       -5.8600     1.2020     0.3170 H     1 <1>   0.1500 
 37 H       -6.7750     4.8290    -1.7380 H     1 <1>   0.1500 
 38 H        5.1390     1.9720    -0.4100 H     1 <1>   0.0800 
 39 H        5.1010     1.8650     1.3280 H     1 <1>   0.0800 
 40 H        6.4190     2.6840     0.5410 H     1 <1>   0.0800 
 41 H        4.9590     4.2400    -1.5420 H     1 <1>   0.0800 
 42 H        6.1600     4.8940    -0.4660 H     1 <1>   0.0800 
 43 H        4.6040     5.6640    -0.5860 H     1 <1>   0.0800 
 44 H        4.5980     3.9220     2.7130 H     1 <1>   0.0800 
 45 H        4.2900     5.4470     1.9300 H     1 <1>   0.0800 
 46 H        5.9050     4.7830     1.9560 H     1 <1>   0.0800 
 47 H       -8.2320     5.4910     0.0660 H     1 <1>   0.1500 
 48 H       -8.4270     0.4410     3.5240 H     1 <1>   0.0800 
 49 H       -9.3140     1.4760     2.4060 H     1 <1>   0.0800 
 50 H       -8.5070     2.1710     3.8210 H     1 <1>   0.0800 
 51 H       -9.8100     5.4530     3.3120 H     1 <1>   0.0800 
 52 H       -9.9790     5.4880     1.5610 H     1 <1>   0.0800 
 53 H       -8.5160     6.1320     2.3320 H     1 <1>   0.0800 
@<TRIPOS>BOND
  1   1   2  2   
  2   2   3  am  
  3   2   4  1   
  4   3   5  1   
  5   3  28  1   
  6   4   6  ar  
  7   4   7  ar  
  8   5   8  am  
  9   5  29  1   
 10   6   9  ar  
 11   6  30  1   
 12   7  10  ar  
 13   7  31  1   
 14   8  11  2   
 15   8  12  1   
 16   9  13  ar  
 17   9  32  1   
 18  10  13  ar  
 19  10  33  1   
 20  12  14  1   
 21  12  34  1   
 22  12  35  1   
 23  13  15  1   
 24  14  16  ar  
 25  14  17  ar  
 26  15  18  1   
 27  15  19  1   
 28  15  20  1   
 29  16  21  ar  
 30  16  36  1   
 31  17  22  ar  
 32  17  37  1   
 33  18  38  1   
 34  18  39  1   
 35  18  40  1   
 36  19  41  1   
 37  19  42  1   
 38  19  43  1   
 39  20  44  1   
 40  20  45  1   
 41  20  46  1   
 42  21  23  1   
 43  21  24  ar  
 44  22  24  ar  
 45  22  47  1   
 46  23  25  1   
 47  24  26  1   
 48  25  48  1   
 49  25  49  1   
 50  25  50  1   
 51  26  27  1   
 52  27  51  1   
 53  27  52  1   
 54  27  53  1   
@<TRIPOS>SUBSTRUCTURE
  1 ****   3 GROUP 4 **** **** 0

# MOE 2024.06 (io_trps.svl 2023.06)
