@<TRIPOS>MOLECULE
NONAME
46 48 1 0 0 
SMALL
USER_CHARGES


@<TRIPOS>ATOM
  1 O       -2.3590     0.7510    -1.0250 O.3   1 <1>  -0.5600 
  2 C       -3.3150     1.5960    -1.5940 C.3   1 <1>   0.1200 
  3 C       -2.3060     0.7720     0.3720 C.3   1 <1>   0.1200 
  4 C       -4.7230     1.2200    -1.0950 C.3   1 <1>   0.3430 
  5 C       -3.6670     0.3580     0.9620 C.3   1 <1>   0.3430 
  6 N       -4.7910     1.1970     0.4120 N.4   1 <1>  -0.9590 
  7 C       -6.1100     0.6910     0.9200 C.3   1 <1>   0.3430 
  8 C       -7.2770     1.6300     0.6000 C.3   1 <1>   0.1200 
  9 O       -8.4320     1.0520     1.1530 O.3   1 <1>  -0.3630 
 10 C       -9.6460     1.6430     1.0310 C.ar  1 <1>   0.0820 
 11 C       -9.8570     2.8650     0.3960 C.ar  1 <1>  -0.1500 
 12 C      -10.7250     0.9690     1.5790 C.ar  1 <1>  -0.1500 
 13 C      -11.1340     3.3930     0.3180 C.ar  1 <1>  -0.1500 
 14 C      -11.9990     1.5010     1.4990 C.ar  1 <1>  -0.1500 
 15 C      -12.2140     2.7170     0.8680 C.ar  1 <1>  -0.1440 
 16 C      -13.6200     3.3020     0.7890 C.3   1 <1>   0.1270 
 17 C      -14.6260     2.3100     0.2170 C.ar  1 <1>  -0.1440 
 18 C      -14.3990     1.7190    -1.0170 C.ar  1 <1>  -0.1500 
 19 C      -15.7810     1.9910     0.9180 C.ar  1 <1>  -0.1500 
 20 C      -15.3110     0.8220    -1.5450 C.ar  1 <1>  -0.1500 
 21 C      -16.6940     1.0940     0.3910 C.ar  1 <1>  -0.1500 
 22 C      -16.4600     0.5090    -0.8410 C.ar  1 <1>  -0.1500 
 23 H       -3.2570     1.4800    -2.6630 H     1 <1>   0.0800 
 24 H       -3.0690     2.6150    -1.3470 H     1 <1>   0.0800 
 25 H       -2.0220     1.7600     0.6940 H     1 <1>   0.0800 
 26 H       -1.5410     0.0800     0.6800 H     1 <1>   0.0800 
 27 H       -4.9690     0.2460    -1.4850 H     1 <1>   0.0800 
 28 H       -5.4360     1.9250    -1.4890 H     1 <1>   0.0800 
 29 H       -3.6300     0.4460     2.0360 H     1 <1>   0.0800 
 30 H       -3.8360    -0.6800     0.7210 H     1 <1>   0.0800 
 31 H       -4.6460     2.1570     0.7540 H     1 <1>   0.4500 
 32 H       -6.0590     0.5790     1.9910 H     1 <1>   0.0800 
 33 H       -6.3150    -0.2760     0.4900 H     1 <1>   0.0800 
 34 H       -7.4300     1.7200    -0.4600 H     1 <1>   0.0800 
 35 H       -7.1350     2.5930     1.0570 H     1 <1>   0.0800 
 36 H       -9.0520     3.4220    -0.0410 H     1 <1>   0.1500 
 37 H      -10.5680     0.0250     2.0690 H     1 <1>   0.1500 
 38 H      -11.2860     4.3380    -0.1740 H     1 <1>   0.1500 
 39 H      -12.8280     0.9630     1.9260 H     1 <1>   0.1500 
 40 H      -13.6210     4.1810     0.1710 H     1 <1>   0.0800 
 41 H      -13.9200     3.6030     1.7770 H     1 <1>   0.0800 
 42 H      -13.5050     1.9540    -1.5690 H     1 <1>   0.1500 
 43 H      -15.9760     2.4370     1.8770 H     1 <1>   0.1500 
 44 H      -15.1250     0.3680    -2.5020 H     1 <1>   0.1500 
 45 H      -17.5870     0.8510     0.9400 H     1 <1>   0.1500 
 46 H      -17.1700    -0.1880    -1.2510 H     1 <1>   0.1500 
@<TRIPOS>BOND
  1   1   2  1   
  2   1   3  1   
  3   2   4  1   
  4   2  23  1   
  5   2  24  1   
  6   3   5  1   
  7   3  25  1   
  8   3  26  1   
  9   4   6  1   
 10   4  27  1   
 11   4  28  1   
 12   5   6  1   
 13   5  29  1   
 14   5  30  1   
 15   6   7  1   
 16   6  31  1   
 17   7   8  1   
 18   7  32  1   
 19   7  33  1   
 20   8   9  1   
 21   8  34  1   
 22   8  35  1   
 23   9  10  1   
 24  10  11  ar  
 25  10  12  ar  
 26  11  13  ar  
 27  11  36  1   
 28  12  14  ar  
 29  12  37  1   
 30  13  15  ar  
 31  13  38  1   
 32  14  15  ar  
 33  14  39  1   
 34  15  16  1   
 35  16  17  1   
 36  16  40  1   
 37  16  41  1   
 38  17  18  ar  
 39  17  19  ar  
 40  18  20  ar  
 41  18  42  1   
 42  19  21  ar  
 43  19  43  1   
 44  20  22  ar  
 45  20  44  1   
 46  21  22  ar  
 47  21  45  1   
 48  22  46  1   
@<TRIPOS>SUBSTRUCTURE
  1 ****  10 GROUP 4 **** **** 0

# MOE 2024.06 (io_trps.svl 2023.06)
