@<TRIPOS>MOLECULE
NONAME
43 43 1 0 0 
SMALL
USER_CHARGES


@<TRIPOS>ATOM
  1 CL      -0.5170    -0.2980     0.9830 Cl    1 <1>  -0.1770 
  2 C        0.4950    -1.6370     0.4790 C.ar  1 <1>   0.1770 
  3 C       -0.0740    -2.8700     0.1780 C.ar  1 <1>   0.0820 
  4 C        1.8580    -1.4290     0.3900 C.ar  1 <1>  -0.1500 
  5 O       -1.4230    -3.0010     0.2870 O.3   1 <1>  -0.3630 
  6 C        0.7670    -3.9080    -0.2180 C.ar  1 <1>  -0.1500 
  7 C        2.6880    -2.4660    -0.0070 C.ar  1 <1>  -0.1430 
  8 C       -2.0800    -4.2100     0.0010 C.3   1 <1>   0.1200 
  9 C        2.1340    -3.7010    -0.3070 C.ar  1 <1>  -0.1500 
 10 C        4.1880    -2.2550    -0.1070 C.3   1 <1>  -0.0960 
 11 C       -3.5750    -3.9770     0.2310 C.3   1 <1>  -0.1600 
 12 C       -4.4060    -5.2360    -0.0520 C.3   1 <1>  -0.1600 
 13 C       -5.8890    -4.9570     0.1890 C.3   1 <1>   0.3430 
 14 N       -6.6680    -6.1870    -0.0950 N.4   1 <1>  -0.9060 
 15 C       -8.1150    -6.0430     0.1400 C.3   1 <1>   0.4230 
 16 C       -8.7150    -7.4540     0.2090 C.3   1 <1>  -0.1600 
 17 C       -8.7160    -5.2110    -0.9940 C.3   1 <1>  -0.2400 
 18 C      -10.1940    -7.4660     0.6280 C.3   1 <1>  -0.2400 
 19 H        2.2580    -0.4610     0.6320 H     1 <1>   0.1500 
 20 H        0.3820    -4.8800    -0.4610 H     1 <1>   0.1500 
 21 H       -1.6980    -4.9680     0.6630 H     1 <1>   0.0800 
 22 H       -1.8800    -4.4680    -1.0250 H     1 <1>   0.0800 
 23 H        2.7720    -4.5120    -0.6140 H     1 <1>   0.1500 
 24 H        4.4160    -1.2140    -0.2540 H     1 <1>   0.0800 
 25 H        4.5890    -2.8090    -0.9370 H     1 <1>   0.0800 
 26 H        4.6640    -2.5890     0.7970 H     1 <1>   0.0800 
 27 H       -3.8960    -3.1750    -0.4130 H     1 <1>   0.0800 
 28 H       -3.7160    -3.6690     1.2540 H     1 <1>   0.0800 
 29 H       -4.0720    -6.0270     0.5970 H     1 <1>   0.0800 
 30 H       -4.2520    -5.5320    -1.0760 H     1 <1>   0.0800 
 31 H       -6.2110    -4.1540    -0.4540 H     1 <1>   0.0800 
 32 H       -6.0370    -4.6530     1.2140 H     1 <1>   0.0800 
 33 H       -6.3190    -6.9490     0.4960 H     1 <1>   0.4500 
 34 H       -6.5260    -6.4750    -1.0690 H     1 <1>   0.4500 
 35 H       -8.2830    -5.5470     1.0840 H     1 <1>   0.0800 
 36 H       -8.1740    -8.0330     0.9380 H     1 <1>   0.0800 
 37 H       -8.6250    -7.9440    -0.7450 H     1 <1>   0.0800 
 38 H       -8.5940    -5.7020    -1.9440 H     1 <1>   0.0800 
 39 H       -8.2760    -4.2320    -1.0390 H     1 <1>   0.0800 
 40 H       -9.7690    -5.0720    -0.8270 H     1 <1>   0.0800 
 41 H      -10.3340    -6.9530     1.5640 H     1 <1>   0.0800 
 42 H      -10.5300    -8.4820     0.7510 H     1 <1>   0.0800 
 43 H      -10.8180    -7.0050    -0.1180 H     1 <1>   0.0800 
@<TRIPOS>BOND
  1   1   2  1   
  2   2   3  ar  
  3   2   4  ar  
  4   3   5  1   
  5   3   6  ar  
  6   4   7  ar  
  7   4  19  1   
  8   5   8  1   
  9   6   9  ar  
 10   6  20  1   
 11   7   9  ar  
 12   7  10  1   
 13   8  11  1   
 14   8  21  1   
 15   8  22  1   
 16   9  23  1   
 17  10  24  1   
 18  10  25  1   
 19  10  26  1   
 20  11  12  1   
 21  11  27  1   
 22  11  28  1   
 23  12  13  1   
 24  12  29  1   
 25  12  30  1   
 26  13  14  1   
 27  13  31  1   
 28  13  32  1   
 29  14  15  1   
 30  14  33  1   
 31  14  34  1   
 32  15  16  1   
 33  15  17  1   
 34  15  35  1   
 35  16  18  1   
 36  16  36  1   
 37  16  37  1   
 38  17  38  1   
 39  17  39  1   
 40  17  40  1   
 41  18  41  1   
 42  18  42  1   
 43  18  43  1   
@<TRIPOS>SUBSTRUCTURE
  1 ****   8 GROUP 4 **** **** 0

# MOE 2024.06 (io_trps.svl 2023.06)
