@<TRIPOS>MOLECULE
NONAME
50 52 1 0 0 
SMALL
USER_CHARGES


@<TRIPOS>ATOM
  1 O       -2.3750     0.7540     0.0000 O.3   1 <1>  -0.3630 
  2 C       -1.2790     1.5550    -0.1200 C.ar  1 <1>   0.0830 
  3 C       -2.5430    -0.1830     1.0470 C.3   1 <1>   0.1200 
  4 C       -1.3030     2.5220    -1.1230 C.ar  1 <1>  -0.1440 
  5 C       -0.1620     1.4540     0.7060 C.ar  1 <1>  -0.1500 
  6 C       -3.0200     0.5480     2.3030 C.3   1 <1>  -0.2400 
  7 C       -0.2180     3.3690    -1.2960 C.ar  1 <1>  -0.1500 
  8 C       -2.5180     2.6590    -2.0190 C.3   1 <1>   0.4860 
  9 C        0.9130     2.3050     0.5290 C.ar  1 <1>  -0.1500 
 10 C        0.8870     3.2610    -0.4710 C.ar  1 <1>  -0.1500 
 11 N       -3.6900     2.9340    -1.1560 N.4   1 <1>  -0.9590 
 12 C       -4.9900     2.7620    -1.8450 C.3   1 <1>   0.4860 
 13 C       -3.6140     4.2370    -0.4400 C.3   1 <1>   0.3430 
 14 C       -6.1250     2.9370    -0.8490 C.ar  1 <1>  -0.1430 
 15 C       -4.6090     4.2410     0.7220 C.3   1 <1>  -0.0170 
 16 C       -5.9560     3.6390     0.3420 C.ar  1 <1>  -0.1430 
 17 C       -7.3620     2.3810    -1.1430 C.ar  1 <1>  -0.1500 
 18 C       -7.0250     3.7870     1.2110 C.ar  1 <1>  -0.1500 
 19 C       -8.4260     2.5130    -0.2690 C.ar  1 <1>   0.0830 
 20 C       -8.2630     3.2470     0.9100 C.ar  1 <1>   0.0830 
 21 O       -9.5870     1.9060    -0.6190 O.3   1 <1>  -0.3630 
 22 O       -9.2680     3.4670     1.7900 O.3   1 <1>  -0.3620 
 23 C      -10.0840     0.9140     0.2550 C.3   1 <1>   0.0400 
 24 C      -10.3260     4.2860     1.3410 C.3   1 <1>   0.0400 
 25 H       -1.6240    -0.7200     1.2050 H     1 <1>   0.0800 
 26 H       -3.2920    -0.8880     0.7300 H     1 <1>   0.0800 
 27 H       -0.1020     0.7250     1.4910 H     1 <1>   0.1500 
 28 H       -2.2950     1.2720     2.6280 H     1 <1>   0.0800 
 29 H       -3.1620    -0.1630     3.0970 H     1 <1>   0.0800 
 30 H       -3.9610     1.0350     2.1180 H     1 <1>   0.0800 
 31 H       -0.2130     4.1180    -2.0700 H     1 <1>   0.1500 
 32 H       -2.6610     1.7330    -2.5530 H     1 <1>   0.0800 
 33 H       -2.3760     3.4550    -2.7310 H     1 <1>   0.0800 
 34 H        1.7760     2.2230     1.1680 H     1 <1>   0.1500 
 35 H        1.7310     3.9170    -0.6050 H     1 <1>   0.1500 
 36 H       -3.6370     2.1950    -0.4340 H     1 <1>   0.4500 
 37 H       -5.0480     1.7770    -2.2800 H     1 <1>   0.0800 
 38 H       -5.0930     3.4920    -2.6310 H     1 <1>   0.0800 
 39 H       -3.8520     5.0380    -1.1200 H     1 <1>   0.0800 
 40 H       -2.6200     4.3990    -0.0540 H     1 <1>   0.0800 
 41 H       -4.7440     5.2520     1.0620 H     1 <1>   0.0800 
 42 H       -4.1930     3.6780     1.5400 H     1 <1>   0.0800 
 43 H       -7.5240     1.8290    -2.0530 H     1 <1>   0.1500 
 44 H       -6.9160     4.3280     2.1350 H     1 <1>   0.1500 
 45 H      -10.8930     0.4070    -0.2380 H     1 <1>   0.0800 
 46 H      -10.4420     1.3770     1.1570 H     1 <1>   0.0800 
 47 H       -9.2960     0.2180     0.4800 H     1 <1>   0.0800 
 48 H      -11.0120     4.4260     2.1560 H     1 <1>   0.0800 
 49 H      -10.8270     3.8060     0.5200 H     1 <1>   0.0800 
 50 H       -9.9240     5.2340     1.0300 H     1 <1>   0.0800 
@<TRIPOS>BOND
  1   1   2  1   
  2   1   3  1   
  3   2   4  ar  
  4   2   5  ar  
  5   3   6  1   
  6   3  25  1   
  7   3  26  1   
  8   4   7  ar  
  9   4   8  1   
 10   5   9  ar  
 11   5  27  1   
 12   6  28  1   
 13   6  29  1   
 14   6  30  1   
 15   7  10  ar  
 16   7  31  1   
 17   8  11  1   
 18   8  32  1   
 19   8  33  1   
 20   9  10  ar  
 21   9  34  1   
 22  10  35  1   
 23  11  12  1   
 24  11  13  1   
 25  11  36  1   
 26  12  14  1   
 27  12  37  1   
 28  12  38  1   
 29  13  15  1   
 30  13  39  1   
 31  13  40  1   
 32  14  16  ar  
 33  14  17  ar  
 34  15  16  1   
 35  15  41  1   
 36  15  42  1   
 37  16  18  ar  
 38  17  19  ar  
 39  17  43  1   
 40  18  20  ar  
 41  18  44  1   
 42  19  20  ar  
 43  19  21  1   
 44  20  22  1   
 45  21  23  1   
 46  22  24  1   
 47  23  45  1   
 48  23  46  1   
 49  23  47  1   
 50  24  48  1   
 51  24  49  1   
 52  24  50  1   
@<TRIPOS>SUBSTRUCTURE
  1 ****  11 GROUP 4 **** **** 0

# MOE 2024.06 (io_trps.svl 2023.06)
