@<TRIPOS>MOLECULE
NONAME
29 29 1 0 0 
SMALL
USER_CHARGES


@<TRIPOS>ATOM
  1 F        0.2840    -0.6900    -0.4010 F     1 <1>  -0.3400 
  2 C        1.0330    -0.0950     0.5220 C.3   1 <1>   1.1640 
  3 F        2.1900    -0.7490     0.5240 F     1 <1>  -0.3400 
  4 F        0.4630    -0.3600     1.6910 F     1 <1>  -0.3400 
  5 C        1.1850     1.4100     0.2710 C.ar  1 <1>  -0.1440 
  6 C        0.0520     2.2180     0.1160 C.ar  1 <1>   0.1170 
  7 C        2.4500     1.9900     0.2080 C.ar  1 <1>  -0.1500 
  8 N       -1.2460     1.6790     0.1570 N.am  1 <1>  -0.5470 
  9 C        0.2270     3.5830    -0.0980 C.ar  1 <1>  -0.1500 
 10 C        2.6020     3.3480    -0.0050 C.ar  1 <1>  -0.1500 
 11 C       -2.4280     2.1960     0.6070 C.2   1 <1>   0.5690 
 12 C        1.4860     4.1460    -0.1580 C.ar  1 <1>  -0.1500 
 13 O       -2.5480     3.3060     1.0690 O.2   1 <1>  -0.5700 
 14 C       -3.6580     1.2970     0.5240 C.3   1 <1>   0.1810 
 15 O       -3.3300     0.0360    -0.0110 O.3   1 <1>  -0.5600 
 16 C       -4.3990    -0.8450    -0.0830 C.3   1 <1>   0.1200 
 17 C       -3.8760    -2.1490    -0.6710 C.3   1 <1>  -0.2400 
 18 H        3.3400     1.3930     0.3270 H     1 <1>   0.1500 
 19 H       -1.3700     0.7120    -0.1730 H     1 <1>   0.3700 
 20 H       -0.6330     4.2160    -0.2210 H     1 <1>   0.1500 
 21 H        3.5860     3.7830    -0.0510 H     1 <1>   0.1500 
 22 H        1.5950     5.2040    -0.3220 H     1 <1>   0.1500 
 23 H       -4.3940     1.7610    -0.1090 H     1 <1>   0.0800 
 24 H       -4.0610     1.1620     1.5110 H     1 <1>   0.0800 
 25 H       -5.1610    -0.4210    -0.7170 H     1 <1>   0.0800 
 26 H       -4.7890    -1.0050     0.9090 H     1 <1>   0.0800 
 27 H       -3.4780    -1.9780    -1.6550 H     1 <1>   0.0800 
 28 H       -4.6750    -2.8640    -0.7430 H     1 <1>   0.0800 
 29 H       -3.1060    -2.5560    -0.0390 H     1 <1>   0.0800 
@<TRIPOS>BOND
  1   1   2  1   
  2   2   3  1   
  3   2   4  1   
  4   2   5  1   
  5   5   6  ar  
  6   5   7  ar  
  7   6   8  1   
  8   6   9  ar  
  9   7  10  ar  
 10   7  18  1   
 11   8  11  am  
 12   8  19  1   
 13   9  12  ar  
 14   9  20  1   
 15  10  12  ar  
 16  10  21  1   
 17  11  13  2   
 18  11  14  1   
 19  12  22  1   
 20  14  15  1   
 21  14  23  1   
 22  14  24  1   
 23  15  16  1   
 24  16  17  1   
 25  16  25  1   
 26  16  26  1   
 27  17  27  1   
 28  17  28  1   
 29  17  29  1   
@<TRIPOS>SUBSTRUCTURE
  1 ****   8 GROUP 4 **** **** 0

# MOE 2024.06 (io_trps.svl 2023.06)
