@<TRIPOS>MOLECULE
NONAME
36 36 1 0 0 
SMALL
USER_CHARGES


@<TRIPOS>ATOM
  1 O        0.5120    -1.0900    -0.9530 O.2   1 <1>  -0.5700 
  2 C        0.1930    -1.5520     0.1260 C.2   1 <1>   0.6900 
  3 N        1.1560    -2.0020     0.9770 N.am  1 <1>  -0.6600 
  4 N       -1.0990    -1.6860     0.4880 N.am  1 <1>  -0.7300 
  5 C        1.2620    -3.4750     1.1510 C.3   1 <1>   0.1400 
  6 C        2.4830    -1.3230     0.9340 C.3   1 <1>   0.1400 
  7 C       -2.2530    -1.2280    -0.3120 C.3   1 <1>   0.1400 
  8 C        2.1240    -4.0730     0.0180 C.3   1 <1>   0.3430 
  9 C        3.3470    -1.9170    -0.1960 C.3   1 <1>   0.3430 
 10 C       -3.3850    -2.2470    -0.1850 C.3   1 <1>  -0.1600 
 11 N        3.4810    -3.4200    -0.0840 N.4   1 <1>  -0.9590 
 12 C       -4.6100    -1.8210    -1.0010 C.3   1 <1>  -0.2400 
 13 C        4.2360    -3.9870    -1.2300 C.3   1 <1>   0.3430 
 14 C        5.7110    -3.6260    -1.1040 C.3   1 <1>  -0.2400 
 15 H       -1.2870    -1.8590     1.4740 H     1 <1>   0.3700 
 16 H        0.2810    -3.9180     1.1220 H     1 <1>   0.0800 
 17 H        1.6970    -3.6970     2.1100 H     1 <1>   0.0800 
 18 H        2.9790    -1.4310     1.8830 H     1 <1>   0.0800 
 19 H        2.3400    -0.2700     0.7550 H     1 <1>   0.0800 
 20 H       -1.9660    -1.1250    -1.3460 H     1 <1>   0.0800 
 21 H       -2.5760    -0.2650     0.0480 H     1 <1>   0.0800 
 22 H        1.5910    -3.9380    -0.9100 H     1 <1>   0.0800 
 23 H        2.2380    -5.1320     0.1830 H     1 <1>   0.0800 
 24 H        4.3190    -1.4550    -0.1730 H     1 <1>   0.0800 
 25 H        2.8830    -1.6650    -1.1370 H     1 <1>   0.0800 
 26 H       -3.6700    -2.3430     0.8480 H     1 <1>   0.0800 
 27 H       -3.0440    -3.2030    -0.5400 H     1 <1>   0.0800 
 28 H        4.0000    -3.6280     0.7780 H     1 <1>   0.4500 
 29 H       -4.9840    -0.8720    -0.6560 H     1 <1>   0.0800 
 30 H       -5.3930    -2.5530    -0.9000 H     1 <1>   0.0800 
 31 H       -4.3570    -1.7350    -2.0440 H     1 <1>   0.0800 
 32 H        3.8380    -3.6110    -2.1610 H     1 <1>   0.0800 
 33 H        4.1400    -5.0610    -1.2330 H     1 <1>   0.0800 
 34 H        5.8690    -2.5670    -1.1940 H     1 <1>   0.0800 
 35 H        6.2570    -4.1030    -1.9000 H     1 <1>   0.0800 
 36 H        6.1150    -3.9780    -0.1720 H     1 <1>   0.0800 
@<TRIPOS>BOND
  1   1   2  2   
  2   2   3  am  
  3   2   4  am  
  4   3   5  1   
  5   3   6  1   
  6   4   7  1   
  7   4  15  1   
  8   5   8  1   
  9   5  16  1   
 10   5  17  1   
 11   6   9  1   
 12   6  18  1   
 13   6  19  1   
 14   7  10  1   
 15   7  20  1   
 16   7  21  1   
 17   8  11  1   
 18   8  22  1   
 19   8  23  1   
 20   9  11  1   
 21   9  24  1   
 22   9  25  1   
 23  10  12  1   
 24  10  26  1   
 25  10  27  1   
 26  11  13  1   
 27  11  28  1   
 28  12  29  1   
 29  12  30  1   
 30  12  31  1   
 31  13  14  1   
 32  13  32  1   
 33  13  33  1   
 34  14  34  1   
 35  14  35  1   
 36  14  36  1   
@<TRIPOS>SUBSTRUCTURE
  1 ****   2 GROUP 4 **** **** 0

# MOE 2024.06 (io_trps.svl 2023.06)
