@<TRIPOS>MOLECULE
NONAME
46 48 1 0 0 
SMALL
USER_CHARGES


@<TRIPOS>ATOM
  1 S        0.0090     0.0550    -0.5070 S.o2  1 <1>   1.4470 
  2 O        0.2470    -0.1580    -1.9170 O.2   1 <1>  -0.6500 
  3 O       -0.1000    -1.0740     0.3880 O.2   1 <1>  -0.6500 
  4 N       -1.5070     0.8210    -0.4430 N.am  1 <1>  -0.8490 
  5 C        1.1310     1.3060     0.1740 C.ar  1 <1>  -0.0090 
  6 C       -1.6230     1.9320    -1.4140 C.3   1 <1>   0.1960 
  7 C       -2.5910    -0.1620    -0.6630 C.3   1 <1>   0.1960 
  8 C        2.0320     1.9870    -0.6390 C.ar  1 <1>  -0.1500 
  9 C        1.0960     1.6340     1.5240 C.ar  1 <1>  -0.1500 
 10 C       -2.9910     2.6550    -1.3210 C.3   1 <1>   0.3430 
 11 C       -3.9990     0.4850    -0.6980 C.3   1 <1>   0.3430 
 12 C        2.8620     2.9670    -0.1250 C.ar  1 <1>  -0.1500 
 13 C        1.9240     2.6130     2.0470 C.ar  1 <1>  -0.1500 
 14 N       -3.9470     1.9590    -0.3870 N.4   1 <1>  -0.9590 
 15 C        2.8070     3.2830     1.2200 C.ar  1 <1>  -0.1500 
 16 C       -5.2810     2.6320    -0.3470 C.3   1 <1>   0.3430 
 17 C       -6.1450     2.1350     0.8130 C.3   1 <1>  -0.0170 
 18 C       -7.4300     2.9390     0.8310 C.ar  1 <1>  -0.1430 
 19 C       -7.5140     4.1080     1.5720 C.ar  1 <1>  -0.1500 
 20 C       -8.5300     2.5170     0.0980 C.ar  1 <1>  -0.1500 
 21 C       -8.6810     4.8520     1.5740 C.ar  1 <1>  -0.1500 
 22 C       -9.6970     3.2610     0.1010 C.ar  1 <1>  -0.1500 
 23 C       -9.7720     4.4290     0.8370 C.ar  1 <1>  -0.1500 
 24 H       -1.4970     1.5590    -2.4180 H     1 <1>   0.0800 
 25 H       -0.8400     2.6520    -1.2410 H     1 <1>   0.0800 
 26 H       -2.5740    -0.8940     0.1290 H     1 <1>   0.0800 
 27 H       -2.4250    -0.6940    -1.5860 H     1 <1>   0.0800 
 28 H        2.0910     1.7460    -1.6880 H     1 <1>   0.1500 
 29 H        0.4160     1.1140     2.1780 H     1 <1>   0.1500 
 30 H       -3.4180     2.7160    -2.3080 H     1 <1>   0.0800 
 31 H       -2.8250     3.6640    -0.9800 H     1 <1>   0.0800 
 32 H       -4.6280    -0.0240     0.0130 H     1 <1>   0.0800 
 33 H       -4.4270     0.3330    -1.6760 H     1 <1>   0.0800 
 34 H        3.5550     3.4820    -0.7690 H     1 <1>   0.1500 
 35 H        1.8850     2.8520     3.0960 H     1 <1>   0.1500 
 36 H       -3.4970     2.0200     0.5400 H     1 <1>   0.4500 
 37 H        3.4530     4.0440     1.6230 H     1 <1>   0.1500 
 38 H       -5.8060     2.4700    -1.2750 H     1 <1>   0.0800 
 39 H       -5.1440     3.6950    -0.2310 H     1 <1>   0.0800 
 40 H       -5.6280     2.2700     1.7470 H     1 <1>   0.0800 
 41 H       -6.3840     1.0940     0.6970 H     1 <1>   0.0800 
 42 H       -6.6790     4.4540     2.1580 H     1 <1>   0.1500 
 43 H       -8.4970     1.6090    -0.4780 H     1 <1>   0.1500 
 44 H       -8.7440     5.7590     2.1510 H     1 <1>   0.1500 
 45 H      -10.5500     2.9320    -0.4680 H     1 <1>   0.1500 
 46 H      -10.6810     5.0080     0.8400 H     1 <1>   0.1500 
@<TRIPOS>BOND
  1   1   2  2   
  2   1   3  2   
  3   1   4  am  
  4   1   5  1   
  5   4   6  1   
  6   4   7  1   
  7   5   8  ar  
  8   5   9  ar  
  9   6  10  1   
 10   6  24  1   
 11   6  25  1   
 12   7  11  1   
 13   7  26  1   
 14   7  27  1   
 15   8  12  ar  
 16   8  28  1   
 17   9  13  ar  
 18   9  29  1   
 19  10  14  1   
 20  10  30  1   
 21  10  31  1   
 22  11  14  1   
 23  11  32  1   
 24  11  33  1   
 25  12  15  ar  
 26  12  34  1   
 27  13  15  ar  
 28  13  35  1   
 29  14  16  1   
 30  14  36  1   
 31  15  37  1   
 32  16  17  1   
 33  16  38  1   
 34  16  39  1   
 35  17  18  1   
 36  17  40  1   
 37  17  41  1   
 38  18  19  ar  
 39  18  20  ar  
 40  19  21  ar  
 41  19  42  1   
 42  20  22  ar  
 43  20  43  1   
 44  21  23  ar  
 45  21  44  1   
 46  22  23  ar  
 47  22  45  1   
 48  23  46  1   
@<TRIPOS>SUBSTRUCTURE
  1 ****  14 GROUP 4 **** **** 0

# MOE 2024.06 (io_trps.svl 2023.06)
