@<TRIPOS>MOLECULE
NONAME
48 50 1 0 0 
SMALL
USER_CHARGES


@<TRIPOS>ATOM
  1 O       -0.7070     0.8540    -0.1010 O.3   1 <1>  -0.3630 
  2 C       -0.1130     2.0730    -0.1000 C.ar  1 <1>   0.0830 
  3 C       -0.5850    -0.0130     1.0030 C.3   1 <1>   0.2580 
  4 C       -0.7280     3.0900    -0.8250 C.ar  1 <1>  -0.1440 
  5 C        1.0610     2.3270     0.6000 C.ar  1 <1>  -0.1500 
  6 C       -1.8610    -0.8290     1.0420 C.2   1 <1>  -0.2880 
  7 C       -0.1690     4.3590    -0.8320 C.ar  1 <1>  -0.1500 
  8 C       -2.0050     2.8130    -1.5990 C.3   1 <1>   0.4870 
  9 C        1.6080     3.5970     0.5880 C.ar  1 <1>  -0.1500 
 10 C       -2.7860    -0.7770     2.0060 C.2   1 <1>  -0.3000 
 11 C        0.9930     4.6120    -0.1250 C.ar  1 <1>  -0.1500 
 12 N       -3.0310     2.2930    -0.6610 N.4   1 <1>  -0.9590 
 13 C       -4.2350     1.7230    -1.3570 C.3   1 <1>   0.3430 
 14 C       -3.4170     3.2980     0.3910 C.3   1 <1>   0.3430 
 15 C       -5.2400     1.1030    -0.3640 C.3   1 <1>   0.2090 
 16 C       -4.4290     2.7290     1.4090 C.3   1 <1>   0.2090 
 17 N       -5.5820     2.0600     0.7310 N.pl3 1 <1>  -0.8380 
 18 C       -6.8350     2.6720     0.6940 C.ar  1 <1>   0.1000 
 19 C       -7.9740     1.9090     0.9200 C.ar  1 <1>  -0.1500 
 20 C       -6.9890     4.0290     0.4250 C.ar  1 <1>  -0.1500 
 21 C       -9.2330     2.4780     0.8750 C.ar  1 <1>  -0.1500 
 22 C       -8.2470     4.6030     0.3800 C.ar  1 <1>  -0.1500 
 23 C       -9.3710     3.8280     0.6040 C.ar  1 <1>  -0.1500 
 24 H       -0.4820     0.5690     1.9040 H     1 <1>   0.0800 
 25 H        0.2820    -0.6360     0.8630 H     1 <1>   0.0800 
 26 H        1.5640     1.5510     1.1470 H     1 <1>   0.1500 
 27 H       -1.9500    -1.4810     0.1880 H     1 <1>   0.1500 
 28 H       -0.6230     5.1640    -1.3860 H     1 <1>   0.1500 
 29 H       -1.7950     2.0770    -2.3580 H     1 <1>   0.0800 
 30 H       -2.3550     3.7120    -2.0780 H     1 <1>   0.0800 
 31 H        2.5170     3.7980     1.1300 H     1 <1>   0.1500 
 32 H       -3.6830    -1.3750     2.0120 H     1 <1>   0.1500 
 33 H       -2.7290    -0.1480     2.8790 H     1 <1>   0.1500 
 34 H        1.4280     5.5980    -0.1320 H     1 <1>   0.1500 
 35 H       -2.5520     1.5150    -0.1720 H     1 <1>   0.4500 
 36 H       -3.9290     0.9670    -2.0610 H     1 <1>   0.0800 
 37 H       -4.7410     2.5020    -1.9020 H     1 <1>   0.0800 
 38 H       -3.8620     4.1580    -0.0800 H     1 <1>   0.0800 
 39 H       -2.5390     3.6290     0.9220 H     1 <1>   0.0800 
 40 H       -4.8220     0.2090     0.0660 H     1 <1>   0.0800 
 41 H       -6.1340     0.8240    -0.8940 H     1 <1>   0.0800 
 42 H       -4.7900     3.5210     2.0430 H     1 <1>   0.0800 
 43 H       -3.9360     2.0120     2.0410 H     1 <1>   0.0800 
 44 H       -7.8670     0.8630     1.1400 H     1 <1>   0.1500 
 45 H       -6.1300     4.6430     0.2450 H     1 <1>   0.1500 
 46 H      -10.1050     1.8740     1.0540 H     1 <1>   0.1500 
 47 H       -8.3560     5.6540     0.1720 H     1 <1>   0.1500 
 48 H      -10.3510     4.2740     0.5690 H     1 <1>   0.1500 
@<TRIPOS>BOND
  1   1   2  1   
  2   1   3  1   
  3   2   4  ar  
  4   2   5  ar  
  5   3   6  1   
  6   3  24  1   
  7   3  25  1   
  8   4   7  ar  
  9   4   8  1   
 10   5   9  ar  
 11   5  26  1   
 12   6  10  2   
 13   6  27  1   
 14   7  11  ar  
 15   7  28  1   
 16   8  12  1   
 17   8  29  1   
 18   8  30  1   
 19   9  11  ar  
 20   9  31  1   
 21  10  32  1   
 22  10  33  1   
 23  11  34  1   
 24  12  13  1   
 25  12  14  1   
 26  12  35  1   
 27  13  15  1   
 28  13  36  1   
 29  13  37  1   
 30  14  16  1   
 31  14  38  1   
 32  14  39  1   
 33  15  17  1   
 34  15  40  1   
 35  15  41  1   
 36  16  17  1   
 37  16  42  1   
 38  16  43  1   
 39  17  18  1   
 40  18  19  ar  
 41  18  20  ar  
 42  19  21  ar  
 43  19  44  1   
 44  20  22  ar  
 45  20  45  1   
 46  21  23  ar  
 47  21  46  1   
 48  22  23  ar  
 49  22  47  1   
 50  23  48  1   
@<TRIPOS>SUBSTRUCTURE
  1 ****  14 GROUP 4 **** **** 0

# MOE 2024.06 (io_trps.svl 2023.06)
