@<TRIPOS>MOLECULE
NONAME
40 42 1 0 0 
SMALL
USER_CHARGES


@<TRIPOS>ATOM
  1 O        0.1710    -2.2420    -2.2960 O.2   1 <1>  -0.5700 
  2 C       -0.3940    -2.0270    -1.2490 C.2   1 <1>   0.5690 
  3 N        0.2270    -1.4900    -0.1670 N.am  1 <1>  -0.5790 
  4 C       -1.8800    -2.3680    -1.1120 C.3   1 <1>   0.1710 
  5 C        1.6300    -1.0720    -0.0700 C.3   1 <1>   0.0490 
  6 N       -2.5950    -1.5680    -0.0730 N.3   1 <1>  -0.8100 
  7 C        2.3040    -1.1810     1.2570 C.3   1 <1>  -0.2000 
  8 C        1.9390     0.1650     0.7050 C.3   1 <1>  -0.2000 
  9 C       -3.9110    -2.1700     0.2380 C.3   1 <1>   0.1100 
 10 C       -2.7980    -0.1700    -0.5320 C.3   1 <1>   0.1100 
 11 C       -4.6930    -1.3700     1.3020 C.3   1 <1>   0.2090 
 12 C       -3.5130     0.6940     0.5240 C.3   1 <1>   0.2090 
 13 N       -4.8020     0.0780     0.9530 N.pl3 1 <1>  -0.8380 
 14 C       -5.9870     0.6120     0.4470 C.ar  1 <1>   0.1000 
 15 C       -6.7720    -0.0660    -0.4810 C.ar  1 <1>  -0.1500 
 16 C       -6.4030     1.8680     0.8700 C.ar  1 <1>  -0.1500 
 17 C       -7.9380     0.4950    -0.9700 C.ar  1 <1>  -0.1500 
 18 C       -7.5670     2.4360     0.3840 C.ar  1 <1>  -0.1500 
 19 C       -8.3370     1.7490    -0.5390 C.ar  1 <1>  -0.1500 
 20 H       -0.3720    -1.3090     0.6440 H     1 <1>   0.3700 
 21 H       -1.9370    -3.4110    -0.8570 H     1 <1>   0.0800 
 22 H       -2.3540    -2.2370    -2.0690 H     1 <1>   0.0800 
 23 H        2.2000    -1.2840    -0.9620 H     1 <1>   0.1000 
 24 H        3.3430    -1.4560     1.2840 H     1 <1>   0.1000 
 25 H        1.7480    -1.5760     2.0890 H     1 <1>   0.1000 
 26 H        1.1300     0.7130     1.1540 H     1 <1>   0.1000 
 27 H        2.7330     0.8040     0.3590 H     1 <1>   0.1000 
 28 H       -3.7670    -3.1710     0.6040 H     1 <1>   0.0800 
 29 H       -4.5040    -2.2270    -0.6580 H     1 <1>   0.0800 
 30 H       -3.3880    -0.1620    -1.4330 H     1 <1>   0.0800 
 31 H       -1.8480     0.2830    -0.7550 H     1 <1>   0.0800 
 32 H       -4.1870    -1.4590     2.2470 H     1 <1>   0.0800 
 33 H       -5.6780    -1.7880     1.4200 H     1 <1>   0.0800 
 34 H       -3.6980     1.6720     0.1140 H     1 <1>   0.0800 
 35 H       -2.8760     0.8080     1.3820 H     1 <1>   0.0800 
 36 H       -6.4670    -1.0330    -0.8270 H     1 <1>   0.1500 
 37 H       -5.8050     2.3920     1.5910 H     1 <1>   0.1500 
 38 H       -8.5350    -0.0400    -1.6870 H     1 <1>   0.1500 
 39 H       -7.8740     3.4090     0.7240 H     1 <1>   0.1500 
 40 H       -9.2430     2.1880    -0.9180 H     1 <1>   0.1500 
@<TRIPOS>BOND
  1   1   2  2   
  2   2   3  am  
  3   2   4  1   
  4   3   5  1   
  5   3  20  1   
  6   4   6  1   
  7   4  21  1   
  8   4  22  1   
  9   5   7  1   
 10   5   8  1   
 11   5  23  1   
 12   6   9  1   
 13   6  10  1   
 14   7   8  1   
 15   7  24  1   
 16   7  25  1   
 17   8  26  1   
 18   8  27  1   
 19   9  11  1   
 20   9  28  1   
 21   9  29  1   
 22  10  12  1   
 23  10  30  1   
 24  10  31  1   
 25  11  13  1   
 26  11  32  1   
 27  11  33  1   
 28  12  13  1   
 29  12  34  1   
 30  12  35  1   
 31  13  14  1   
 32  14  15  ar  
 33  14  16  ar  
 34  15  17  ar  
 35  15  36  1   
 36  16  18  ar  
 37  16  37  1   
 38  17  19  ar  
 39  17  38  1   
 40  18  19  ar  
 41  18  39  1   
 42  19  40  1   
@<TRIPOS>SUBSTRUCTURE
  1 ****  10 GROUP 4 **** **** 0

# MOE 2024.06 (io_trps.svl 2023.06)
