@<TRIPOS>MOLECULE
NONAME
39 39 1 0 0 
SMALL
USER_CHARGES


@<TRIPOS>ATOM
  1 O       -0.5210    -0.3660     0.9380 O.2   1 <1>  -0.5700 
  2 C       -0.9070    -1.1750     0.1140 C.2   1 <1>   0.6900 
  3 N       -2.2240    -1.2030    -0.2800 N.am  1 <1>  -0.6600 
  4 N       -0.0530    -2.0970    -0.4140 N.am  1 <1>  -0.5470 
  5 C       -2.6690    -1.8110    -1.5620 C.3   1 <1>   0.1400 
  6 C       -3.2350    -0.3830     0.4410 C.3   1 <1>   0.1400 
  7 C        1.3050    -2.3090    -0.1390 C.ar  1 <1>   0.1170 
  8 C       -3.2510    -3.1990    -1.3040 C.3   1 <1>  -0.2400 
  9 C       -3.7050    -1.1270     1.6880 C.3   1 <1>  -0.2400 
 10 C        1.6980    -3.5060     0.4630 C.ar  1 <1>  -0.1430 
 11 C        2.2780    -1.3660    -0.4820 C.ar  1 <1>  -0.1430 
 12 C        3.0380    -3.7480     0.7130 C.ar  1 <1>  -0.1500 
 13 C        0.6710    -4.5580     0.8660 C.3   1 <1>  -0.0970 
 14 C        3.6120    -1.6260    -0.2170 C.ar  1 <1>  -0.1500 
 15 C        1.9140    -0.0450    -1.1490 C.3   1 <1>  -0.0970 
 16 C        4.0000    -2.8130     0.3790 C.ar  1 <1>  -0.1430 
 17 C        5.4670    -3.0840     0.6610 C.3   1 <1>  -0.0970 
 18 H       -0.5400    -2.8860    -0.8170 H     1 <1>   0.3700 
 19 H       -1.8380    -1.8820    -2.2430 H     1 <1>   0.0800 
 20 H       -3.4100    -1.1820    -2.0270 H     1 <1>   0.0800 
 21 H       -4.0750    -0.1750    -0.1990 H     1 <1>   0.0800 
 22 H       -2.7980     0.5600     0.7270 H     1 <1>   0.0800 
 23 H       -2.5370    -3.8230    -0.7980 H     1 <1>   0.0800 
 24 H       -3.5110    -3.6610    -2.2390 H     1 <1>   0.0800 
 25 H       -4.1420    -3.1240    -0.7080 H     1 <1>   0.0800 
 26 H       -4.1580    -2.0650     1.4250 H     1 <1>   0.0800 
 27 H       -4.4290    -0.5320     2.2130 H     1 <1>   0.0800 
 28 H       -2.8710    -1.3040     2.3450 H     1 <1>   0.0800 
 29 H        3.3400    -4.6700     1.1760 H     1 <1>   0.1500 
 30 H       -0.0830    -4.1130     1.4900 H     1 <1>   0.0800 
 31 H        1.1330    -5.3560     1.4180 H     1 <1>   0.0800 
 32 H        0.2060    -4.9740    -0.0090 H     1 <1>   0.0800 
 33 H        4.3590    -0.8970    -0.4760 H     1 <1>   0.1500 
 34 H        1.1750    -0.2010    -1.9140 H     1 <1>   0.0800 
 35 H        2.7760     0.4090    -1.6010 H     1 <1>   0.0800 
 36 H        1.5160     0.6320    -0.4150 H     1 <1>   0.0800 
 37 H        5.5720    -3.7290     1.5140 H     1 <1>   0.0800 
 38 H        5.9850    -2.1640     0.8650 H     1 <1>   0.0800 
 39 H        5.9190    -3.5560    -0.1930 H     1 <1>   0.0800 
@<TRIPOS>BOND
  1   1   2  2   
  2   2   3  am  
  3   2   4  am  
  4   3   5  1   
  5   3   6  1   
  6   4   7  1   
  7   4  18  1   
  8   5   8  1   
  9   5  19  1   
 10   5  20  1   
 11   6   9  1   
 12   6  21  1   
 13   6  22  1   
 14   7  10  ar  
 15   7  11  ar  
 16   8  23  1   
 17   8  24  1   
 18   8  25  1   
 19   9  26  1   
 20   9  27  1   
 21   9  28  1   
 22  10  12  ar  
 23  10  13  1   
 24  11  14  ar  
 25  11  15  1   
 26  12  16  ar  
 27  12  29  1   
 28  13  30  1   
 29  13  31  1   
 30  13  32  1   
 31  14  16  ar  
 32  14  33  1   
 33  15  34  1   
 34  15  35  1   
 35  15  36  1   
 36  16  17  1   
 37  17  37  1   
 38  17  38  1   
 39  17  39  1   
@<TRIPOS>SUBSTRUCTURE
  1 ****   4 GROUP 4 **** **** 0

# MOE 2024.06 (io_trps.svl 2023.06)
