@<TRIPOS>MOLECULE
NONAME
32 34 1 0 0 
SMALL
USER_CHARGES


@<TRIPOS>ATOM
  1 S        0.0790     0.4580     0.0130 S.3   1 <1>  -0.3320 
  2 C        1.8660     0.3800     0.0100 C.ar  1 <1>   0.7220 
  3 C       -0.4740    -1.3050     0.0050 C.3   1 <1>   0.0700 
  4 N        2.4070    -0.8630     0.0030 N.ar  1 <1>  -0.3100 
  5 N        2.4850     1.5330     0.0150 N.ar  1 <1>  -0.5670 
  6 C       -2.0040    -1.3210     0.0070 C.3   1 <1>  -0.1600 
  7 N        3.7010    -1.0070     0.0000 N.ar  1 <1>  -0.2560 
  8 C        3.8100     1.3700     0.0120 C.ar  1 <1>   0.1050 
  9 C       -2.5430    -2.7550     0.0010 C.3   1 <1>  -0.2400 
 10 C        4.4140     0.1250     0.0050 C.ar  1 <1>   0.2560 
 11 N        4.7770     2.3430     0.0150 N.pl3 1 <1>   0.0480 
 12 C        5.8180     0.3400     0.0040 C.ar  1 <1>   0.0000 
 13 C        6.0140     1.7220     0.0100 C.ar  1 <1>  -0.1520 
 14 C        4.5400     3.7990     0.0230 C.3   1 <1>   0.0160 
 15 C        6.9170    -0.5210    -0.0020 C.ar  1 <1>  -0.1500 
 16 C        7.3010     2.2690     0.0110 C.ar  1 <1>  -0.1500 
 17 C        8.1720     0.0410    -0.0020 C.ar  1 <1>   0.1900 
 18 C        8.3870     1.4190     0.0050 C.ar  1 <1>  -0.1500 
 19 F        9.2180    -0.7450    -0.0070 F     1 <1>  -0.1900 
 20 H       -0.0700    -1.7740     0.8850 H     1 <1>   0.0800 
 21 H       -0.0730    -1.7660    -0.8810 H     1 <1>   0.0800 
 22 H       -2.3660    -0.8000    -0.8620 H     1 <1>   0.0800 
 23 H       -2.3630    -0.8080     0.8830 H     1 <1>   0.0800 
 24 H       -2.2100    -3.2800    -0.8770 H     1 <1>   0.0800 
 25 H       -3.6190    -2.7430     0.0030 H     1 <1>   0.0800 
 26 H       -2.2070    -3.2880     0.8730 H     1 <1>   0.0800 
 27 H        3.4830     3.9970     0.0260 H     1 <1>   0.0800 
 28 H        4.9810     4.2350    -0.8550 H     1 <1>   0.0800 
 29 H        4.9850     4.2270     0.9020 H     1 <1>   0.0800 
 30 H        6.7780    -1.5860    -0.0070 H     1 <1>   0.1500 
 31 H        7.4410     3.3360     0.0160 H     1 <1>   0.1500 
 32 H        9.3950     1.7940     0.0050 H     1 <1>   0.1500 
@<TRIPOS>BOND
  1   1   2  1   
  2   1   3  1   
  3   2   4  ar  
  4   2   5  ar  
  5   3   6  1   
  6   3  20  1   
  7   3  21  1   
  8   4   7  ar  
  9   5   8  ar  
 10   6   9  1   
 11   6  22  1   
 12   6  23  1   
 13   7  10  ar  
 14   8  10  ar  
 15   8  11  1   
 16   9  24  1   
 17   9  25  1   
 18   9  26  1   
 19  10  12  1   
 20  11  13  1   
 21  11  14  1   
 22  12  13  ar  
 23  12  15  ar  
 24  13  16  ar  
 25  14  27  1   
 26  14  28  1   
 27  14  29  1   
 28  15  17  ar  
 29  15  30  1   
 30  16  18  ar  
 31  16  31  1   
 32  17  18  ar  
 33  17  19  1   
 34  18  32  1   
@<TRIPOS>SUBSTRUCTURE
  1 ****  10 GROUP 4 **** **** 0

# MOE 2024.06 (io_trps.svl 2023.06)
