@<TRIPOS>MOLECULE
NONAME
33 35 1 0 0 
SMALL
USER_CHARGES


@<TRIPOS>ATOM
  1 O       -0.3470     0.0110     0.0940 O.2   1 <1>  -0.5700 
  2 C       -0.1490    -1.1220    -0.2720 C.2   1 <1>   0.5690 
  3 N        1.0960    -1.6890    -0.3140 N.am  1 <1>  -0.5470 
  4 C       -1.3360    -1.9690    -0.7510 C.3   1 <1>  -0.0190 
  5 C        2.3650    -1.1920     0.0220 C.ar  1 <1>   0.1170 
  6 C       -2.7790    -1.6070    -0.0510 C.3   1 <1>  -0.0800 
  7 C       -1.1260    -3.6340    -0.6050 C.3   1 <1>  -0.1600 
  8 C        2.6520     0.1660     0.1280 C.ar  1 <1>  -0.1500 
  9 C        3.3940    -2.1000     0.2450 C.ar  1 <1>  -0.1500 
 10 C       -2.6530    -2.9400    -0.0610 C.3   1 <1>  -0.1600 
 11 C       -4.1830    -2.2460     0.4890 C.3   1 <1>  -0.1600 
 12 C       -2.5280    -4.2710    -0.0560 C.3   1 <1>  -0.0800 
 13 C        3.9250     0.6010     0.4510 C.ar  1 <1>  -0.1500 
 14 C        4.6690    -1.6710     0.5680 C.ar  1 <1>  -0.1500 
 15 C       -3.9770    -3.9020     0.6050 C.3   1 <1>  -0.1600 
 16 C        4.9370    -0.3170     0.6720 C.ar  1 <1>  -0.1500 
 17 H        1.0970    -2.6600    -0.6140 H     1 <1>   0.3700 
 18 H       -1.4210    -1.7370    -1.8030 H     1 <1>   0.0800 
 19 H       -2.4820    -1.0230     0.8100 H     1 <1>   0.0800 
 20 H       -0.3450    -3.8700     0.1030 H     1 <1>   0.0800 
 21 H       -0.8490    -4.0660    -1.5540 H     1 <1>   0.0800 
 22 H        1.8830     0.8960    -0.0450 H     1 <1>   0.1500 
 23 H        3.2000    -3.1540     0.1700 H     1 <1>   0.1500 
 24 H       -3.1160    -2.9960    -1.1430 H     1 <1>   0.0800 
 25 H       -2.1950    -2.8860     1.0220 H     1 <1>   0.0800 
 26 H       -4.9830    -2.0170    -0.1990 H     1 <1>   0.0800 
 27 H       -4.4530    -1.8310     1.4480 H     1 <1>   0.0800 
 28 H       -2.8330    -4.8710    -0.9040 H     1 <1>   0.0800 
 29 H        4.1270     1.6550     0.5310 H     1 <1>   0.1500 
 30 H        5.4540    -2.3870     0.7390 H     1 <1>   0.1500 
 31 H       -4.7780    -4.4180     0.0990 H     1 <1>   0.0800 
 32 H       -3.9990    -4.2060     1.6410 H     1 <1>   0.0800 
 33 H        5.9270     0.0210     0.9240 H     1 <1>   0.1500 
@<TRIPOS>BOND
  1   1   2  2   
  2   2   3  am  
  3   2   4  1   
  4   3   5  1   
  5   3  17  1   
  6   4   6  1   
  7   4   7  1   
  8   4  18  1   
  9   5   8  ar  
 10   5   9  ar  
 11   6  10  1   
 12   6  11  1   
 13   6  19  1   
 14   7  12  1   
 15   7  20  1   
 16   7  21  1   
 17   8  13  ar  
 18   8  22  1   
 19   9  14  ar  
 20   9  23  1   
 21  10  12  1   
 22  10  24  1   
 23  10  25  1   
 24  11  15  1   
 25  11  26  1   
 26  11  27  1   
 27  12  15  1   
 28  12  28  1   
 29  13  16  ar  
 30  13  29  1   
 31  14  16  ar  
 32  14  30  1   
 33  15  31  1   
 34  15  32  1   
 35  16  33  1   
@<TRIPOS>SUBSTRUCTURE
  1 ****   2 GROUP 4 **** **** 0

# MOE 2024.06 (io_trps.svl 2023.06)
