@<TRIPOS>MOLECULE
NONAME
31 31 1 0 0 
SMALL
USER_CHARGES


@<TRIPOS>ATOM
  1 CL       0.8970     0.3200    -2.4910 Cl    1 <1>  -0.1770 
  2 C        0.9490     1.6250    -1.3330 C.ar  1 <1>   0.1770 
  3 C        1.9420     1.6540    -0.3570 C.ar  1 <1>   0.0860 
  4 C       -0.0250     2.6040    -1.4240 C.ar  1 <1>  -0.1500 
  5 C        1.9000     2.7170     0.5410 C.ar  1 <1>   0.1770 
  6 C        2.9610     0.6430    -0.2810 C.2   1 <1>   0.5440 
  7 C       -0.0330     3.6540    -0.5210 C.ar  1 <1>  -0.1500 
  8 CL       3.0750     2.8260     1.8280 Cl    1 <1>  -0.1770 
  9 C        0.9350     3.7070     0.4670 C.ar  1 <1>  -0.1500 
 10 O        4.0840     0.9030    -0.6580 O.2   1 <1>  -0.5700 
 11 N        2.6410    -0.5990     0.2030 N.am  1 <1>  -0.7300 
 12 C        3.4690    -1.7940     0.4440 C.3   1 <1>   0.3000 
 13 C        3.5380    -2.6640    -0.8310 C.3   1 <1>  -0.1600 
 14 C        2.7330    -2.5780     1.5320 C.3   1 <1>  -0.2400 
 15 C        4.8560    -1.4290     0.9880 C.3   1 <1>  -0.2400 
 16 C        4.1560    -2.0050    -2.0760 C.3   1 <1>  -0.2400 
 17 H       -0.7700     2.5430    -2.1980 H     1 <1>   0.1500 
 18 H       -0.7870     4.4220    -0.5860 H     1 <1>   0.1500 
 19 H        0.9450     4.5120     1.1810 H     1 <1>   0.1500 
 20 H        1.6570    -0.7840     0.3850 H     1 <1>   0.3700 
 21 H        2.5440    -2.9890    -1.0840 H     1 <1>   0.0800 
 22 H        4.1090    -3.5470    -0.6060 H     1 <1>   0.0800 
 23 H        3.2720    -3.4780     1.7690 H     1 <1>   0.0800 
 24 H        1.7470    -2.8570     1.2040 H     1 <1>   0.0800 
 25 H        2.6530    -1.9910     2.4300 H     1 <1>   0.0800 
 26 H        5.3820    -2.3160     1.2890 H     1 <1>   0.0800 
 27 H        4.7640    -0.7800     1.8400 H     1 <1>   0.0800 
 28 H        5.4550    -0.9360     0.2470 H     1 <1>   0.0800 
 29 H        3.5750    -1.1550    -2.3840 H     1 <1>   0.0800 
 30 H        4.1790    -2.7080    -2.8890 H     1 <1>   0.0800 
 31 H        5.1610    -1.6780    -1.8830 H     1 <1>   0.0800 
@<TRIPOS>BOND
  1   1   2  1   
  2   2   3  ar  
  3   2   4  ar  
  4   3   5  ar  
  5   3   6  1   
  6   4   7  ar  
  7   4  17  1   
  8   5   8  1   
  9   5   9  ar  
 10   6  10  2   
 11   6  11  am  
 12   7   9  ar  
 13   7  18  1   
 14   9  19  1   
 15  11  12  1   
 16  11  20  1   
 17  12  13  1   
 18  12  14  1   
 19  12  15  1   
 20  13  16  1   
 21  13  21  1   
 22  13  22  1   
 23  14  23  1   
 24  14  24  1   
 25  14  25  1   
 26  15  26  1   
 27  15  27  1   
 28  15  28  1   
 29  16  29  1   
 30  16  30  1   
 31  16  31  1   
@<TRIPOS>SUBSTRUCTURE
  1 ****   6 GROUP 4 **** **** 0

# MOE 2024.06 (io_trps.svl 2023.06)
