@<TRIPOS>MOLECULE
NONAME
46 48 1 0 0 
SMALL
USER_CHARGES


@<TRIPOS>ATOM
  1 N       -0.4060     0.3770    -0.5540 N.2   1 <1>  -0.6610 
  2 C       -1.5990     1.0390    -0.3490 C.2   1 <1>   0.7110 
  3 C        0.6690     0.7390    -0.0110 C.2   1 <1>   0.3280 
  4 N       -1.5460     2.2030     0.3460 N.pl3 1 <1>  -0.8190 
  5 N       -2.6610     0.5130    -0.8120 N.2   1 <1>  -0.6290 
  6 C        0.7820     1.9290     0.9230 C.3   1 <1>  -0.0990 
  7 C        1.9570    -0.0210    -0.2400 C.3   1 <1>  -0.1790 
  8 C       -0.3330     2.9380     0.6370 C.3   1 <1>   0.3690 
  9 C       -3.8900     1.0860    -0.7010 C.ar  1 <1>   0.7990 
 10 C       -0.6040     3.8220     1.8520 C.3   1 <1>  -0.2400 
 11 C       -0.0170     3.8040    -0.5840 C.3   1 <1>  -0.2400 
 12 N       -4.8800     0.2830    -0.4540 N.ar  1 <1>  -0.6200 
 13 N       -4.0140     2.4290    -0.8960 N.ar  1 <1>  -0.6200 
 14 C       -6.1140     0.8090    -0.3750 C.ar  1 <1>   0.3100 
 15 C       -5.1900     2.9460    -0.8330 C.ar  1 <1>   0.1670 
 16 C       -6.3390     2.1760    -0.5620 C.ar  1 <1>   0.0000 
 17 C       -7.2040    -0.0270    -0.1000 C.ar  1 <1>  -0.1500 
 18 C       -5.3030     4.4410    -1.0660 C.3   1 <1>  -0.0970 
 19 C       -7.6610     2.6590    -0.4660 C.ar  1 <1>  -0.1500 
 20 C       -8.4860     0.4530    -0.0080 C.ar  1 <1>  -0.1430 
 21 C       -8.7180     1.8260    -0.1950 C.ar  1 <1>  -0.1430 
 22 C       -9.6290    -0.5060     0.2940 C.3   1 <1>  -0.0970 
 23 C      -10.1250     2.3980    -0.1010 C.3   1 <1>  -0.0970 
 24 H       -2.3970     2.7630     0.2570 H     1 <1>   0.4000 
 25 H        1.7380     2.4070     0.8150 H     1 <1>   0.0800 
 26 H        0.7020     1.5680     1.9310 H     1 <1>   0.0800 
 27 H        2.6850     0.6180    -0.7040 H     1 <1>   0.0800 
 28 H        1.7750    -0.8610    -0.8860 H     1 <1>   0.0800 
 29 H        2.3410    -0.3840     0.6950 H     1 <1>   0.0800 
 30 H       -0.8940     3.2200     2.6950 H     1 <1>   0.0800 
 31 H       -1.3910     4.5230     1.6400 H     1 <1>   0.0800 
 32 H        0.2800     4.3740     2.1150 H     1 <1>   0.0800 
 33 H        0.1520     3.1890    -1.4490 H     1 <1>   0.0800 
 34 H        0.8660     4.3910    -0.4080 H     1 <1>   0.0800 
 35 H       -0.8330     4.4730    -0.7910 H     1 <1>   0.0800 
 36 H       -6.9880    -1.0710     0.0370 H     1 <1>   0.1500 
 37 H       -4.3370     4.8630    -1.2770 H     1 <1>   0.0800 
 38 H       -5.7020     4.9200    -0.1910 H     1 <1>   0.0800 
 39 H       -5.9460     4.6330    -1.9050 H     1 <1>   0.0800 
 40 H       -7.8370     3.7080    -0.6090 H     1 <1>   0.1500 
 41 H       -9.2660    -1.5120     0.4080 H     1 <1>   0.0800 
 42 H      -10.3430    -0.4950    -0.5090 H     1 <1>   0.0800 
 43 H      -10.1210    -0.2210     1.2070 H     1 <1>   0.0800 
 44 H      -10.1240     3.4590    -0.2710 H     1 <1>   0.0800 
 45 H      -10.5340     2.2140     0.8760 H     1 <1>   0.0800 
 46 H      -10.7600     1.9410    -0.8390 H     1 <1>   0.0800 
@<TRIPOS>BOND
  1   1   2  1   
  2   1   3  2   
  3   2   4  1   
  4   2   5  2   
  5   3   6  1   
  6   3   7  1   
  7   4   8  1   
  8   4  24  1   
  9   5   9  1   
 10   6   8  1   
 11   6  25  1   
 12   6  26  1   
 13   7  27  1   
 14   7  28  1   
 15   7  29  1   
 16   8  10  1   
 17   8  11  1   
 18   9  12  ar  
 19   9  13  ar  
 20  10  30  1   
 21  10  31  1   
 22  10  32  1   
 23  11  33  1   
 24  11  34  1   
 25  11  35  1   
 26  12  14  ar  
 27  13  15  ar  
 28  14  16  ar  
 29  14  17  ar  
 30  15  16  ar  
 31  15  18  1   
 32  16  19  ar  
 33  17  20  ar  
 34  17  36  1   
 35  18  37  1   
 36  18  38  1   
 37  18  39  1   
 38  19  21  ar  
 39  19  40  1   
 40  20  21  ar  
 41  20  22  1   
 42  21  23  1   
 43  22  41  1   
 44  22  42  1   
 45  22  43  1   
 46  23  44  1   
 47  23  45  1   
 48  23  46  1   
@<TRIPOS>SUBSTRUCTURE
  1 ****   9 GROUP 4 **** **** 0

# MOE 2024.06 (io_trps.svl 2023.06)
