@<TRIPOS>MOLECULE
NONAME
32 32 1 0 0 
SMALL
USER_CHARGES


@<TRIPOS>ATOM
  1 O       -0.3910     0.4330     1.0820 O.2   1 <1>  -0.5700 
  2 C       -0.7250     1.2100     0.2110 C.2   1 <1>   0.6900 
  3 N        0.0930     2.2000    -0.2330 N.am  1 <1>  -0.5470 
  4 N       -1.9580     1.1330    -0.3460 N.am  1 <1>  -0.7300 
  5 C        1.4740     2.3620    -0.0660 C.ar  1 <1>   0.1170 
  6 C       -2.9570     0.1070     0.0130 C.3   1 <1>   0.1400 
  7 C        1.9990     3.6150     0.2570 C.ar  1 <1>  -0.1440 
  8 C        2.3420     1.2960    -0.2640 C.ar  1 <1>  -0.1500 
  9 C       -4.3590     0.6630    -0.2370 C.3   1 <1>  -0.1600 
 10 C        3.3700     3.7680     0.3650 C.ar  1 <1>  -0.1500 
 11 C        1.0940     4.8150     0.5040 C.3   1 <1>  -0.0970 
 12 C        3.7280     1.4310    -0.1770 C.ar  1 <1>  -0.1790 
 13 C       -5.4370    -0.3650     0.1230 C.3   1 <1>  -0.2400 
 14 C        4.2170     2.6960     0.1500 C.ar  1 <1>  -0.1500 
 15 C        4.6320     0.3140    -0.4270 C.2   1 <1>   0.9790 
 16 O        5.8530     0.4250    -0.2060 O.co2 1 <1>  -0.9000 
 17 O        4.2090    -0.7630    -0.8860 O.co2 1 <1>  -0.9000 
 18 H       -0.3890     2.9980    -0.6240 H     1 <1>   0.3700 
 19 H       -2.0900     1.5710    -1.2540 H     1 <1>   0.3700 
 20 H       -2.8440    -0.1590     1.0520 H     1 <1>   0.0800 
 21 H       -2.7890    -0.7730    -0.5840 H     1 <1>   0.0800 
 22 H        1.9410     0.3250    -0.5020 H     1 <1>   0.1500 
 23 H       -4.4610     0.9300    -1.2740 H     1 <1>   0.0800 
 24 H       -4.5010     1.5450     0.3630 H     1 <1>   0.0800 
 25 H        3.7970     4.7210     0.6160 H     1 <1>   0.1500 
 26 H        0.3500     4.5660     1.2400 H     1 <1>   0.0800 
 27 H        0.6100     5.1040    -0.4100 H     1 <1>   0.0800 
 28 H        1.6610     5.6520     0.8700 H     1 <1>   0.0800 
 29 H       -5.3260    -1.2540    -0.4740 H     1 <1>   0.0800 
 30 H       -6.4140     0.0480    -0.0570 H     1 <1>   0.0800 
 31 H       -5.3670    -0.6350     1.1620 H     1 <1>   0.0800 
 32 H        5.2830     2.8260     0.2320 H     1 <1>   0.1500 
@<TRIPOS>BOND
  1   1   2  2   
  2   2   3  am  
  3   2   4  am  
  4   3   5  1   
  5   3  18  1   
  6   4   6  1   
  7   4  19  1   
  8   5   7  ar  
  9   5   8  ar  
 10   6   9  1   
 11   6  20  1   
 12   6  21  1   
 13   7  10  ar  
 14   7  11  1   
 15   8  12  ar  
 16   8  22  1   
 17   9  13  1   
 18   9  23  1   
 19   9  24  1   
 20  10  14  ar  
 21  10  25  1   
 22  11  26  1   
 23  11  27  1   
 24  11  28  1   
 25  12  14  ar  
 26  12  15  1   
 27  13  29  1   
 28  13  30  1   
 29  13  31  1   
 30  14  32  1   
 31  15  16  ar  
 32  15  17  ar  
@<TRIPOS>SUBSTRUCTURE
  1 ****   5 GROUP 4 **** **** 0

# MOE 2024.06 (io_trps.svl 2023.06)
