@<TRIPOS>MOLECULE
NONAME
44 45 1 0 0 
SMALL
USER_CHARGES


@<TRIPOS>ATOM
  1 O        0.1110    -0.8580    -0.0830 O.2   1 <1>  -0.5700 
  2 C       -0.4990    -1.8720    -0.3040 C.2   1 <1>   0.5690 
  3 N        0.0510    -3.0330    -0.7620 N.am  1 <1>  -0.4200 
  4 C       -1.9920    -2.0660    -0.1400 C.3   1 <1>  -0.0190 
  5 C       -0.8450    -4.0590    -0.6990 C.2   1 <1>   0.5690 
  6 C        1.4310    -3.1630    -1.2620 C.3   1 <1>   0.1400 
  7 C       -2.8060    -1.3820     0.9670 C.3   1 <1>   0.0580 
  8 C       -2.0850    -3.5870     0.0230 C.3   1 <1>  -0.0190 
  9 O       -0.6510    -5.1810    -1.0920 O.2   1 <1>  -0.5700 
 10 C        2.3210    -3.7200    -0.1480 C.3   1 <1>  -0.1600 
 11 C       -4.1850    -2.0480     0.9960 C.2   1 <1>  -0.2880 
 12 C       -2.9600     0.1190     0.7030 C.3   1 <1>  -0.2400 
 13 C       -3.4830    -4.0630    -0.3740 C.3   1 <1>  -0.0220 
 14 C        3.7570    -3.8780    -0.6420 C.3   1 <1>   0.3430 
 15 C       -4.4980    -3.2090     0.3940 C.2   1 <1>  -0.2760 
 16 N        4.6320    -4.3830     0.4560 N.4   1 <1>  -0.9590 
 17 C       -5.8970    -3.7980     0.4180 C.3   1 <1>  -0.1020 
 18 C        6.0740    -4.1830     0.1130 C.3   1 <1>   0.2630 
 19 C        4.3720    -5.8260     0.7710 C.3   1 <1>   0.2630 
 20 H       -2.4290    -1.7950    -1.0860 H     1 <1>   0.0800 
 21 H        1.7830    -2.1950    -1.5800 H     1 <1>   0.0800 
 22 H        1.4310    -3.8240    -2.1130 H     1 <1>   0.0800 
 23 H       -2.3250    -1.5220     1.9210 H     1 <1>   0.0800 
 24 H       -1.9370    -3.8380     1.0590 H     1 <1>   0.0800 
 25 H        1.9280    -4.6750     0.1530 H     1 <1>   0.0800 
 26 H        2.2980    -3.0390     0.6840 H     1 <1>   0.0800 
 27 H       -4.9070    -1.4800     1.5590 H     1 <1>   0.1500 
 28 H       -3.4670     0.2890    -0.2310 H     1 <1>   0.0800 
 29 H       -1.9970     0.5980     0.6660 H     1 <1>   0.0800 
 30 H       -3.5330     0.5760     1.4900 H     1 <1>   0.0800 
 31 H       -3.5860    -5.1020    -0.1110 H     1 <1>   0.0800 
 32 H       -3.6390    -3.9610    -1.4340 H     1 <1>   0.0800 
 33 H        4.1160    -2.9160    -0.9740 H     1 <1>   0.0800 
 34 H        3.7880    -4.5560    -1.4800 H     1 <1>   0.0800 
 35 H        4.4260    -3.8250     1.3010 H     1 <1>   0.4500 
 36 H       -6.2690    -3.9130    -0.5840 H     1 <1>   0.0800 
 37 H       -6.5700    -3.1550     0.9580 H     1 <1>   0.0800 
 38 H       -5.8880    -4.7600     0.8990 H     1 <1>   0.0800 
 39 H        6.3310    -4.7460    -0.7700 H     1 <1>   0.0800 
 40 H        6.7010    -4.5110     0.9260 H     1 <1>   0.0800 
 41 H        6.2740    -3.1390    -0.0730 H     1 <1>   0.0800 
 42 H        4.5530    -6.4380    -0.0970 H     1 <1>   0.0800 
 43 H        3.3500    -5.9670     1.0840 H     1 <1>   0.0800 
 44 H        5.0190    -6.1570     1.5670 H     1 <1>   0.0800 
@<TRIPOS>BOND
  1   1   2  2   
  2   2   3  am  
  3   2   4  1   
  4   3   5  am  
  5   3   6  1   
  6   4   7  1   
  7   4   8  1   
  8   4  20  1   
  9   5   8  1   
 10   5   9  2   
 11   6  10  1   
 12   6  21  1   
 13   6  22  1   
 14   7  11  1   
 15   7  12  1   
 16   7  23  1   
 17   8  13  1   
 18   8  24  1   
 19  10  14  1   
 20  10  25  1   
 21  10  26  1   
 22  11  15  2   
 23  11  27  1   
 24  12  28  1   
 25  12  29  1   
 26  12  30  1   
 27  13  15  1   
 28  13  31  1   
 29  13  32  1   
 30  14  16  1   
 31  14  33  1   
 32  14  34  1   
 33  15  17  1   
 34  16  18  1   
 35  16  19  1   
 36  16  35  1   
 37  17  36  1   
 38  17  37  1   
 39  17  38  1   
 40  18  39  1   
 41  18  40  1   
 42  18  41  1   
 43  19  42  1   
 44  19  43  1   
 45  19  44  1   
@<TRIPOS>SUBSTRUCTURE
  1 ****   3 GROUP 4 **** **** 0

# MOE 2024.06 (io_trps.svl 2023.06)
