@<TRIPOS>MOLECULE
NONAME
53 54 1 0 0 
SMALL
USER_CHARGES


@<TRIPOS>ATOM
  1 S        0.7580    -0.9830     0.6300 S.o2  1 <1>   1.4470 
  2 O        1.4290    -1.8950     1.5320 O.2   1 <1>  -0.6500 
  3 O        1.0420     0.4310     0.7630 O.2   1 <1>  -0.6500 
  4 N        1.2040    -1.4430    -0.9390 N.am  1 <1>  -0.8490 
  5 C       -1.0300    -1.2520     0.7350 C.ar  1 <1>  -0.0090 
  6 C        2.6000    -1.0310    -1.2720 C.3   1 <1>   0.2570 
  7 C        0.9320    -2.8580    -1.2090 C.3   1 <1>   0.1960 
  8 C       -1.9140    -0.6070    -0.1250 C.ar  1 <1>   0.0830 
  9 C       -1.5670    -2.1120     1.6870 C.ar  1 <1>  -0.1500 
 10 C        3.7610    -1.8610    -0.6770 C.2   1 <1>   0.5690 
 11 C        0.9600    -3.1360    -2.7100 C.3   1 <1>  -0.2400 
 12 O       -1.4530     0.2300    -1.0740 O.3   1 <1>  -0.3630 
 13 C       -3.2810    -0.8240    -0.0410 C.ar  1 <1>  -0.1500 
 14 C       -2.9320    -2.3310     1.7860 C.ar  1 <1>  -0.1440 
 15 O        4.0080    -2.9170    -1.2200 O.2   1 <1>  -0.5700 
 16 N        4.5310    -1.4240     0.3790 N.am  1 <1>  -0.6600 
 17 C       -1.5990     1.6100    -0.8260 C.3   1 <1>   0.0400 
 18 C       -3.7900    -1.6830     0.9130 C.ar  1 <1>  -0.1500 
 19 C       -3.4810    -3.2770     2.8390 C.3   1 <1>  -0.0970 
 20 C        5.6040    -2.2900     0.9320 C.3   1 <1>   0.1400 
 21 C        4.3740    -0.1410     1.1140 C.3   1 <1>   0.1400 
 22 C        6.9280    -2.0870     0.1850 C.3   1 <1>  -0.1600 
 23 C        5.4210     0.8890     0.6740 C.3   1 <1>  -0.1600 
 24 C        7.2650    -0.6430    -0.2330 C.3   1 <1>  -0.1600 
 25 C        6.8880     0.4340     0.7980 C.3   1 <1>  -0.1600 
 26 H        2.7350     0.0040    -1.0220 H     1 <1>   0.0800 
 27 H        2.7120    -1.0790    -2.3390 H     1 <1>   0.0800 
 28 H       -0.0550    -3.1040    -0.8540 H     1 <1>   0.0800 
 29 H        1.6300    -3.4920    -0.6870 H     1 <1>   0.0800 
 30 H       -0.9010    -2.6190     2.3650 H     1 <1>   0.1500 
 31 H        0.3180    -2.4460    -3.2270 H     1 <1>   0.0800 
 32 H        0.6070    -4.1350    -2.8920 H     1 <1>   0.0800 
 33 H        1.9590    -3.0670    -3.0970 H     1 <1>   0.0800 
 34 H       -3.9400    -0.3240    -0.7280 H     1 <1>   0.1500 
 35 H       -1.1410     2.1460    -1.6370 H     1 <1>   0.0800 
 36 H       -1.1040     1.8520     0.0980 H     1 <1>   0.0800 
 37 H       -2.6450     1.8490    -0.7680 H     1 <1>   0.0800 
 38 H       -4.8520    -1.8470     0.9730 H     1 <1>   0.1500 
 39 H       -2.8500    -3.2790     3.7090 H     1 <1>   0.0800 
 40 H       -3.5280    -4.2750     2.4420 H     1 <1>   0.0800 
 41 H       -4.4690    -2.9760     3.1380 H     1 <1>   0.0800 
 42 H        5.3080    -3.3230     0.8650 H     1 <1>   0.0800 
 43 H        5.7430    -2.0670     1.9760 H     1 <1>   0.0800 
 44 H        4.4660    -0.3230     2.1710 H     1 <1>   0.0800 
 45 H        3.3990     0.2710     0.9590 H     1 <1>   0.0800 
 46 H        6.9130    -2.7020    -0.6980 H     1 <1>   0.0800 
 47 H        7.7160    -2.4630     0.8120 H     1 <1>   0.0800 
 48 H        5.2870     1.7660     1.2820 H     1 <1>   0.0800 
 49 H        5.2160     1.1810    -0.3410 H     1 <1>   0.0800 
 50 H        6.7740    -0.4260    -1.1660 H     1 <1>   0.0800 
 51 H        8.3240    -0.5910    -0.4200 H     1 <1>   0.0800 
 52 H        7.0970     0.0910     1.7960 H     1 <1>   0.0800 
 53 H        7.5100     1.2940     0.6180 H     1 <1>   0.0800 
@<TRIPOS>BOND
  1   1   2  2   
  2   1   3  2   
  3   1   4  am  
  4   1   5  1   
  5   4   6  1   
  6   4   7  1   
  7   5   8  ar  
  8   5   9  ar  
  9   6  10  1   
 10   6  26  1   
 11   6  27  1   
 12   7  11  1   
 13   7  28  1   
 14   7  29  1   
 15   8  12  1   
 16   8  13  ar  
 17   9  14  ar  
 18   9  30  1   
 19  10  15  2   
 20  10  16  am  
 21  11  31  1   
 22  11  32  1   
 23  11  33  1   
 24  12  17  1   
 25  13  18  ar  
 26  13  34  1   
 27  14  18  ar  
 28  14  19  1   
 29  16  20  1   
 30  16  21  1   
 31  17  35  1   
 32  17  36  1   
 33  17  37  1   
 34  18  38  1   
 35  19  39  1   
 36  19  40  1   
 37  19  41  1   
 38  20  22  1   
 39  20  42  1   
 40  20  43  1   
 41  21  23  1   
 42  21  44  1   
 43  21  45  1   
 44  22  24  1   
 45  22  46  1   
 46  22  47  1   
 47  23  25  1   
 48  23  48  1   
 49  23  49  1   
 50  24  25  1   
 51  24  50  1   
 52  24  51  1   
 53  25  52  1   
 54  25  53  1   
@<TRIPOS>SUBSTRUCTURE
  1 ****   1 GROUP 4 **** **** 0

# MOE 2024.06 (io_trps.svl 2023.06)
