@<TRIPOS>MOLECULE
NONAME
48 49 1 0 0 
SMALL
USER_CHARGES


@<TRIPOS>ATOM
  1 O       -2.3810     0.0490     0.1720 O.3   1 <1>  -0.3630 
  2 C       -1.6660     1.1820     0.4200 C.ar  1 <1>   0.0830 
  3 C       -1.8400    -1.2220     0.4720 C.3   1 <1>   0.0400 
  4 C       -2.0340     2.3520    -0.2580 C.ar  1 <1>   0.0280 
  5 C       -0.6080     1.2050     1.3250 C.ar  1 <1>  -0.1500 
  6 C       -1.3200     3.5190    -0.0040 C.ar  1 <1>  -0.1500 
  7 C       -3.1310     2.3460    -1.1940 C.2   1 <1>  -0.1780 
  8 C        0.0860     2.3770     1.5610 C.ar  1 <1>  -0.1500 
  9 C       -0.2710     3.5360     0.8950 C.ar  1 <1>  -0.1500 
 10 C       -4.0590     3.3030    -1.3550 C.2   1 <1>  -0.2880 
 11 C       -5.2420     3.2040    -2.2840 C.3   1 <1>   0.4810 
 12 N       -6.4610     3.2530    -1.4230 N.4   1 <1>  -0.9590 
 13 C       -7.0270     1.9180    -1.0100 C.3   1 <1>   0.4230 
 14 C       -7.4690     4.1400    -2.0960 C.3   1 <1>   0.2630 
 15 C       -8.1360     2.1340     0.0330 C.3   1 <1>  -0.1600 
 16 C       -5.9520     0.9850    -0.4290 C.3   1 <1>  -0.1600 
 17 C       -8.6810     0.8170     0.5870 C.3   1 <1>   0.3430 
 18 C       -6.5260    -0.3070     0.1450 C.3   1 <1>   0.3430 
 19 N       -7.5710     0.0070     1.1560 N.4   1 <1>  -0.9590 
 20 C       -8.1020    -1.2570     1.7640 C.3   1 <1>   0.2630 
 21 H       -2.4750    -1.9730     0.0370 H     1 <1>   0.0800 
 22 H       -1.8050    -1.3470     1.5400 H     1 <1>   0.0800 
 23 H       -0.8530    -1.2910     0.0470 H     1 <1>   0.0800 
 24 H       -0.3100     0.3240     1.8610 H     1 <1>   0.1500 
 25 H       -1.5780     4.4260    -0.5200 H     1 <1>   0.1500 
 26 H       -3.1670     1.4400    -1.7770 H     1 <1>   0.1500 
 27 H        0.9040     2.3900     2.2610 H     1 <1>   0.1500 
 28 H        0.2720     4.4470     1.0780 H     1 <1>   0.1500 
 29 H       -4.0240     4.2260    -0.8010 H     1 <1>   0.1500 
 30 H       -5.2100     2.2890    -2.8550 H     1 <1>   0.0800 
 31 H       -5.2210     4.0370    -2.9680 H     1 <1>   0.0800 
 32 H       -6.1400     3.7300    -0.5680 H     1 <1>   0.4500 
 33 H       -7.4570     1.4380    -1.8760 H     1 <1>   0.0800 
 34 H       -7.8470     3.6710    -2.9900 H     1 <1>   0.0800 
 35 H       -7.0160     5.0810    -2.3690 H     1 <1>   0.0800 
 36 H       -8.2960     4.3500    -1.4380 H     1 <1>   0.0800 
 37 H       -7.7670     2.7250     0.8540 H     1 <1>   0.0800 
 38 H       -8.9650     2.6560    -0.4090 H     1 <1>   0.0800 
 39 H       -5.2720     0.6900    -1.2040 H     1 <1>   0.0800 
 40 H       -5.3940     1.4820     0.3450 H     1 <1>   0.0800 
 41 H       -9.1710     0.2630    -0.1990 H     1 <1>   0.0800 
 42 H       -9.4130     1.0250     1.3540 H     1 <1>   0.0800 
 43 H       -5.7320    -0.8790     0.6010 H     1 <1>   0.0800 
 44 H       -6.9530    -0.9020    -0.6480 H     1 <1>   0.0800 
 45 H       -7.1280     0.5420     1.9210 H     1 <1>   0.4500 
 46 H       -8.5760    -1.8690     1.0130 H     1 <1>   0.0800 
 47 H       -8.8270    -1.0310     2.5300 H     1 <1>   0.0800 
 48 H       -7.3010    -1.8230     2.2130 H     1 <1>   0.0800 
@<TRIPOS>BOND
  1   1   2  1   
  2   1   3  1   
  3   2   4  ar  
  4   2   5  ar  
  5   3  21  1   
  6   3  22  1   
  7   3  23  1   
  8   4   6  ar  
  9   4   7  1   
 10   5   8  ar  
 11   5  24  1   
 12   6   9  ar  
 13   6  25  1   
 14   7  10  2   
 15   7  26  1   
 16   8   9  ar  
 17   8  27  1   
 18   9  28  1   
 19  10  11  1   
 20  10  29  1   
 21  11  12  1   
 22  11  30  1   
 23  11  31  1   
 24  12  13  1   
 25  12  14  1   
 26  12  32  1   
 27  13  15  1   
 28  13  16  1   
 29  13  33  1   
 30  14  34  1   
 31  14  35  1   
 32  14  36  1   
 33  15  17  1   
 34  15  37  1   
 35  15  38  1   
 36  16  18  1   
 37  16  39  1   
 38  16  40  1   
 39  17  19  1   
 40  17  41  1   
 41  17  42  1   
 42  18  19  1   
 43  18  43  1   
 44  18  44  1   
 45  19  20  1   
 46  19  45  1   
 47  20  46  1   
 48  20  47  1   
 49  20  48  1   
@<TRIPOS>SUBSTRUCTURE
  1 ****  16 GROUP 4 **** **** 0

# MOE 2024.06 (io_trps.svl 2023.06)
