@<TRIPOS>MOLECULE
NONAME
51 54 1 0 0 
SMALL
USER_CHARGES


@<TRIPOS>ATOM
  1 O        0.4180    -0.2920    -0.0530 O.2   1 <1>  -0.5700 
  2 C        0.7380    -1.4520     0.1090 C.2   1 <1>   0.6340 
  3 O        2.0270    -1.7310     0.3350 O.3   1 <1>  -0.4300 
  4 C       -0.1980    -2.5570     0.0670 C.ar  1 <1>   0.0860 
  5 C        3.0030    -0.7140     0.3920 C.3   1 <1>   0.1200 
  6 C       -1.5710    -2.3400    -0.0830 C.ar  1 <1>  -0.1500 
  7 C        0.2220    -3.8870     0.1680 C.ar  1 <1>  -0.1500 
  8 C        4.3540    -1.3680     0.6620 C.3   1 <1>  -0.2400 
  9 C       -2.4810    -3.3820    -0.1310 C.ar  1 <1>   0.1170 
 10 C       -0.6740    -4.9370     0.1190 C.ar  1 <1>  -0.1500 
 11 N       -3.8620    -3.2040    -0.3020 N.am  1 <1>  -0.5470 
 12 C       -2.0350    -4.7080    -0.0350 C.ar  1 <1>   0.1000 
 13 C       -4.7170    -2.1560    -0.0820 C.2   1 <1>   0.5440 
 14 N       -2.9500    -5.7680    -0.0780 N.pl3 1 <1>  -0.8380 
 15 O       -4.2980    -1.1170     0.3910 O.2   1 <1>  -0.5700 
 16 C       -6.1270    -2.3160    -0.3790 C.ar  1 <1>   0.0860 
 17 C       -2.7470    -6.8960    -1.0420 C.3   1 <1>   0.2090 
 18 C       -3.5850    -6.1830     1.2120 C.3   1 <1>   0.2090 
 19 C       -7.0910    -1.6120     0.3530 C.ar  1 <1>  -0.1500 
 20 C       -6.5730    -3.1800    -1.3950 C.ar  1 <1>  -0.1500 
 21 C       -2.2250    -8.1730    -0.3530 C.3   1 <1>   0.1200 
 22 C       -2.9710    -7.4850     1.7560 C.3   1 <1>   0.1200 
 23 C       -8.4260    -1.8010     0.0680 C.ar  1 <1>   0.0830 
 24 C       -7.9210    -3.3590    -1.6720 C.ar  1 <1>  -0.1500 
 25 O       -2.9840    -8.4880     0.7800 O.3   1 <1>  -0.5600 
 26 O       -9.4880    -1.2360     0.6530 O.3   1 <1>  -0.3630 
 27 C       -8.8340    -2.6530    -0.9160 C.ar  1 <1>   0.0830 
 28 C      -10.6430    -1.7560    -0.0040 C.3   1 <1>   0.4000 
 29 O      -10.1640    -2.6630    -0.9950 O.3   1 <1>  -0.3620 
 30 H        2.7370    -0.0320     1.1830 H     1 <1>   0.0800 
 31 H        3.0060    -0.1910    -0.5500 H     1 <1>   0.0800 
 32 H       -1.9230    -1.3270    -0.1680 H     1 <1>   0.1500 
 33 H        1.2690    -4.1020     0.2880 H     1 <1>   0.1500 
 34 H        4.3300    -1.8930     1.6000 H     1 <1>   0.0800 
 35 H        5.1190    -0.6140     0.7100 H     1 <1>   0.0800 
 36 H        4.5980    -2.0530    -0.1300 H     1 <1>   0.0800 
 37 H       -0.3160    -5.9440     0.2070 H     1 <1>   0.1500 
 38 H       -4.2980    -4.1140    -0.4690 H     1 <1>   0.3700 
 39 H       -2.0570    -6.5960    -1.8110 H     1 <1>   0.0800 
 40 H       -3.6860    -7.1190    -1.5170 H     1 <1>   0.0800 
 41 H       -4.6390    -6.3330     1.0550 H     1 <1>   0.0800 
 42 H       -3.4680    -5.4010     1.9420 H     1 <1>   0.0800 
 43 H       -6.7960    -0.9310     1.1320 H     1 <1>   0.1500 
 44 H       -5.8520    -3.7160    -1.9880 H     1 <1>   0.1500 
 45 H       -1.2000    -8.0510    -0.0540 H     1 <1>   0.0800 
 46 H       -2.2850    -9.0060    -1.0300 H     1 <1>   0.0800 
 47 H       -3.5380    -7.8370     2.5980 H     1 <1>   0.0800 
 48 H       -1.9550    -7.3180     2.0690 H     1 <1>   0.0800 
 49 H       -8.2610    -4.0210    -2.4490 H     1 <1>   0.1500 
 50 H      -11.1800    -0.9540    -0.4780 H     1 <1>   0.0800 
 51 H      -11.2550    -2.2840     0.7050 H     1 <1>   0.0800 
@<TRIPOS>BOND
  1   1   2  2   
  2   2   3  1   
  3   2   4  1   
  4   3   5  1   
  5   4   6  ar  
  6   4   7  ar  
  7   5   8  1   
  8   5  30  1   
  9   5  31  1   
 10   6   9  ar  
 11   6  32  1   
 12   7  10  ar  
 13   7  33  1   
 14   8  34  1   
 15   8  35  1   
 16   8  36  1   
 17   9  11  1   
 18   9  12  ar  
 19  10  12  ar  
 20  10  37  1   
 21  11  13  am  
 22  11  38  1   
 23  12  14  1   
 24  13  15  2   
 25  13  16  1   
 26  14  17  1   
 27  14  18  1   
 28  16  19  ar  
 29  16  20  ar  
 30  17  21  1   
 31  17  39  1   
 32  17  40  1   
 33  18  22  1   
 34  18  41  1   
 35  18  42  1   
 36  19  23  ar  
 37  19  43  1   
 38  20  24  ar  
 39  20  44  1   
 40  21  25  1   
 41  21  45  1   
 42  21  46  1   
 43  22  25  1   
 44  22  47  1   
 45  22  48  1   
 46  23  26  1   
 47  23  27  ar  
 48  24  27  ar  
 49  24  49  1   
 50  26  28  1   
 51  27  29  1   
 52  28  29  1   
 53  28  50  1   
 54  28  51  1   
@<TRIPOS>SUBSTRUCTURE
  1 ****  11 GROUP 4 **** **** 0

# MOE 2024.06 (io_trps.svl 2023.06)
