@<TRIPOS>MOLECULE
NONAME
37 37 1 0 0 
SMALL
USER_CHARGES


@<TRIPOS>ATOM
  1 CL       3.5940     0.3300     0.5460 Cl    1 <1>  -0.1770 
  2 C        2.4200    -0.9660     0.4650 C.ar  1 <1>   0.1770 
  3 C        2.8250    -2.2570     0.1290 C.ar  1 <1>   0.0820 
  4 C        1.0990    -0.6780     0.7450 C.ar  1 <1>  -0.1500 
  5 O        4.1270    -2.5220    -0.1390 O.3   1 <1>  -0.3630 
  6 C        1.8900    -3.2880     0.0880 C.ar  1 <1>  -0.1440 
  7 C        0.1810    -1.7090     0.6890 C.ar  1 <1>   0.1770 
  8 C        4.6040    -2.1770    -1.4300 C.3   1 <1>   0.1200 
  9 C        0.5600    -3.0010     0.3670 C.ar  1 <1>  -0.1500 
 10 C        2.2980    -4.7140    -0.2540 C.3   1 <1>  -0.0960 
 11 CL      -1.4960    -1.3730     1.0340 Cl    1 <1>  -0.1770 
 12 C        5.8310    -1.2640    -1.2880 C.3   1 <1>   0.3430 
 13 N        6.6460    -1.6640    -0.1010 N.4   1 <1>  -0.9060 
 14 C        7.7350    -0.7810     0.3120 C.3   1 <1>   0.5030 
 15 C        8.4000    -1.4510     1.5090 C.3   1 <1>  -0.2400 
 16 C        7.1710     0.5770     0.7240 C.3   1 <1>  -0.2400 
 17 C        8.7390    -0.6360    -0.8300 C.3   1 <1>  -0.2400 
 18 H        0.7890     0.3180     1.0010 H     1 <1>   0.1500 
 19 H        3.8270    -1.6850    -1.9910 H     1 <1>   0.0800 
 20 H        4.8680    -3.0900    -1.9340 H     1 <1>   0.0800 
 21 H       -0.1910    -3.7710     0.3410 H     1 <1>   0.1500 
 22 H        3.1130    -5.0260     0.3750 H     1 <1>   0.0800 
 23 H        2.6080    -4.7740    -1.2810 H     1 <1>   0.0800 
 24 H        1.4790    -5.3960    -0.1050 H     1 <1>   0.0800 
 25 H        5.4850    -0.2510    -1.1650 H     1 <1>   0.0800 
 26 H        6.4230    -1.3030    -2.1880 H     1 <1>   0.0800 
 27 H        7.0250    -2.6050    -0.2380 H     1 <1>   0.4500 
 28 H        5.9850    -1.7480     0.6840 H     1 <1>   0.4500 
 29 H        7.7050    -1.5710     2.3220 H     1 <1>   0.0800 
 30 H        9.2130    -0.8420     1.8650 H     1 <1>   0.0800 
 31 H        8.8040    -2.4110     1.2440 H     1 <1>   0.0800 
 32 H        6.4360     0.4710     1.5020 H     1 <1>   0.0800 
 33 H        6.7330     1.0970    -0.1090 H     1 <1>   0.0800 
 34 H        7.9630     1.1980     1.1060 H     1 <1>   0.0800 
 35 H        9.1030    -1.5960    -1.1510 H     1 <1>   0.0800 
 36 H        9.5850    -0.0600    -0.4970 H     1 <1>   0.0800 
 37 H        8.3120    -0.1170    -1.6690 H     1 <1>   0.0800 
@<TRIPOS>BOND
  1   1   2  1   
  2   2   3  ar  
  3   2   4  ar  
  4   3   5  1   
  5   3   6  ar  
  6   4   7  ar  
  7   4  18  1   
  8   5   8  1   
  9   6   9  ar  
 10   6  10  1   
 11   7   9  ar  
 12   7  11  1   
 13   8  12  1   
 14   8  19  1   
 15   8  20  1   
 16   9  21  1   
 17  10  22  1   
 18  10  23  1   
 19  10  24  1   
 20  12  13  1   
 21  12  25  1   
 22  12  26  1   
 23  13  14  1   
 24  13  27  1   
 25  13  28  1   
 26  14  15  1   
 27  14  16  1   
 28  14  17  1   
 29  15  29  1   
 30  15  30  1   
 31  15  31  1   
 32  16  32  1   
 33  16  33  1   
 34  16  34  1   
 35  17  35  1   
 36  17  36  1   
 37  17  37  1   
@<TRIPOS>SUBSTRUCTURE
  1 ****   5 GROUP 4 **** **** 0

# MOE 2024.06 (io_trps.svl 2023.06)
