@<TRIPOS>MOLECULE
NONAME
33 33 1 0 0 
SMALL
USER_CHARGES


@<TRIPOS>ATOM
  1 S       -0.1160     0.3430    -1.6470 S.o2  1 <1>   1.4470 
  2 O        0.5000    -0.5580    -2.5930 O.2   1 <1>  -0.6500 
  3 O       -0.5230     1.6440    -2.1300 O.2   1 <1>  -0.6500 
  4 N        1.0990     0.7000    -0.5500 N.am  1 <1>  -0.9140 
  5 C       -1.4030    -0.5200    -0.6580 C.ar  1 <1>  -0.0090 
  6 C        0.7300     1.7180     0.3980 C.3   1 <1>   0.3340 
  7 C       -2.7450    -0.1070    -0.6560 C.ar  1 <1>  -0.1440 
  8 C       -1.0750    -1.6320     0.1330 C.ar  1 <1>  -0.1440 
  9 C        1.9620     2.0040     1.2240 C.2   1 <1>  -0.2880 
 10 C       -3.6870    -0.7500     0.1320 C.ar  1 <1>  -0.1500 
 11 C       -3.2630     1.0480    -1.5080 C.3   1 <1>  -0.0970 
 12 C       -2.0330    -2.2600     0.9130 C.ar  1 <1>  -0.1500 
 13 C        0.3310    -2.2260     0.1880 C.3   1 <1>  -0.0970 
 14 C        2.5930     3.1810     1.2970 C.2   1 <1>  -0.3000 
 15 C       -3.3390    -1.8230     0.9250 C.ar  1 <1>  -0.1430 
 16 C       -4.3800    -2.5190     1.7840 C.3   1 <1>  -0.0970 
 17 H        1.8400     1.0920    -1.1240 H     1 <1>   0.4200 
 18 H       -0.0690     1.3680     1.0320 H     1 <1>   0.0800 
 19 H        0.4120     2.6180    -0.1040 H     1 <1>   0.0800 
 20 H        2.2930     1.1340     1.7650 H     1 <1>   0.1500 
 21 H       -4.7100    -0.4190     0.1300 H     1 <1>   0.1500 
 22 H       -2.8770     1.9830    -1.1450 H     1 <1>   0.0800 
 23 H       -4.3360     1.1030    -1.4840 H     1 <1>   0.0800 
 24 H       -2.9710     0.9180    -2.5350 H     1 <1>   0.0800 
 25 H       -1.7630    -3.1060     1.5210 H     1 <1>   0.1500 
 26 H        0.9810    -1.5980     0.7700 H     1 <1>   0.0800 
 27 H        0.7420    -2.3410    -0.7980 H     1 <1>   0.0800 
 28 H        0.3220    -3.2000     0.6410 H     1 <1>   0.0800 
 29 H        3.4720     3.3510     1.8950 H     1 <1>   0.1500 
 30 H        2.2920     4.0700     0.7690 H     1 <1>   0.1500 
 31 H       -5.1440    -1.8260     2.0860 H     1 <1>   0.0800 
 32 H       -3.9250    -2.9270     2.6690 H     1 <1>   0.0800 
 33 H       -4.8350    -3.3180     1.2280 H     1 <1>   0.0800 
@<TRIPOS>BOND
  1   1   2  2   
  2   1   3  2   
  3   1   4  am  
  4   1   5  1   
  5   4   6  1   
  6   4  17  1   
  7   5   7  ar  
  8   5   8  ar  
  9   6   9  1   
 10   6  18  1   
 11   6  19  1   
 12   7  10  ar  
 13   7  11  1   
 14   8  12  ar  
 15   8  13  1   
 16   9  14  2   
 17   9  20  1   
 18  10  15  ar  
 19  10  21  1   
 20  11  22  1   
 21  11  23  1   
 22  11  24  1   
 23  12  15  ar  
 24  12  25  1   
 25  13  26  1   
 26  13  27  1   
 27  13  28  1   
 28  14  29  1   
 29  14  30  1   
 30  15  16  1   
 31  16  31  1   
 32  16  32  1   
 33  16  33  1   
@<TRIPOS>SUBSTRUCTURE
  1 ****   5 GROUP 4 **** **** 0

# MOE 2024.06 (io_trps.svl 2023.06)
