@<TRIPOS>MOLECULE
NONAME
41 42 1 0 0 
SMALL
USER_CHARGES


@<TRIPOS>ATOM
  1 O        0.7480     3.4270    -2.1990 O.2   1 <1>  -0.5700 
  2 C        0.2540     2.8890    -1.2240 C.2   1 <1>   0.5440 
  3 N        1.0560     2.0720    -0.4840 N.am  1 <1>  -0.7300 
  4 C       -1.1360     3.1340    -0.8640 C.ar  1 <1>   0.0860 
  5 C        2.4450     1.6870    -0.7770 C.3   1 <1>   0.2200 
  6 C       -1.8950     2.3200     0.0020 C.ar  1 <1>   0.0830 
  7 C       -1.7790     4.2520    -1.4040 C.ar  1 <1>  -0.1500 
  8 C        2.4730     0.2080    -1.1410 C.3   1 <1>  -0.1600 
  9 C        3.2490     1.7450     0.5150 C.3   1 <1>  -0.1600 
 10 O       -1.3120     1.2110     0.5390 O.3   1 <1>  -0.3630 
 11 C       -3.2200     2.6380     0.3000 C.ar  1 <1>  -0.1500 
 12 C       -3.0860     4.5700    -1.1050 C.ar  1 <1>   0.0830 
 13 C        2.4340    -0.5470     0.1930 C.3   1 <1>  -0.1600 
 14 C        2.9440     0.4360     1.2550 C.3   1 <1>  -0.1600 
 15 C       -2.0260     0.2310     1.2640 C.3   1 <1>   0.0400 
 16 C       -3.8310     3.7570    -0.2500 C.ar  1 <1>   0.0830 
 17 O       -3.6110     5.6780    -1.6880 O.3   1 <1>  -0.3630 
 18 O       -5.1270     4.0890     0.0040 O.3   1 <1>  -0.3620 
 19 C       -3.8530     6.7770    -0.8380 C.3   1 <1>   0.0400 
 20 C       -6.0060     3.2290     0.6940 C.3   1 <1>   0.0400 
 21 H        0.6050     1.5240     0.2520 H     1 <1>   0.3700 
 22 H        2.8610     2.3120    -1.5520 H     1 <1>   0.0800 
 23 H       -1.2410     4.8940    -2.0790 H     1 <1>   0.1500 
 24 H        3.4040    -0.0020    -1.6360 H     1 <1>   0.0800 
 25 H        1.6650    -0.0610    -1.7980 H     1 <1>   0.0800 
 26 H        3.0160     2.6190     1.0980 H     1 <1>   0.0800 
 27 H        4.2950     1.7690     0.2630 H     1 <1>   0.0800 
 28 H       -3.7800     2.0170     0.9640 H     1 <1>   0.1500 
 29 H        3.0430    -1.4340     0.1500 H     1 <1>   0.0800 
 30 H        1.4200    -0.8300     0.4200 H     1 <1>   0.0800 
 31 H        2.1760     0.6040     1.9910 H     1 <1>   0.0800 
 32 H        3.8240     0.0620     1.7490 H     1 <1>   0.0800 
 33 H       -1.3500    -0.5720     1.4950 H     1 <1>   0.0800 
 34 H       -2.8330    -0.1370     0.6540 H     1 <1>   0.0800 
 35 H       -2.3970     0.6680     2.1740 H     1 <1>   0.0800 
 36 H       -4.1570     7.6090    -1.4460 H     1 <1>   0.0800 
 37 H       -2.9470     7.0150    -0.3100 H     1 <1>   0.0800 
 38 H       -4.6370     6.5250    -0.1460 H     1 <1>   0.0800 
 39 H       -6.9820     3.6790     0.6910 H     1 <1>   0.0800 
 40 H       -5.6610     3.1140     1.7060 H     1 <1>   0.0800 
 41 H       -6.0400     2.2820     0.1850 H     1 <1>   0.0800 
@<TRIPOS>BOND
  1   1   2  2   
  2   2   3  am  
  3   2   4  1   
  4   3   5  1   
  5   3  21  1   
  6   4   6  ar  
  7   4   7  ar  
  8   5   8  1   
  9   5   9  1   
 10   5  22  1   
 11   6  10  1   
 12   6  11  ar  
 13   7  12  ar  
 14   7  23  1   
 15   8  13  1   
 16   8  24  1   
 17   8  25  1   
 18   9  14  1   
 19   9  26  1   
 20   9  27  1   
 21  10  15  1   
 22  11  16  ar  
 23  11  28  1   
 24  12  16  ar  
 25  12  17  1   
 26  13  14  1   
 27  13  29  1   
 28  13  30  1   
 29  14  31  1   
 30  14  32  1   
 31  15  33  1   
 32  15  34  1   
 33  15  35  1   
 34  16  18  1   
 35  17  19  1   
 36  18  20  1   
 37  19  36  1   
 38  19  37  1   
 39  19  38  1   
 40  20  39  1   
 41  20  40  1   
 42  20  41  1   
@<TRIPOS>SUBSTRUCTURE
  1 ****   4 GROUP 4 **** **** 0

# MOE 2024.06 (io_trps.svl 2023.06)
