@<TRIPOS>MOLECULE
NONAME
46 47 1 0 0 
SMALL
USER_CHARGES


@<TRIPOS>ATOM
  1 O        0.7610    -1.1510     1.2920 O.2   1 <1>  -0.5700 
  2 C        0.4780    -1.8970     0.3720 C.2   1 <1>   0.5440 
  3 N        1.3970    -2.0940    -0.6390 N.am  1 <1>  -0.6600 
  4 C       -0.7990    -2.5700     0.3790 C.ar  1 <1>   0.0860 
  5 C        2.7460    -1.4660    -0.5810 C.3   1 <1>   0.2840 
  6 C        1.1800    -3.0510    -1.7570 C.3   1 <1>   0.1400 
  7 C       -1.9390    -2.1050    -0.2950 C.ar  1 <1>   0.0830 
  8 C       -0.9070    -3.7780     1.0640 C.ar  1 <1>  -0.1500 
  9 C        3.7670    -2.4850    -0.0970 C.ar  1 <1>  -0.1440 
 10 C        0.7460    -2.2910    -3.0070 C.3   1 <1>  -0.2400 
 11 O       -1.9900    -0.9400    -0.9860 O.3   1 <1>  -0.3630 
 12 C       -3.1080    -2.8480    -0.2950 C.ar  1 <1>  -0.1500 
 13 C       -2.0680    -4.5250     1.0700 C.ar  1 <1>   0.0830 
 14 C        4.7500    -3.0000    -0.9190 C.ar  1 <1>  -0.1500 
 15 C        3.7550    -2.9480     1.2030 C.ar  1 <1>  -0.1500 
 16 C       -1.4530     0.2470    -0.4390 C.3   1 <1>   0.0400 
 17 C       -3.2000    -4.0570     0.3850 C.ar  1 <1>   0.0830 
 18 O       -2.0050    -5.6930     1.7710 O.3   1 <1>  -0.3630 
 19 C        5.6450    -3.9290    -0.4130 C.ar  1 <1>   0.1600 
 20 C        4.6960    -3.8790     1.6080 C.ar  1 <1>   0.1600 
 21 O       -4.3570    -4.7730     0.4150 O.3   1 <1>  -0.3630 
 22 C       -2.6270    -6.8550     1.2680 C.3   1 <1>   0.0400 
 23 N        5.6410    -4.3820     0.8300 N.ar  1 <1>  -0.6200 
 24 C       -5.5640    -4.2800    -0.1230 C.3   1 <1>   0.0400 
 25 H        2.7430    -0.6210     0.0870 H     1 <1>   0.0800 
 26 H        3.0150    -1.1030    -1.5560 H     1 <1>   0.0800 
 27 H        0.4270    -3.7740    -1.4950 H     1 <1>   0.0800 
 28 H        2.0900    -3.5930    -1.9520 H     1 <1>   0.0800 
 29 H       -0.0520    -4.1480     1.6020 H     1 <1>   0.1500 
 30 H       -0.1680    -1.7570    -2.8200 H     1 <1>   0.0800 
 31 H        0.5720    -2.9860    -3.8080 H     1 <1>   0.0800 
 32 H        1.5060    -1.5990    -3.3170 H     1 <1>   0.0800 
 33 H       -3.9410    -2.4470    -0.8380 H     1 <1>   0.1500 
 34 H        4.8290    -2.6910    -1.9450 H     1 <1>   0.1500 
 35 H        3.0170    -2.5900     1.9000 H     1 <1>   0.1500 
 36 H       -1.9870     1.0810    -0.8560 H     1 <1>   0.0800 
 37 H       -0.4130     0.3160    -0.7050 H     1 <1>   0.0800 
 38 H       -1.5710     0.2330     0.6310 H     1 <1>   0.0800 
 39 H        6.4050    -4.3210    -1.0670 H     1 <1>   0.1500 
 40 H        4.6670    -4.2280     2.6260 H     1 <1>   0.1500 
 41 H       -2.1430    -7.7090     1.7040 H     1 <1>   0.0800 
 42 H       -2.5240    -6.8770     0.1980 H     1 <1>   0.0800 
 43 H       -3.6650    -6.8430     1.5500 H     1 <1>   0.0800 
 44 H       -6.3380    -4.9990     0.0780 H     1 <1>   0.0800 
 45 H       -5.4500    -4.1550    -1.1860 H     1 <1>   0.0800 
 46 H       -5.8030    -3.3450     0.3520 H     1 <1>   0.0800 
@<TRIPOS>BOND
  1   1   2  2   
  2   2   3  am  
  3   2   4  1   
  4   3   5  1   
  5   3   6  1   
  6   4   7  ar  
  7   4   8  ar  
  8   5   9  1   
  9   5  25  1   
 10   5  26  1   
 11   6  10  1   
 12   6  27  1   
 13   6  28  1   
 14   7  11  1   
 15   7  12  ar  
 16   8  13  ar  
 17   8  29  1   
 18   9  14  ar  
 19   9  15  ar  
 20  10  30  1   
 21  10  31  1   
 22  10  32  1   
 23  11  16  1   
 24  12  17  ar  
 25  12  33  1   
 26  13  17  ar  
 27  13  18  1   
 28  14  19  ar  
 29  14  34  1   
 30  15  20  ar  
 31  15  35  1   
 32  16  36  1   
 33  16  37  1   
 34  16  38  1   
 35  17  21  1   
 36  18  22  1   
 37  19  23  ar  
 38  19  39  1   
 39  20  23  ar  
 40  20  40  1   
 41  21  24  1   
 42  22  41  1   
 43  22  42  1   
 44  22  43  1   
 45  24  44  1   
 46  24  45  1   
 47  24  46  1   
@<TRIPOS>SUBSTRUCTURE
  1 ****   4 GROUP 4 **** **** 0

# MOE 2024.06 (io_trps.svl 2023.06)
