@<TRIPOS>MOLECULE
NONAME
38 39 1 0 0 
SMALL
USER_CHARGES


@<TRIPOS>ATOM
  1 CL      -1.0580     0.9060    -0.9660 Cl    1 <1>  -0.1770 
  2 C        0.3590     1.8830    -0.6340 C.ar  1 <1>   0.1770 
  3 C        0.2000     3.1400    -0.0500 C.ar  1 <1>   0.1170 
  4 C        1.6000     1.3730    -0.9630 C.ar  1 <1>  -0.1500 
  5 N       -1.0970     3.5940     0.2600 N.am  1 <1>  -0.5470 
  6 C        1.3560     3.8770     0.2010 C.ar  1 <1>  -0.1500 
  7 C        2.7320     2.1260    -0.7070 C.ar  1 <1>  -0.1500 
  8 C       -1.5900     4.7980     0.6860 C.2   1 <1>   0.5690 
  9 C        2.6050     3.3760    -0.1250 C.ar  1 <1>  -0.1500 
 10 O       -0.9010     5.7690     0.8800 O.2   1 <1>  -0.5700 
 11 C       -3.0850     4.9260     0.9380 C.3   1 <1>   0.1310 
 12 S       -4.0410     3.5810     0.0750 S.3   1 <1>  -0.2860 
 13 C       -5.7270     3.8790     0.6220 C.2   1 <1>   0.2430 
 14 N       -6.0320     4.8220     1.4380 N.2   1 <1>  -0.3380 
 15 N       -6.7730     3.1500     0.2200 N.pl3 1 <1>   0.0480 
 16 N       -7.3520     4.7440     1.6030 N.2   1 <1>  -0.3380 
 17 C       -7.7780     3.7600     0.8820 C.2   1 <1>   0.0060 
 18 C       -6.7390     2.0040    -0.7360 C.3   1 <1>   0.1760 
 19 C       -9.2470     3.3830     0.8260 C.3   1 <1>  -0.0600 
 20 C       -7.2780     2.4270    -2.1070 C.3   1 <1>  -0.2400 
 21 C       -7.4810     0.7740    -0.1970 C.3   1 <1>  -0.2400 
 22 H        1.6780     0.3990    -1.4130 H     1 <1>   0.1500 
 23 H       -1.8250     2.8970     0.0790 H     1 <1>   0.3700 
 24 H        1.2920     4.8490     0.6540 H     1 <1>   0.1500 
 25 H        3.7070     1.7430    -0.9580 H     1 <1>   0.1500 
 26 H        3.4840     3.9650     0.0760 H     1 <1>   0.1500 
 27 H       -3.4510     5.8650     0.5660 H     1 <1>   0.0800 
 28 H       -3.2950     4.8450     1.9880 H     1 <1>   0.0800 
 29 H       -5.7110     1.7160    -0.8650 H     1 <1>   0.0800 
 30 H       -9.4120     2.4640     1.3570 H     1 <1>   0.0800 
 31 H       -9.5770     3.2800    -0.1900 H     1 <1>   0.0800 
 32 H       -9.8340     4.1520     1.2950 H     1 <1>   0.0800 
 33 H       -8.3170     2.6930    -2.0520 H     1 <1>   0.0800 
 34 H       -7.1730     1.6180    -2.8070 H     1 <1>   0.0800 
 35 H       -6.7180     3.2670    -2.4800 H     1 <1>   0.0800 
 36 H       -8.5440     0.9210    -0.2010 H     1 <1>   0.0800 
 37 H       -7.1510     0.5470     0.8020 H     1 <1>   0.0800 
 38 H       -7.2670    -0.0760    -0.8200 H     1 <1>   0.0800 
@<TRIPOS>BOND
  1   1   2  1   
  2   2   3  ar  
  3   2   4  ar  
  4   3   5  1   
  5   3   6  ar  
  6   4   7  ar  
  7   4  22  1   
  8   5   8  am  
  9   5  23  1   
 10   6   9  ar  
 11   6  24  1   
 12   7   9  ar  
 13   7  25  1   
 14   8  10  2   
 15   8  11  1   
 16   9  26  1   
 17  11  12  1   
 18  11  27  1   
 19  11  28  1   
 20  12  13  1   
 21  13  14  2   
 22  13  15  1   
 23  14  16  1   
 24  15  17  1   
 25  15  18  1   
 26  16  17  2   
 27  17  19  1   
 28  18  20  1   
 29  18  21  1   
 30  18  29  1   
 31  19  30  1   
 32  19  31  1   
 33  19  32  1   
 34  20  33  1   
 35  20  34  1   
 36  20  35  1   
 37  21  36  1   
 38  21  37  1   
 39  21  38  1   
@<TRIPOS>SUBSTRUCTURE
  1 ****  12 GROUP 4 **** **** 0

# MOE 2024.06 (io_trps.svl 2023.06)
