@<TRIPOS>MOLECULE
NONAME
48 50 1 0 0 
SMALL
USER_CHARGES


@<TRIPOS>ATOM
  1 S       -0.8730    -0.0500    -0.7500 S.3   1 <1>  -0.0800 
  2 C        0.6800     0.4700    -0.1060 C.2   1 <1>   0.1040 
  3 C       -1.5830     1.5200    -0.4240 C.2   1 <1>  -0.1400 
  4 N        1.7660    -0.3910    -0.0680 N.am  1 <1>  -0.4940 
  5 C        0.6230     1.7720     0.3030 C.2   1 <1>  -0.0860 
  6 C       -0.6890     2.3500     0.1320 C.2   1 <1>  -0.1810 
  7 C       -3.0370     1.7790    -0.7490 C.3   1 <1>   0.0200 
  8 C        2.0510    -1.5630    -0.7160 C.2   1 <1>   0.5690 
  9 C        1.7680     2.4670     0.8100 C.2   1 <1>   0.7160 
 10 C       -1.0910     3.7600     0.5500 C.3   1 <1>   0.0210 
 11 C       -3.3230     3.2860    -0.6170 C.3   1 <1>  -0.1600 
 12 O        1.2760    -2.1340    -1.4430 O.2   1 <1>  -0.5700 
 13 C        3.4350    -2.1560    -0.5140 C.3   1 <1>  -0.0990 
 14 O        2.4820     1.9550     1.6530 O.2   1 <1>  -0.5700 
 15 N        2.0860     3.6940     0.2910 N.am  1 <1>  -0.5470 
 16 C       -2.6260     3.9000     0.6150 C.3   1 <1>  -0.1600 
 17 C        4.5460    -1.1050    -0.2850 C.3   1 <1>  -0.2660 
 18 C        3.2120     4.4880     0.5280 C.ar  1 <1>   0.1170 
 19 C        5.9200    -1.7260    -0.2640 C.2   1 <1>   0.9060 
 20 C        4.5150     4.0670     0.2410 C.ar  1 <1>  -0.1440 
 21 C        3.0150     5.7620     1.0480 C.ar  1 <1>  -0.1500 
 22 O        6.1320    -2.6550     0.5180 O.co2 1 <1>  -0.9000 
 23 O        6.7770    -1.2690    -1.0220 O.co2 1 <1>  -0.9000 
 24 C        5.5790     4.9190     0.4900 C.ar  1 <1>  -0.1500 
 25 C        4.8200     2.6910    -0.3440 C.3   1 <1>  -0.0970 
 26 C        4.0810     6.6060     1.2900 C.ar  1 <1>  -0.1500 
 27 C        5.3680     6.1830     1.0110 C.ar  1 <1>  -0.1500 
 28 H        2.5430    -0.0590     0.5100 H     1 <1>   0.3700 
 29 H       -3.6490     1.2240    -0.0600 H     1 <1>   0.0800 
 30 H       -3.2590     1.4460    -1.7480 H     1 <1>   0.0800 
 31 H       -0.7020     4.4630    -0.1640 H     1 <1>   0.0800 
 32 H       -0.6770     3.9890     1.5170 H     1 <1>   0.0800 
 33 H       -4.3860     3.4440    -0.5560 H     1 <1>   0.0800 
 34 H       -2.9660     3.7850    -1.5010 H     1 <1>   0.0800 
 35 H        3.6850    -2.7340    -1.3870 H     1 <1>   0.0800 
 36 H        3.4060    -2.8320     0.3210 H     1 <1>   0.0800 
 37 H        1.4530     4.0200    -0.4340 H     1 <1>   0.3700 
 38 H       -2.8860     4.9400     0.7010 H     1 <1>   0.0800 
 39 H       -2.9820     3.3980     1.4990 H     1 <1>   0.0800 
 40 H        4.4150    -0.6090     0.6570 H     1 <1>   0.0800 
 41 H        4.5300    -0.3750    -1.0720 H     1 <1>   0.0800 
 42 H        2.0170     6.0930     1.2720 H     1 <1>   0.1500 
 43 H        6.5850     4.5980     0.2800 H     1 <1>   0.1500 
 44 H        4.0700     2.3980    -1.0560 H     1 <1>   0.0800 
 45 H        4.8560     1.9610     0.4450 H     1 <1>   0.0800 
 46 H        5.7710     2.6860    -0.8460 H     1 <1>   0.0800 
 47 H        3.9140     7.5890     1.6960 H     1 <1>   0.1500 
 48 H        6.2040     6.8340     1.2000 H     1 <1>   0.1500 
@<TRIPOS>BOND
  1   1   2  1   
  2   1   3  1   
  3   2   4  1   
  4   2   5  2   
  5   3   6  2   
  6   3   7  1   
  7   4   8  am  
  8   4  28  1   
  9   5   6  1   
 10   5   9  1   
 11   6  10  1   
 12   7  11  1   
 13   7  29  1   
 14   7  30  1   
 15   8  12  2   
 16   8  13  1   
 17   9  14  2   
 18   9  15  am  
 19  10  16  1   
 20  10  31  1   
 21  10  32  1   
 22  11  16  1   
 23  11  33  1   
 24  11  34  1   
 25  13  17  1   
 26  13  35  1   
 27  13  36  1   
 28  15  18  1   
 29  15  37  1   
 30  16  38  1   
 31  16  39  1   
 32  17  19  1   
 33  17  40  1   
 34  17  41  1   
 35  18  20  ar  
 36  18  21  ar  
 37  19  22  ar  
 38  19  23  ar  
 39  20  24  ar  
 40  20  25  1   
 41  21  26  ar  
 42  21  42  1   
 43  24  27  ar  
 44  24  43  1   
 45  25  44  1   
 46  25  45  1   
 47  25  46  1   
 48  26  27  ar  
 49  26  47  1   
 50  27  48  1   
@<TRIPOS>SUBSTRUCTURE
  1 ****   9 GROUP 4 **** **** 0

# MOE 2024.06 (io_trps.svl 2023.06)
