@<TRIPOS>MOLECULE
NONAME
42 44 1 0 0 
SMALL
USER_CHARGES


@<TRIPOS>ATOM
  1 O        1.2890    -0.5500    -1.2280 O.3   1 <1>  -0.5600 
  2 C        2.0130     0.5080    -0.7110 C.3   1 <1>   0.1200 
  3 C       -0.0690    -0.2910    -1.3930 C.3   1 <1>   0.0400 
  4 C        3.4590     0.0280    -0.6090 C.3   1 <1>  -0.1600 
  5 C        4.3590     1.1200    -0.0480 C.3   1 <1>   0.3430 
  6 N        5.7440     0.5990     0.0200 N.4   1 <1>  -0.9060 
  7 C        6.7380     1.5600     0.5530 C.3   1 <1>   0.4230 
  8 C        6.9730     2.7280    -0.4340 C.3   1 <1>  -0.0800 
  9 C        8.0730     0.8220     0.7990 C.3   1 <1>  -0.0800 
 10 C        7.5710     2.2150    -1.7650 C.3   1 <1>  -0.1600 
 11 C        7.9740     3.7130     0.2050 C.3   1 <1>  -0.1600 
 12 C        8.6740     0.3070    -0.5310 C.3   1 <1>  -0.1600 
 13 C        9.0700     1.8130     1.4350 C.3   1 <1>  -0.1600 
 14 C        8.9030     1.4860    -1.4960 C.3   1 <1>  -0.0800 
 15 C        9.3110     3.0010     0.4850 C.3   1 <1>  -0.0800 
 16 C        9.8870     2.4760    -0.8440 C.3   1 <1>  -0.1600 
 17 H        1.6120     0.7590     0.2570 H     1 <1>   0.0800 
 18 H        1.9230     1.3460    -1.3820 H     1 <1>   0.0800 
 19 H       -0.5320    -1.1740    -1.7980 H     1 <1>   0.0800 
 20 H       -0.1970     0.5290    -2.0790 H     1 <1>   0.0800 
 21 H       -0.5080    -0.0600    -0.4380 H     1 <1>   0.0800 
 22 H        3.7920    -0.2500    -1.5940 H     1 <1>   0.0800 
 23 H        3.4840    -0.8330     0.0350 H     1 <1>   0.0800 
 24 H        4.0200     1.4030     0.9360 H     1 <1>   0.0800 
 25 H        4.3180     1.9860    -0.6900 H     1 <1>   0.0800 
 26 H        6.0630     0.3280    -0.9170 H     1 <1>   0.4500 
 27 H        5.7650    -0.2500     0.5940 H     1 <1>   0.4500 
 28 H        6.3870     1.9570     1.4920 H     1 <1>   0.0800 
 29 H        6.0560     3.2590    -0.6210 H     1 <1>   0.0800 
 30 H        7.9240     0.0030     1.4810 H     1 <1>   0.0800 
 31 H        6.8880     1.5590    -2.2740 H     1 <1>   0.0800 
 32 H        7.7510     3.0480    -2.4240 H     1 <1>   0.0800 
 33 H        7.5740     4.1090     1.1230 H     1 <1>   0.0800 
 34 H        8.1420     4.5470    -0.4570 H     1 <1>   0.0800 
 35 H        8.0360    -0.4270    -0.9910 H     1 <1>   0.0800 
 36 H        9.6160    -0.1780    -0.3350 H     1 <1>   0.0800 
 37 H        8.6920     2.1710     2.3770 H     1 <1>   0.0800 
 38 H       10.0050     1.3160     1.6330 H     1 <1>   0.0800 
 39 H        9.3190     1.1270    -2.4230 H     1 <1>   0.0800 
 40 H       10.0070     3.6920     0.9320 H     1 <1>   0.0800 
 41 H       10.0750     3.3000    -1.5110 H     1 <1>   0.0800 
 42 H       10.8300     1.9890    -0.6640 H     1 <1>   0.0800 
@<TRIPOS>BOND
  1   1   2  1   
  2   1   3  1   
  3   2   4  1   
  4   2  17  1   
  5   2  18  1   
  6   3  19  1   
  7   3  20  1   
  8   3  21  1   
  9   4   5  1   
 10   4  22  1   
 11   4  23  1   
 12   5   6  1   
 13   5  24  1   
 14   5  25  1   
 15   6   7  1   
 16   6  26  1   
 17   6  27  1   
 18   7   8  1   
 19   7   9  1   
 20   7  28  1   
 21   8  10  1   
 22   8  11  1   
 23   8  29  1   
 24   9  12  1   
 25   9  13  1   
 26   9  30  1   
 27  10  14  1   
 28  10  31  1   
 29  10  32  1   
 30  11  15  1   
 31  11  33  1   
 32  11  34  1   
 33  12  14  1   
 34  12  35  1   
 35  12  36  1   
 36  13  15  1   
 37  13  37  1   
 38  13  38  1   
 39  14  16  1   
 40  14  39  1   
 41  15  16  1   
 42  15  40  1   
 43  16  41  1   
 44  16  42  1   
@<TRIPOS>SUBSTRUCTURE
  1 ****   6 GROUP 4 **** **** 0

# MOE 2024.06 (io_trps.svl 2023.06)
