@<TRIPOS>MOLECULE
NONAME
40 41 1 0 0 
SMALL
USER_CHARGES


@<TRIPOS>ATOM
  1 O       -0.8060     0.6460    -0.3450 O.2   1 <1>  -0.5700 
  2 C       -0.9220     1.7760    -0.7770 C.2   1 <1>   0.6900 
  3 N       -2.1570     2.2010    -1.1710 N.am  1 <1>  -0.6600 
  4 N        0.1050     2.6650    -0.8490 N.am  1 <1>  -0.5470 
  5 C       -3.0260     1.2140    -1.8760 C.3   1 <1>   0.1400 
  6 C       -2.9050     3.0560    -0.2090 C.3   1 <1>   0.1400 
  7 C        1.4380     2.6040    -0.4170 C.ar  1 <1>   0.1170 
  8 C       -3.7800     0.3330    -0.8580 C.3   1 <1>   0.3430 
  9 C       -3.6550     2.1730     0.8130 C.3   1 <1>   0.3430 
 10 C        2.3400     3.5310    -0.9270 C.ar  1 <1>  -0.1500 
 11 C        1.9010     1.6750     0.5100 C.ar  1 <1>  -0.1500 
 12 N       -4.5510     1.1570     0.1460 N.4   1 <1>  -0.9590 
 13 C        3.6670     3.5360    -0.5310 C.ar  1 <1>  -0.1430 
 14 C        3.2250     1.6660     0.9140 C.ar  1 <1>  -0.1430 
 15 C       -5.1870     0.2680     1.1650 C.3   1 <1>   0.2630 
 16 C        4.1040     2.6010     0.3920 C.ar  1 <1>  -0.1500 
 17 C        4.6450     4.5510    -1.0930 C.3   1 <1>  -0.0970 
 18 C        3.7110     0.6430     1.9250 C.3   1 <1>  -0.0970 
 19 H       -0.1210     3.4770    -1.4150 H     1 <1>   0.3700 
 20 H       -2.4160     0.5840    -2.5030 H     1 <1>   0.0800 
 21 H       -3.7230     1.7330    -2.5110 H     1 <1>   0.0800 
 22 H       -3.5990     3.6810    -0.7430 H     1 <1>   0.0800 
 23 H       -2.2180     3.6980     0.3170 H     1 <1>   0.0800 
 24 H       -3.0530    -0.2760    -0.3440 H     1 <1>   0.0800 
 25 H       -4.4480    -0.3270    -1.3860 H     1 <1>   0.0800 
 26 H       -4.2360     2.8030     1.4660 H     1 <1>   0.0800 
 27 H       -2.9200     1.6620     1.4140 H     1 <1>   0.0800 
 28 H        2.0020     4.2550    -1.6430 H     1 <1>   0.1500 
 29 H        1.2270     0.9510     0.9250 H     1 <1>   0.1500 
 30 H       -5.2870     1.6650    -0.3620 H     1 <1>   0.4500 
 31 H       -4.4320    -0.2790     1.7070 H     1 <1>   0.0800 
 32 H       -5.8480    -0.4380     0.6880 H     1 <1>   0.0800 
 33 H       -5.7600     0.8520     1.8670 H     1 <1>   0.0800 
 34 H        5.1330     2.6010     0.7060 H     1 <1>   0.1500 
 35 H        4.2150     5.0830    -1.9220 H     1 <1>   0.0800 
 36 H        5.5350     4.0530    -1.4330 H     1 <1>   0.0800 
 37 H        4.9130     5.2600    -0.3300 H     1 <1>   0.0800 
 38 H        3.1320    -0.2610     1.8520 H     1 <1>   0.0800 
 39 H        3.6130     1.0390     2.9190 H     1 <1>   0.0800 
 40 H        4.7420     0.3990     1.7460 H     1 <1>   0.0800 
@<TRIPOS>BOND
  1   1   2  2   
  2   2   3  am  
  3   2   4  am  
  4   3   5  1   
  5   3   6  1   
  6   4   7  1   
  7   4  19  1   
  8   5   8  1   
  9   5  20  1   
 10   5  21  1   
 11   6   9  1   
 12   6  22  1   
 13   6  23  1   
 14   7  10  ar  
 15   7  11  ar  
 16   8  12  1   
 17   8  24  1   
 18   8  25  1   
 19   9  12  1   
 20   9  26  1   
 21   9  27  1   
 22  10  13  ar  
 23  10  28  1   
 24  11  14  ar  
 25  11  29  1   
 26  12  15  1   
 27  12  30  1   
 28  13  16  ar  
 29  13  17  1   
 30  14  16  ar  
 31  14  18  1   
 32  15  31  1   
 33  15  32  1   
 34  15  33  1   
 35  16  34  1   
 36  17  35  1   
 37  17  36  1   
 38  17  37  1   
 39  18  38  1   
 40  18  39  1   
 41  18  40  1   
@<TRIPOS>SUBSTRUCTURE
  1 ****   4 GROUP 4 **** **** 0

# MOE 2024.06 (io_trps.svl 2023.06)
