@<TRIPOS>MOLECULE
NONAME
44 45 1 0 0 
SMALL
USER_CHARGES


@<TRIPOS>ATOM
  1 O        0.3070     0.2890    -0.9230 O.3   1 <1>  -0.5600 
  2 C       -0.0590     1.5790    -0.5140 C.3   1 <1>   0.2000 
  3 C        1.1140    -0.4640    -0.0560 C.3   1 <1>   0.2000 
  4 C        1.2020     2.4530    -0.2770 C.3   1 <1>   0.3430 
  5 C       -0.9840     1.4910     0.7060 C.3   1 <1>  -0.2400 
  6 C        2.2000     0.4100     0.6250 C.3   1 <1>   0.3430 
  7 C        1.7350    -1.5670    -0.9120 C.3   1 <1>  -0.2400 
  8 N        2.4790     1.6510    -0.1760 N.4   1 <1>  -0.9590 
  9 C        3.6610     2.4420     0.2790 C.3   1 <1>   0.4230 
 10 C        3.8630     3.6620    -0.6370 C.3   1 <1>  -0.1600 
 11 C        4.9240     1.5630     0.2680 C.3   1 <1>  -0.1600 
 12 C        5.1240     4.4550    -0.2660 C.3   1 <1>  -0.1600 
 13 C        6.1880     2.3570     0.6280 C.3   1 <1>  -0.1600 
 14 C        6.3820     3.5750    -0.2920 C.3   1 <1>  -0.0800 
 15 C        7.6090     4.4150     0.1100 C.3   1 <1>  -0.1600 
 16 C        8.9390     3.6670    -0.0460 C.3   1 <1>  -0.2400 
 17 H       -0.6220     2.0080    -1.3260 H     1 <1>   0.0800 
 18 H        0.4820    -0.9130     0.6920 H     1 <1>   0.0800 
 19 H        1.0570     3.0270     0.6220 H     1 <1>   0.0800 
 20 H        1.2830     3.1530    -1.0920 H     1 <1>   0.0800 
 21 H       -0.4690     1.1410     1.5820 H     1 <1>   0.0800 
 22 H       -1.8070     0.8320     0.4900 H     1 <1>   0.0800 
 23 H       -1.3900     2.4620     0.9250 H     1 <1>   0.0800 
 24 H        3.0890    -0.1840     0.7410 H     1 <1>   0.0800 
 25 H        1.8610     0.6850     1.6100 H     1 <1>   0.0800 
 26 H        2.3480    -1.1490    -1.6900 H     1 <1>   0.0800 
 27 H        0.9560    -2.1590    -1.3600 H     1 <1>   0.0800 
 28 H        2.3400    -2.2170    -0.3050 H     1 <1>   0.0800 
 29 H        2.6680     1.3160    -1.1310 H     1 <1>   0.4500 
 30 H        3.4950     2.7930     1.2860 H     1 <1>   0.0800 
 31 H        3.0300     4.3360    -0.5610 H     1 <1>   0.0800 
 32 H        3.9520     3.3370    -1.6600 H     1 <1>   0.0800 
 33 H        5.0580     1.1330    -0.7090 H     1 <1>   0.0800 
 34 H        4.8380     0.7680     0.9850 H     1 <1>   0.0800 
 35 H        5.0040     4.8820     0.7160 H     1 <1>   0.0800 
 36 H        5.2440     5.2700    -0.9610 H     1 <1>   0.0800 
 37 H        7.0370     1.7000     0.5470 H     1 <1>   0.0800 
 38 H        6.1290     2.6870     1.6520 H     1 <1>   0.0800 
 39 H        6.5320     3.2260    -1.3010 H     1 <1>   0.0800 
 40 H        7.5090     4.7500     1.1290 H     1 <1>   0.0800 
 41 H        7.6490     5.2930    -0.5140 H     1 <1>   0.0800 
 42 H        9.0130     2.8540     0.6530 H     1 <1>   0.0800 
 43 H        9.7580     4.3400     0.1410 H     1 <1>   0.0800 
 44 H        9.0420     3.2810    -1.0450 H     1 <1>   0.0800 
@<TRIPOS>BOND
  1   1   2  1   
  2   1   3  1   
  3   2   4  1   
  4   2   5  1   
  5   2  17  1   
  6   3   6  1   
  7   3   7  1   
  8   3  18  1   
  9   4   8  1   
 10   4  19  1   
 11   4  20  1   
 12   5  21  1   
 13   5  22  1   
 14   5  23  1   
 15   6   8  1   
 16   6  24  1   
 17   6  25  1   
 18   7  26  1   
 19   7  27  1   
 20   7  28  1   
 21   8   9  1   
 22   8  29  1   
 23   9  10  1   
 24   9  11  1   
 25   9  30  1   
 26  10  12  1   
 27  10  31  1   
 28  10  32  1   
 29  11  13  1   
 30  11  33  1   
 31  11  34  1   
 32  12  14  1   
 33  12  35  1   
 34  12  36  1   
 35  13  14  1   
 36  13  37  1   
 37  13  38  1   
 38  14  15  1   
 39  14  39  1   
 40  15  16  1   
 41  15  40  1   
 42  15  41  1   
 43  16  42  1   
 44  16  43  1   
 45  16  44  1   
@<TRIPOS>SUBSTRUCTURE
  1 ****   9 GROUP 4 **** **** 0

# MOE 2024.06 (io_trps.svl 2023.06)
