@<TRIPOS>MOLECULE
NONAME
38 39 1 0 0 
SMALL
USER_CHARGES


@<TRIPOS>ATOM
  1 S       -0.2510     0.0030    -0.2270 S.o2  1 <1>   1.4470 
  2 O       -0.3620    -0.3930    -1.6120 O.2   1 <1>  -0.6500 
  3 O        0.0520    -0.9790     0.7880 O.2   1 <1>  -0.6500 
  4 N       -1.7690     0.6160     0.1280 N.am  1 <1>  -0.9140 
  5 C        0.8340     1.4470    -0.0580 C.ar  1 <1>  -0.0090 
  6 C       -2.7110    -0.4190     0.5180 C.3   1 <1>   0.1960 
  7 C        0.8610     2.1830     1.1210 C.ar  1 <1>  -0.1500 
  8 C        1.6670     1.8510    -1.0960 C.ar  1 <1>  -0.1500 
  9 C       -4.1380     0.1430     0.5560 C.3   1 <1>  -0.0800 
 10 C        1.6870     3.2860     1.2610 C.ar  1 <1>  -0.1500 
 11 C        2.4950     2.9520    -0.9650 C.ar  1 <1>  -0.1500 
 12 C       -5.1000    -0.9300     1.0980 C.3   1 <1>  -0.1600 
 13 C       -4.6060     0.6290    -0.8320 C.3   1 <1>  -0.1600 
 14 C        2.5050     3.6720     0.2150 C.ar  1 <1>  -0.1500 
 15 C       -6.5450    -0.4180     1.1460 C.3   1 <1>  -0.1600 
 16 C       -6.0530     1.1370    -0.7900 C.3   1 <1>  -0.1600 
 17 C       -7.0170     0.0700    -0.2360 C.3   1 <1>  -0.1860 
 18 C       -8.4550     0.5840    -0.1860 C.2   1 <1>   0.9060 
 19 O       -9.3190    -0.0220    -0.8280 O.co2 1 <1>  -0.9000 
 20 O       -8.7140     1.5850     0.4920 O.co2 1 <1>  -0.9000 
 21 H       -2.0980     0.9730    -0.7660 H     1 <1>   0.4200 
 22 H       -2.4430    -0.7920     1.4930 H     1 <1>   0.0800 
 23 H       -2.6690    -1.2400    -0.1810 H     1 <1>   0.0800 
 24 H        0.2260     1.8870     1.9390 H     1 <1>   0.1500 
 25 H        1.6670     1.2960    -2.0200 H     1 <1>   0.1500 
 26 H       -4.1550     0.9750     1.2390 H     1 <1>   0.0800 
 27 H        1.6920     3.8420     2.1830 H     1 <1>   0.1500 
 28 H        3.1320     3.2480    -1.7810 H     1 <1>   0.1500 
 29 H       -4.8010    -1.2220     2.0900 H     1 <1>   0.0800 
 30 H       -5.0630    -1.8030     0.4680 H     1 <1>   0.0800 
 31 H       -4.5420    -0.1790    -1.5400 H     1 <1>   0.0800 
 32 H       -3.9800     1.4310    -1.1800 H     1 <1>   0.0800 
 33 H        3.1480     4.5290     0.3210 H     1 <1>   0.1500 
 34 H       -6.6200     0.3970     1.8470 H     1 <1>   0.0800 
 35 H       -7.2010    -1.2010     1.4850 H     1 <1>   0.0800 
 36 H       -6.3720     1.4190    -1.7780 H     1 <1>   0.0800 
 37 H       -6.1110     2.0140    -0.1670 H     1 <1>   0.0800 
 38 H       -7.0170    -0.7670    -0.9090 H     1 <1>   0.0800 
@<TRIPOS>BOND
  1   1   2  2   
  2   1   3  2   
  3   1   4  am  
  4   1   5  1   
  5   4   6  1   
  6   4  21  1   
  7   5   7  ar  
  8   5   8  ar  
  9   6   9  1   
 10   6  22  1   
 11   6  23  1   
 12   7  10  ar  
 13   7  24  1   
 14   8  11  ar  
 15   8  25  1   
 16   9  12  1   
 17   9  13  1   
 18   9  26  1   
 19  10  14  ar  
 20  10  27  1   
 21  11  14  ar  
 22  11  28  1   
 23  12  15  1   
 24  12  29  1   
 25  12  30  1   
 26  13  16  1   
 27  13  31  1   
 28  13  32  1   
 29  14  33  1   
 30  15  17  1   
 31  15  34  1   
 32  15  35  1   
 33  16  17  1   
 34  16  36  1   
 35  16  37  1   
 36  17  18  1   
 37  17  38  1   
 38  18  19  ar  
 39  18  20  ar  
@<TRIPOS>SUBSTRUCTURE
  1 ****   4 GROUP 4 **** **** 0

# MOE 2024.06 (io_trps.svl 2023.06)
