@<TRIPOS>MOLECULE
NONAME
41 42 1 0 0 
SMALL
USER_CHARGES


@<TRIPOS>ATOM
  1 O        0.5760     0.1930     0.8060 O.2   1 <1>  -0.5700 
  2 C        1.4540    -0.4790     0.3260 C.2   1 <1>   0.5690 
  3 N        2.5040     0.0950    -0.3450 N.am  1 <1>  -0.6600 
  4 C        1.3680    -1.9770     0.5050 C.3   1 <1>  -0.1790 
  5 C        2.5100     1.5600    -0.6350 C.3   1 <1>   0.1400 
  6 C        3.7610    -0.6030    -0.7410 C.3   1 <1>   0.1400 
  7 C        3.7350     2.2320     0.0060 C.3   1 <1>   0.3430 
  8 C        4.9890     0.1000    -0.1230 C.3   1 <1>   0.3430 
  9 N        5.0380     1.5850    -0.4120 N.4   1 <1>  -0.9590 
 10 C        6.2310     2.2540     0.2030 C.3   1 <1>   0.4230 
 11 C        6.2530     3.7510    -0.1650 C.3   1 <1>  -0.1600 
 12 C        7.5300     1.5760    -0.2750 C.3   1 <1>  -0.1600 
 13 C        7.5120     4.4590     0.3580 C.3   1 <1>  -0.1600 
 14 C        8.7850     2.2920     0.2480 C.3   1 <1>  -0.1600 
 15 C        8.7910     3.7750    -0.1400 C.3   1 <1>  -0.0800 
 16 C       10.0280     4.4730     0.4350 C.3   1 <1>  -0.2400 
 17 H        1.4960    -2.4710    -0.4390 H     1 <1>   0.0800 
 18 H        0.3990    -2.2360     0.8940 H     1 <1>   0.0800 
 19 H        2.1140    -2.3090     1.2000 H     1 <1>   0.0800 
 20 H        1.6170     2.0290    -0.2560 H     1 <1>   0.0800 
 21 H        2.5220     1.7130    -1.7000 H     1 <1>   0.0800 
 22 H        3.8430    -0.6040    -1.8140 H     1 <1>   0.0800 
 23 H        3.7500    -1.6280    -0.4150 H     1 <1>   0.0800 
 24 H        3.6290     2.1790     1.0780 H     1 <1>   0.0800 
 25 H        3.7290     3.2720    -0.2740 H     1 <1>   0.0800 
 26 H        5.8740    -0.3790    -0.5050 H     1 <1>   0.0800 
 27 H        4.9660    -0.0550     0.9430 H     1 <1>   0.0800 
 28 H        5.1270     1.7030    -1.4290 H     1 <1>   0.4500 
 29 H        6.1770     2.1680     1.2770 H     1 <1>   0.0800 
 30 H        5.4100     4.2620     0.2640 H     1 <1>   0.0800 
 31 H        6.2190     3.8640    -1.2340 H     1 <1>   0.0800 
 32 H        7.5640     1.5730    -1.3510 H     1 <1>   0.0800 
 33 H        7.5830     0.5630     0.0760 H     1 <1>   0.0800 
 34 H        7.5020     4.4620     1.4350 H     1 <1>   0.0800 
 35 H        7.5050     5.4860     0.0310 H     1 <1>   0.0800 
 36 H        9.6630     1.8140    -0.1550 H     1 <1>   0.0800 
 37 H        8.8300     2.2010     1.3210 H     1 <1>   0.0800 
 38 H        8.8330     3.8540    -1.2150 H     1 <1>   0.0800 
 39 H       10.0340     4.4220     1.5100 H     1 <1>   0.0800 
 40 H       10.0440     5.5080     0.1420 H     1 <1>   0.0800 
 41 H       10.9250     4.0080     0.0660 H     1 <1>   0.0800 
@<TRIPOS>BOND
  1   1   2  2   
  2   2   3  am  
  3   2   4  1   
  4   3   5  1   
  5   3   6  1   
  6   4  17  1   
  7   4  18  1   
  8   4  19  1   
  9   5   7  1   
 10   5  20  1   
 11   5  21  1   
 12   6   8  1   
 13   6  22  1   
 14   6  23  1   
 15   7   9  1   
 16   7  24  1   
 17   7  25  1   
 18   8   9  1   
 19   8  26  1   
 20   8  27  1   
 21   9  10  1   
 22   9  28  1   
 23  10  11  1   
 24  10  12  1   
 25  10  29  1   
 26  11  13  1   
 27  11  30  1   
 28  11  31  1   
 29  12  14  1   
 30  12  32  1   
 31  12  33  1   
 32  13  15  1   
 33  13  34  1   
 34  13  35  1   
 35  14  15  1   
 36  14  36  1   
 37  14  37  1   
 38  15  16  1   
 39  15  38  1   
 40  16  39  1   
 41  16  40  1   
 42  16  41  1   
@<TRIPOS>SUBSTRUCTURE
  1 ****   9 GROUP 4 **** **** 0

# MOE 2024.06 (io_trps.svl 2023.06)
