@<TRIPOS>MOLECULE
NONAME
46 48 1 0 0 
SMALL
USER_CHARGES


@<TRIPOS>ATOM
  1 F       -0.8140     0.7830    -1.4110 F     1 <1>  -0.1900 
  2 C        0.0390     1.5070    -0.7240 C.ar  1 <1>   0.1900 
  3 C       -0.4240     2.5700     0.0610 C.ar  1 <1>   0.1000 
  4 C        1.3760     1.1710    -0.8170 C.ar  1 <1>  -0.1500 
  5 N       -1.7670     2.9490     0.1880 N.pl3 1 <1>  -0.8380 
  6 C        0.5330     3.2940     0.7610 C.ar  1 <1>  -0.1500 
  7 C        2.3040     1.9140    -0.1060 C.ar  1 <1>  -0.1500 
  8 C       -2.3930     3.5360    -1.0380 C.3   1 <1>   0.2090 
  9 C       -2.6630     1.9570     0.8530 C.3   1 <1>   0.2090 
 10 C        1.8790     2.9730     0.6810 C.ar  1 <1>  -0.1500 
 11 C       -3.7610     4.1670    -0.7220 C.3   1 <1>   0.1400 
 12 C       -4.0280     2.5820     1.1910 C.3   1 <1>   0.1400 
 13 N       -4.6600     3.1960    -0.0200 N.am  1 <1>  -0.6600 
 14 C       -5.9650     3.0310    -0.4060 C.2   1 <1>   0.6900 
 15 O       -6.4720     3.8030    -1.1970 O.2   1 <1>  -0.5700 
 16 N       -6.6720     1.9750     0.0890 N.am  1 <1>  -0.5470 
 17 C       -8.0230     1.6530    -0.0950 C.ar  1 <1>   0.1170 
 18 C       -9.0670     2.4860     0.3160 C.ar  1 <1>  -0.1430 
 19 C       -8.3310     0.4340    -0.6850 C.ar  1 <1>  -0.1500 
 20 C      -10.3800     2.0880     0.1170 C.ar  1 <1>  -0.1500 
 21 C       -8.8070     3.8300     0.9850 C.3   1 <1>  -0.0970 
 22 C       -9.6430     0.0440    -0.8750 C.ar  1 <1>  -0.1500 
 23 C      -10.6770     0.8720    -0.4770 C.ar  1 <1>  -0.1430 
 24 C      -12.1220     0.4570    -0.6840 C.3   1 <1>  -0.0970 
 25 H        1.6820     0.3460    -1.4340 H     1 <1>   0.1500 
 26 H        0.2080     4.1170     1.3710 H     1 <1>   0.1500 
 27 H        3.3510     1.6690    -0.1640 H     1 <1>   0.1500 
 28 H       -2.5240     2.7680    -1.7810 H     1 <1>   0.0800 
 29 H       -1.7400     4.2870    -1.4460 H     1 <1>   0.0800 
 30 H       -2.1950     1.6090     1.7580 H     1 <1>   0.0800 
 31 H       -2.8110     1.1100     0.2050 H     1 <1>   0.0800 
 32 H        2.6000     3.5510     1.2340 H     1 <1>   0.1500 
 33 H       -4.2100     4.5000    -1.6410 H     1 <1>   0.0800 
 34 H       -3.6150     5.0270    -0.0940 H     1 <1>   0.0800 
 35 H       -3.8790     3.3500     1.9290 H     1 <1>   0.0800 
 36 H       -4.6660     1.8330     1.6240 H     1 <1>   0.0800 
 37 H       -6.0830     1.2180     0.4090 H     1 <1>   0.3700 
 38 H       -7.5360    -0.2130    -1.0070 H     1 <1>   0.1500 
 39 H      -11.1840     2.7310     0.4260 H     1 <1>   0.1500 
 40 H       -7.9920     3.7530     1.6810 H     1 <1>   0.0800 
 41 H       -9.6760     4.1670     1.5200 H     1 <1>   0.0800 
 42 H       -8.5590     4.5630     0.2390 H     1 <1>   0.0800 
 43 H       -9.8560    -0.9040    -1.3370 H     1 <1>   0.1500 
 44 H      -12.7220     1.3130    -0.9340 H     1 <1>   0.0800 
 45 H      -12.5050     0.0140     0.2180 H     1 <1>   0.0800 
 46 H      -12.1990    -0.2570    -1.4830 H     1 <1>   0.0800 
@<TRIPOS>BOND
  1   1   2  1   
  2   2   3  ar  
  3   2   4  ar  
  4   3   5  1   
  5   3   6  ar  
  6   4   7  ar  
  7   4  25  1   
  8   5   8  1   
  9   5   9  1   
 10   6  10  ar  
 11   6  26  1   
 12   7  10  ar  
 13   7  27  1   
 14   8  11  1   
 15   8  28  1   
 16   8  29  1   
 17   9  12  1   
 18   9  30  1   
 19   9  31  1   
 20  10  32  1   
 21  11  13  1   
 22  11  33  1   
 23  11  34  1   
 24  12  13  1   
 25  12  35  1   
 26  12  36  1   
 27  13  14  am  
 28  14  15  2   
 29  14  16  am  
 30  16  17  1   
 31  16  37  1   
 32  17  18  ar  
 33  17  19  ar  
 34  18  20  ar  
 35  18  21  1   
 36  19  22  ar  
 37  19  38  1   
 38  20  23  ar  
 39  20  39  1   
 40  21  40  1   
 41  21  41  1   
 42  21  42  1   
 43  22  23  ar  
 44  22  43  1   
 45  23  24  1   
 46  24  44  1   
 47  24  45  1   
 48  24  46  1   
@<TRIPOS>SUBSTRUCTURE
  1 ****  13 GROUP 4 **** **** 0

# MOE 2024.06 (io_trps.svl 2023.06)
