@<TRIPOS>MOLECULE
NONAME
26 26 1 0 0 
SMALL
USER_CHARGES


@<TRIPOS>ATOM
  1 O       -0.8750    -1.8020    -1.7710 O.co2 1 <1>  -0.9000 
  2 C       -0.4310    -1.5650    -0.6380 C.2   1 <1>   0.9060 
  3 O        0.4350    -0.6890    -0.4840 O.co2 1 <1>  -0.9000 
  4 C       -1.0170    -2.2190     0.6260 C.3   1 <1>  -0.1860 
  5 C       -1.1710    -3.7730     0.6330 C.3   1 <1>  -0.1860 
  6 C       -2.3630    -1.5840     1.0660 C.3   1 <1>   0.0580 
  7 C        0.1240    -4.5870     0.5690 C.2   1 <1>   0.9060 
  8 C       -2.2330    -4.2300    -0.3840 C.3   1 <1>  -0.0220 
  9 C       -3.5700    -2.2580     0.4180 C.2   1 <1>  -0.2880 
 10 C       -2.4260    -0.0680     0.8350 C.3   1 <1>  -0.2400 
 11 O        0.9610    -4.4250     1.4680 O.co2 1 <1>  -0.9000 
 12 O        0.2510    -5.5060    -0.2560 O.co2 1 <1>  -0.9000 
 13 C       -3.5220    -3.4230    -0.2370 C.2   1 <1>  -0.2760 
 14 C       -4.7200    -4.0520    -0.9200 C.3   1 <1>  -0.1020 
 15 H       -0.3030    -1.9880     1.3950 H     1 <1>   0.0800 
 16 H       -1.5650    -4.0250     1.5980 H     1 <1>   0.0800 
 17 H       -2.4530    -1.7470     2.1260 H     1 <1>   0.0800 
 18 H       -2.4290    -5.2750    -0.2200 H     1 <1>   0.0800 
 19 H       -1.8480    -4.1230    -1.3830 H     1 <1>   0.0800 
 20 H       -4.4760    -1.6940     0.5330 H     1 <1>   0.1500 
 21 H       -2.4520     0.1420    -0.2200 H     1 <1>   0.0800 
 22 H       -1.5530     0.4020     1.2530 H     1 <1>   0.0800 
 23 H       -3.3030     0.3460     1.2940 H     1 <1>   0.0800 
 24 H       -4.5150    -4.1640    -1.9690 H     1 <1>   0.0800 
 25 H       -5.5890    -3.4310    -0.8020 H     1 <1>   0.0800 
 26 H       -4.9200    -5.0190    -0.4940 H     1 <1>   0.0800 
@<TRIPOS>BOND
  1   1   2  ar  
  2   2   3  ar  
  3   2   4  1   
  4   4   5  1   
  5   4   6  1   
  6   4  15  1   
  7   5   7  1   
  8   5   8  1   
  9   5  16  1   
 10   6   9  1   
 11   6  10  1   
 12   6  17  1   
 13   7  11  ar  
 14   7  12  ar  
 15   8  13  1   
 16   8  18  1   
 17   8  19  1   
 18   9  13  2   
 19   9  20  1   
 20  10  21  1   
 21  10  22  1   
 22  10  23  1   
 23  13  14  1   
 24  14  24  1   
 25  14  25  1   
 26  14  26  1   
@<TRIPOS>SUBSTRUCTURE
  1 ****   4 GROUP 4 **** **** 0

# MOE 2024.06 (io_trps.svl 2023.06)
