@<TRIPOS>MOLECULE
NONAME
53 55 1 0 0 
SMALL
USER_CHARGES


@<TRIPOS>ATOM
  1 S        0.0010     0.1740     0.3840 S.o2  1 <1>   1.4470 
  2 O       -0.0920     0.5140     1.7850 O.2   1 <1>  -0.6500 
  3 O        1.2770     0.2050    -0.2900 O.2   1 <1>  -0.6500 
  4 N       -0.9090     1.2930    -0.4740 N.am  1 <1>  -0.9140 
  5 C       -0.8600    -1.4090     0.0950 C.ar  1 <1>  -0.0090 
  6 C       -0.9310     2.6310     0.0800 C.3   1 <1>   0.2760 
  7 C       -0.2090    -2.6430     0.1650 C.ar  1 <1>  -0.1430 
  8 C       -2.2250    -1.4120    -0.1740 C.ar  1 <1>  -0.1500 
  9 C       -2.0320     3.4080    -0.6500 C.3   1 <1>  -0.1600 
 10 C        0.4310     3.3210    -0.1000 C.3   1 <1>  -0.1600 
 11 C       -0.9130    -3.8150    -0.0640 C.ar  1 <1>  -0.1500 
 12 C        1.2770    -2.7500     0.4900 C.3   1 <1>  -0.0970 
 13 C       -2.9600    -2.5770    -0.3920 C.ar  1 <1>   0.0860 
 14 C       -2.0900     4.8720    -0.1900 C.3   1 <1>  -0.1600 
 15 C        0.3810     4.7880     0.3530 C.3   1 <1>  -0.1600 
 16 C       -2.2640    -3.7800    -0.3420 C.ar  1 <1>  -0.1500 
 17 C       -4.3860    -2.5560    -0.6580 C.2   1 <1>   0.5440 
 18 C       -0.7300     5.5590    -0.3700 C.3   1 <1>  -0.1600 
 19 O       -4.8860    -3.3870    -1.3890 O.2   1 <1>  -0.5700 
 20 N       -5.1790    -1.6000    -0.0690 N.am  1 <1>  -0.5470 
 21 C       -6.5590    -1.4060    -0.2060 C.ar  1 <1>   0.1170 
 22 C       -7.4980    -2.3080     0.3000 C.ar  1 <1>  -0.1430 
 23 C       -7.0040    -0.2560    -0.8460 C.ar  1 <1>  -0.1500 
 24 C       -8.8510    -2.0450     0.1510 C.ar  1 <1>  -0.1500 
 25 C       -7.0740    -3.5840     1.0160 C.3   1 <1>  -0.0970 
 26 C       -8.3550     0.0010    -0.9890 C.ar  1 <1>  -0.1500 
 27 C       -9.2810    -0.8960    -0.4890 C.ar  1 <1>  -0.1500 
 28 H       -0.4170     1.3620    -1.3630 H     1 <1>   0.4200 
 29 H       -1.1840     2.5950     1.1290 H     1 <1>   0.0800 
 30 H       -2.7400    -0.4690    -0.2240 H     1 <1>   0.1500 
 31 H       -2.9820     2.9420    -0.4580 H     1 <1>   0.0800 
 32 H       -1.8490     3.3840    -1.7100 H     1 <1>   0.0800 
 33 H        0.7230     3.2870    -1.1350 H     1 <1>   0.0800 
 34 H        1.1810     2.8160     0.4830 H     1 <1>   0.0800 
 35 H       -0.4120    -4.7670    -0.0260 H     1 <1>   0.1500 
 36 H        1.5170    -2.1690     1.3630 H     1 <1>   0.0800 
 37 H        1.8640    -2.3950    -0.3380 H     1 <1>   0.0800 
 38 H        1.5580    -3.7690     0.6870 H     1 <1>   0.0800 
 39 H       -2.3740     4.9110     0.8480 H     1 <1>   0.0800 
 40 H       -2.8380     5.4000    -0.7570 H     1 <1>   0.0800 
 41 H        1.3300     5.2570     0.1600 H     1 <1>   0.0800 
 42 H        0.2070     4.8260     1.4160 H     1 <1>   0.0800 
 43 H       -2.7960    -4.6990    -0.5230 H     1 <1>   0.1500 
 44 H       -0.7800     6.5640     0.0140 H     1 <1>   0.0800 
 45 H       -0.4970     5.6210    -1.4200 H     1 <1>   0.0800 
 46 H       -4.7100    -0.9380     0.5450 H     1 <1>   0.3700 
 47 H       -6.2870     0.4380    -1.2410 H     1 <1>   0.1500 
 48 H       -9.5820    -2.7370     0.5310 H     1 <1>   0.1500 
 49 H       -6.2760    -3.3810     1.7060 H     1 <1>   0.0800 
 50 H       -6.7360    -4.3070     0.2950 H     1 <1>   0.0800 
 51 H       -7.8940    -4.0090     1.5660 H     1 <1>   0.0800 
 52 H       -8.6870     0.8940    -1.4890 H     1 <1>   0.1500 
 53 H      -10.3340    -0.7030    -0.6000 H     1 <1>   0.1500 
@<TRIPOS>BOND
  1   1   2  2   
  2   1   3  2   
  3   1   4  am  
  4   1   5  1   
  5   4   6  1   
  6   4  28  1   
  7   5   7  ar  
  8   5   8  ar  
  9   6   9  1   
 10   6  10  1   
 11   6  29  1   
 12   7  11  ar  
 13   7  12  1   
 14   8  13  ar  
 15   8  30  1   
 16   9  14  1   
 17   9  31  1   
 18   9  32  1   
 19  10  15  1   
 20  10  33  1   
 21  10  34  1   
 22  11  16  ar  
 23  11  35  1   
 24  12  36  1   
 25  12  37  1   
 26  12  38  1   
 27  13  16  ar  
 28  13  17  1   
 29  14  18  1   
 30  14  39  1   
 31  14  40  1   
 32  15  18  1   
 33  15  41  1   
 34  15  42  1   
 35  16  43  1   
 36  17  19  2   
 37  17  20  am  
 38  18  44  1   
 39  18  45  1   
 40  20  21  1   
 41  20  46  1   
 42  21  22  ar  
 43  21  23  ar  
 44  22  24  ar  
 45  22  25  1   
 46  23  26  ar  
 47  23  47  1   
 48  24  27  ar  
 49  24  48  1   
 50  25  49  1   
 51  25  50  1   
 52  25  51  1   
 53  26  27  ar  
 54  26  52  1   
 55  27  53  1   
@<TRIPOS>SUBSTRUCTURE
  1 ****   8 GROUP 4 **** **** 0

# MOE 2024.06 (io_trps.svl 2023.06)
