@<TRIPOS>MOLECULE
NONAME
44 46 1 0 0 
SMALL
USER_CHARGES


@<TRIPOS>ATOM
  1 CL       0.1950     0.1990    -0.3560 Cl    1 <1>  -0.1770 
  2 C        1.7210     0.9900    -0.0580 C.ar  1 <1>   0.1770 
  3 C        2.4100     0.7170     1.1070 C.ar  1 <1>  -0.1500 
  4 C        2.2180     1.8780    -0.9920 C.ar  1 <1>  -0.1500 
  5 C        3.6230     1.3430     1.3410 C.ar  1 <1>  -0.1500 
  6 C        3.4310     2.5030    -0.7570 C.ar  1 <1>  -0.1500 
  7 C        4.1420     2.2330     0.4070 C.ar  1 <1>  -0.1430 
  8 C        5.4800     2.9050     0.6590 C.3   1 <1>   0.4870 
  9 N        6.5030     2.2700    -0.2130 N.4   1 <1>  -0.9590 
 10 C        6.6990     0.8150     0.1210 C.3   1 <1>   0.3430 
 11 C        7.8100     3.0100    -0.1670 C.3   1 <1>   0.3430 
 12 C        7.7830     0.1670    -0.7660 C.3   1 <1>   0.1100 
 13 C        8.8800     2.3310    -1.0460 C.3   1 <1>   0.1100 
 14 N        9.0600     0.9040    -0.6880 N.3   1 <1>  -0.8100 
 15 C       10.0940     0.2680    -1.5620 C.3   1 <1>   0.1710 
 16 C       11.4740     0.9270    -1.4900 C.2   1 <1>   0.5690 
 17 O       11.9070     1.4680    -2.4800 O.2   1 <1>  -0.5700 
 18 N       12.1410     0.9090    -0.3050 N.am  1 <1>  -0.5790 
 19 C       13.4650     1.4950    -0.0570 C.3   1 <1>   0.0490 
 20 C       14.3540     0.8240     0.9360 C.3   1 <1>  -0.2000 
 21 C       13.7110     2.1380     1.2670 C.3   1 <1>  -0.2000 
 22 H        1.9940     0.0260     1.8200 H     1 <1>   0.1500 
 23 H        1.6540     2.0750    -1.8880 H     1 <1>   0.1500 
 24 H        4.1480     1.1280     2.2570 H     1 <1>   0.1500 
 25 H        3.8030     3.2000    -1.4890 H     1 <1>   0.1500 
 26 H        5.7560     2.8020     1.6960 H     1 <1>   0.0800 
 27 H        5.3970     3.9560     0.4310 H     1 <1>   0.0800 
 28 H        6.1470     2.3070    -1.1740 H     1 <1>   0.4500 
 29 H        5.7720     0.2800    -0.0090 H     1 <1>   0.0800 
 30 H        6.9990     0.7140     1.1500 H     1 <1>   0.0800 
 31 H        8.1770     3.0380     0.8460 H     1 <1>   0.0800 
 32 H        7.6730     4.0250    -0.5000 H     1 <1>   0.0800 
 33 H        7.4370     0.1310    -1.7860 H     1 <1>   0.0800 
 34 H        7.9380    -0.8460    -0.4350 H     1 <1>   0.0800 
 35 H        9.8100     2.8580    -0.9080 H     1 <1>   0.0800 
 36 H        8.6060     2.4210    -2.0840 H     1 <1>   0.0800 
 37 H        9.7670     0.2910    -2.5870 H     1 <1>   0.0800 
 38 H       10.2110    -0.7640    -1.2800 H     1 <1>   0.0800 
 39 H       11.6870     0.4960     0.5090 H     1 <1>   0.3700 
 40 H       13.9130     1.9310    -0.9370 H     1 <1>   0.1000 
 41 H       15.4130     0.8090     0.7510 H     1 <1>   0.1000 
 42 H       14.0080    -0.0680     1.4280 H     1 <1>   0.1000 
 43 H       12.9210     2.1610     1.9960 H     1 <1>   0.1000 
 44 H       14.3390     3.0110     1.3090 H     1 <1>   0.1000 
@<TRIPOS>BOND
  1   1   2  1   
  2   2   3  ar  
  3   2   4  ar  
  4   3   5  ar  
  5   3  22  1   
  6   4   6  ar  
  7   4  23  1   
  8   5   7  ar  
  9   5  24  1   
 10   6   7  ar  
 11   6  25  1   
 12   7   8  1   
 13   8   9  1   
 14   8  26  1   
 15   8  27  1   
 16   9  10  1   
 17   9  11  1   
 18   9  28  1   
 19  10  12  1   
 20  10  29  1   
 21  10  30  1   
 22  11  13  1   
 23  11  31  1   
 24  11  32  1   
 25  12  14  1   
 26  12  33  1   
 27  12  34  1   
 28  13  14  1   
 29  13  35  1   
 30  13  36  1   
 31  14  15  1   
 32  15  16  1   
 33  15  37  1   
 34  15  38  1   
 35  16  17  2   
 36  16  18  am  
 37  18  19  1   
 38  18  39  1   
 39  19  20  1   
 40  19  21  1   
 41  19  40  1   
 42  20  21  1   
 43  20  41  1   
 44  20  42  1   
 45  21  43  1   
 46  21  44  1   
@<TRIPOS>SUBSTRUCTURE
  1 ****  10 GROUP 4 **** **** 0

# MOE 2024.06 (io_trps.svl 2023.06)
