@<TRIPOS>MOLECULE
NONAME
40 41 1 0 0 
SMALL
USER_CHARGES


@<TRIPOS>ATOM
  1 O        0.7540     1.4680    -1.4610 O.2   1 <1>  -0.5700 
  2 C        0.8840     1.9490    -0.3500 C.2   1 <1>   0.6900 
  3 N        2.1240     2.1090     0.1950 N.am  1 <1>  -0.6600 
  4 N       -0.1730     2.3910     0.3860 N.am  1 <1>  -0.5470 
  5 C        2.6950     1.0650     1.0910 C.3   1 <1>   0.2200 
  6 C        3.1330     2.8400    -0.6240 C.3   1 <1>   0.2200 
  7 C       -1.5600     2.3440     0.1890 C.ar  1 <1>   0.1170 
  8 C        3.3830    -0.0190     0.2420 C.3   1 <1>  -0.1600 
  9 C        1.6590     0.4580     2.0420 C.3   1 <1>  -0.2400 
 10 C        4.4470     2.0480    -0.7810 C.3   1 <1>  -0.1600 
 11 C        3.3800     4.2040     0.0150 C.3   1 <1>  -0.2400 
 12 C       -2.1720     1.5030    -0.7360 C.ar  1 <1>  -0.1500 
 13 C       -2.3700     3.1630     0.9660 C.ar  1 <1>  -0.1500 
 14 C        4.1710     0.5480    -0.9550 C.3   1 <1>  -0.1600 
 15 C       -3.5470     1.4870    -0.8810 C.ar  1 <1>  -0.1500 
 16 C       -3.7460     3.1490     0.8230 C.ar  1 <1>  -0.1500 
 17 C       -4.3440     2.3110    -0.1040 C.ar  1 <1>  -0.1440 
 18 C       -5.8530     2.2910    -0.2640 C.3   1 <1>  -0.0970 
 19 H        0.1400     2.8710     1.2220 H     1 <1>   0.3700 
 20 H        3.4440     1.5420     1.7010 H     1 <1>   0.0800 
 21 H        2.7250     2.9960    -1.6100 H     1 <1>   0.0800 
 22 H        2.6440    -0.7090    -0.1280 H     1 <1>   0.0800 
 23 H        4.0490    -0.5740     0.8790 H     1 <1>   0.0800 
 24 H        0.8940    -0.0660     1.4960 H     1 <1>   0.0800 
 25 H        1.2100     1.2270     2.6430 H     1 <1>   0.0800 
 26 H        2.1400    -0.2430     2.6990 H     1 <1>   0.0800 
 27 H        5.0760     2.1980     0.0790 H     1 <1>   0.0800 
 28 H        4.9810     2.4210    -1.6370 H     1 <1>   0.0800 
 29 H        3.7700     4.0910     1.0100 H     1 <1>   0.0800 
 30 H        2.4600     4.7590     0.0550 H     1 <1>   0.0800 
 31 H        4.0860     4.7610    -0.5720 H     1 <1>   0.0800 
 32 H       -1.5750     0.8520    -1.3470 H     1 <1>   0.1500 
 33 H       -1.9230     3.8200     1.6880 H     1 <1>   0.1500 
 34 H        3.5820     0.4150    -1.8480 H     1 <1>   0.0800 
 35 H        5.0920     0.0070    -1.0840 H     1 <1>   0.0800 
 36 H       -3.9920     0.8280    -1.6050 H     1 <1>   0.1500 
 37 H       -4.3520     3.7930     1.4370 H     1 <1>   0.1500 
 38 H       -6.1190     2.0590    -1.2800 H     1 <1>   0.0800 
 39 H       -6.2700     3.2500    -0.0150 H     1 <1>   0.0800 
 40 H       -6.2770     1.5470     0.3860 H     1 <1>   0.0800 
@<TRIPOS>BOND
  1   1   2  2   
  2   2   3  am  
  3   2   4  am  
  4   3   5  1   
  5   3   6  1   
  6   4   7  1   
  7   4  19  1   
  8   5   8  1   
  9   5   9  1   
 10   5  20  1   
 11   6  10  1   
 12   6  11  1   
 13   6  21  1   
 14   7  12  ar  
 15   7  13  ar  
 16   8  14  1   
 17   8  22  1   
 18   8  23  1   
 19   9  24  1   
 20   9  25  1   
 21   9  26  1   
 22  10  14  1   
 23  10  27  1   
 24  10  28  1   
 25  11  29  1   
 26  11  30  1   
 27  11  31  1   
 28  12  15  ar  
 29  12  32  1   
 30  13  16  ar  
 31  13  33  1   
 32  14  34  1   
 33  14  35  1   
 34  15  17  ar  
 35  15  36  1   
 36  16  17  ar  
 37  16  37  1   
 38  17  18  1   
 39  18  38  1   
 40  18  39  1   
 41  18  40  1   
@<TRIPOS>SUBSTRUCTURE
  1 ****   4 GROUP 4 **** **** 0

# MOE 2024.06 (io_trps.svl 2023.06)
