@<TRIPOS>MOLECULE
NONAME
39 40 1 0 0 
SMALL
USER_CHARGES


@<TRIPOS>ATOM
  1 O       -0.5400     0.3480     1.1040 O.2   1 <1>  -0.5700 
  2 C       -1.5910     0.8400     0.7470 C.2   1 <1>   0.7800 
  3 O       -2.5940     0.0550     0.3640 O.3   1 <1>  -0.4300 
  4 N       -1.7880     2.1740     0.7290 N.am  1 <1>  -0.7300 
  5 C       -2.4250    -1.3410     0.3450 C.3   1 <1>   0.2630 
  6 C       -2.9170     2.8800     0.1000 C.3   1 <1>   0.2200 
  7 C       -3.7420    -1.9870    -0.0580 C.ar  1 <1>  -0.1440 
  8 C       -2.5500     4.3600    -0.0660 C.3   1 <1>  -0.1860 
  9 C       -4.1730     2.7250     0.9750 C.3   1 <1>  -0.1600 
 10 C       -3.8510    -2.6850    -1.2510 C.ar  1 <1>  -0.1500 
 11 C       -4.8480    -1.8840     0.7720 C.ar  1 <1>  -0.1500 
 12 C       -1.3020     4.4680    -0.9220 C.2   1 <1>   0.9060 
 13 C       -3.7390     5.1780    -0.6230 C.3   1 <1>  -0.1600 
 14 C       -5.3560     3.5300     0.4140 C.3   1 <1>  -0.1600 
 15 C       -5.0500    -3.2780    -1.6070 C.ar  1 <1>  -0.1500 
 16 C       -6.0480    -2.4770     0.4180 C.ar  1 <1>  -0.1500 
 17 O       -1.4030     4.6890    -2.1320 O.co2 1 <1>  -0.9000 
 18 O       -0.2140     4.2930    -0.3610 O.co2 1 <1>  -0.9000 
 19 C       -4.9810     5.0050     0.2510 C.3   1 <1>   0.2000 
 20 C       -6.1490    -3.1750    -0.7720 C.ar  1 <1>  -0.1500 
 21 O       -6.0330     5.6510    -0.3600 O.3   1 <1>  -0.6800 
 22 H       -0.9180     2.7360     0.6760 H     1 <1>   0.3700 
 23 H       -1.6420    -1.5750    -0.3550 H     1 <1>   0.0800 
 24 H       -2.1340    -1.6630     1.3300 H     1 <1>   0.0800 
 25 H       -3.0970     2.4530    -0.8740 H     1 <1>   0.0800 
 26 H       -2.2990     4.7580     0.8990 H     1 <1>   0.0800 
 27 H       -4.4560     1.6890     1.0270 H     1 <1>   0.0800 
 28 H       -3.9510     3.0670     1.9710 H     1 <1>   0.0800 
 29 H       -3.0030    -2.7680    -1.9090 H     1 <1>   0.1500 
 30 H       -4.7740    -1.3370     1.6960 H     1 <1>   0.1500 
 31 H       -3.9450     4.8450    -1.6250 H     1 <1>   0.0800 
 32 H       -3.4600     6.2170    -0.6610 H     1 <1>   0.0800 
 33 H       -6.1940     3.4470     1.0830 H     1 <1>   0.0800 
 34 H       -5.6330     3.1190    -0.5400 H     1 <1>   0.0800 
 35 H       -5.1280    -3.8200    -2.5340 H     1 <1>   0.1500 
 36 H       -6.9010    -2.3940     1.0680 H     1 <1>   0.1500 
 37 H       -4.8270     5.4590     1.2150 H     1 <1>   0.0800 
 38 H       -7.0810    -3.6370    -1.0480 H     1 <1>   0.1500 
 39 H       -6.0550     5.3950    -1.3010 H     1 <1>   0.4000 
@<TRIPOS>BOND
  1   1   2  2   
  2   2   3  1   
  3   2   4  am  
  4   3   5  1   
  5   4   6  1   
  6   4  22  1   
  7   5   7  1   
  8   5  23  1   
  9   5  24  1   
 10   6   8  1   
 11   6   9  1   
 12   6  25  1   
 13   7  10  ar  
 14   7  11  ar  
 15   8  12  1   
 16   8  13  1   
 17   8  26  1   
 18   9  14  1   
 19   9  27  1   
 20   9  28  1   
 21  10  15  ar  
 22  10  29  1   
 23  11  16  ar  
 24  11  30  1   
 25  12  17  ar  
 26  12  18  ar  
 27  13  19  1   
 28  13  31  1   
 29  13  32  1   
 30  14  19  1   
 31  14  33  1   
 32  14  34  1   
 33  15  20  ar  
 34  15  35  1   
 35  16  20  ar  
 36  16  36  1   
 37  19  21  1   
 38  19  37  1   
 39  20  38  1   
 40  21  39  1   
@<TRIPOS>SUBSTRUCTURE
  1 ****   6 GROUP 4 **** **** 0

# MOE 2024.06 (io_trps.svl 2023.06)
