@<TRIPOS>MOLECULE
NONAME
48 49 1 0 0 
SMALL
USER_CHARGES


@<TRIPOS>ATOM
  1 O        0.6390    -2.7870     1.3670 O.2   1 <1>  -0.5700 
  2 C        0.7950    -2.4000     0.2340 C.2   1 <1>   0.5690 
  3 N       -0.2380    -2.1390    -0.6260 N.am  1 <1>  -0.5470 
  4 C        2.2150    -2.1820    -0.2950 C.3   1 <1>  -0.0190 
  5 C       -1.6290    -2.2030    -0.4480 C.ar  1 <1>   0.1170 
  6 C        3.2460    -3.1270     0.3560 C.3   1 <1>  -0.1600 
  7 C        2.6530    -0.7180    -0.1030 C.3   1 <1>  -0.1600 
  8 C       -2.2430    -2.1640     0.8000 C.ar  1 <1>  -0.1500 
  9 C       -2.4390    -2.2920    -1.5740 C.ar  1 <1>  -0.1500 
 10 C        4.6610    -2.8680    -0.1670 C.3   1 <1>   0.1400 
 11 C        4.0750    -0.4790    -0.6180 C.3   1 <1>   0.1400 
 12 C       -3.6200    -2.2160     0.9160 C.ar  1 <1>  -0.1500 
 13 C       -3.8170    -2.3430    -1.4600 C.ar  1 <1>  -0.1500 
 14 N        5.0100    -1.4340     0.0370 N.am  1 <1>  -0.6600 
 15 C       -4.4170    -2.3050    -0.2130 C.ar  1 <1>  -0.1430 
 16 C        6.0720    -0.9800     0.7790 C.2   1 <1>   0.5690 
 17 C       -5.9310    -2.3650    -0.0830 C.3   1 <1>  -0.0170 
 18 O        6.3270     0.1960     0.8870 O.2   1 <1>  -0.5700 
 19 C        6.9800    -1.9470     1.5010 C.3   1 <1>  -0.1790 
 20 C       -6.4030    -3.8180     0.0360 C.3   1 <1>  -0.1600 
 21 C       -7.9290    -3.9060     0.1710 C.3   1 <1>  -0.1600 
 22 C       -8.3870    -5.3620     0.2900 C.3   1 <1>  -0.2400 
 23 H        0.0450    -1.8710    -1.5650 H     1 <1>   0.3700 
 24 H        2.2060    -2.3940    -1.3490 H     1 <1>   0.0800 
 25 H        2.9740    -4.1490     0.1610 H     1 <1>   0.0800 
 26 H        3.2450    -2.9900     1.4250 H     1 <1>   0.0800 
 27 H        2.6170    -0.4640     0.9430 H     1 <1>   0.0800 
 28 H        1.9770    -0.0600    -0.6200 H     1 <1>   0.0800 
 29 H       -1.6480    -2.0890     1.6910 H     1 <1>   0.1500 
 30 H       -1.9940    -2.3250    -2.5510 H     1 <1>   0.1500 
 31 H        4.7080    -3.0900    -1.2190 H     1 <1>   0.0800 
 32 H        5.3520    -3.5170     0.3380 H     1 <1>   0.0800 
 33 H        4.3620     0.5390    -0.4130 H     1 <1>   0.0800 
 34 H        4.1150    -0.6240    -1.6830 H     1 <1>   0.0800 
 35 H       -4.0680    -2.1890     1.8940 H     1 <1>   0.1500 
 36 H       -4.4230    -2.4160    -2.3460 H     1 <1>   0.1500 
 37 H       -6.3850    -1.9030    -0.9420 H     1 <1>   0.0800 
 38 H       -6.2390    -1.8100     0.7870 H     1 <1>   0.0800 
 39 H        6.4090    -2.5330     2.1960 H     1 <1>   0.0800 
 40 H        7.7290    -1.4020     2.0460 H     1 <1>   0.0800 
 41 H        7.4690    -2.5870     0.7930 H     1 <1>   0.0800 
 42 H       -5.9380    -4.2700     0.8950 H     1 <1>   0.0800 
 43 H       -6.0860    -4.3640    -0.8360 H     1 <1>   0.0800 
 44 H       -8.3960    -3.4570    -0.6890 H     1 <1>   0.0800 
 45 H       -8.2460    -3.3630     1.0460 H     1 <1>   0.0800 
 46 H       -8.0990    -5.9190    -0.5850 H     1 <1>   0.0800 
 47 H       -9.4580    -5.4050     0.3860 H     1 <1>   0.0800 
 48 H       -7.9470    -5.8250     1.1560 H     1 <1>   0.0800 
@<TRIPOS>BOND
  1   1   2  2   
  2   2   3  am  
  3   2   4  1   
  4   3   5  1   
  5   3  23  1   
  6   4   6  1   
  7   4   7  1   
  8   4  24  1   
  9   5   8  ar  
 10   5   9  ar  
 11   6  10  1   
 12   6  25  1   
 13   6  26  1   
 14   7  11  1   
 15   7  27  1   
 16   7  28  1   
 17   8  12  ar  
 18   8  29  1   
 19   9  13  ar  
 20   9  30  1   
 21  10  14  1   
 22  10  31  1   
 23  10  32  1   
 24  11  14  1   
 25  11  33  1   
 26  11  34  1   
 27  12  15  ar  
 28  12  35  1   
 29  13  15  ar  
 30  13  36  1   
 31  14  16  am  
 32  15  17  1   
 33  16  18  2   
 34  16  19  1   
 35  17  20  1   
 36  17  37  1   
 37  17  38  1   
 38  19  39  1   
 39  19  40  1   
 40  19  41  1   
 41  20  21  1   
 42  20  42  1   
 43  20  43  1   
 44  21  22  1   
 45  21  44  1   
 46  21  45  1   
 47  22  46  1   
 48  22  47  1   
 49  22  48  1   
@<TRIPOS>SUBSTRUCTURE
  1 ****   3 GROUP 4 **** **** 0

# MOE 2024.06 (io_trps.svl 2023.06)
