@<TRIPOS>MOLECULE
NONAME
37 37 1 0 0 
SMALL
USER_CHARGES


@<TRIPOS>ATOM
  1 BR       0.6860    -1.2510    -2.8550 Br    1 <1>  -0.1110 
  2 C        1.2130    -2.1520    -1.2320 C.ar  1 <1>   0.1110 
  3 C        0.2810    -2.8920    -0.5170 C.ar  1 <1>   0.0820 
  4 C        2.5300    -2.0270    -0.8330 C.ar  1 <1>  -0.1500 
  5 O       -0.9900    -2.9630    -0.9910 O.3   1 <1>  -0.3630 
  6 C        0.7080    -3.5210     0.6490 C.ar  1 <1>  -0.1500 
  7 C        2.9460    -2.6700     0.3250 C.ar  1 <1>  -0.1430 
  8 C       -2.0100    -3.6340    -0.2840 C.3   1 <1>   0.0400 
  9 C        2.0270    -3.4080     1.0630 C.ar  1 <1>  -0.1500 
 10 C        4.3870    -2.5780     0.7670 C.3   1 <1>   0.4870 
 11 N        5.0940    -3.6850     0.0730 N.4   1 <1>  -0.9060 
 12 C        6.5600    -3.7670     0.4010 C.3   1 <1>   0.3430 
 13 C        7.2990    -4.9350    -0.3210 C.3   1 <1>   0.3430 
 14 N        8.7600    -5.0810     0.0400 N.4   1 <1>  -0.9590 
 15 C        9.6160    -3.9250    -0.4010 C.3   1 <1>   0.2630 
 16 C        9.3160    -6.3420    -0.5620 C.3   1 <1>   0.2630 
 17 H        3.1920    -1.4280    -1.4340 H     1 <1>   0.1500 
 18 H        0.0240    -4.0990     1.2430 H     1 <1>   0.1500 
 19 H       -2.9240    -3.5280    -0.8400 H     1 <1>   0.0800 
 20 H       -2.1200    -3.1840     0.6860 H     1 <1>   0.0800 
 21 H       -1.7530    -4.6750    -0.2020 H     1 <1>   0.0800 
 22 H        2.3150    -3.9050     1.9750 H     1 <1>   0.1500 
 23 H        4.4510    -2.6890     1.8390 H     1 <1>   0.0800 
 24 H        4.7980    -1.6200     0.4870 H     1 <1>   0.0800 
 25 H        4.9140    -3.5440    -0.9320 H     1 <1>   0.4500 
 26 H        4.5790    -4.5420     0.3240 H     1 <1>   0.4500 
 27 H        6.6720    -3.8980     1.4650 H     1 <1>   0.0800 
 28 H        7.0320    -2.8380     0.1260 H     1 <1>   0.0800 
 29 H        7.2200    -4.7920    -1.3870 H     1 <1>   0.0800 
 30 H        6.7950    -5.8560    -0.0730 H     1 <1>   0.0800 
 31 H        8.8710    -5.1870     1.0650 H     1 <1>   0.4500 
 32 H        9.5620    -3.8000    -1.4710 H     1 <1>   0.0800 
 33 H       10.6460    -4.1030    -0.1340 H     1 <1>   0.0800 
 34 H        9.3010    -3.0100     0.0730 H     1 <1>   0.0800 
 35 H        9.2630    -6.3040    -1.6390 H     1 <1>   0.0800 
 36 H        8.7640    -7.2030    -0.2200 H     1 <1>   0.0800 
 37 H       10.3490    -6.4700    -0.2780 H     1 <1>   0.0800 
@<TRIPOS>BOND
  1   1   2  1   
  2   2   3  ar  
  3   2   4  ar  
  4   3   5  1   
  5   3   6  ar  
  6   4   7  ar  
  7   4  17  1   
  8   5   8  1   
  9   6   9  ar  
 10   6  18  1   
 11   7   9  ar  
 12   7  10  1   
 13   8  19  1   
 14   8  20  1   
 15   8  21  1   
 16   9  22  1   
 17  10  11  1   
 18  10  23  1   
 19  10  24  1   
 20  11  12  1   
 21  11  25  1   
 22  11  26  1   
 23  12  13  1   
 24  12  27  1   
 25  12  28  1   
 26  13  14  1   
 27  13  29  1   
 28  13  30  1   
 29  14  15  1   
 30  14  16  1   
 31  14  31  1   
 32  15  32  1   
 33  15  33  1   
 34  15  34  1   
 35  16  35  1   
 36  16  36  1   
 37  16  37  1   
@<TRIPOS>SUBSTRUCTURE
  1 ****   7 GROUP 4 **** **** 0

# MOE 2024.06 (io_trps.svl 2023.06)
