@<TRIPOS>MOLECULE
NONAME
35 36 1 0 0 
SMALL
USER_CHARGES


@<TRIPOS>ATOM
  1 CL       1.6760    -2.6020    -2.7570 Cl    1 <1>  -0.1770 
  2 C        2.4250    -2.1390    -1.2450 C.ar  1 <1>   0.1770 
  3 C        1.8150    -2.4150    -0.0340 C.ar  1 <1>   0.1900 
  4 C        3.6440    -1.4880    -1.2690 C.ar  1 <1>  -0.1500 
  5 F        0.6600    -3.0310    -0.0060 F     1 <1>  -0.1900 
  6 C        2.4030    -2.0520     1.1630 C.ar  1 <1>  -0.1500 
  7 C        4.2590    -1.1070    -0.0790 C.ar  1 <1>   0.1170 
  8 C        3.6250    -1.4010     1.1310 C.ar  1 <1>  -0.1500 
  9 N        5.5000    -0.4550    -0.1490 N.am  1 <1>  -0.5470 
 10 C        6.1310     0.3650     0.7460 C.2   1 <1>   0.5690 
 11 O        5.6630     0.6900     1.8080 O.2   1 <1>  -0.5700 
 12 C        7.4970     0.9030     0.3650 C.3   1 <1>  -0.0990 
 13 C        8.5680    -0.2000     0.3290 C.3   1 <1>  -0.1600 
 14 C        9.9300     0.3580    -0.0940 C.3   1 <1>   0.1400 
 15 N       10.8960    -0.7480    -0.2590 N.am  1 <1>  -0.4200 
 16 C       11.8650    -1.0640     0.6390 C.2   1 <1>   0.5690 
 17 C       10.9370    -1.5640    -1.3440 C.2   1 <1>   0.5690 
 18 O       12.0670    -0.5060     1.6860 O.2   1 <1>  -0.5700 
 19 C       12.6870    -2.2350     0.1500 C.3   1 <1>  -0.0990 
 20 O       10.1920    -1.5160    -2.2890 O.2   1 <1>  -0.5700 
 21 C       12.0550    -2.5730    -1.2140 C.3   1 <1>  -0.0990 
 22 H        4.1060    -1.2780    -2.2160 H     1 <1>   0.1500 
 23 H        1.9150    -2.2750     2.0960 H     1 <1>   0.1500 
 24 H        4.0880    -1.1230     2.0610 H     1 <1>   0.1500 
 25 H        6.0060    -0.5930    -1.0230 H     1 <1>   0.3700 
 26 H        7.7800     1.6540     1.0820 H     1 <1>   0.0800 
 27 H        7.4210     1.3790    -0.5960 H     1 <1>   0.0800 
 28 H        8.2670    -0.9640    -0.3670 H     1 <1>   0.0800 
 29 H        8.6530    -0.6420     1.3080 H     1 <1>   0.0800 
 30 H       10.2950     1.0500     0.6480 H     1 <1>   0.0800 
 31 H        9.8410     0.8810    -1.0320 H     1 <1>   0.0800 
 32 H       12.6020    -3.0540     0.8410 H     1 <1>   0.0800 
 33 H       13.7160    -1.9420     0.0490 H     1 <1>   0.0800 
 34 H       12.7570    -2.4460    -2.0180 H     1 <1>   0.0800 
 35 H       11.6530    -3.5700    -1.2290 H     1 <1>   0.0800 
@<TRIPOS>BOND
  1   1   2  1   
  2   2   3  ar  
  3   2   4  ar  
  4   3   5  1   
  5   3   6  ar  
  6   4   7  ar  
  7   4  22  1   
  8   6   8  ar  
  9   6  23  1   
 10   7   8  ar  
 11   7   9  1   
 12   8  24  1   
 13   9  10  am  
 14   9  25  1   
 15  10  11  2   
 16  10  12  1   
 17  12  13  1   
 18  12  26  1   
 19  12  27  1   
 20  13  14  1   
 21  13  28  1   
 22  13  29  1   
 23  14  15  1   
 24  14  30  1   
 25  14  31  1   
 26  15  16  am  
 27  15  17  am  
 28  16  18  2   
 29  16  19  1   
 30  17  20  2   
 31  17  21  1   
 32  19  21  1   
 33  19  32  1   
 34  19  33  1   
 35  21  34  1   
 36  21  35  1   
@<TRIPOS>SUBSTRUCTURE
  1 ****   9 GROUP 4 **** **** 0

# MOE 2024.06 (io_trps.svl 2023.06)
