@<TRIPOS>MOLECULE
NONAME
46 48 1 0 0 
SMALL
USER_CHARGES


@<TRIPOS>ATOM
  1 O       -1.9580     1.7490    -2.5890 O.2   1 <1>  -0.5700 
  2 C       -1.2590     1.8380    -1.6130 C.2   1 <1>   0.5690 
  3 N       -1.6680     1.5080    -0.3520 N.am  1 <1>  -0.5470 
  4 C        0.1470     2.3580    -1.7740 C.3   1 <1>  -0.1790 
  5 C       -2.8940     0.9800     0.0760 C.ar  1 <1>   0.1170 
  6 C       -3.3630     1.2850     1.3470 C.ar  1 <1>  -0.1500 
  7 C       -3.6610     0.1410    -0.7250 C.ar  1 <1>  -0.1500 
  8 C       -4.5700     0.7840     1.8000 C.ar  1 <1>  -0.1500 
  9 C       -4.8670    -0.3660    -0.2780 C.ar  1 <1>  -0.1500 
 10 C       -5.3360    -0.0390     0.9870 C.ar  1 <1>  -0.1430 
 11 C       -6.6730    -0.5690     1.4680 C.3   1 <1>   0.4860 
 12 N       -7.7550     0.0950     0.6940 N.4   1 <1>  -0.9590 
 13 C       -7.7610     1.5910     0.8990 C.3   1 <1>   0.3430 
 14 C       -9.1090    -0.4940     0.9930 C.3   1 <1>   0.3430 
 15 C       -8.8830     2.2900     0.1060 C.3   1 <1>   0.2090 
 16 C      -10.2360     0.1890     0.1930 C.3   1 <1>   0.2090 
 17 N      -10.2180     1.6720     0.3730 N.pl3 1 <1>  -0.8380 
 18 C      -11.2620     2.3200    -0.2500 C.ar  1 <1>   0.4100 
 19 N      -11.2910     2.2410    -1.5730 N.ar  1 <1>  -0.6200 
 20 C      -12.2060     3.0070     0.5070 C.ar  1 <1>  -0.1500 
 21 C      -12.2980     2.8690    -2.1600 C.ar  1 <1>   0.1600 
 22 C      -13.2460     3.6550    -0.1170 C.ar  1 <1>  -0.1500 
 23 C      -13.2840     3.5770    -1.4940 C.ar  1 <1>  -0.1500 
 24 H       -0.9980     1.7120     0.3860 H     1 <1>   0.3700 
 25 H        0.2570     3.2860    -1.2440 H     1 <1>   0.0800 
 26 H        0.3530     2.5280    -2.8160 H     1 <1>   0.0800 
 27 H        0.8500     1.6390    -1.3970 H     1 <1>   0.0800 
 28 H       -2.7780     1.9240     1.9850 H     1 <1>   0.1500 
 29 H       -3.3080    -0.1210    -1.7080 H     1 <1>   0.1500 
 30 H       -4.9000     1.0450     2.7920 H     1 <1>   0.1500 
 31 H       -5.4230    -1.0160    -0.9310 H     1 <1>   0.1500 
 32 H       -6.7910    -0.3690     2.5210 H     1 <1>   0.0800 
 33 H       -6.7070    -1.6350     1.3150 H     1 <1>   0.0800 
 34 H       -7.5510    -0.0550    -0.3020 H     1 <1>   0.4500 
 35 H       -6.8130     2.0070     0.5980 H     1 <1>   0.0800 
 36 H       -7.9020     1.8130     1.9440 H     1 <1>   0.0800 
 37 H       -9.3290    -0.3790     2.0410 H     1 <1>   0.0800 
 38 H       -9.1110    -1.5470     0.7660 H     1 <1>   0.0800 
 39 H       -8.6660     2.2380    -0.9480 H     1 <1>   0.0800 
 40 H       -8.9170     3.3310     0.3790 H     1 <1>   0.0800 
 41 H      -11.1880    -0.1920     0.5200 H     1 <1>   0.0800 
 42 H      -10.1320    -0.0480    -0.8530 H     1 <1>   0.0800 
 43 H      -12.1070     3.0210     1.5750 H     1 <1>   0.1500 
 44 H      -12.3420     2.8180    -3.2350 H     1 <1>   0.1500 
 45 H      -13.9930     4.1950     0.4380 H     1 <1>   0.1500 
 46 H      -14.0700     4.0600    -2.0460 H     1 <1>   0.1500 
@<TRIPOS>BOND
  1   1   2  2   
  2   2   3  am  
  3   2   4  1   
  4   3   5  1   
  5   3  24  1   
  6   4  25  1   
  7   4  26  1   
  8   4  27  1   
  9   5   6  ar  
 10   5   7  ar  
 11   6   8  ar  
 12   6  28  1   
 13   7   9  ar  
 14   7  29  1   
 15   8  10  ar  
 16   8  30  1   
 17   9  10  ar  
 18   9  31  1   
 19  10  11  1   
 20  11  12  1   
 21  11  32  1   
 22  11  33  1   
 23  12  13  1   
 24  12  14  1   
 25  12  34  1   
 26  13  15  1   
 27  13  35  1   
 28  13  36  1   
 29  14  16  1   
 30  14  37  1   
 31  14  38  1   
 32  15  17  1   
 33  15  39  1   
 34  15  40  1   
 35  16  17  1   
 36  16  41  1   
 37  16  42  1   
 38  17  18  1   
 39  18  19  ar  
 40  18  20  ar  
 41  19  21  ar  
 42  20  22  ar  
 43  20  43  1   
 44  21  23  ar  
 45  21  44  1   
 46  22  23  ar  
 47  22  45  1   
 48  23  46  1   
@<TRIPOS>SUBSTRUCTURE
  1 ****  13 GROUP 4 **** **** 0

# MOE 2024.06 (io_trps.svl 2023.06)
