@<TRIPOS>MOLECULE
NONAME
40 43 1 0 0 
SMALL
USER_CHARGES


@<TRIPOS>ATOM
  1 CL       0.7950    -0.7970    -2.5740 Cl    1 <1>  -0.1770 
  2 C        2.2930    -1.2340    -1.7940 C.ar  1 <1>   0.1770 
  3 C        3.1020    -0.2430    -1.2780 C.ar  1 <1>  -0.1500 
  4 C        2.6420    -2.5670    -1.7070 C.ar  1 <1>  -0.1500 
  5 C        4.3080    -0.5620    -0.6540 C.ar  1 <1>   0.0860 
  6 C        3.8300    -2.9090    -1.0850 C.ar  1 <1>  -0.1500 
  7 C        5.1670     0.4810    -0.1220 C.2   1 <1>   0.5440 
  8 C        4.6460    -1.9170    -0.5650 C.ar  1 <1>  -0.1500 
  9 O        4.6980     1.5380     0.2500 O.2   1 <1>  -0.5700 
 10 N        6.5180     0.2970    -0.0480 N.am  1 <1>  -0.7300 
 11 C        7.5010     1.2730     0.4680 C.3   1 <1>   0.2200 
 12 C        8.3880     1.7950    -0.6830 C.3   1 <1>  -0.0800 
 13 C        8.3910     0.6130     1.5430 C.3   1 <1>  -0.0800 
 14 C        9.2330     0.6520    -1.2910 C.3   1 <1>  -0.1600 
 15 C        9.3440     2.8640    -0.1150 C.3   1 <1>  -0.1600 
 16 C        9.2360    -0.5290     0.9340 C.3   1 <1>  -0.1600 
 17 C        9.3480     1.6840     2.1080 C.3   1 <1>  -0.1600 
 18 C       10.1210     0.0170    -0.2030 C.3   1 <1>  -0.0800 
 19 C       10.2370     2.2460     0.9800 C.3   1 <1>  -0.0800 
 20 C       11.0610     1.0970     0.3690 C.3   1 <1>  -0.1600 
 21 H        2.8000     0.7870    -1.3590 H     1 <1>   0.1500 
 22 H        1.9930    -3.3200    -2.1180 H     1 <1>   0.1500 
 23 H        4.1150    -3.9440    -1.0030 H     1 <1>   0.1500 
 24 H        5.5580    -2.2030    -0.0730 H     1 <1>   0.1500 
 25 H        6.9410    -0.5260    -0.4700 H     1 <1>   0.3700 
 26 H        6.9740     2.1030     0.9100 H     1 <1>   0.0800 
 27 H        7.7640     2.2430    -1.4380 H     1 <1>   0.0800 
 28 H        7.7710     0.2380     2.3380 H     1 <1>   0.0800 
 29 H        8.5950    -0.0950    -1.7280 H     1 <1>   0.0800 
 30 H        9.8520     1.0430    -2.0800 H     1 <1>   0.0800 
 31 H        8.7760     3.6800     0.2960 H     1 <1>   0.0800 
 32 H        9.9580     3.2610    -0.9040 H     1 <1>   0.0800 
 33 H        8.5990    -1.3110     0.5620 H     1 <1>   0.0800 
 34 H        9.8580    -0.9630     1.6980 H     1 <1>   0.0800 
 35 H        9.9640     1.2530     2.8780 H     1 <1>   0.0800 
 36 H        8.7800     2.4810     2.5550 H     1 <1>   0.0800 
 37 H       10.7050    -0.7820    -0.6280 H     1 <1>   0.0800 
 38 H       10.8990     2.9970     1.3780 H     1 <1>   0.0800 
 39 H       11.6940     1.4790    -0.4130 H     1 <1>   0.0800 
 40 H       11.6970     0.6650     1.1210 H     1 <1>   0.0800 
@<TRIPOS>BOND
  1   1   2  1   
  2   2   3  ar  
  3   2   4  ar  
  4   3   5  ar  
  5   3  21  1   
  6   4   6  ar  
  7   4  22  1   
  8   5   7  1   
  9   5   8  ar  
 10   6   8  ar  
 11   6  23  1   
 12   7   9  2   
 13   7  10  am  
 14   8  24  1   
 15  10  11  1   
 16  10  25  1   
 17  11  12  1   
 18  11  13  1   
 19  11  26  1   
 20  12  14  1   
 21  12  15  1   
 22  12  27  1   
 23  13  16  1   
 24  13  17  1   
 25  13  28  1   
 26  14  18  1   
 27  14  29  1   
 28  14  30  1   
 29  15  19  1   
 30  15  31  1   
 31  15  32  1   
 32  16  18  1   
 33  16  33  1   
 34  16  34  1   
 35  17  19  1   
 36  17  35  1   
 37  17  36  1   
 38  18  20  1   
 39  18  37  1   
 40  19  20  1   
 41  19  38  1   
 42  20  39  1   
 43  20  40  1   
@<TRIPOS>SUBSTRUCTURE
  1 ****  10 GROUP 4 **** **** 0

# MOE 2024.06 (io_trps.svl 2023.06)
