@<TRIPOS>MOLECULE
NONAME
35 35 1 0 0 
SMALL
USER_CHARGES


@<TRIPOS>ATOM
  1 CL       0.4530    -1.7680    -1.3120 Cl    1 <1>  -0.1770 
  2 C        1.9890    -1.0560    -0.8830 C.ar  1 <1>   0.1770 
  3 C        3.0820    -1.8750    -0.6740 C.ar  1 <1>  -0.1500 
  4 C        2.0910     0.3160    -0.7580 C.ar  1 <1>  -0.1500 
  5 C        4.2980    -1.3070    -0.3340 C.ar  1 <1>  -0.1500 
  6 C        3.3100     0.8750    -0.4160 C.ar  1 <1>  -0.1500 
  7 C        4.4310     0.0730    -0.2030 C.ar  1 <1>   0.1170 
  8 N        5.6800     0.5980     0.1570 N.am  1 <1>  -0.5470 
  9 C        6.2310     1.8230    -0.0750 C.2   1 <1>   0.6900 
 10 O        5.6850     2.6480    -0.7780 O.2   1 <1>  -0.5700 
 11 N        7.4260     2.0790     0.5040 N.am  1 <1>  -0.7300 
 12 C        8.2260     3.3050     0.4270 C.3   1 <1>   0.5000 
 13 C        9.3680     3.0260     1.3520 C.1   1 <1>  -0.2000 
 14 C        8.7480     3.4480    -1.0240 C.3   1 <1>  -0.1600 
 15 C        7.3750     4.5050     0.9230 C.3   1 <1>  -0.1600 
 16 C       10.2760     2.7950     2.0860 C.1   1 <1>  -0.1770 
 17 C        9.6920     4.6310    -1.3050 C.3   1 <1>  -0.2400 
 18 C        8.1240     5.6880     1.5740 C.3   1 <1>  -0.2400 
 19 H        2.9760    -2.9400    -0.7780 H     1 <1>   0.1500 
 20 H        1.2290     0.9360    -0.9250 H     1 <1>   0.1500 
 21 H        5.1490    -1.9420    -0.1740 H     1 <1>   0.1500 
 22 H        3.3880     1.9430    -0.3140 H     1 <1>   0.1500 
 23 H        6.3240    -0.0660     0.5710 H     1 <1>   0.3700 
 24 H        7.8020     1.4370     1.1930 H     1 <1>   0.3700 
 25 H        7.9100     3.5360    -1.6910 H     1 <1>   0.0800 
 26 H        9.2690     2.5430    -1.2810 H     1 <1>   0.0800 
 27 H        6.6720     4.1460     1.6540 H     1 <1>   0.0800 
 28 H        6.8030     4.8810     0.0940 H     1 <1>   0.0800 
 29 H       11.1020     2.5950     2.7470 H     1 <1>   0.1770 
 30 H        9.1590     5.5620    -1.2430 H     1 <1>   0.0800 
 31 H       10.0890     4.5460    -2.3010 H     1 <1>   0.0800 
 32 H       10.5150     4.6450    -0.6130 H     1 <1>   0.0800 
 33 H        8.5850     5.3850     2.4980 H     1 <1>   0.0800 
 34 H        7.4260     6.4770     1.7960 H     1 <1>   0.0800 
 35 H        8.8830     6.0840     0.9270 H     1 <1>   0.0800 
@<TRIPOS>BOND
  1   1   2  1   
  2   2   3  ar  
  3   2   4  ar  
  4   3   5  ar  
  5   3  19  1   
  6   4   6  ar  
  7   4  20  1   
  8   5   7  ar  
  9   5  21  1   
 10   6   7  ar  
 11   6  22  1   
 12   7   8  1   
 13   8   9  am  
 14   8  23  1   
 15   9  10  2   
 16   9  11  am  
 17  11  12  1   
 18  11  24  1   
 19  12  13  1   
 20  12  14  1   
 21  12  15  1   
 22  13  16  3   
 23  14  17  1   
 24  14  25  1   
 25  14  26  1   
 26  15  18  1   
 27  15  27  1   
 28  15  28  1   
 29  16  29  1   
 30  17  30  1   
 31  17  31  1   
 32  17  32  1   
 33  18  33  1   
 34  18  34  1   
 35  18  35  1   
@<TRIPOS>SUBSTRUCTURE
  1 ****   9 GROUP 4 **** **** 0

# MOE 2024.06 (io_trps.svl 2023.06)
