@<TRIPOS>MOLECULE
NONAME
37 37 1 0 0 
SMALL
USER_CHARGES


@<TRIPOS>ATOM
  1 S       -0.4190     0.0820     0.0350 S.o2  1 <1>   1.4470 
  2 O       -0.9240     0.4350    -1.2740 O.2   1 <1>  -0.6500 
  3 O       -0.9320     0.7450     1.2120 O.2   1 <1>  -0.6500 
  4 N       -0.9120    -1.4960     0.3040 N.am  1 <1>  -0.9140 
  5 C        1.3920    -0.0080     0.0270 C.ar  1 <1>  -0.0090 
  6 C       -2.2730    -1.6980    -0.1150 C.3   1 <1>   0.3340 
  7 C        2.1440     1.1570     0.1380 C.ar  1 <1>   0.0830 
  8 C        2.0700    -1.2160    -0.1130 C.ar  1 <1>  -0.1500 
  9 C       -2.7080    -3.0230     0.4670 C.2   1 <1>  -0.2880 
 10 O        1.4670     2.3280     0.2460 O.3   1 <1>  -0.3630 
 11 C        3.5350     1.1000     0.1310 C.ar  1 <1>  -0.1500 
 12 C        3.4550    -1.2860    -0.1230 C.ar  1 <1>  -0.1430 
 13 C       -3.6870    -3.1950     1.3620 C.2   1 <1>  -0.3000 
 14 C        2.1200     3.5700     0.3820 C.3   1 <1>   0.0400 
 15 C        4.1820    -0.1140     0.0030 C.ar  1 <1>  -0.1500 
 16 C        4.1500    -2.6380    -0.2750 C.3   1 <1>   0.0630 
 17 C        5.0190    -2.9490     0.9480 C.3   1 <1>  -0.2400 
 18 C        4.9830    -2.6810    -1.5600 C.3   1 <1>  -0.2400 
 19 H       -0.9440    -1.5540     1.3190 H     1 <1>   0.4200 
 20 H       -2.3340    -1.7200    -1.1910 H     1 <1>   0.0800 
 21 H       -2.9050    -0.9060     0.2560 H     1 <1>   0.0800 
 22 H        1.5030    -2.1240    -0.2210 H     1 <1>   0.1500 
 23 H       -2.1300    -3.8430     0.0750 H     1 <1>   0.1500 
 24 H        4.1320     1.9870     0.2210 H     1 <1>   0.1500 
 25 H       -3.9750    -4.1540     1.7590 H     1 <1>   0.1500 
 26 H       -4.2820    -2.3970     1.7740 H     1 <1>   0.1500 
 27 H        1.3670     4.3340     0.4570 H     1 <1>   0.0800 
 28 H        2.7290     3.7420    -0.4870 H     1 <1>   0.0800 
 29 H        2.7150     3.5560     1.2780 H     1 <1>   0.0800 
 30 H        5.2570    -0.1410    -0.0010 H     1 <1>   0.1500 
 31 H        3.4000    -3.4080    -0.3470 H     1 <1>   0.0800 
 32 H        5.8220    -2.2410     1.0390 H     1 <1>   0.0800 
 33 H        5.4380    -3.9360     0.8650 H     1 <1>   0.0800 
 34 H        4.4210    -2.9060     1.8410 H     1 <1>   0.0800 
 35 H        5.7820    -1.9630    -1.5240 H     1 <1>   0.0800 
 36 H        4.3590    -2.4570    -2.4070 H     1 <1>   0.0800 
 37 H        5.4060    -3.6600    -1.6970 H     1 <1>   0.0800 
@<TRIPOS>BOND
  1   1   2  2   
  2   1   3  2   
  3   1   4  am  
  4   1   5  1   
  5   4   6  1   
  6   4  19  1   
  7   5   7  ar  
  8   5   8  ar  
  9   6   9  1   
 10   6  20  1   
 11   6  21  1   
 12   7  10  1   
 13   7  11  ar  
 14   8  12  ar  
 15   8  22  1   
 16   9  13  2   
 17   9  23  1   
 18  10  14  1   
 19  11  15  ar  
 20  11  24  1   
 21  12  15  ar  
 22  12  16  1   
 23  13  25  1   
 24  13  26  1   
 25  14  27  1   
 26  14  28  1   
 27  14  29  1   
 28  15  30  1   
 29  16  17  1   
 30  16  18  1   
 31  16  31  1   
 32  17  32  1   
 33  17  33  1   
 34  17  34  1   
 35  18  35  1   
 36  18  36  1   
 37  18  37  1   
@<TRIPOS>SUBSTRUCTURE
  1 ****   5 GROUP 4 **** **** 0

# MOE 2024.06 (io_trps.svl 2023.06)
