@<TRIPOS>MOLECULE
Structure2301
29 30 1 0 0 
SMALL
USER_CHARGES


@<TRIPOS>ATOM
  1 O       -0.1000     0.2280    -0.2210 O.3   1 <1>  -0.3630 
  2 C       -0.0600     1.5630     0.0480 C.ar  1 <1>   0.0830 
  3 C       -1.3270    -0.4590    -0.3600 C.3   1 <1>   0.0400 
  4 C        1.1680     2.2180    -0.0650 C.ar  1 <1>  -0.1440 
  5 C       -1.1980     2.2750     0.4200 C.ar  1 <1>  -0.1500 
  6 C        1.2210     3.5880     0.1700 C.ar  1 <1>  -0.1500 
  7 C        2.4090     1.4100    -0.4650 C.3   1 <1>   0.0640 
  8 C       -1.1230     3.6320     0.6650 C.ar  1 <1>  -0.1500 
  9 C        0.0860     4.2880     0.5360 C.ar  1 <1>  -0.1500 
 10 C        2.6540     0.2350     0.4850 C.3   1 <1>   0.3430 
 11 C        3.7510     2.1440    -0.4740 C.3   1 <1>  -0.1600 
 12 N        4.1360     0.0610     0.5900 N.4   1 <1>  -0.9060 
 13 C        4.7750     1.0320    -0.3320 C.3   1 <1>   0.3430 
 14 H       -1.1170    -1.4670    -0.6690 H     1 <1>   0.0800 
 15 H       -1.9230     0.0340    -1.1080 H     1 <1>   0.0800 
 16 H       -1.8340    -0.4690     0.5890 H     1 <1>   0.0800 
 17 H       -2.1530     1.7960     0.5260 H     1 <1>   0.1500 
 18 H        2.1320     4.1480     0.0710 H     1 <1>   0.1500 
 19 H        2.2320     1.0050    -1.4470 H     1 <1>   0.0800 
 20 H       -2.0050     4.1800     0.9510 H     1 <1>   0.1500 
 21 H        0.1400     5.3480     0.7180 H     1 <1>   0.1500 
 22 H        2.1770    -0.6540     0.1050 H     1 <1>   0.0800 
 23 H        2.2380     0.4650     1.4530 H     1 <1>   0.0800 
 24 H        3.8470     2.7950     0.3760 H     1 <1>   0.0800 
 25 H        3.8970     2.7120    -1.3760 H     1 <1>   0.0800 
 26 H        4.4130    -0.9040     0.3720 H     1 <1>   0.4500 
 27 H        4.4240     0.2600     1.5570 H     1 <1>   0.4500 
 28 H        5.7140     1.3970     0.0540 H     1 <1>   0.0800 
 29 H        4.9380     0.5700    -1.2930 H     1 <1>   0.0800 
@<TRIPOS>BOND
  1   1   2  1   
  2   1   3  1   
  3   2   4  ar  
  4   2   5  ar  
  5   3  14  1   
  6   3  15  1   
  7   3  16  1   
  8   4   6  ar  
  9   4   7  1   
 10   5   8  ar  
 11   5  17  1   
 12   6   9  ar  
 13   6  18  1   
 14   7  10  1   
 15   7  11  1   
 16   7  19  1   
 17   8   9  ar  
 18   8  20  1   
 19   9  21  1   
 20  10  12  1   
 21  10  22  1   
 22  10  23  1   
 23  11  13  1   
 24  11  24  1   
 25  11  25  1   
 26  12  13  1   
 27  12  26  1   
 28  12  27  1   
 29  13  28  1   
 30  13  29  1   
@<TRIPOS>SUBSTRUCTURE
  1 ****   4 GROUP 4 **** **** 0

# MOE 2024.06 (io_trps.svl 2023.06)
