@<TRIPOS>MOLECULE
NONAME
34 34 1 0 0 
SMALL
USER_CHARGES


@<TRIPOS>ATOM
  1 BR       0.1130     0.2500     0.4500 Br    1 <1>  -0.1110 
  2 C        2.0280     0.1100     0.2930 C.ar  1 <1>   0.1110 
  3 C        2.7880     1.2570     0.3850 C.ar  1 <1>  -0.1500 
  4 C        2.5890    -1.1340     0.0920 C.ar  1 <1>  -0.1500 
  5 C        4.1660     1.1600     0.2760 C.ar  1 <1>  -0.1440 
  6 C        3.9660    -1.2380    -0.0220 C.ar  1 <1>  -0.1440 
  7 C        4.7630    -0.0900     0.0690 C.ar  1 <1>   0.1170 
  8 C        4.9950     2.4340     0.3860 C.3   1 <1>  -0.0960 
  9 C        4.5820    -2.6110    -0.2610 C.3   1 <1>  -0.0960 
 10 N        6.1570    -0.2170    -0.0230 N.am  1 <1>  -0.5470 
 11 C        6.9750     0.2010    -1.0310 C.2   1 <1>   0.5690 
 12 O        6.5760     0.7760    -2.0130 O.2   1 <1>  -0.5700 
 13 C        8.4580    -0.0930    -0.9050 C.3   1 <1>  -0.0990 
 14 C        9.1530     0.7330     0.1950 C.3   1 <1>  -0.0800 
 15 C        9.1100     2.2340    -0.1230 C.3   1 <1>  -0.2400 
 16 C       10.6100     0.2830     0.3520 C.3   1 <1>  -0.2400 
 17 H        2.3030     2.2030     0.5390 H     1 <1>   0.1500 
 18 H        1.9520    -1.9970     0.0240 H     1 <1>   0.1500 
 19 H        4.4000     3.2530     0.7460 H     1 <1>   0.0800 
 20 H        5.3850     2.6970    -0.5810 H     1 <1>   0.0800 
 21 H        5.8150     2.2890     1.0650 H     1 <1>   0.0800 
 22 H        3.8210    -3.3610    -0.3810 H     1 <1>   0.0800 
 23 H        5.2050    -2.8870     0.5700 H     1 <1>   0.0800 
 24 H        5.1780    -2.5920    -1.1570 H     1 <1>   0.0800 
 25 H        6.5920    -0.7580     0.7190 H     1 <1>   0.3700 
 26 H        8.9260     0.1040    -1.8530 H     1 <1>   0.0800 
 27 H        8.5740    -1.1420    -0.7010 H     1 <1>   0.0800 
 28 H        8.6480     0.5690     1.1320 H     1 <1>   0.0800 
 29 H        9.6030     2.4380    -1.0580 H     1 <1>   0.0800 
 30 H        9.6010     2.7960     0.6520 H     1 <1>   0.0800 
 31 H        8.0950     2.5810    -0.1950 H     1 <1>   0.0800 
 32 H       11.1560     0.4360    -0.5630 H     1 <1>   0.0800 
 33 H       10.6580    -0.7600     0.6090 H     1 <1>   0.0800 
 34 H       11.0920     0.8440     1.1330 H     1 <1>   0.0800 
@<TRIPOS>BOND
  1   1   2  1   
  2   2   3  ar  
  3   2   4  ar  
  4   3   5  ar  
  5   3  17  1   
  6   4   6  ar  
  7   4  18  1   
  8   5   7  ar  
  9   5   8  1   
 10   6   7  ar  
 11   6   9  1   
 12   7  10  1   
 13   8  19  1   
 14   8  20  1   
 15   8  21  1   
 16   9  22  1   
 17   9  23  1   
 18   9  24  1   
 19  10  11  am  
 20  10  25  1   
 21  11  12  2   
 22  11  13  1   
 23  13  14  1   
 24  13  26  1   
 25  13  27  1   
 26  14  15  1   
 27  14  16  1   
 28  14  28  1   
 29  15  29  1   
 30  15  30  1   
 31  15  31  1   
 32  16  32  1   
 33  16  33  1   
 34  16  34  1   
@<TRIPOS>SUBSTRUCTURE
  1 ****   7 GROUP 4 **** **** 0

# MOE 2024.06 (io_trps.svl 2023.06)
