@<TRIPOS>MOLECULE
NONAME
43 44 1 0 0 
SMALL
USER_CHARGES


@<TRIPOS>ATOM
  1 S        0.2610    -0.5400     1.7450 S.o2  1 <1>   1.3330 
  2 O       -0.4130     0.6410     2.2240 O.2   1 <1>  -0.6500 
  3 O        1.3340    -1.1360     2.5000 O.2   1 <1>  -0.6500 
  4 N       -0.9210    -1.7780     1.6600 N.am  1 <1>  -0.7570 
  5 C        0.7490    -0.3520     0.0290 C.3   1 <1>  -0.0550 
  6 C       -2.1950    -1.5690     1.1790 C.ar  1 <1>   0.1990 
  7 C        1.8370     0.7120    -0.1900 C.3   1 <1>  -0.1600 
  8 C       -2.5670    -2.0750    -0.0600 C.ar  1 <1>  -0.1500 
  9 C       -3.1370    -0.8600     1.9140 C.ar  1 <1>  -0.1500 
 10 C        2.2000     0.8370    -1.6740 C.3   1 <1>  -0.1600 
 11 C       -3.8390    -1.8640    -0.5550 C.ar  1 <1>  -0.1500 
 12 C       -4.4090    -0.6540     1.4170 C.ar  1 <1>  -0.1500 
 13 C        3.2780     1.9030    -1.8860 C.3   1 <1>  -0.2400 
 14 C       -4.7910    -1.1390     0.1640 C.ar  1 <1>   0.0860 
 15 C       -6.1170    -0.9160    -0.3760 C.2   1 <1>   0.5440 
 16 O       -6.7250    -1.8460    -0.8760 O.2   1 <1>  -0.5700 
 17 N       -6.7140     0.3250    -0.3580 N.am  1 <1>  -0.6600 
 18 C       -8.0730     0.5480    -0.8990 C.3   1 <1>   0.1400 
 19 C       -5.9970     1.6100    -0.1890 C.3   1 <1>   0.1400 
 20 C       -8.2650     2.0610    -0.8730 C.3   1 <1>  -0.1600 
 21 C       -6.8500     2.6290    -0.9350 C.3   1 <1>  -0.1600 
 22 H       -0.8590    -2.3050     2.5280 H     1 <1>   0.4200 
 23 H       -0.1150    -0.0840    -0.5480 H     1 <1>   0.0800 
 24 H        1.1080    -1.2950    -0.3350 H     1 <1>   0.0800 
 25 H        2.7140     0.4440     0.3770 H     1 <1>   0.0800 
 26 H        1.4820     1.6610     0.1770 H     1 <1>   0.0800 
 27 H       -1.8520    -2.6400    -0.6310 H     1 <1>   0.1500 
 28 H       -2.8630    -0.4650     2.8760 H     1 <1>   0.1500 
 29 H        1.3250     1.1030    -2.2430 H     1 <1>   0.0800 
 30 H        2.5640    -0.1090    -2.0410 H     1 <1>   0.0800 
 31 H       -4.1180    -2.2660    -1.5140 H     1 <1>   0.1500 
 32 H       -5.1280    -0.1110     2.0060 H     1 <1>   0.1500 
 33 H        2.9300     2.8630    -1.5470 H     1 <1>   0.0800 
 34 H        3.5220     1.9780    -2.9310 H     1 <1>   0.0800 
 35 H        4.1720     1.6480    -1.3450 H     1 <1>   0.0800 
 36 H       -8.8080     0.0390    -0.2990 H     1 <1>   0.0800 
 37 H       -8.1140     0.1770    -1.9100 H     1 <1>   0.0800 
 38 H       -5.0000     1.5600    -0.5930 H     1 <1>   0.0800 
 39 H       -5.9570     1.8560     0.8580 H     1 <1>   0.0800 
 40 H       -8.7310     2.3360     0.0570 H     1 <1>   0.0800 
 41 H       -8.8810     2.3980    -1.6880 H     1 <1>   0.0800 
 42 H       -6.5220     2.6790    -1.9580 H     1 <1>   0.0800 
 43 H       -6.7810     3.6080    -0.4950 H     1 <1>   0.0800 
@<TRIPOS>BOND
  1   1   2  2   
  2   1   3  2   
  3   1   4  am  
  4   1   5  1   
  5   4   6  1   
  6   4  22  1   
  7   5   7  1   
  8   5  23  1   
  9   5  24  1   
 10   6   8  ar  
 11   6   9  ar  
 12   7  10  1   
 13   7  25  1   
 14   7  26  1   
 15   8  11  ar  
 16   8  27  1   
 17   9  12  ar  
 18   9  28  1   
 19  10  13  1   
 20  10  29  1   
 21  10  30  1   
 22  11  14  ar  
 23  11  31  1   
 24  12  14  ar  
 25  12  32  1   
 26  13  33  1   
 27  13  34  1   
 28  13  35  1   
 29  14  15  1   
 30  15  16  2   
 31  15  17  am  
 32  17  18  1   
 33  17  19  1   
 34  18  20  1   
 35  18  36  1   
 36  18  37  1   
 37  19  21  1   
 38  19  38  1   
 39  19  39  1   
 40  20  21  1   
 41  20  40  1   
 42  20  41  1   
 43  21  42  1   
 44  21  43  1   
@<TRIPOS>SUBSTRUCTURE
  1 ****   6 GROUP 4 **** **** 0

# MOE 2024.06 (io_trps.svl 2023.06)
