@<TRIPOS>MOLECULE
NONAME
35 36 1 0 0 
SMALL
USER_CHARGES


@<TRIPOS>ATOM
  1 O        1.0000     1.6990    -2.0170 O.2   1 <1>  -0.5700 
  2 C        1.0810     2.5380    -1.1470 C.2   1 <1>   0.7800 
  3 O        0.2450     3.5640    -1.1040 O.3   1 <1>  -0.4300 
  4 N        2.0010     2.5700    -0.1640 N.am  1 <1>  -0.6600 
  5 C        0.4650     4.3300     0.0640 C.3   1 <1>   0.2800 
  6 C        1.8690     3.8100     0.5630 C.3   1 <1>   0.5800 
  7 C        2.9290     1.4740     0.1610 C.3   1 <1>   0.2780 
  8 C        0.4020     5.8230    -0.3380 C.3   1 <1>  -0.1600 
  9 C       -0.7000     3.9940     1.0290 C.3   1 <1>  -0.1600 
 10 O        1.9080     3.5130     1.9070 O.3   1 <1>  -0.6800 
 11 C        3.0830     4.6930     0.2660 C.3   1 <1>  -0.2400 
 12 C        2.2150     0.4530     1.0260 C.2   1 <1>  -0.2880 
 13 C       -0.9800     6.2470    -0.8650 C.3   1 <1>  -0.1600 
 14 C       -2.0750     4.4170     0.4870 C.3   1 <1>  -0.1600 
 15 C        1.9460    -0.8070     0.6710 C.2   1 <1>  -0.3000 
 16 C       -2.0910     5.9080     0.1340 C.3   1 <1>  -0.1600 
 17 H        3.7910     1.8570     0.6780 H     1 <1>   0.0800 
 18 H        3.2570     1.0090    -0.7540 H     1 <1>   0.0800 
 19 H        1.1340     6.0310    -1.0980 H     1 <1>   0.0800 
 20 H        0.6370     6.4250     0.5210 H     1 <1>   0.0800 
 21 H       -0.5400     4.4990     1.9640 H     1 <1>   0.0800 
 22 H       -0.7040     2.9360     1.2320 H     1 <1>   0.0800 
 23 H        1.8230     4.3350     2.4180 H     1 <1>   0.4000 
 24 H        3.1660     4.8610    -0.7920 H     1 <1>   0.0800 
 25 H        3.9840     4.2170     0.6070 H     1 <1>   0.0800 
 26 H        2.9890     5.6430     0.7560 H     1 <1>   0.0800 
 27 H        1.9330     0.8590     1.9820 H     1 <1>   0.1500 
 28 H       -1.1760     5.7400    -1.7960 H     1 <1>   0.0800 
 29 H       -0.9830     7.3050    -1.0630 H     1 <1>   0.0800 
 30 H       -2.8330     4.2110     1.2240 H     1 <1>   0.0800 
 31 H       -2.3070     3.8390    -0.3920 H     1 <1>   0.0800 
 32 H        1.4340    -1.5130     1.3020 H     1 <1>   0.1500 
 33 H        2.2060    -1.2350    -0.2830 H     1 <1>   0.1500 
 34 H       -3.0460     6.1650    -0.2910 H     1 <1>   0.0800 
 35 H       -1.9620     6.4920     1.0300 H     1 <1>   0.0800 
@<TRIPOS>BOND
  1   1   2  2   
  2   2   3  1   
  3   2   4  am  
  4   3   5  1   
  5   4   6  1   
  6   4   7  1   
  7   5   6  1   
  8   5   8  1   
  9   5   9  1   
 10   6  10  1   
 11   6  11  1   
 12   7  12  1   
 13   7  17  1   
 14   7  18  1   
 15   8  13  1   
 16   8  19  1   
 17   8  20  1   
 18   9  14  1   
 19   9  21  1   
 20   9  22  1   
 21  10  23  1   
 22  11  24  1   
 23  11  25  1   
 24  11  26  1   
 25  12  15  2   
 26  12  27  1   
 27  13  16  1   
 28  13  28  1   
 29  13  29  1   
 30  14  16  1   
 31  14  30  1   
 32  14  31  1   
 33  15  32  1   
 34  15  33  1   
 35  16  34  1   
 36  16  35  1   
@<TRIPOS>SUBSTRUCTURE
  1 ****   5 GROUP 4 **** **** 0

# MOE 2024.06 (io_trps.svl 2023.06)
