@<TRIPOS>MOLECULE
NONAME
37 39 1 0 0 
SMALL
USER_CHARGES


@<TRIPOS>ATOM
  1 S       -1.0800     1.5390    -1.5340 S.3   1 <1>  -0.0800 
  2 C       -1.6470     0.8570    -0.0150 C.2   1 <1>  -0.1400 
  3 C        0.3310     2.2250    -0.7510 C.2   1 <1>  -0.1100 
  4 C       -0.7890     1.1490     0.9810 C.2   1 <1>  -0.1500 
  5 C       -2.9370     0.0660    -0.0470 C.3   1 <1>   0.5230 
  6 C        0.3350     1.9310     0.5620 C.2   1 <1>  -0.1500 
  7 N       -4.0760     0.9800     0.2450 N.4   1 <1>  -0.9590 
  8 C       -5.3360     0.2080     0.5540 C.3   1 <1>   0.3430 
  9 C       -4.3070     1.9700    -0.8760 C.3   1 <1>   0.3430 
 10 C       -6.5470     1.1250     0.8280 C.3   1 <1>   0.2090 
 11 C       -5.5170     2.8940    -0.6210 C.3   1 <1>   0.2090 
 12 N       -6.7320     2.0950    -0.2890 N.pl3 1 <1>  -0.8380 
 13 C       -7.9440     2.7750    -0.3200 C.ar  1 <1>   0.1000 
 14 C       -8.2590     3.7410     0.6350 C.ar  1 <1>  -0.1500 
 15 C       -8.8620     2.4850    -1.3250 C.ar  1 <1>  -0.1500 
 16 C       -9.4710     4.4080     0.5890 C.ar  1 <1>  -0.1500 
 17 C      -10.0780     3.1430    -1.3840 C.ar  1 <1>  -0.1500 
 18 C      -10.3590     4.0950    -0.4220 C.ar  1 <1>   0.1900 
 19 F      -11.5070     4.7220    -0.4700 F     1 <1>  -0.1900 
 20 H        1.0210     2.7810    -1.3630 H     1 <1>   0.1500 
 21 H       -0.8770     0.8500     2.0130 H     1 <1>   0.1500 
 22 H       -2.8870    -0.7020     0.7060 H     1 <1>   0.0800 
 23 H       -3.0600    -0.4060    -1.0090 H     1 <1>   0.0800 
 24 H        1.0940     2.2330     1.2640 H     1 <1>   0.1500 
 25 H       -3.8110     1.5230     1.0750 H     1 <1>   0.4500 
 26 H       -5.1790    -0.4270     1.4110 H     1 <1>   0.0800 
 27 H       -5.5850    -0.4230    -0.2830 H     1 <1>   0.0800 
 28 H       -4.4820     1.4390    -1.7970 H     1 <1>   0.0800 
 29 H       -3.4320     2.5840    -1.0110 H     1 <1>   0.0800 
 30 H       -6.4050     1.6580     1.7520 H     1 <1>   0.0800 
 31 H       -7.4360     0.5250     0.9250 H     1 <1>   0.0800 
 32 H       -5.7100     3.4810    -1.5030 H     1 <1>   0.0800 
 33 H       -5.2970     3.5720     0.1850 H     1 <1>   0.0800 
 34 H       -7.5560     3.9710     1.4130 H     1 <1>   0.1500 
 35 H       -8.6150     1.7400    -2.0590 H     1 <1>   0.1500 
 36 H       -9.7290     5.1550     1.3180 H     1 <1>   0.1500 
 37 H      -10.7960     2.9280    -2.1550 H     1 <1>   0.1500 
@<TRIPOS>BOND
  1   1   2  1   
  2   1   3  1   
  3   2   4  2   
  4   2   5  1   
  5   3   6  2   
  6   3  20  1   
  7   4   6  1   
  8   4  21  1   
  9   5   7  1   
 10   5  22  1   
 11   5  23  1   
 12   6  24  1   
 13   7   8  1   
 14   7   9  1   
 15   7  25  1   
 16   8  10  1   
 17   8  26  1   
 18   8  27  1   
 19   9  11  1   
 20   9  28  1   
 21   9  29  1   
 22  10  12  1   
 23  10  30  1   
 24  10  31  1   
 25  11  12  1   
 26  11  32  1   
 27  11  33  1   
 28  12  13  1   
 29  13  14  ar  
 30  13  15  ar  
 31  14  16  ar  
 32  14  34  1   
 33  15  17  ar  
 34  15  35  1   
 35  16  18  ar  
 36  16  36  1   
 37  17  18  ar  
 38  17  37  1   
 39  18  19  1   
@<TRIPOS>SUBSTRUCTURE
  1 ****  11 GROUP 4 **** **** 0

# MOE 2024.06 (io_trps.svl 2023.06)
