@<TRIPOS>MOLECULE
NONAME
33 33 1 0 0 
SMALL
USER_CHARGES


@<TRIPOS>ATOM
  1 CL      -0.5720     0.0230     2.0280 Cl    1 <1>  -0.1770 
  2 C       -1.8630     0.8860     1.2150 C.ar  1 <1>   0.1770 
  3 C       -2.8690     0.1760     0.5490 C.ar  1 <1>   0.1990 
  4 C       -1.8370     2.2680     1.2560 C.ar  1 <1>  -0.1500 
  5 N       -2.8890    -1.2250     0.5230 N.am  1 <1>  -0.6930 
  6 C       -3.8560     0.9160    -0.0960 C.ar  1 <1>  -0.1500 
  7 C       -2.8330     2.9860     0.6140 C.ar  1 <1>  -0.1500 
  8 S       -2.3070    -2.0800    -0.8610 S.o2  1 <1>   1.3330 
  9 C       -3.8770    -1.9750     1.3750 C.3   1 <1>   0.3370 
 10 C       -3.8280     2.2970    -0.0550 C.ar  1 <1>   0.1770 
 11 O       -2.3070    -3.4800    -0.5260 O.2   1 <1>  -0.6500 
 12 O       -3.1030    -1.6080    -1.9680 O.2   1 <1>  -0.6500 
 13 C       -0.6200    -1.5340    -1.0230 C.3   1 <1>  -0.1350 
 14 C       -5.3340    -1.9860     0.8280 C.2   1 <1>   0.5690 
 15 C       -3.7820    -1.4520     2.8190 C.3   1 <1>  -0.2400 
 16 CL      -5.0800     3.1970    -0.8710 Cl    1 <1>  -0.1770 
 17 O       -6.2550    -1.9900     1.6140 O.2   1 <1>  -0.5700 
 18 N       -5.5790    -2.0050    -0.5160 N.am  1 <1>  -0.7300 
 19 C       -6.9180    -2.0470    -1.1530 C.3   1 <1>   0.0600 
 20 H       -1.0470     2.7760     1.7830 H     1 <1>   0.1500 
 21 H       -4.6440     0.4270    -0.6350 H     1 <1>   0.1500 
 22 H       -2.8410     4.0620     0.6290 H     1 <1>   0.1500 
 23 H       -3.5740    -3.0060     1.4190 H     1 <1>   0.0800 
 24 H       -0.5800    -0.4730    -1.1650 H     1 <1>   0.0800 
 25 H       -0.1620    -2.0100    -1.8670 H     1 <1>   0.0800 
 26 H       -0.0630    -1.7900    -0.1430 H     1 <1>   0.0800 
 27 H       -4.1590    -0.4470     2.8870 H     1 <1>   0.0800 
 28 H       -2.7670    -1.4890     3.1670 H     1 <1>   0.0800 
 29 H       -4.3790    -2.0720     3.4650 H     1 <1>   0.0800 
 30 H       -4.7880    -1.9600    -1.1780 H     1 <1>   0.3700 
 31 H       -7.6910    -2.0850    -0.4040 H     1 <1>   0.0800 
 32 H       -6.9950    -2.9210    -1.7760 H     1 <1>   0.0800 
 33 H       -7.0600    -1.1680    -1.7570 H     1 <1>   0.0800 
@<TRIPOS>BOND
  1   1   2  1   
  2   2   3  ar  
  3   2   4  ar  
  4   3   5  1   
  5   3   6  ar  
  6   4   7  ar  
  7   4  20  1   
  8   5   8  am  
  9   5   9  1   
 10   6  10  ar  
 11   6  21  1   
 12   7  10  ar  
 13   7  22  1   
 14   8  11  2   
 15   8  12  2   
 16   8  13  1   
 17   9  14  1   
 18   9  15  1   
 19   9  23  1   
 20  10  16  1   
 21  13  24  1   
 22  13  25  1   
 23  13  26  1   
 24  14  17  2   
 25  14  18  am  
 26  15  27  1   
 27  15  28  1   
 28  15  29  1   
 29  18  19  1   
 30  18  30  1   
 31  19  31  1   
 32  19  32  1   
 33  19  33  1   
@<TRIPOS>SUBSTRUCTURE
  1 ****   3 GROUP 4 **** **** 0

# MOE 2024.06 (io_trps.svl 2023.06)
