@<TRIPOS>MOLECULE
NONAME
40 40 1 0 0 
SMALL
USER_CHARGES


@<TRIPOS>ATOM
  1 O        0.5570    -0.5090     0.0830 O.2   1 <1>  -0.5700 
  2 C        1.7140    -0.8570     0.0670 C.2   1 <1>   0.7800 
  3 O        2.6370     0.0340     0.4380 O.3   1 <1>  -0.4300 
  4 N        2.0280    -2.1080    -0.3770 N.am  1 <1>  -0.5470 
  5 C        4.0000    -0.0320     0.0730 C.3   1 <1>   0.1200 
  6 C        3.1510    -2.9120    -0.1670 C.ar  1 <1>   0.1170 
  7 C        4.6400     1.3390     0.2830 C.3   1 <1>   0.1400 
  8 C        3.7920    -3.5020    -1.2470 C.ar  1 <1>  -0.1500 
  9 C        3.6460    -3.1340     1.1110 C.ar  1 <1>  -0.1500 
 10 N        6.0570     1.3010    -0.1490 N.am  1 <1>  -0.7300 
 11 C        4.9190    -4.2810    -1.0560 C.ar  1 <1>  -0.1500 
 12 C        4.7740    -3.9100     1.3030 C.ar  1 <1>  -0.1500 
 13 C        7.0490     0.6690     0.5160 C.2   1 <1>   0.7800 
 14 C        5.4190    -4.4870     0.2200 C.ar  1 <1>  -0.1440 
 15 O        6.8850     0.1500     1.6020 O.2   1 <1>  -0.5700 
 16 O        8.2220     0.6240    -0.1040 O.3   1 <1>  -0.4300 
 17 C        6.6620    -5.3300     0.4340 C.3   1 <1>  -0.0970 
 18 C        9.3200    -0.0710     0.4390 C.3   1 <1>   0.2000 
 19 C       10.5830     0.5400    -0.1620 C.3   1 <1>  -0.2400 
 20 C        9.1880    -1.5510     0.0720 C.3   1 <1>  -0.2400 
 21 H        1.2110    -2.5770    -0.7630 H     1 <1>   0.3700 
 22 H        4.0660    -0.3250    -0.9600 H     1 <1>   0.0800 
 23 H        4.4890    -0.7530     0.7020 H     1 <1>   0.0800 
 24 H        4.5960     1.5960     1.3280 H     1 <1>   0.0800 
 25 H        4.1120     2.0840    -0.2870 H     1 <1>   0.0800 
 26 H        3.4140    -3.3440    -2.2410 H     1 <1>   0.1500 
 27 H        3.1510    -2.6920     1.9580 H     1 <1>   0.1500 
 28 H        6.2880     1.6790    -1.0660 H     1 <1>   0.3700 
 29 H        5.4090    -4.7250    -1.9050 H     1 <1>   0.1500 
 30 H        5.1520    -4.0620     2.3000 H     1 <1>   0.1500 
 31 H        7.5300    -4.6970     0.4640 H     1 <1>   0.0800 
 32 H        6.7790    -6.0420    -0.3630 H     1 <1>   0.0800 
 33 H        6.5940    -5.8690     1.3620 H     1 <1>   0.0800 
 34 H        9.3260     0.0610     1.5090 H     1 <1>   0.0800 
 35 H       10.5780     0.4390    -1.2320 H     1 <1>   0.0800 
 36 H       11.4520     0.0420     0.2270 H     1 <1>   0.0800 
 37 H       10.6450     1.5810     0.0990 H     1 <1>   0.0800 
 38 H        9.1440    -1.6720    -0.9950 H     1 <1>   0.0800 
 39 H        8.3000    -1.9650     0.5160 H     1 <1>   0.0800 
 40 H       10.0350    -2.0960     0.4470 H     1 <1>   0.0800 
@<TRIPOS>BOND
  1   1   2  2   
  2   2   3  1   
  3   2   4  am  
  4   3   5  1   
  5   4   6  1   
  6   4  21  1   
  7   5   7  1   
  8   5  22  1   
  9   5  23  1   
 10   6   8  ar  
 11   6   9  ar  
 12   7  10  1   
 13   7  24  1   
 14   7  25  1   
 15   8  11  ar  
 16   8  26  1   
 17   9  12  ar  
 18   9  27  1   
 19  10  13  am  
 20  10  28  1   
 21  11  14  ar  
 22  11  29  1   
 23  12  14  ar  
 24  12  30  1   
 25  13  15  2   
 26  13  16  1   
 27  14  17  1   
 28  16  18  1   
 29  17  31  1   
 30  17  32  1   
 31  17  33  1   
 32  18  19  1   
 33  18  20  1   
 34  18  34  1   
 35  19  35  1   
 36  19  36  1   
 37  19  37  1   
 38  20  38  1   
 39  20  39  1   
 40  20  40  1   
@<TRIPOS>SUBSTRUCTURE
  1 ****   5 GROUP 4 **** **** 0

# MOE 2024.06 (io_trps.svl 2023.06)
