@<TRIPOS>MOLECULE
Structure488
23 24 1 0 0 
SMALL
USER_CHARGES


@<TRIPOS>ATOM
  1 N       -0.1270     0.1640     0.1480 N.ar  1 <1>  -0.6200 
  2 C       -1.2550     0.8230     0.0620 C.ar  1 <1>   0.1660 
  3 C        0.9780     0.8830     0.0410 C.ar  1 <1>   0.4760 
  4 C       -1.2860     2.1880    -0.1250 C.ar  1 <1>  -0.1440 
  5 C       -2.5230     0.0010     0.1990 C.3   1 <1>  -0.0170 
  6 N        1.0650     2.1890    -0.1400 N.ar  1 <1>  -0.6200 
  7 C        2.2870     0.1380     0.1350 C.3   1 <1>  -0.0960 
  8 C       -0.0740     2.8330    -0.2230 C.ar  1 <1>   0.1600 
  9 C       -2.5830     2.9600    -0.2310 C.3   1 <1>   0.4870 
 10 C       -3.7680     0.7960    -0.1910 C.3   1 <1>   0.3430 
 11 N       -3.6970     2.1770     0.3720 N.4   1 <1>  -0.9060 
 12 H       -2.6080    -0.3390     1.2150 H     1 <1>   0.0800 
 13 H       -2.4510    -0.8720    -0.4270 H     1 <1>   0.0800 
 14 H        2.1170    -0.9150     0.2630 H     1 <1>   0.0800 
 15 H        2.8490     0.5060     0.9740 H     1 <1>   0.0800 
 16 H        2.8540     0.2940    -0.7630 H     1 <1>   0.0800 
 17 H       -0.0200     3.9000    -0.3730 H     1 <1>   0.1500 
 18 H       -2.7910     3.1530    -1.2720 H     1 <1>   0.0800 
 19 H       -2.4820     3.9080     0.2750 H     1 <1>   0.0800 
 20 H       -4.6460     0.2860     0.1730 H     1 <1>   0.0800 
 21 H       -3.8300     0.8480    -1.2660 H     1 <1>   0.0800 
 22 H       -4.5880     2.6700     0.2300 H     1 <1>   0.4500 
 23 H       -3.5370     2.1180     1.3860 H     1 <1>   0.4500 
@<TRIPOS>BOND
  1   1   2  ar  
  2   1   3  ar  
  3   2   4  ar  
  4   2   5  1   
  5   3   6  ar  
  6   3   7  1   
  7   4   8  ar  
  8   4   9  1   
  9   5  10  1   
 10   5  12  1   
 11   5  13  1   
 12   6   8  ar  
 13   7  14  1   
 14   7  15  1   
 15   7  16  1   
 16   8  17  1   
 17   9  11  1   
 18   9  18  1   
 19   9  19  1   
 20  10  11  1   
 21  10  20  1   
 22  10  21  1   
 23  11  22  1   
 24  11  23  1   
@<TRIPOS>SUBSTRUCTURE
  1 ****   2 GROUP 4 **** **** 0

# MOE 2024.06 (io_trps.svl 2023.06)
