@<TRIPOS>MOLECULE
NONAME
35 36 1 0 0 
SMALL
USER_CHARGES


@<TRIPOS>ATOM
  1 CL      -1.5440     0.5040     3.0390 Cl    1 <1>  -0.1770 
  2 C       -1.6650     1.8020     1.8790 C.ar  1 <1>   0.1770 
  3 C       -2.9130     2.2150     1.4580 C.ar  1 <1>  -0.1500 
  4 C       -0.5100     2.3920     1.4030 C.ar  1 <1>  -0.1500 
  5 C       -3.0290     3.2470     0.5340 C.ar  1 <1>   0.1170 
  6 C       -0.6140     3.4220     0.4840 C.ar  1 <1>  -0.1500 
  7 N       -4.3140     3.6470     0.1360 N.am  1 <1>  -0.5470 
  8 C       -1.8630     3.8430     0.0580 C.ar  1 <1>  -0.1500 
  9 C       -4.7530     4.3380    -0.9630 C.2   1 <1>   0.5690 
 10 O       -4.0240     4.7180    -1.8450 O.2   1 <1>  -0.5700 
 11 C       -6.2370     4.6500    -1.0810 C.3   1 <1>   0.1310 
 12 S       -7.2670     3.4510    -0.0980 S.3   1 <1>  -0.2860 
 13 C       -8.9240     4.1150    -0.2950 C.2   1 <1>   0.2430 
 14 N       -9.1780     5.2000    -0.9340 N.2   1 <1>  -0.3380 
 15 N      -10.0070     3.5250     0.2090 N.pl3 1 <1>   0.0480 
 16 N      -10.5030     5.3560    -0.8640 N.2   1 <1>  -0.3380 
 17 C      -10.9800     4.3600    -0.1890 C.2   1 <1>   0.0060 
 18 C      -10.0880     2.2700     0.9840 C.3   1 <1>   0.0160 
 19 C      -12.4560     4.1370     0.1290 C.3   1 <1>   0.0200 
 20 C      -13.3810     5.1640    -0.5360 C.3   1 <1>  -0.2400 
 21 H       -3.7860     1.7290     1.8500 H     1 <1>   0.1500 
 22 H        0.4500     2.0500     1.7460 H     1 <1>   0.1500 
 23 H        0.2730     3.8960     0.1000 H     1 <1>   0.1500 
 24 H       -5.0710     3.3150     0.7350 H     1 <1>   0.3700 
 25 H       -1.9230     4.6480    -0.6520 H     1 <1>   0.1500 
 26 H       -6.5560     4.5780    -2.1040 H     1 <1>   0.0800 
 27 H       -6.4420     5.6350    -0.7050 H     1 <1>   0.0800 
 28 H       -9.2430     2.2000     1.6440 H     1 <1>   0.0800 
 29 H      -10.0830     1.4350     0.3060 H     1 <1>   0.0800 
 30 H      -10.9910     2.2550     1.5660 H     1 <1>   0.0800 
 31 H      -12.5930     4.1860     1.1940 H     1 <1>   0.0800 
 32 H      -12.7390     3.1540    -0.2020 H     1 <1>   0.0800 
 33 H      -13.1360     6.1560    -0.2010 H     1 <1>   0.0800 
 34 H      -14.4070     4.9580    -0.2890 H     1 <1>   0.0800 
 35 H      -13.2680     5.1260    -1.6060 H     1 <1>   0.0800 
@<TRIPOS>BOND
  1   1   2  1   
  2   2   3  ar  
  3   2   4  ar  
  4   3   5  ar  
  5   3  21  1   
  6   4   6  ar  
  7   4  22  1   
  8   5   7  1   
  9   5   8  ar  
 10   6   8  ar  
 11   6  23  1   
 12   7   9  am  
 13   7  24  1   
 14   8  25  1   
 15   9  10  2   
 16   9  11  1   
 17  11  12  1   
 18  11  26  1   
 19  11  27  1   
 20  12  13  1   
 21  13  14  2   
 22  13  15  1   
 23  14  16  1   
 24  15  17  1   
 25  15  18  1   
 26  16  17  2   
 27  17  19  1   
 28  18  28  1   
 29  18  29  1   
 30  18  30  1   
 31  19  20  1   
 32  19  31  1   
 33  19  32  1   
 34  20  33  1   
 35  20  34  1   
 36  20  35  1   
@<TRIPOS>SUBSTRUCTURE
  1 ****  12 GROUP 4 **** **** 0

# MOE 2024.06 (io_trps.svl 2023.06)
