@<TRIPOS>MOLECULE
NONAME
45 46 1 0 0 
SMALL
USER_CHARGES


@<TRIPOS>ATOM
  1 CL       2.7380     2.1150     1.9200 Cl    1 <1>  -0.1770 
  2 C        1.4530     2.8400     0.9880 C.ar  1 <1>   0.1770 
  3 C        0.2060     2.9940     1.5630 C.ar  1 <1>  -0.1500 
  4 C        1.7030     3.2450    -0.3080 C.ar  1 <1>  -0.1500 
  5 C       -0.8390     3.5680     0.8440 C.ar  1 <1>  -0.0090 
  6 C        0.6780     3.8180    -1.0370 C.ar  1 <1>  -0.1500 
  7 S       -2.4740     3.7740     1.5950 S.o2  1 <1>   1.4470 
  8 C       -0.5760     3.9800    -0.4620 C.ar  1 <1>   0.0830 
  9 O       -2.8620     5.1680     1.5430 O.2   1 <1>  -0.6500 
 10 O       -2.4890     3.1050     2.8790 O.2   1 <1>  -0.6500 
 11 N       -3.5320     2.8990     0.5980 N.am  1 <1>  -0.8490 
 12 O       -1.5530     4.5300    -1.2090 O.3   1 <1>  -0.3630 
 13 C       -4.9340     3.2470     0.8650 C.3   1 <1>   0.1960 
 14 C       -3.3260     1.4520     0.6990 C.3   1 <1>   0.1960 
 15 C       -1.5260     5.9320    -1.3540 C.3   1 <1>   0.0400 
 16 C       -5.8510     2.6020    -0.1820 C.3   1 <1>  -0.0190 
 17 C       -4.1730     0.7280    -0.3530 C.3   1 <1>  -0.1600 
 18 C       -7.2970     2.9820     0.0930 C.2   1 <1>   0.5690 
 19 C       -5.6620     1.0730    -0.2060 C.3   1 <1>  -0.1600 
 20 O       -7.7600     2.8060     1.1950 O.2   1 <1>  -0.5700 
 21 N       -8.0450     3.5010    -0.9150 N.am  1 <1>  -0.7300 
 22 C       -9.4530     3.9440    -0.7630 C.3   1 <1>   0.1400 
 23 C      -10.4030     2.7570    -0.9450 C.3   1 <1>   0.1200 
 24 O      -11.7110     3.1860    -0.7720 O.3   1 <1>  -0.6800 
 25 H        0.0520     2.6660     2.5770 H     1 <1>   0.1500 
 26 H        2.6820     3.1110    -0.7340 H     1 <1>   0.1500 
 27 H        0.8430     4.1350    -2.0510 H     1 <1>   0.1500 
 28 H       -5.0610     4.3160     0.8170 H     1 <1>   0.0800 
 29 H       -5.2110     2.9230     1.8570 H     1 <1>   0.0800 
 30 H       -3.5950     1.1090     1.6860 H     1 <1>   0.0800 
 31 H       -2.2880     1.2180     0.5310 H     1 <1>   0.0800 
 32 H       -2.3920     6.2280    -1.9190 H     1 <1>   0.0800 
 33 H       -0.6300     6.2160    -1.8760 H     1 <1>   0.0800 
 34 H       -1.5540     6.3870    -0.3790 H     1 <1>   0.0800 
 35 H       -5.5720     3.0000    -1.1400 H     1 <1>   0.0800 
 36 H       -4.0370    -0.3340    -0.2510 H     1 <1>   0.0800 
 37 H       -3.8260     1.0130    -1.3310 H     1 <1>   0.0800 
 38 H       -6.2230     0.6440    -1.0170 H     1 <1>   0.0800 
 39 H       -6.0340     0.6560     0.7150 H     1 <1>   0.0800 
 40 H       -7.6390     3.6100    -1.8460 H     1 <1>   0.3700 
 41 H       -9.6690     4.7010    -1.4960 H     1 <1>   0.0800 
 42 H       -9.5840     4.3610     0.2210 H     1 <1>   0.0800 
 43 H      -10.1990     1.9890    -0.2180 H     1 <1>   0.0800 
 44 H      -10.3170     2.3530    -1.9380 H     1 <1>   0.0800 
 45 H      -11.8780     3.3980     0.1680 H     1 <1>   0.4000 
@<TRIPOS>BOND
  1   1   2  1   
  2   2   3  ar  
  3   2   4  ar  
  4   3   5  ar  
  5   3  25  1   
  6   4   6  ar  
  7   4  26  1   
  8   5   7  1   
  9   5   8  ar  
 10   6   8  ar  
 11   6  27  1   
 12   7   9  2   
 13   7  10  2   
 14   7  11  am  
 15   8  12  1   
 16  11  13  1   
 17  11  14  1   
 18  12  15  1   
 19  13  16  1   
 20  13  28  1   
 21  13  29  1   
 22  14  17  1   
 23  14  30  1   
 24  14  31  1   
 25  15  32  1   
 26  15  33  1   
 27  15  34  1   
 28  16  18  1   
 29  16  19  1   
 30  16  35  1   
 31  17  19  1   
 32  17  36  1   
 33  17  37  1   
 34  18  20  2   
 35  18  21  am  
 36  19  38  1   
 37  19  39  1   
 38  21  22  1   
 39  21  40  1   
 40  22  23  1   
 41  22  41  1   
 42  22  42  1   
 43  23  24  1   
 44  23  43  1   
 45  23  44  1   
 46  24  45  1   
@<TRIPOS>SUBSTRUCTURE
  1 ****  11 GROUP 4 **** **** 0

# MOE 2024.06 (io_trps.svl 2023.06)
