@<TRIPOS>MOLECULE
NONAME
35 35 1 0 0 
SMALL
USER_CHARGES


@<TRIPOS>ATOM
  1 CL      -0.8180     0.7520    -2.8580 Cl    1 <1>  -0.1770 
  2 C       -0.2770     2.0080    -1.7760 C.ar  1 <1>   0.1770 
  3 C        0.9270     2.6400    -2.0270 C.ar  1 <1>  -0.1500 
  4 C       -1.0550     2.3510    -0.6880 C.ar  1 <1>  -0.1500 
  5 C        1.3670     3.6380    -1.1700 C.ar  1 <1>  -0.1440 
  6 C       -0.6210     3.3460     0.1700 C.ar  1 <1>  -0.1500 
  7 C        0.5920     3.9930    -0.0650 C.ar  1 <1>   0.0830 
  8 C        2.6780     4.3440    -1.4370 C.3   1 <1>   0.4870 
  9 O        1.0780     4.9690     0.7500 O.3   1 <1>  -0.3630 
 10 N        3.5550     4.0770    -0.2770 N.4   1 <1>  -0.9060 
 11 C        0.2520     5.5780     1.7250 C.3   1 <1>   0.0400 
 12 C        4.8600     4.7640    -0.2210 C.3   1 <1>   0.5030 
 13 C        5.5760     4.3450     1.0970 C.3   1 <1>   0.1200 
 14 C        4.6170     6.2780    -0.2400 C.3   1 <1>  -0.2400 
 15 C        5.6830     4.3370    -1.4430 C.3   1 <1>  -0.2400 
 16 O        6.8280     4.9430     1.2130 O.3   1 <1>  -0.6800 
 17 H        1.4930     2.3390    -2.8920 H     1 <1>   0.1500 
 18 H       -1.9890     1.8430    -0.5200 H     1 <1>   0.1500 
 19 H       -1.2400     3.5950     1.0130 H     1 <1>   0.1500 
 20 H        2.4950     5.4010    -1.5370 H     1 <1>   0.0800 
 21 H        3.1250     3.9760    -2.3460 H     1 <1>   0.0800 
 22 H        3.6810     3.0660    -0.2000 H     1 <1>   0.4500 
 23 H        2.9860     4.3660     0.5330 H     1 <1>   0.4500 
 24 H        0.7950     6.3920     2.1720 H     1 <1>   0.0800 
 25 H        0.0010     4.8530     2.4800 H     1 <1>   0.0800 
 26 H       -0.6370     5.9550     1.2490 H     1 <1>   0.0800 
 27 H        5.7280     3.2790     1.1210 H     1 <1>   0.0800 
 28 H        4.9960     4.6460     1.9520 H     1 <1>   0.0800 
 29 H        5.5540     6.7960    -0.1290 H     1 <1>   0.0800 
 30 H        4.1880     6.6080    -1.1680 H     1 <1>   0.0800 
 31 H        3.9830     6.5770     0.5760 H     1 <1>   0.0800 
 32 H        5.2300     4.6550    -2.3650 H     1 <1>   0.0800 
 33 H        6.6560     4.7950    -1.3990 H     1 <1>   0.0800 
 34 H        5.8270     3.2720    -1.4590 H     1 <1>   0.0800 
 35 H        7.2820     4.6870     2.0440 H     1 <1>   0.4000 
@<TRIPOS>BOND
  1   1   2  1   
  2   2   3  ar  
  3   2   4  ar  
  4   3   5  ar  
  5   3  17  1   
  6   4   6  ar  
  7   4  18  1   
  8   5   7  ar  
  9   5   8  1   
 10   6   7  ar  
 11   6  19  1   
 12   7   9  1   
 13   8  10  1   
 14   8  20  1   
 15   8  21  1   
 16   9  11  1   
 17  10  12  1   
 18  10  22  1   
 19  10  23  1   
 20  11  24  1   
 21  11  25  1   
 22  11  26  1   
 23  12  13  1   
 24  12  14  1   
 25  12  15  1   
 26  13  16  1   
 27  13  27  1   
 28  13  28  1   
 29  14  29  1   
 30  14  30  1   
 31  14  31  1   
 32  15  32  1   
 33  15  33  1   
 34  15  34  1   
 35  16  35  1   
@<TRIPOS>SUBSTRUCTURE
  1 ****   5 GROUP 4 **** **** 0

# MOE 2024.06 (io_trps.svl 2023.06)
