@<TRIPOS>MOLECULE
NONAME
43 45 1 0 0 
SMALL
USER_CHARGES


@<TRIPOS>ATOM
  1 O        0.3970     0.0590     0.3200 O.2   1 <1>  -0.5700 
  2 C        0.8340     1.1940     0.3530 C.2   1 <1>   0.6900 
  3 N        2.1840     1.4170     0.4770 N.am  1 <1>  -0.6600 
  4 N        0.0000     2.2740     0.2990 N.am  1 <1>  -0.5470 
  5 C        3.1040     0.3380     0.9240 C.3   1 <1>   0.1400 
  6 C        2.8610     2.6600     0.0260 C.3   1 <1>   0.1400 
  7 C       -1.3710     2.3860     0.0330 C.ar  1 <1>   0.1170 
  8 C        4.2390     0.1870    -0.0890 C.3   1 <1>  -0.1600 
  9 C        4.0190     2.3030    -0.9060 C.3   1 <1>  -0.1600 
 10 C       -2.0480     3.5190     0.4690 C.ar  1 <1>  -0.1500 
 11 C       -2.0870     1.4250    -0.6690 C.ar  1 <1>  -0.1500 
 12 C        5.1220     1.4950    -0.1160 C.3   1 <1>   0.5600 
 13 C       -3.3990     3.6990     0.2210 C.ar  1 <1>  -0.1430 
 14 C       -3.4350     1.5920    -0.9210 C.ar  1 <1>  -0.1500 
 15 O        6.0810     0.8300     0.6710 O.3   1 <1>  -0.5600 
 16 O        5.9630     2.6210    -0.1760 O.3   1 <1>  -0.5600 
 17 C       -4.1020     2.7250    -0.4820 C.ar  1 <1>  -0.1430 
 18 C       -4.0850     4.9600     0.7260 C.3   1 <1>  -0.0970 
 19 C        7.3300     0.9140     0.0960 C.3   1 <1>   0.1200 
 20 C        7.2400     2.2590    -0.5430 C.3   1 <1>   0.1200 
 21 C       -5.5870     2.8710    -0.7800 C.3   1 <1>  -0.0970 
 22 H        0.4510     3.1230     0.6170 H     1 <1>   0.3700 
 23 H        2.5770    -0.5970     1.0180 H     1 <1>   0.0800 
 24 H        3.5080     0.5920     1.8890 H     1 <1>   0.0800 
 25 H        3.2360     3.1940     0.8840 H     1 <1>   0.0800 
 26 H        2.1730     3.2960    -0.5030 H     1 <1>   0.0800 
 27 H        3.8180    -0.0820    -1.0410 H     1 <1>   0.0800 
 28 H        4.7630    -0.7190     0.1810 H     1 <1>   0.0800 
 29 H        4.3430     3.2410    -1.3330 H     1 <1>   0.0800 
 30 H        3.6330     1.7910    -1.7690 H     1 <1>   0.0800 
 31 H       -1.5040     4.2670     1.0130 H     1 <1>   0.1500 
 32 H       -1.5910     0.5400    -1.0230 H     1 <1>   0.1500 
 33 H       -3.9610     0.8280    -1.4650 H     1 <1>   0.1500 
 34 H       -3.3930     5.5960     1.2470 H     1 <1>   0.0800 
 35 H       -4.8790     4.7010     1.4030 H     1 <1>   0.0800 
 36 H       -4.4940     5.5130    -0.1000 H     1 <1>   0.0800 
 37 H        7.4520     0.1250    -0.6250 H     1 <1>   0.0800 
 38 H        8.0810     0.8640     0.8640 H     1 <1>   0.0800 
 39 H        7.9430     2.9630    -0.1370 H     1 <1>   0.0800 
 40 H        7.3080     2.2080    -1.6160 H     1 <1>   0.0800 
 41 H       -5.7600     3.7560    -1.3650 H     1 <1>   0.0800 
 42 H       -6.1410     2.9410     0.1380 H     1 <1>   0.0800 
 43 H       -5.9540     2.0240    -1.3320 H     1 <1>   0.0800 
@<TRIPOS>BOND
  1   1   2  2   
  2   2   3  am  
  3   2   4  am  
  4   3   5  1   
  5   3   6  1   
  6   4   7  1   
  7   4  22  1   
  8   5   8  1   
  9   5  23  1   
 10   5  24  1   
 11   6   9  1   
 12   6  25  1   
 13   6  26  1   
 14   7  10  ar  
 15   7  11  ar  
 16   8  12  1   
 17   8  27  1   
 18   8  28  1   
 19   9  12  1   
 20   9  29  1   
 21   9  30  1   
 22  10  13  ar  
 23  10  31  1   
 24  11  14  ar  
 25  11  32  1   
 26  12  15  1   
 27  12  16  1   
 28  13  17  ar  
 29  13  18  1   
 30  14  17  ar  
 31  14  33  1   
 32  15  19  1   
 33  16  20  1   
 34  17  21  1   
 35  18  34  1   
 36  18  35  1   
 37  18  36  1   
 38  19  20  1   
 39  19  37  1   
 40  19  38  1   
 41  20  39  1   
 42  20  40  1   
 43  21  41  1   
 44  21  42  1   
 45  21  43  1   
@<TRIPOS>SUBSTRUCTURE
  1 ****   2 GROUP 4 **** **** 0

# MOE 2024.06 (io_trps.svl 2023.06)
