@<TRIPOS>MOLECULE
NONAME
31 33 1 0 0 
SMALL
USER_CHARGES


@<TRIPOS>ATOM
  1 O       -0.5320    -0.6060     1.7100 O.2   1 <1>  -0.5700 
  2 C       -0.7440    -1.4910     0.9060 C.2   1 <1>   0.5440 
  3 N        0.2370    -2.3000     0.3880 N.am  1 <1>  -0.4200 
  4 C       -2.0090    -1.8720     0.3420 C.ar  1 <1>   0.0860 
  5 C       -0.3510    -3.1820    -0.4870 C.2   1 <1>   0.5440 
  6 C        1.6720    -2.1890     0.7520 C.3   1 <1>   0.2200 
  7 C       -1.7600    -2.9240    -0.5240 C.ar  1 <1>   0.0860 
  8 C       -3.3020    -1.4000     0.5120 C.ar  1 <1>  -0.1500 
  9 O        0.2390    -4.0330    -1.1210 O.2   1 <1>  -0.5700 
 10 C        2.5320    -1.7880    -0.4550 C.3   1 <1>  -0.1600 
 11 C        2.2450    -3.5130     1.2770 C.3   1 <1>  -0.1600 
 12 C       -2.8030    -3.5120    -1.2260 C.ar  1 <1>  -0.1500 
 13 C       -4.3720    -1.9720    -0.1800 C.ar  1 <1>  -0.1790 
 14 C        3.7800    -2.6660    -0.3840 C.3   1 <1>  -0.1600 
 15 C        3.2940    -3.9600     0.2580 C.3   1 <1>  -0.1600 
 16 C       -4.0880    -3.0350    -1.0490 C.ar  1 <1>  -0.1500 
 17 C       -5.7330    -1.4830    -0.0080 C.2   1 <1>   0.9790 
 18 O       -6.6750    -2.0040    -0.6300 O.co2 1 <1>  -0.9000 
 19 O       -5.9700    -0.5380     0.7640 O.co2 1 <1>  -0.9000 
 20 H        1.7840    -1.4430     1.5220 H     1 <1>   0.0800 
 21 H       -3.4870    -0.5800     1.1880 H     1 <1>   0.1500 
 22 H        2.7880    -0.7430    -0.4230 H     1 <1>   0.0800 
 23 H        2.0150    -1.9970    -1.3750 H     1 <1>   0.0800 
 24 H        1.4910    -4.2660     1.4220 H     1 <1>   0.0800 
 25 H        2.7330    -3.3260     2.2170 H     1 <1>   0.0800 
 26 H       -2.6030    -4.3290    -1.8970 H     1 <1>   0.1500 
 27 H        4.5140    -2.2020     0.2530 H     1 <1>   0.0800 
 28 H        4.2100    -2.8350    -1.3560 H     1 <1>   0.0800 
 29 H        2.8220    -4.5730    -0.4930 H     1 <1>   0.0800 
 30 H        4.0950    -4.5150     0.7140 H     1 <1>   0.0800 
 31 H       -4.9080    -3.4830    -1.5890 H     1 <1>   0.1500 
@<TRIPOS>BOND
  1   1   2  2   
  2   2   3  am  
  3   2   4  1   
  4   3   5  am  
  5   3   6  1   
  6   4   7  ar  
  7   4   8  ar  
  8   5   7  1   
  9   5   9  2   
 10   6  10  1   
 11   6  11  1   
 12   6  20  1   
 13   7  12  ar  
 14   8  13  ar  
 15   8  21  1   
 16  10  14  1   
 17  10  22  1   
 18  10  23  1   
 19  11  15  1   
 20  11  24  1   
 21  11  25  1   
 22  12  16  ar  
 23  12  26  1   
 24  13  16  ar  
 25  13  17  1   
 26  14  15  1   
 27  14  27  1   
 28  14  28  1   
 29  15  29  1   
 30  15  30  1   
 31  16  31  1   
 32  17  18  ar  
 33  17  19  ar  
@<TRIPOS>SUBSTRUCTURE
  1 ****   4 GROUP 4 **** **** 0

# MOE 2024.06 (io_trps.svl 2023.06)
