@<TRIPOS>MOLECULE
NONAME
44 45 1 0 0 
SMALL
USER_CHARGES


@<TRIPOS>ATOM
  1 S       -0.1130    -0.0100    -2.1030 S.3   1 <1>  -0.3610 
  2 C        0.4980    -0.0730    -0.4750 C.cat 1 <1>   0.8400 
  3 C       -1.1530    -1.5140    -1.9340 C.3   1 <1>   0.2110 
  4 N        1.3710     0.8070    -0.0550 N.pl3 1 <1>  -0.7940 
  5 N       -0.0220    -1.0820     0.2080 N.pl3 1 <1>  -0.7250 
  6 C       -0.9010    -1.9080    -0.4790 C.2   1 <1>   0.8900 
  7 C       -2.6000    -1.1460    -2.2770 C.3   1 <1>  -0.0990 
  8 C        1.9810     1.9270    -0.8110 C.3   1 <1>   0.3290 
  9 C        0.2760    -1.3880     1.6290 C.3   1 <1>   0.3300 
 10 O       -1.4230    -2.8590     0.0320 O.2   1 <1>  -0.5700 
 11 C       -3.4470    -2.3990    -2.2450 C.2   1 <1>   0.5690 
 12 C        3.4940     1.8150    -0.6860 C.3   1 <1>  -0.2400 
 13 C        1.4800    -2.3230     1.7020 C.3   1 <1>  -0.2400 
 14 O       -3.1940    -3.2630    -3.0410 O.2   1 <1>  -0.5700 
 15 N       -4.4260    -2.5800    -1.3250 N.am  1 <1>  -0.5470 
 16 C       -4.8220    -1.7600    -0.2690 C.ar  1 <1>   0.1170 
 17 C       -5.5400    -0.5950    -0.5050 C.ar  1 <1>  -0.1500 
 18 C       -4.5050    -2.1060     1.0350 C.ar  1 <1>  -0.1500 
 19 C       -5.9390     0.2310     0.5400 C.ar  1 <1>  -0.1440 
 20 C       -4.8900    -1.2960     2.0860 C.ar  1 <1>  -0.1500 
 21 C       -5.6000    -0.1330     1.8410 C.ar  1 <1>  -0.1500 
 22 C       -6.7310     1.5170     0.2510 C.3   1 <1>   1.1630 
 23 F       -7.3970     1.9720     1.3050 F     1 <1>  -0.3400 
 24 F       -5.9320     2.5000    -0.1420 F     1 <1>  -0.3400 
 25 F       -7.6270     1.3550    -0.7150 F     1 <1>  -0.3400 
 26 H       -0.7610    -2.2590    -2.6030 H     1 <1>   0.0800 
 27 H        1.7320     0.7490     0.8960 H     1 <1>   0.4500 
 28 H       -2.9710    -0.4040    -1.5950 H     1 <1>   0.0800 
 29 H       -2.6420    -0.7440    -3.2730 H     1 <1>   0.0800 
 30 H        1.7040     1.9020    -1.8520 H     1 <1>   0.0800 
 31 H        1.6480     2.8650    -0.3970 H     1 <1>   0.0800 
 32 H        0.4850    -0.4800     2.1690 H     1 <1>   0.0800 
 33 H       -0.5750    -1.8530     2.1010 H     1 <1>   0.0800 
 34 H        3.8400     0.8840    -1.1000 H     1 <1>   0.0800 
 35 H        3.8030     1.8910     0.3420 H     1 <1>   0.0800 
 36 H        3.9580     2.6160    -1.2330 H     1 <1>   0.0800 
 37 H        2.3480    -1.8760     1.2510 H     1 <1>   0.0800 
 38 H        1.2610    -3.2550     1.2120 H     1 <1>   0.0800 
 39 H        1.7070    -2.5370     2.7320 H     1 <1>   0.0800 
 40 H       -4.8510    -3.5100    -1.3670 H     1 <1>   0.3700 
 41 H       -5.7920    -0.3420    -1.5220 H     1 <1>   0.1500 
 42 H       -3.9560    -3.0130     1.2260 H     1 <1>   0.1500 
 43 H       -4.6440    -1.5720     3.0980 H     1 <1>   0.1500 
 44 H       -5.8920     0.4830     2.6770 H     1 <1>   0.1500 
@<TRIPOS>BOND
  1   1   2  1   
  2   1   3  1   
  3   2   4  ar  
  4   2   5  ar  
  5   3   6  1   
  6   3   7  1   
  7   3  26  1   
  8   4   8  1   
  9   4  27  1   
 10   5   6  1   
 11   5   9  1   
 12   6  10  2   
 13   7  11  1   
 14   7  28  1   
 15   7  29  1   
 16   8  12  1   
 17   8  30  1   
 18   8  31  1   
 19   9  13  1   
 20   9  32  1   
 21   9  33  1   
 22  11  14  2   
 23  11  15  am  
 24  12  34  1   
 25  12  35  1   
 26  12  36  1   
 27  13  37  1   
 28  13  38  1   
 29  13  39  1   
 30  15  16  1   
 31  15  40  1   
 32  16  17  ar  
 33  16  18  ar  
 34  17  19  ar  
 35  17  41  1   
 36  18  20  ar  
 37  18  42  1   
 38  19  21  ar  
 39  19  22  1   
 40  20  21  ar  
 41  20  43  1   
 42  21  44  1   
 43  22  23  1   
 44  22  24  1   
 45  22  25  1   
@<TRIPOS>SUBSTRUCTURE
  1 ****   7 GROUP 4 **** **** 0

# MOE 2024.06 (io_trps.svl 2023.06)
