@<TRIPOS>MOLECULE
NONAME
48 50 1 0 0 
SMALL
USER_CHARGES


@<TRIPOS>ATOM
  1 CL      -0.7890    -0.7320    -1.3750 Cl    1 <1>  -0.1770 
  2 C       -2.4010    -0.1800    -0.9860 C.ar  1 <1>   0.1770 
  3 C       -2.5990     1.1380    -0.6250 C.ar  1 <1>  -0.1500 
  4 C       -3.4510    -1.0760    -1.0460 C.ar  1 <1>  -0.1500 
  5 C       -3.8780     1.5800    -0.3160 C.ar  1 <1>   0.1170 
  6 C       -4.7280    -0.6410    -0.7360 C.ar  1 <1>  -0.1500 
  7 N       -4.1880     2.8950     0.0640 N.am  1 <1>  -0.5470 
  8 C       -4.9560     0.6800    -0.3690 C.ar  1 <1>   0.1000 
  9 C       -3.4790     4.0640     0.1710 C.2   1 <1>   0.5440 
 10 N       -6.2530     1.1250    -0.0510 N.pl3 1 <1>  -0.8380 
 11 O       -2.3100     4.1000    -0.1610 O.2   1 <1>  -0.5700 
 12 C       -4.1430     5.2600     0.6620 C.ar  1 <1>   0.0860 
 13 C       -6.8680     0.6310     1.2260 C.3   1 <1>   0.2090 
 14 C       -7.2140     1.3220    -1.1850 C.3   1 <1>   0.2090 
 15 C       -3.6930     6.5290     0.2950 C.ar  1 <1>  -0.1500 
 16 C       -5.2510     5.1980     1.5130 C.ar  1 <1>  -0.1500 
 17 C       -7.8460    -0.5360     1.0090 C.3   1 <1>   0.1400 
 18 C       -8.1900     0.1420    -1.3590 C.3   1 <1>   0.1400 
 19 C       -4.3200     7.6790     0.7390 C.ar  1 <1>  -0.1500 
 20 C       -5.8830     6.3440     1.9610 C.ar  1 <1>  -0.1500 
 21 N       -8.8410    -0.2150    -0.0610 N.am  1 <1>  -0.6600 
 22 C       -5.4200     7.5880     1.5730 C.ar  1 <1>  -0.1500 
 23 C      -10.1820    -0.1340     0.2180 C.2   1 <1>   0.5690 
 24 O      -10.5960    -0.2850     1.3430 O.2   1 <1>  -0.5700 
 25 C      -11.1810     0.1630    -0.8990 C.3   1 <1>  -0.0990 
 26 C      -12.6610     0.0560    -0.4900 C.3   1 <1>  -0.2400 
 27 H       -1.7560     1.8020    -0.5890 H     1 <1>   0.1500 
 28 H       -3.2660    -2.0970    -1.3310 H     1 <1>   0.1500 
 29 H       -5.5480    -1.3300    -0.7810 H     1 <1>   0.1500 
 30 H       -5.1920     2.9590     0.2480 H     1 <1>   0.3700 
 31 H       -7.3990     1.4420     1.6930 H     1 <1>   0.0800 
 32 H       -6.0900     0.3190     1.9020 H     1 <1>   0.0800 
 33 H       -6.6620     1.4640    -2.0990 H     1 <1>   0.0800 
 34 H       -7.7810     2.2180    -1.0050 H     1 <1>   0.0800 
 35 H       -2.8350     6.6100    -0.3520 H     1 <1>   0.1500 
 36 H       -5.6230     4.2440     1.8400 H     1 <1>   0.1500 
 37 H       -8.3420    -0.7530     1.9390 H     1 <1>   0.0800 
 38 H       -7.2970    -1.4150     0.7270 H     1 <1>   0.0800 
 39 H       -7.6470    -0.7110    -1.7250 H     1 <1>   0.0800 
 40 H       -8.9190     0.4040    -2.1020 H     1 <1>   0.0800 
 41 H       -3.9510     8.6450     0.4380 H     1 <1>   0.1500 
 42 H       -6.7360     6.2720     2.6140 H     1 <1>   0.1500 
 43 H       -5.9100     8.4820     1.9200 H     1 <1>   0.1500 
 44 H      -11.0040    -0.5280    -1.7020 H     1 <1>   0.0800 
 45 H      -10.9970     1.1580    -1.2590 H     1 <1>   0.0800 
 46 H      -12.8760    -0.9350    -0.1300 H     1 <1>   0.0800 
 47 H      -13.2990     0.2670    -1.3290 H     1 <1>   0.0800 
 48 H      -12.8810     0.7580     0.2970 H     1 <1>   0.0800 
@<TRIPOS>BOND
  1   1   2  1   
  2   2   3  ar  
  3   2   4  ar  
  4   3   5  ar  
  5   3  27  1   
  6   4   6  ar  
  7   4  28  1   
  8   5   7  1   
  9   5   8  ar  
 10   6   8  ar  
 11   6  29  1   
 12   7   9  am  
 13   7  30  1   
 14   8  10  1   
 15   9  11  2   
 16   9  12  1   
 17  10  13  1   
 18  10  14  1   
 19  12  15  ar  
 20  12  16  ar  
 21  13  17  1   
 22  13  31  1   
 23  13  32  1   
 24  14  18  1   
 25  14  33  1   
 26  14  34  1   
 27  15  19  ar  
 28  15  35  1   
 29  16  20  ar  
 30  16  36  1   
 31  17  21  1   
 32  17  37  1   
 33  17  38  1   
 34  18  21  1   
 35  18  39  1   
 36  18  40  1   
 37  19  22  ar  
 38  19  41  1   
 39  20  22  ar  
 40  20  42  1   
 41  21  23  am  
 42  22  43  1   
 43  23  24  2   
 44  23  25  1   
 45  25  26  1   
 46  25  44  1   
 47  25  45  1   
 48  26  46  1   
 49  26  47  1   
 50  26  48  1   
@<TRIPOS>SUBSTRUCTURE
  1 ****  10 GROUP 4 **** **** 0

# MOE 2024.06 (io_trps.svl 2023.06)
