@<TRIPOS>MOLECULE
NONAME
44 45 1 0 0 
SMALL
USER_CHARGES


@<TRIPOS>ATOM
  1 S        0.0250     0.0060    -0.0400 S.o2  1 <1>   1.3330 
  2 O        0.2580    -0.1640     1.3780 O.2   1 <1>  -0.6500 
  3 O        0.5650    -0.9580    -0.9720 O.2   1 <1>  -0.6500 
  4 N       -1.6530     0.0870    -0.2710 N.am  1 <1>  -0.8490 
  5 C        0.5720     1.6430    -0.5490 C.3   1 <1>  -0.0550 
  6 C       -2.3440     0.6840     0.8780 C.3   1 <1>   0.1960 
  7 C       -2.2190    -1.2190    -0.6240 C.3   1 <1>   0.1960 
  8 C        2.0910     1.8680    -0.4470 C.3   1 <1>  -0.2400 
  9 C       -3.8250     0.8930     0.5580 C.3   1 <1>  -0.1600 
 10 C       -3.7040    -1.0850    -0.9740 C.3   1 <1>  -0.1600 
 11 C       -4.4990    -0.4330     0.1690 C.3   1 <1>  -0.0190 
 12 C       -5.9670    -0.2400    -0.2110 C.2   1 <1>   0.5690 
 13 O       -6.2490     0.5780    -1.0500 O.2   1 <1>  -0.5700 
 14 N       -6.8930    -1.0270     0.4190 N.am  1 <1>  -0.5470 
 15 C       -8.2930    -1.0590     0.3130 C.ar  1 <1>   0.1170 
 16 C       -9.0480     0.0280    -0.1150 C.ar  1 <1>  -0.1500 
 17 C       -8.9600    -2.2270     0.6710 C.ar  1 <1>  -0.1500 
 18 C      -10.4250    -0.0600    -0.1810 C.ar  1 <1>   0.1010 
 19 C      -10.3400    -2.3140     0.6030 C.ar  1 <1>  -0.1500 
 20 S      -11.3170     1.4030    -0.7420 S.3   1 <1>  -0.3320 
 21 C      -11.0830    -1.2270     0.1750 C.ar  1 <1>  -0.1500 
 22 C      -13.1090     0.9600    -0.7720 C.3   1 <1>  -0.0100 
 23 H        0.0780     2.3800     0.0530 H     1 <1>   0.0800 
 24 H        0.2700     1.8020    -1.5670 H     1 <1>   0.0800 
 25 H       -1.8990     1.6360     1.1150 H     1 <1>   0.0800 
 26 H       -2.2430     0.0440     1.7400 H     1 <1>   0.0800 
 27 H       -2.0840    -1.9070     0.1950 H     1 <1>   0.0800 
 28 H       -1.7060    -1.6190    -1.4840 H     1 <1>   0.0800 
 29 H        2.4170     1.7380     0.5710 H     1 <1>   0.0800 
 30 H        2.3430     2.8630    -0.7690 H     1 <1>   0.0800 
 31 H        2.6120     1.1590    -1.0670 H     1 <1>   0.0800 
 32 H       -3.9100     1.6000    -0.2500 H     1 <1>   0.0800 
 33 H       -4.3210     1.3150     1.4150 H     1 <1>   0.0800 
 34 H       -4.1070    -2.0570    -1.1930 H     1 <1>   0.0800 
 35 H       -3.7940    -0.4870    -1.8650 H     1 <1>   0.0800 
 36 H       -4.4510    -1.0870     1.0220 H     1 <1>   0.0800 
 37 H       -6.5080    -1.7330     1.0410 H     1 <1>   0.3700 
 38 H       -8.5740     0.9500    -0.3960 H     1 <1>   0.1500 
 39 H       -8.3990    -3.0800     1.0030 H     1 <1>   0.1500 
 40 H      -10.8380    -3.2260     0.8830 H     1 <1>   0.1500 
 41 H      -12.1510    -1.3040     0.1260 H     1 <1>   0.1500 
 42 H      -13.6490     1.8200    -1.1220 H     1 <1>   0.0800 
 43 H      -13.4050     0.7050     0.2300 H     1 <1>   0.0800 
 44 H      -13.2350     0.1300    -1.4440 H     1 <1>   0.0800 
@<TRIPOS>BOND
  1   1   2  2   
  2   1   3  2   
  3   1   4  am  
  4   1   5  1   
  5   4   6  1   
  6   4   7  1   
  7   5   8  1   
  8   5  23  1   
  9   5  24  1   
 10   6   9  1   
 11   6  25  1   
 12   6  26  1   
 13   7  10  1   
 14   7  27  1   
 15   7  28  1   
 16   8  29  1   
 17   8  30  1   
 18   8  31  1   
 19   9  11  1   
 20   9  32  1   
 21   9  33  1   
 22  10  11  1   
 23  10  34  1   
 24  10  35  1   
 25  11  12  1   
 26  11  36  1   
 27  12  13  2   
 28  12  14  am  
 29  14  15  1   
 30  14  37  1   
 31  15  16  ar  
 32  15  17  ar  
 33  16  18  ar  
 34  16  38  1   
 35  17  19  ar  
 36  17  39  1   
 37  18  20  1   
 38  18  21  ar  
 39  19  21  ar  
 40  19  40  1   
 41  20  22  1   
 42  21  41  1   
 43  22  42  1   
 44  22  43  1   
 45  22  44  1   
@<TRIPOS>SUBSTRUCTURE
  1 ****  12 GROUP 4 **** **** 0

# MOE 2024.06 (io_trps.svl 2023.06)
