@<TRIPOS>MOLECULE
NONAME
34 34 1 0 0 
SMALL
USER_CHARGES


@<TRIPOS>ATOM
  1 P        0.0700     0.4200     0.4240 P.3   1 <1>   1.5180 
  2 O        0.0430    -0.0910     1.7900 O.2   1 <1>  -0.7000 
  3 O        0.2640     2.0000     0.2770 O.3   1 <1>  -0.5510 
  4 O       -1.2450     0.1040    -0.4280 O.3   1 <1>  -0.5510 
  5 N        1.2950    -0.2020    -0.5820 N.pl3 1 <1>  -0.7760 
  6 C       -0.6320     2.8480     0.8960 C.3   1 <1>   0.1200 
  7 C       -1.7280    -1.1890    -0.4720 C.3   1 <1>   0.1200 
  8 C        2.6400    -0.3580    -0.2760 C.ar  1 <1>   0.1000 
  9 C       -0.2000     4.2790     0.5970 C.3   1 <1>  -0.2400 
 10 C       -2.9690    -1.1930    -1.3570 C.3   1 <1>  -0.2400 
 11 C        3.5960    -0.0730    -1.2430 C.ar  1 <1>  -0.1500 
 12 C        3.0670    -0.8010     0.9700 C.ar  1 <1>  -0.1500 
 13 C        4.9560    -0.2120    -0.9880 C.ar  1 <1>  -0.1430 
 14 C        4.4140    -0.9410     1.2440 C.ar  1 <1>  -0.1500 
 15 C        5.3550    -0.6470     0.2730 C.ar  1 <1>  -0.1500 
 16 C        5.9920     0.1190    -2.0730 C.3   1 <1>   1.1630 
 17 F        7.1330    -0.5450    -1.9230 F     1 <1>  -0.3400 
 18 F        5.5600    -0.1630    -3.2970 F     1 <1>  -0.3400 
 19 F        6.3090     1.4070    -2.0790 F     1 <1>  -0.3400 
 20 H        1.1150     0.1370    -1.5200 H     1 <1>   0.4000 
 21 H       -0.6130     2.6550     1.9570 H     1 <1>   0.0800 
 22 H       -1.6190     2.6560     0.5070 H     1 <1>   0.0800 
 23 H       -1.9710    -1.5010     0.5310 H     1 <1>   0.0800 
 24 H       -0.9650    -1.8340    -0.8780 H     1 <1>   0.0800 
 25 H        0.7910     4.4530     0.9780 H     1 <1>   0.0800 
 26 H       -0.8750     4.9690     1.0700 H     1 <1>   0.0800 
 27 H       -0.2140     4.4570    -0.4630 H     1 <1>   0.0800 
 28 H       -3.7190    -0.5410    -0.9460 H     1 <1>   0.0800 
 29 H       -3.3720    -2.1870    -1.4120 H     1 <1>   0.0800 
 30 H       -2.7180    -0.8690    -2.3520 H     1 <1>   0.0800 
 31 H        3.2640     0.2670    -2.2080 H     1 <1>   0.1500 
 32 H        2.3490    -1.0430     1.7330 H     1 <1>   0.1500 
 33 H        4.7290    -1.2810     2.2150 H     1 <1>   0.1500 
 34 H        6.4000    -0.7610     0.5100 H     1 <1>   0.1500 
@<TRIPOS>BOND
  1   1   2  2   
  2   1   3  1   
  3   1   4  1   
  4   1   5  1   
  5   3   6  1   
  6   4   7  1   
  7   5   8  1   
  8   5  20  1   
  9   6   9  1   
 10   6  21  1   
 11   6  22  1   
 12   7  10  1   
 13   7  23  1   
 14   7  24  1   
 15   8  11  ar  
 16   8  12  ar  
 17   9  25  1   
 18   9  26  1   
 19   9  27  1   
 20  10  28  1   
 21  10  29  1   
 22  10  30  1   
 23  11  13  ar  
 24  11  31  1   
 25  12  14  ar  
 26  12  32  1   
 27  13  15  ar  
 28  13  16  1   
 29  14  15  ar  
 30  14  33  1   
 31  15  34  1   
 32  16  17  1   
 33  16  18  1   
 34  16  19  1   
@<TRIPOS>SUBSTRUCTURE
  1 ****   8 GROUP 4 **** **** 0

# MOE 2024.06 (io_trps.svl 2023.06)
