@<TRIPOS>MOLECULE
NONAME
47 49 1 0 0 
SMALL
USER_CHARGES


@<TRIPOS>ATOM
  1 F        0.0650    -3.4410     2.1170 F     1 <1>  -0.1900 
  2 C       -0.3740    -2.6520     1.1660 C.ar  1 <1>   0.1900 
  3 C        0.5440    -2.1420     0.2430 C.ar  1 <1>   0.1170 
  4 C       -1.7240    -2.3680     1.1370 C.ar  1 <1>  -0.1500 
  5 N        1.9050    -2.4900     0.3580 N.am  1 <1>  -0.5470 
  6 C        0.0440    -1.2970    -0.7500 C.ar  1 <1>  -0.1500 
  7 C       -2.1650    -1.5300     0.1330 C.ar  1 <1>   0.1900 
  8 C        2.9830    -2.3020    -0.4490 C.2   1 <1>   0.6900 
  9 C       -1.3080    -0.9900    -0.8090 C.ar  1 <1>  -0.1500 
 10 F       -3.4370    -1.2360     0.0710 F     1 <1>  -0.1900 
 11 O        2.9180    -1.7570    -1.5330 O.2   1 <1>  -0.5700 
 12 N        4.2020    -2.7080     0.0080 N.am  1 <1>  -0.6600 
 13 C        5.1720    -3.2400    -0.9930 C.3   1 <1>   0.1400 
 14 C        4.8480    -1.8710     1.0570 C.3   1 <1>   0.1400 
 15 C        5.9400    -2.0820    -1.6630 C.3   1 <1>   0.3430 
 16 C        5.6190    -0.7060     0.4010 C.3   1 <1>   0.3430 
 17 N        6.5940    -1.1790    -0.6500 N.4   1 <1>  -0.9590 
 18 C        7.2680    -0.0290    -1.3110 C.3   1 <1>   0.4860 
 19 C        8.0950     0.6980    -0.2680 C.ar  1 <1>  -0.1430 
 20 C        9.3160     0.2010     0.1820 C.ar  1 <1>  -0.1430 
 21 C        7.6020     1.8880     0.2530 C.ar  1 <1>  -0.1500 
 22 C       10.0090     0.8940     1.1630 C.ar  1 <1>  -0.1500 
 23 C        9.9420    -1.0770    -0.3680 C.3   1 <1>  -0.0970 
 24 C        8.3040     2.5710     1.2290 C.ar  1 <1>  -0.1500 
 25 C        9.5060     2.0700     1.6870 C.ar  1 <1>  -0.1500 
 26 H       -2.4030    -2.7770     1.8610 H     1 <1>   0.1500 
 27 H        2.1060    -3.1050     1.1460 H     1 <1>   0.3700 
 28 H        0.6990    -0.8710    -1.4870 H     1 <1>   0.1500 
 29 H       -1.6940    -0.3410    -1.5750 H     1 <1>   0.1500 
 30 H        4.6390    -3.7940    -1.7480 H     1 <1>   0.0800 
 31 H        5.8570    -3.9160    -0.5120 H     1 <1>   0.0800 
 32 H        5.5190    -2.4760     1.6430 H     1 <1>   0.0800 
 33 H        4.1000    -1.4710     1.7200 H     1 <1>   0.0800 
 34 H        5.2370    -1.5150    -2.2530 H     1 <1>   0.0800 
 35 H        6.6810    -2.4880    -2.3310 H     1 <1>   0.0800 
 36 H        6.1430    -0.1560     1.1660 H     1 <1>   0.0800 
 37 H        4.9010    -0.0400    -0.0500 H     1 <1>   0.0800 
 38 H        7.3330    -1.6950    -0.1600 H     1 <1>   0.4500 
 39 H        6.5370     0.6390    -1.7360 H     1 <1>   0.0800 
 40 H        7.9130    -0.3760    -2.1010 H     1 <1>   0.0800 
 41 H        6.6700     2.3020    -0.0930 H     1 <1>   0.1500 
 42 H       10.9530     0.5270     1.5290 H     1 <1>   0.1500 
 43 H        9.8640    -1.1150    -1.4390 H     1 <1>   0.0800 
 44 H        9.4710    -1.9420     0.0600 H     1 <1>   0.0800 
 45 H       10.9890    -1.1160    -0.1230 H     1 <1>   0.0800 
 46 H        7.9200     3.4930     1.6310 H     1 <1>   0.1500 
 47 H       10.0560     2.5990     2.4470 H     1 <1>   0.1500 
@<TRIPOS>BOND
  1   1   2  1   
  2   2   3  ar  
  3   2   4  ar  
  4   3   5  1   
  5   3   6  ar  
  6   4   7  ar  
  7   4  26  1   
  8   5   8  am  
  9   5  27  1   
 10   6   9  ar  
 11   6  28  1   
 12   7   9  ar  
 13   7  10  1   
 14   8  11  2   
 15   8  12  am  
 16   9  29  1   
 17  12  13  1   
 18  12  14  1   
 19  13  15  1   
 20  13  30  1   
 21  13  31  1   
 22  14  16  1   
 23  14  32  1   
 24  14  33  1   
 25  15  17  1   
 26  15  34  1   
 27  15  35  1   
 28  16  17  1   
 29  16  36  1   
 30  16  37  1   
 31  17  18  1   
 32  17  38  1   
 33  18  19  1   
 34  18  39  1   
 35  18  40  1   
 36  19  20  ar  
 37  19  21  ar  
 38  20  22  ar  
 39  20  23  1   
 40  21  24  ar  
 41  21  41  1   
 42  22  25  ar  
 43  22  42  1   
 44  23  43  1   
 45  23  44  1   
 46  23  45  1   
 47  24  25  ar  
 48  24  46  1   
 49  25  47  1   
@<TRIPOS>SUBSTRUCTURE
  1 ****  14 GROUP 4 **** **** 0

# MOE 2024.06 (io_trps.svl 2023.06)
