@<TRIPOS>MOLECULE
NONAME
40 42 1 0 0 
SMALL
USER_CHARGES


@<TRIPOS>ATOM
  1 CL      -2.2360     0.7190     1.5630 Cl    1 <1>  -0.1770 
  2 C       -1.1630     1.9220     0.8870 C.ar  1 <1>   0.1770 
  3 C       -1.4430     2.4750    -0.3540 C.ar  1 <1>  -0.1440 
  4 C       -0.0570     2.3090     1.6190 C.ar  1 <1>  -0.1500 
  5 C       -0.5820     3.4370    -0.8650 C.ar  1 <1>  -0.1500 
  6 C       -2.6650     2.0350    -1.1340 C.3   1 <1>   0.4870 
  7 C        0.7930     3.2720     1.1020 C.ar  1 <1>  -0.1500 
  8 C        0.5290     3.8320    -0.1370 C.ar  1 <1>  -0.1500 
  9 N       -3.8900     2.4910    -0.4230 N.4   1 <1>  -0.9590 
 10 C       -5.1440     1.9370    -1.0520 C.3   1 <1>   0.3430 
 11 C       -3.9540     3.9970    -0.3020 C.3   1 <1>   0.3430 
 12 C       -6.4250     2.4060    -0.3280 C.3   1 <1>   0.2090 
 13 C       -5.2280     4.4780     0.4240 C.3   1 <1>   0.2090 
 14 N       -6.4480     3.8920    -0.2050 N.pl3 1 <1>  -0.8380 
 15 C       -7.6620     4.4580     0.1670 C.ar  1 <1>   0.1000 
 16 C       -8.3840     5.1960    -0.7660 C.ar  1 <1>  -0.1500 
 17 C       -8.1710     4.3000     1.4560 C.ar  1 <1>  -0.1500 
 18 C       -9.5970     5.7710    -0.4280 C.ar  1 <1>  -0.1500 
 19 C       -9.3820     4.8690     1.8090 C.ar  1 <1>  -0.1500 
 20 C      -10.0730     5.5960     0.8570 C.ar  1 <1>   0.1900 
 21 F      -11.2190     6.1370     1.1850 F     1 <1>  -0.1900 
 22 H        0.1400     1.8640     2.5790 H     1 <1>   0.1500 
 23 H       -0.7560     3.8860    -1.8290 H     1 <1>   0.1500 
 24 H       -2.6640     0.9590    -1.2130 H     1 <1>   0.0800 
 25 H       -2.6360     2.4500    -2.1280 H     1 <1>   0.0800 
 26 H        1.6600     3.5830     1.6610 H     1 <1>   0.1500 
 27 H        1.1980     4.5780    -0.5350 H     1 <1>   0.1500 
 28 H       -3.8240     2.1120     0.5330 H     1 <1>   0.4500 
 29 H       -5.1150     0.8590    -1.0460 H     1 <1>   0.0800 
 30 H       -5.2070     2.2610    -2.0770 H     1 <1>   0.0800 
 31 H       -3.9460     4.4380    -1.2850 H     1 <1>   0.0800 
 32 H       -3.0910     4.3620     0.2300 H     1 <1>   0.0800 
 33 H       -6.4780     1.9590     0.6500 H     1 <1>   0.0800 
 34 H       -7.2890     2.0840    -0.8850 H     1 <1>   0.0800 
 35 H       -5.2850     5.5530     0.3710 H     1 <1>   0.0800 
 36 H       -5.1840     4.2000     1.4630 H     1 <1>   0.0800 
 37 H       -7.9880     5.3150    -1.7580 H     1 <1>   0.1500 
 38 H       -7.6200     3.7320     2.1810 H     1 <1>   0.1500 
 39 H      -10.1630     6.3430    -1.1400 H     1 <1>   0.1500 
 40 H       -9.7890     4.7570     2.7980 H     1 <1>   0.1500 
@<TRIPOS>BOND
  1   1   2  1   
  2   2   3  ar  
  3   2   4  ar  
  4   3   5  ar  
  5   3   6  1   
  6   4   7  ar  
  7   4  22  1   
  8   5   8  ar  
  9   5  23  1   
 10   6   9  1   
 11   6  24  1   
 12   6  25  1   
 13   7   8  ar  
 14   7  26  1   
 15   8  27  1   
 16   9  10  1   
 17   9  11  1   
 18   9  28  1   
 19  10  12  1   
 20  10  29  1   
 21  10  30  1   
 22  11  13  1   
 23  11  31  1   
 24  11  32  1   
 25  12  14  1   
 26  12  33  1   
 27  12  34  1   
 28  13  14  1   
 29  13  35  1   
 30  13  36  1   
 31  14  15  1   
 32  15  16  ar  
 33  15  17  ar  
 34  16  18  ar  
 35  16  37  1   
 36  17  19  ar  
 37  17  38  1   
 38  18  20  ar  
 39  18  39  1   
 40  19  20  ar  
 41  19  40  1   
 42  20  21  1   
@<TRIPOS>SUBSTRUCTURE
  1 ****  13 GROUP 4 **** **** 0

# MOE 2024.06 (io_trps.svl 2023.06)
