@<TRIPOS>MOLECULE
NONAME
53 54 1 0 0 
SMALL
USER_CHARGES


@<TRIPOS>ATOM
  1 S        0.7060     0.0680    -1.1090 S.o2  1 <1>   1.3330 
  2 O        1.9000    -0.0810    -1.9080 O.2   1 <1>  -0.6500 
  3 O        0.7350    -0.3130     0.2800 O.2   1 <1>  -0.6500 
  4 N        0.2760     1.7390    -1.1980 N.am  1 <1>  -0.6930 
  5 C       -0.6500    -0.7290    -1.9420 C.3   1 <1>  -0.1350 
  6 C       -0.7920     2.2030    -0.4310 C.ar  1 <1>   0.1990 
  7 C        1.4020     2.6770    -1.5230 C.3   1 <1>   0.3370 
  8 C       -2.0160     2.4580    -1.0370 C.ar  1 <1>  -0.1500 
  9 C       -0.6640     2.4180     0.9360 C.ar  1 <1>  -0.1500 
 10 C        2.4680     2.7660    -0.4030 C.2   1 <1>   0.5690 
 11 C        0.8480     4.0490    -1.9460 C.3   1 <1>  -0.2400 
 12 C       -3.0940     2.9140    -0.2980 C.ar  1 <1>  -0.1500 
 13 C       -1.7370     2.8740     1.6790 C.ar  1 <1>  -0.1500 
 14 O        2.4700     3.7100     0.3540 O.2   1 <1>  -0.5700 
 15 N        3.3900     1.7590    -0.3090 N.am  1 <1>  -0.5470 
 16 C       -2.9570     3.1240     1.0710 C.ar  1 <1>   0.0830 
 17 C        4.3240     1.5500     0.7110 C.ar  1 <1>   0.1170 
 18 O       -3.9590     3.5690     1.8760 O.3   1 <1>  -0.3630 
 19 C        5.5050     2.2880     0.8210 C.ar  1 <1>  -0.1430 
 20 C        4.0620     0.5440     1.6330 C.ar  1 <1>  -0.1500 
 21 C       -5.2250     3.8850     1.3480 C.3   1 <1>   0.1200 
 22 C        6.3920     2.0010     1.8480 C.ar  1 <1>  -0.1500 
 23 C        5.8630     3.4000    -0.1600 C.3   1 <1>  -0.0170 
 24 C        4.9510     0.2670     2.6530 C.ar  1 <1>  -0.1500 
 25 C       -6.1070     4.3660     2.4960 C.3   1 <1>  -0.2400 
 26 C        6.1200     0.9970     2.7610 C.ar  1 <1>  -0.1500 
 27 C        6.4990     2.8240    -1.4280 C.3   1 <1>  -0.2400 
 28 H       -0.4830    -1.7870    -1.9840 H     1 <1>   0.0800 
 29 H       -0.7440    -0.3530    -2.9410 H     1 <1>   0.0800 
 30 H       -1.5650    -0.5470    -1.4130 H     1 <1>   0.0800 
 31 H        1.9070     2.2910    -2.3910 H     1 <1>   0.0800 
 32 H       -2.1180     2.3020    -2.0950 H     1 <1>   0.1500 
 33 H        0.2790     2.2250     1.4190 H     1 <1>   0.1500 
 34 H        0.3720     4.5410    -1.1150 H     1 <1>   0.0800 
 35 H        0.1460     3.9390    -2.7520 H     1 <1>   0.0800 
 36 H        1.6560     4.6750    -2.2780 H     1 <1>   0.0800 
 37 H       -4.0230     3.1010    -0.8010 H     1 <1>   0.1500 
 38 H       -1.6330     3.0390     2.7360 H     1 <1>   0.1500 
 39 H        3.2230     0.9430    -0.9110 H     1 <1>   0.3700 
 40 H        3.1500    -0.0210     1.5520 H     1 <1>   0.1500 
 41 H       -5.6390     2.9990     0.8980 H     1 <1>   0.0800 
 42 H       -5.1050     4.6600     0.6110 H     1 <1>   0.0800 
 43 H        7.3060     2.5600     1.9430 H     1 <1>   0.1500 
 44 H        6.5520     4.0830     0.3030 H     1 <1>   0.0800 
 45 H        4.9870     3.9670    -0.4160 H     1 <1>   0.0800 
 46 H        4.7330    -0.5130     3.3610 H     1 <1>   0.1500 
 47 H       -6.2070     3.5910     3.2350 H     1 <1>   0.0800 
 48 H       -7.0840     4.6170     2.1260 H     1 <1>   0.0800 
 49 H       -5.6760     5.2410     2.9500 H     1 <1>   0.0800 
 50 H        6.8160     0.7860     3.5540 H     1 <1>   0.1500 
 51 H        7.3890     2.2750    -1.1770 H     1 <1>   0.0800 
 52 H        6.7590     3.6170    -2.1050 H     1 <1>   0.0800 
 53 H        5.8120     2.1590    -1.9190 H     1 <1>   0.0800 
@<TRIPOS>BOND
  1   1   2  2   
  2   1   3  2   
  3   1   4  am  
  4   1   5  1   
  5   4   6  1   
  6   4   7  1   
  7   5  28  1   
  8   5  29  1   
  9   5  30  1   
 10   6   8  ar  
 11   6   9  ar  
 12   7  10  1   
 13   7  11  1   
 14   7  31  1   
 15   8  12  ar  
 16   8  32  1   
 17   9  13  ar  
 18   9  33  1   
 19  10  14  2   
 20  10  15  am  
 21  11  34  1   
 22  11  35  1   
 23  11  36  1   
 24  12  16  ar  
 25  12  37  1   
 26  13  16  ar  
 27  13  38  1   
 28  15  17  1   
 29  15  39  1   
 30  16  18  1   
 31  17  19  ar  
 32  17  20  ar  
 33  18  21  1   
 34  19  22  ar  
 35  19  23  1   
 36  20  24  ar  
 37  20  40  1   
 38  21  25  1   
 39  21  41  1   
 40  21  42  1   
 41  22  26  ar  
 42  22  43  1   
 43  23  27  1   
 44  23  44  1   
 45  23  45  1   
 46  24  26  ar  
 47  24  46  1   
 48  25  47  1   
 49  25  48  1   
 50  25  49  1   
 51  26  50  1   
 52  27  51  1   
 53  27  52  1   
 54  27  53  1   
@<TRIPOS>SUBSTRUCTURE
  1 ****  10 GROUP 4 **** **** 0

# MOE 2024.06 (io_trps.svl 2023.06)
