@<TRIPOS>MOLECULE
NONAME
37 38 1 0 0 
SMALL
USER_CHARGES


@<TRIPOS>ATOM
  1 F        0.5090    -0.6530    -1.1400 F     1 <1>  -0.3400 
  2 C       -0.6100    -0.2090    -1.7110 C.3   1 <1>   1.0200 
  3 F       -1.0720    -1.2280    -2.4290 F     1 <1>  -0.3400 
  4 F       -0.2220     0.7140    -2.5870 F     1 <1>  -0.3400 
  5 C       -1.6290     0.3320    -0.6260 C.3   1 <1>   0.5800 
  6 O       -1.9390    -0.6050     0.3710 O.3   1 <1>  -0.6800 
  7 N       -2.9120     0.8190    -1.2200 N.am  1 <1>  -0.2980 
  8 C       -1.0890     1.5870     0.0830 C.3   1 <1>  -0.0990 
  9 N       -2.9780     2.2000    -1.1230 N.2   1 <1>  -0.5120 
 10 C       -3.8560     0.0360    -1.8790 C.2   1 <1>   0.5690 
 11 C       -2.0300     2.6420    -0.4310 C.2   1 <1>   0.3280 
 12 O       -4.5320     0.4830    -2.7780 O.2   1 <1>  -0.5700 
 13 C       -4.0920    -1.4330    -1.5270 C.3   1 <1>   0.1810 
 14 C       -1.7830     4.1060    -0.1080 C.3   1 <1>  -0.0990 
 15 O       -4.7500    -1.5580    -0.2780 O.3   1 <1>  -0.3630 
 16 C       -1.8900     4.4060     1.3940 C.3   1 <1>  -0.2400 
 17 C       -4.9660    -2.7730     0.2820 C.ar  1 <1>   0.0820 
 18 C       -5.4690    -2.7830     1.5740 C.ar  1 <1>  -0.1500 
 19 C       -4.7110    -3.9810    -0.3620 C.ar  1 <1>  -0.1500 
 20 C       -5.7130    -3.9790     2.2230 C.ar  1 <1>  -0.1500 
 21 C       -4.9550    -5.1780     0.2900 C.ar  1 <1>  -0.1500 
 22 C       -5.4550    -5.1780     1.5810 C.ar  1 <1>  -0.1500 
 23 H       -1.1310    -0.9090     0.8290 H     1 <1>   0.4000 
 24 H       -0.0780     1.8200    -0.1960 H     1 <1>   0.0800 
 25 H       -1.1690     1.5150     1.1520 H     1 <1>   0.0800 
 26 H       -3.1690    -1.9730    -1.4770 H     1 <1>   0.0800 
 27 H       -4.7250    -1.8750    -2.2750 H     1 <1>   0.0800 
 28 H       -2.5120     4.6970    -0.6340 H     1 <1>   0.0800 
 29 H       -0.8110     4.3900    -0.4700 H     1 <1>   0.0800 
 30 H       -2.8570     4.1070     1.7620 H     1 <1>   0.0800 
 31 H       -1.7730     5.4620     1.5660 H     1 <1>   0.0800 
 32 H       -1.1300     3.8850     1.9470 H     1 <1>   0.0800 
 33 H       -5.6660    -1.8460     2.0630 H     1 <1>   0.1500 
 34 H       -4.3300    -4.0130    -1.3650 H     1 <1>   0.1500 
 35 H       -6.1030    -3.9770     3.2260 H     1 <1>   0.1500 
 36 H       -4.7580    -6.1110    -0.2080 H     1 <1>   0.1500 
 37 H       -5.6450    -6.1100     2.0860 H     1 <1>   0.1500 
@<TRIPOS>BOND
  1   1   2  1   
  2   2   3  1   
  3   2   4  1   
  4   2   5  1   
  5   5   6  1   
  6   5   7  1   
  7   5   8  1   
  8   6  23  1   
  9   7   9  1   
 10   7  10  am  
 11   8  11  1   
 12   8  24  1   
 13   8  25  1   
 14   9  11  2   
 15  10  12  2   
 16  10  13  1   
 17  11  14  1   
 18  13  15  1   
 19  13  26  1   
 20  13  27  1   
 21  14  16  1   
 22  14  28  1   
 23  14  29  1   
 24  15  17  1   
 25  16  30  1   
 26  16  31  1   
 27  16  32  1   
 28  17  18  ar  
 29  17  19  ar  
 30  18  20  ar  
 31  18  33  1   
 32  19  21  ar  
 33  19  34  1   
 34  20  22  ar  
 35  20  35  1   
 36  21  22  ar  
 37  21  36  1   
 38  22  37  1   
@<TRIPOS>SUBSTRUCTURE
  1 ****   6 GROUP 4 **** **** 0

# MOE 2024.06 (io_trps.svl 2023.06)
