@<TRIPOS>MOLECULE
NONAME
51 53 1 0 0 
SMALL
USER_CHARGES


@<TRIPOS>ATOM
  1 F       -1.3480     0.1000    -0.9830 F     1 <1>  -0.1900 
  2 C       -2.2880    -0.7430    -0.6470 C.ar  1 <1>   0.1900 
  3 C       -1.9590    -1.8320     0.1380 C.ar  1 <1>  -0.1500 
  4 C       -3.5770    -0.5170    -1.0870 C.ar  1 <1>  -0.1500 
  5 C       -2.9600    -2.7210     0.4910 C.ar  1 <1>  -0.1500 
  6 C       -4.5670    -1.4160    -0.7270 C.ar  1 <1>  -0.1500 
  7 C       -4.2740    -2.5260     0.0650 C.ar  1 <1>   0.1170 
  8 N       -5.2950    -3.4360     0.4280 N.am  1 <1>  -0.2370 
  9 C       -6.5240    -3.0870     0.9170 C.2   1 <1>   0.5690 
 10 C       -5.1990    -4.8000     0.3770 C.2   1 <1>   0.5690 
 11 O       -6.8610    -1.9700     1.2340 O.2   1 <1>  -0.5700 
 12 C       -7.4280    -4.3190     1.0940 C.3   1 <1>   0.2510 
 13 O       -4.2470    -5.4370     0.0080 O.2   1 <1>  -0.5700 
 14 C       -6.4460    -5.4790     0.8800 C.3   1 <1>  -0.0990 
 15 N       -8.5610    -4.4580     0.1300 N.3   1 <1>  -0.8100 
 16 C       -9.4930    -5.5350     0.5590 C.3   1 <1>   0.1100 
 17 C       -9.3180    -3.1880    -0.0450 C.3   1 <1>   0.1100 
 18 C      -10.6450    -5.7360    -0.4370 C.3   1 <1>   0.1400 
 19 C      -10.4870    -3.3310    -1.0340 C.3   1 <1>   0.1400 
 20 N      -11.3760    -4.4560    -0.6320 N.am  1 <1>  -0.6600 
 21 C      -12.6920    -4.3070    -0.2890 C.2   1 <1>   0.7800 
 22 O      -13.3530    -5.2320     0.1410 O.2   1 <1>  -0.5700 
 23 O      -13.2240    -3.0900    -0.4350 O.3   1 <1>  -0.4300 
 24 C      -14.5420    -2.6880    -0.1330 C.3   1 <1>   0.2800 
 25 C      -14.5950    -1.2020    -0.4890 C.3   1 <1>  -0.2400 
 26 C      -14.8190    -2.8580     1.3650 C.3   1 <1>  -0.2400 
 27 C      -15.5430    -3.4530    -1.0070 C.3   1 <1>  -0.2400 
 28 H       -0.9440    -1.9770     0.4600 H     1 <1>   0.1500 
 29 H       -3.7960     0.3420    -1.6960 H     1 <1>   0.1500 
 30 H       -2.7150    -3.5750     1.0980 H     1 <1>   0.1500 
 31 H       -5.5770    -1.2500    -1.0600 H     1 <1>   0.1500 
 32 H       -7.8050    -4.3180     2.1020 H     1 <1>   0.0800 
 33 H       -6.2260    -5.9730     1.8070 H     1 <1>   0.0800 
 34 H       -6.7820    -6.1900     0.1490 H     1 <1>   0.0800 
 35 H       -9.9120    -5.2970     1.5220 H     1 <1>   0.0800 
 36 H       -8.9650    -6.4680     0.6500 H     1 <1>   0.0800 
 37 H       -8.6670    -2.4240    -0.4300 H     1 <1>   0.0800 
 38 H       -9.6990    -2.8530     0.9050 H     1 <1>   0.0800 
 39 H      -11.3090    -6.4990    -0.0690 H     1 <1>   0.0800 
 40 H      -10.2500    -6.0670    -1.3820 H     1 <1>   0.0800 
 41 H      -10.0970    -3.5270    -2.0170 H     1 <1>   0.0800 
 42 H      -11.0310    -2.4050    -1.0740 H     1 <1>   0.0800 
 43 H      -14.3790    -1.0610    -1.5330 H     1 <1>   0.0800 
 44 H      -13.8790    -0.6530     0.0950 H     1 <1>   0.0800 
 45 H      -15.5730    -0.8040    -0.2890 H     1 <1>   0.0800 
 46 H      -14.0570    -2.3700     1.9440 H     1 <1>   0.0800 
 47 H      -14.8600    -3.8970     1.6360 H     1 <1>   0.0800 
 48 H      -15.7690    -2.4220     1.6130 H     1 <1>   0.0800 
 49 H      -15.2740    -3.3700    -2.0440 H     1 <1>   0.0800 
 50 H      -16.5290    -3.0460    -0.8760 H     1 <1>   0.0800 
 51 H      -15.5830    -4.4910    -0.7340 H     1 <1>   0.0800 
@<TRIPOS>BOND
  1   1   2  1   
  2   2   3  ar  
  3   2   4  ar  
  4   3   5  ar  
  5   3  28  1   
  6   4   6  ar  
  7   4  29  1   
  8   5   7  ar  
  9   5  30  1   
 10   6   7  ar  
 11   6  31  1   
 12   7   8  1   
 13   8   9  am  
 14   8  10  am  
 15   9  11  2   
 16   9  12  1   
 17  10  13  2   
 18  10  14  1   
 19  12  14  1   
 20  12  15  1   
 21  12  32  1   
 22  14  33  1   
 23  14  34  1   
 24  15  16  1   
 25  15  17  1   
 26  16  18  1   
 27  16  35  1   
 28  16  36  1   
 29  17  19  1   
 30  17  37  1   
 31  17  38  1   
 32  18  20  1   
 33  18  39  1   
 34  18  40  1   
 35  19  20  1   
 36  19  41  1   
 37  19  42  1   
 38  20  21  am  
 39  21  22  2   
 40  21  23  1   
 41  23  24  1   
 42  24  25  1   
 43  24  26  1   
 44  24  27  1   
 45  25  43  1   
 46  25  44  1   
 47  25  45  1   
 48  26  46  1   
 49  26  47  1   
 50  26  48  1   
 51  27  49  1   
 52  27  50  1   
 53  27  51  1   
@<TRIPOS>SUBSTRUCTURE
  1 ****  17 GROUP 4 **** **** 0

# MOE 2024.06 (io_trps.svl 2023.06)
