@<TRIPOS>MOLECULE
NONAME
54 57 1 0 0 
SMALL
USER_CHARGES


@<TRIPOS>ATOM
  1 O       -0.1630    -0.4720    -1.3940 O.2   1 <1>  -0.5700 
  2 C       -0.4260    -1.5910    -1.0220 C.2   1 <1>   0.5690 
  3 N        0.4690    -2.5020    -0.5280 N.am  1 <1>  -0.2370 
  4 C       -1.8350    -2.1980    -1.1370 C.3   1 <1>   0.2510 
  5 C        1.8200    -2.2360    -0.2010 C.ar  1 <1>   0.1170 
  6 C       -0.1400    -3.7220    -0.4240 C.2   1 <1>   0.5690 
  7 N       -2.8510    -1.7230    -0.1470 N.3   1 <1>  -0.8100 
  8 C       -1.5680    -3.6890    -0.8990 C.3   1 <1>  -0.0990 
  9 C        2.3520    -2.6560     1.0140 C.ar  1 <1>  -0.1500 
 10 C        2.6520    -1.5510    -1.0830 C.ar  1 <1>  -0.1500 
 11 O        0.3610    -4.7420    -0.0260 O.2   1 <1>  -0.5700 
 12 C       -4.2160    -2.1590    -0.5350 C.3   1 <1>   0.1100 
 13 C       -2.8360    -0.2440     0.0160 C.3   1 <1>   0.1100 
 14 C        3.6710    -2.3990     1.3380 C.ar  1 <1>  -0.1500 
 15 C        3.9730    -1.2900    -0.7640 C.ar  1 <1>  -0.1500 
 16 C       -5.2770    -1.7340     0.4950 C.3   1 <1>   0.1400 
 17 C       -3.8710     0.2380     1.0460 C.3   1 <1>   0.1400 
 18 C        4.4920    -1.7150     0.4560 C.ar  1 <1>   0.0830 
 19 N       -5.2380    -0.2580     0.7030 N.am  1 <1>  -0.6600 
 20 O        5.7730    -1.5030     0.8510 O.3   1 <1>  -0.3630 
 21 C       -6.2550     0.6000     0.3450 C.2   1 <1>   0.5440 
 22 C        6.6860    -0.8170     0.0270 C.3   1 <1>   0.1200 
 23 O       -5.9870     1.7590     0.0950 O.2   1 <1>  -0.5700 
 24 C       -7.6290     0.1590     0.2400 C.ar  1 <1>   0.0860 
 25 C        8.0230    -0.7480     0.7580 C.3   1 <1>  -0.2400 
 26 C       -8.3940     0.5120    -0.8690 C.ar  1 <1>   0.1600 
 27 C       -8.2470    -0.6140     1.2150 C.ar  1 <1>  -0.1500 
 28 N       -9.6500     0.1500    -1.0930 N.ar  1 <1>  -0.6200 
 29 C       -9.5550    -0.9950     1.0080 C.ar  1 <1>  -0.1500 
 30 C      -10.2020    -0.5950    -0.1490 C.ar  1 <1>   0.1600 
 31 H       -2.1940    -2.0270    -2.1370 H     1 <1>   0.0800 
 32 H       -1.6440    -4.2440    -1.8150 H     1 <1>   0.0800 
 33 H       -2.2050    -4.1200    -0.1490 H     1 <1>   0.0800 
 34 H        1.7330    -3.1940     1.7110 H     1 <1>   0.1500 
 35 H        2.2630    -1.2140    -2.0270 H     1 <1>   0.1500 
 36 H       -4.2480    -3.2300    -0.6270 H     1 <1>   0.0800 
 37 H       -4.4760    -1.7360    -1.4910 H     1 <1>   0.0800 
 38 H       -3.0300     0.2370    -0.9280 H     1 <1>   0.0800 
 39 H       -1.8700     0.0790     0.3610 H     1 <1>   0.0800 
 40 H        4.0760    -2.7290     2.2780 H     1 <1>   0.1500 
 41 H        4.5770    -0.7570    -1.4730 H     1 <1>   0.1500 
 42 H       -5.0830    -2.2300     1.4300 H     1 <1>   0.0800 
 43 H       -6.2430    -2.0450     0.1430 H     1 <1>   0.0800 
 44 H       -3.8560     1.3130     1.0880 H     1 <1>   0.0800 
 45 H       -3.5970    -0.1300     2.0180 H     1 <1>   0.0800 
 46 H        6.3010     0.1720    -0.1580 H     1 <1>   0.0800 
 47 H        6.7850    -1.3600    -0.8970 H     1 <1>   0.0800 
 48 H        7.9070    -0.2180     1.6870 H     1 <1>   0.0800 
 49 H        8.7430    -0.2280     0.1530 H     1 <1>   0.0800 
 50 H        8.3880    -1.7400     0.9530 H     1 <1>   0.0800 
 51 H       -7.9280     1.1330    -1.6160 H     1 <1>   0.1500 
 52 H       -7.7140    -0.9000     2.1050 H     1 <1>   0.1500 
 53 H      -10.0740    -1.5950     1.7340 H     1 <1>   0.1500 
 54 H      -11.2240    -0.8980    -0.3050 H     1 <1>   0.1500 
@<TRIPOS>BOND
  1   1   2  2   
  2   2   3  am  
  3   2   4  1   
  4   3   5  1   
  5   3   6  am  
  6   4   7  1   
  7   4   8  1   
  8   4  31  1   
  9   5   9  ar  
 10   5  10  ar  
 11   6   8  1   
 12   6  11  2   
 13   7  12  1   
 14   7  13  1   
 15   8  32  1   
 16   8  33  1   
 17   9  14  ar  
 18   9  34  1   
 19  10  15  ar  
 20  10  35  1   
 21  12  16  1   
 22  12  36  1   
 23  12  37  1   
 24  13  17  1   
 25  13  38  1   
 26  13  39  1   
 27  14  18  ar  
 28  14  40  1   
 29  15  18  ar  
 30  15  41  1   
 31  16  19  1   
 32  16  42  1   
 33  16  43  1   
 34  17  19  1   
 35  17  44  1   
 36  17  45  1   
 37  18  20  1   
 38  19  21  am  
 39  20  22  1   
 40  21  23  2   
 41  21  24  1   
 42  22  25  1   
 43  22  46  1   
 44  22  47  1   
 45  24  26  ar  
 46  24  27  ar  
 47  25  48  1   
 48  25  49  1   
 49  25  50  1   
 50  26  28  ar  
 51  26  51  1   
 52  27  29  ar  
 53  27  52  1   
 54  28  30  ar  
 55  29  30  ar  
 56  29  53  1   
 57  30  54  1   
@<TRIPOS>SUBSTRUCTURE
  1 ****   7 GROUP 4 **** **** 0

# MOE 2024.06 (io_trps.svl 2023.06)
