@<TRIPOS>MOLECULE
NONAME
36 37 1 0 0 
SMALL
USER_CHARGES


@<TRIPOS>ATOM
  1 O       -0.7380     0.1790    -1.0650 O.co2 1 <1>  -0.9000 
  2 C       -0.5560    -0.5910    -0.1110 C.2   1 <1>   1.0500 
  3 O        0.4870    -0.4960     0.5540 O.co2 1 <1>  -0.9000 
  4 C       -1.5080    -1.5930     0.2760 C.2   1 <1>  -0.4000 
  5 C       -2.7810    -1.8350    -0.1290 C.2   1 <1>  -0.0610 
  6 O       -3.3780    -1.0900    -1.0850 O.3   1 <1>  -0.1590 
  7 C       -3.6840    -2.9780     0.3840 C.3   1 <1>   0.4180 
  8 C       -4.0630     0.0490    -0.8030 C.ar  1 <1>   0.0820 
  9 O       -3.0600    -3.5520     1.4750 O.3   1 <1>  -0.6800 
 10 C       -5.0550    -2.4860     0.8870 C.3   1 <1>  -0.1600 
 11 C       -3.8580    -4.0780    -0.6890 C.3   1 <1>  -0.1600 
 12 C       -5.0330     0.4560    -1.7070 C.ar  1 <1>  -0.1500 
 13 C       -3.8430     0.7960     0.3490 C.ar  1 <1>  -0.1500 
 14 C       -5.9450    -3.6050     1.4720 C.3   1 <1>  -0.1600 
 15 C       -5.1980    -4.8450    -0.6260 C.3   1 <1>  -0.1600 
 16 C       -5.7930     1.5850    -1.4560 C.ar  1 <1>  -0.1500 
 17 C       -4.6020     1.9260     0.5990 C.ar  1 <1>  -0.1500 
 18 C       -5.7150    -4.9780     0.8110 C.3   1 <1>  -0.1600 
 19 C       -5.5800     2.3190    -0.3000 C.ar  1 <1>  -0.1500 
 20 H       -1.0450    -2.2180     1.0090 H     1 <1>   0.1500 
 21 H       -2.4810    -2.8620     1.8480 H     1 <1>   0.4000 
 22 H       -4.9180    -1.7020     1.6100 H     1 <1>   0.0800 
 23 H       -5.5770    -2.0550     0.0520 H     1 <1>   0.0800 
 24 H       -3.7920    -3.6270    -1.6620 H     1 <1>   0.0800 
 25 H       -3.0360    -4.7660    -0.6110 H     1 <1>   0.0800 
 26 H       -5.1840    -0.1190    -2.6020 H     1 <1>   0.1500 
 27 H       -3.0710     0.5070     1.0380 H     1 <1>   0.1500 
 28 H       -5.7480    -3.6990     2.5260 H     1 <1>   0.0800 
 29 H       -6.9760    -3.3170     1.3600 H     1 <1>   0.0800 
 30 H       -5.9340    -4.3160    -1.2060 H     1 <1>   0.0800 
 31 H       -5.0740    -5.8190    -1.0640 H     1 <1>   0.0800 
 32 H       -6.5450     1.8940    -2.1600 H     1 <1>   0.1500 
 33 H       -4.4230     2.5000     1.4910 H     1 <1>   0.1500 
 34 H       -6.6280    -5.5470     0.8280 H     1 <1>   0.0800 
 35 H       -4.9820    -5.5210     1.3840 H     1 <1>   0.0800 
 36 H       -6.1670     3.1980    -0.1040 H     1 <1>   0.1500 
@<TRIPOS>BOND
  1   1   2  ar  
  2   2   3  ar  
  3   2   4  1   
  4   4   5  2   
  5   4  20  1   
  6   5   6  1   
  7   5   7  1   
  8   6   8  1   
  9   7   9  1   
 10   7  10  1   
 11   7  11  1   
 12   8  12  ar  
 13   8  13  ar  
 14   9  21  1   
 15  10  14  1   
 16  10  22  1   
 17  10  23  1   
 18  11  15  1   
 19  11  24  1   
 20  11  25  1   
 21  12  16  ar  
 22  12  26  1   
 23  13  17  ar  
 24  13  27  1   
 25  14  18  1   
 26  14  28  1   
 27  14  29  1   
 28  15  18  1   
 29  15  30  1   
 30  15  31  1   
 31  16  19  ar  
 32  16  32  1   
 33  17  19  ar  
 34  17  33  1   
 35  18  34  1   
 36  18  35  1   
 37  19  36  1   
@<TRIPOS>SUBSTRUCTURE
  1 ****   5 GROUP 4 **** **** 0

# MOE 2024.06 (io_trps.svl 2023.06)
