@<TRIPOS>MOLECULE
NONAME
37 38 1 0 0 
SMALL
USER_CHARGES


@<TRIPOS>ATOM
  1 S       -4.5310     2.0510    -0.2080 S.3   1 <1>  -0.3320 
  2 C       -5.9890     3.0720    -0.0660 C.ar  1 <1>   0.7220 
  3 C       -3.1400     3.2120     0.1180 C.3   1 <1>   0.0700 
  4 N       -7.1290     2.4370    -0.2590 N.ar  1 <1>  -0.6200 
  5 N       -5.7630     4.3460     0.2150 N.ar  1 <1>  -0.6200 
  6 C       -1.8450     2.4140    -0.0320 C.3   1 <1>   0.3430 
  7 C       -8.1960     3.1920    -0.1520 C.ar  1 <1>   0.1660 
  8 C       -6.8520     5.0750     0.3160 C.ar  1 <1>   0.1660 
  9 N       -0.6340     3.2550     0.2180 N.4   1 <1>  -0.9590 
 10 C       -8.1060     4.5350     0.1380 C.ar  1 <1>  -0.1500 
 11 C       -9.5350     2.5170    -0.3630 C.3   1 <1>  -0.0970 
 12 C       -6.6720     6.5440     0.6390 C.3   1 <1>  -0.0970 
 13 C       -0.4450     4.3750    -0.7700 C.3   1 <1>   0.3430 
 14 C        0.6200     2.4330     0.3130 C.3   1 <1>   0.3430 
 15 C        0.8550     5.1660    -0.4900 C.3   1 <1>   0.1200 
 16 C        1.8600     3.3210     0.5740 C.3   1 <1>   0.1200 
 17 O        1.5090     4.6770     0.6500 O.3   1 <1>  -0.5600 
 18 H       -3.2730     3.5870     1.1170 H     1 <1>   0.0800 
 19 H       -3.2230     4.0010    -0.6070 H     1 <1>   0.0800 
 20 H       -1.8030     1.9980    -1.0250 H     1 <1>   0.0800 
 21 H       -1.8690     1.5970     0.6710 H     1 <1>   0.0800 
 22 H       -0.7120     3.7180     1.1380 H     1 <1>   0.4500 
 23 H       -8.9880     5.1410     0.2240 H     1 <1>   0.1500 
 24 H       -9.5710     2.0920    -1.3500 H     1 <1>   0.0800 
 25 H      -10.3440     3.2170    -0.2560 H     1 <1>   0.0800 
 26 H       -9.6580     1.7290     0.3570 H     1 <1>   0.0800 
 27 H       -6.1630     6.6470     1.5800 H     1 <1>   0.0800 
 28 H       -7.6210     7.0440     0.7040 H     1 <1>   0.0800 
 29 H       -6.0850     7.0130    -0.1280 H     1 <1>   0.0800 
 30 H       -1.2800     5.0550    -0.7240 H     1 <1>   0.0800 
 31 H       -0.4040     3.9810    -1.7720 H     1 <1>   0.0800 
 32 H        0.7710     1.8840    -0.6010 H     1 <1>   0.0800 
 33 H        0.5310     1.7140     1.1110 H     1 <1>   0.0800 
 34 H        0.6280     6.2040    -0.3180 H     1 <1>   0.0800 
 35 H        1.5290     5.1040    -1.3270 H     1 <1>   0.0800 
 36 H        2.5910     3.1970    -0.2070 H     1 <1>   0.0800 
 37 H        2.3210     3.0500     1.5090 H     1 <1>   0.0800 
@<TRIPOS>BOND
  1   1   2  1   
  2   1   3  1   
  3   2   4  ar  
  4   2   5  ar  
  5   3   6  1   
  6   3  18  1   
  7   3  19  1   
  8   4   7  ar  
  9   5   8  ar  
 10   6   9  1   
 11   6  20  1   
 12   6  21  1   
 13   7  10  ar  
 14   7  11  1   
 15   8  10  ar  
 16   8  12  1   
 17   9  13  1   
 18   9  14  1   
 19   9  22  1   
 20  10  23  1   
 21  11  24  1   
 22  11  25  1   
 23  11  26  1   
 24  12  27  1   
 25  12  28  1   
 26  12  29  1   
 27  13  15  1   
 28  13  30  1   
 29  13  31  1   
 30  14  16  1   
 31  14  32  1   
 32  14  33  1   
 33  15  17  1   
 34  15  34  1   
 35  15  35  1   
 36  16  17  1   
 37  16  36  1   
 38  16  37  1   
@<TRIPOS>SUBSTRUCTURE
  1 ****   3 GROUP 4 **** **** 0

# MOE 2024.06 (io_trps.svl 2023.06)
