@<TRIPOS>MOLECULE
NONAME
42 44 1 0 0 
SMALL
USER_CHARGES


@<TRIPOS>ATOM
  1 O        0.9190    -0.3720     0.2850 O.2   1 <1>  -0.5700 
  2 C        1.4110    -1.4720     0.0880 C.2   1 <1>   0.6900 
  3 N        2.7710    -1.6180     0.2160 N.am  1 <1>  -0.6600 
  4 N        0.5850    -2.5320    -0.2590 N.am  1 <1>  -0.4770 
  5 C        3.5910    -0.6130     0.9540 C.3   1 <1>   0.1400 
  6 C        3.6000    -2.4710    -0.6920 C.3   1 <1>   0.1400 
  7 C        0.8860    -3.8870    -0.0340 C.ar  1 <1>   0.1170 
  8 C       -0.8250    -2.2190    -0.6200 C.3   1 <1>   0.0600 
  9 C        4.3830     0.2750    -0.0200 C.3   1 <1>   0.2090 
 10 C        4.4480    -1.6140    -1.6530 C.3   1 <1>   0.2090 
 11 C        1.3770    -4.3160     1.1940 C.ar  1 <1>  -0.1500 
 12 C        0.7010    -4.8320    -1.0390 C.ar  1 <1>  -0.1500 
 13 N        5.2240    -0.5470    -0.9420 N.pl3 1 <1>  -0.8380 
 14 C        1.6740    -5.6490     1.4150 C.ar  1 <1>  -0.1500 
 15 C        0.9940    -6.1660    -0.8230 C.ar  1 <1>  -0.1500 
 16 C        6.5250    -0.8070    -0.5550 C.ar  1 <1>   0.4100 
 17 C        1.4820    -6.5770     0.4050 C.ar  1 <1>  -0.1500 
 18 N        6.8180    -2.0470    -0.1780 N.ar  1 <1>  -0.6200 
 19 C        7.4590     0.2270    -0.5630 C.ar  1 <1>  -0.1500 
 20 C        8.0680    -2.2560     0.1990 C.ar  1 <1>   0.1600 
 21 C        8.7550    -0.0050    -0.1660 C.ar  1 <1>  -0.1500 
 22 C        9.0590    -1.2920     0.2260 C.ar  1 <1>  -0.1500 
 23 H        4.2820    -1.1280     1.5980 H     1 <1>   0.0800 
 24 H        2.9610     0.0030     1.5710 H     1 <1>   0.0800 
 25 H        2.9790    -3.1200    -1.2790 H     1 <1>   0.0800 
 26 H        4.2530    -3.0860    -0.0980 H     1 <1>   0.0800 
 27 H       -1.3100    -1.7490     0.2170 H     1 <1>   0.0800 
 28 H       -1.3630    -3.1140    -0.8760 H     1 <1>   0.0800 
 29 H       -0.8390    -1.5430    -1.4560 H     1 <1>   0.0800 
 30 H        5.0060     0.9460     0.5430 H     1 <1>   0.0800 
 31 H        3.6930     0.8650    -0.5980 H     1 <1>   0.0800 
 32 H        3.7970    -1.1480    -2.3710 H     1 <1>   0.0800 
 33 H        5.1250    -2.2530    -2.1940 H     1 <1>   0.0800 
 34 H        1.5280    -3.5960     1.9780 H     1 <1>   0.1500 
 35 H        0.3280    -4.5150    -1.9960 H     1 <1>   0.1500 
 36 H        2.0550    -5.9640     2.3710 H     1 <1>   0.1500 
 37 H        0.8450    -6.8860    -1.6090 H     1 <1>   0.1500 
 38 H        1.7110    -7.6140     0.5760 H     1 <1>   0.1500 
 39 H        7.1460     1.1990    -0.8900 H     1 <1>   0.1500 
 40 H        8.3170    -3.2580     0.5060 H     1 <1>   0.1500 
 41 H        9.4950     0.7760    -0.1650 H     1 <1>   0.1500 
 42 H       10.0540    -1.5440     0.5470 H     1 <1>   0.1500 
@<TRIPOS>BOND
  1   1   2  2   
  2   2   3  am  
  3   2   4  am  
  4   3   5  1   
  5   3   6  1   
  6   4   7  1   
  7   4   8  1   
  8   5   9  1   
  9   5  23  1   
 10   5  24  1   
 11   6  10  1   
 12   6  25  1   
 13   6  26  1   
 14   7  11  ar  
 15   7  12  ar  
 16   8  27  1   
 17   8  28  1   
 18   8  29  1   
 19   9  13  1   
 20   9  30  1   
 21   9  31  1   
 22  10  13  1   
 23  10  32  1   
 24  10  33  1   
 25  11  14  ar  
 26  11  34  1   
 27  12  15  ar  
 28  12  35  1   
 29  13  16  1   
 30  14  17  ar  
 31  14  36  1   
 32  15  17  ar  
 33  15  37  1   
 34  16  18  ar  
 35  16  19  ar  
 36  17  38  1   
 37  18  20  ar  
 38  19  21  ar  
 39  19  39  1   
 40  20  22  ar  
 41  20  40  1   
 42  21  22  ar  
 43  21  41  1   
 44  22  42  1   
@<TRIPOS>SUBSTRUCTURE
  1 ****   6 GROUP 4 **** **** 0

# MOE 2024.06 (io_trps.svl 2023.06)
