@<TRIPOS>MOLECULE
NONAME
55 58 1 0 0 
SMALL
USER_CHARGES


@<TRIPOS>ATOM
  1 O       -0.6890     1.0600    -1.1300 O.2   1 <1>  -0.5700 
  2 C       -1.1780     2.1340    -0.8410 C.2   1 <1>   0.6900 
  3 N       -0.4400     3.3010    -0.8070 N.am  1 <1>  -0.4230 
  4 N       -2.5080     2.1710    -0.5400 N.am  1 <1>  -0.4900 
  5 C       -1.0860     4.4890    -0.4570 C.2   1 <1>   0.2900 
  6 C        1.0020     3.3400    -1.1570 C.3   1 <1>   0.0600 
  7 C       -3.1680     3.3090    -0.2050 C.2   1 <1>   0.7150 
  8 N       -0.5380     5.7050    -0.3680 N.2   1 <1>  -0.5650 
  9 C       -2.4050     4.5030    -0.1650 C.2   1 <1>  -0.2370 
 10 O       -4.3570     3.2560     0.0370 O.2   1 <1>  -0.5700 
 11 C       -1.5380     6.4690    -0.0180 C.2   1 <1>   0.0060 
 12 N       -2.7090     5.7950     0.1210 N.pl3 1 <1>   0.0480 
 13 C       -1.4560     7.9860     0.2090 C.3   1 <1>   0.2900 
 14 C       -4.0560     6.3050     0.4720 C.3   1 <1>   0.0960 
 15 N       -0.0720     8.5110     0.2060 N.3   1 <1>  -0.8100 
 16 C       -4.8920     6.5300    -0.7910 C.3   1 <1>  -0.0170 
 17 C        0.0090     9.9820     0.0600 C.3   1 <1>   0.1100 
 18 C        0.7230     8.0570     1.3740 C.3   1 <1>   0.1100 
 19 C       -6.2530     7.0830    -0.4090 C.ar  1 <1>  -0.1430 
 20 C        1.4790    10.4750     0.0120 C.3   1 <1>   0.3430 
 21 C        2.2120     8.4590     1.2390 C.3   1 <1>   0.3430 
 22 C       -6.5190     8.4410    -0.5030 C.ar  1 <1>  -0.1500 
 23 C       -7.2420     6.2250     0.0460 C.ar  1 <1>  -0.1500 
 24 N        2.4310     9.3140     0.0240 N.4   1 <1>  -0.9590 
 25 C       -7.7620     8.9340    -0.1440 C.ar  1 <1>  -0.1500 
 26 C       -8.4840     6.7180     0.4050 C.ar  1 <1>  -0.1500 
 27 C        3.8550     9.6920    -0.1940 C.3   1 <1>   0.2630 
 28 C       -8.7450     8.0730     0.3110 C.ar  1 <1>  -0.1500 
 29 H       -3.0250     1.3020    -0.5770 H     1 <1>   0.3700 
 30 H        1.3490     2.3680    -1.4630 H     1 <1>   0.0800 
 31 H        1.5680     3.6620    -0.3010 H     1 <1>   0.0800 
 32 H        1.1550     4.0360    -1.9620 H     1 <1>   0.0800 
 33 H       -1.9260     8.2370     1.1440 H     1 <1>   0.0800 
 34 H       -2.0090     8.4620    -0.5820 H     1 <1>   0.0800 
 35 H       -3.9670     7.2250     1.0180 H     1 <1>   0.0800 
 36 H       -4.5460     5.5900     1.1090 H     1 <1>   0.0800 
 37 H       -5.0250     5.5980    -1.3130 H     1 <1>   0.0800 
 38 H       -4.3910     7.2170    -1.4490 H     1 <1>   0.0800 
 39 H       -0.5020    10.4640     0.8770 H     1 <1>   0.0800 
 40 H       -0.4840    10.2760    -0.8510 H     1 <1>   0.0800 
 41 H        0.6710     6.9860     1.4700 H     1 <1>   0.0800 
 42 H        0.3190     8.4780     2.2790 H     1 <1>   0.0800 
 43 H        1.6690    11.1140     0.8580 H     1 <1>   0.0800 
 44 H        1.6220    11.0600    -0.8820 H     1 <1>   0.0800 
 45 H        2.8040     7.5620     1.1630 H     1 <1>   0.0800 
 46 H        2.5210     8.9840     2.1270 H     1 <1>   0.0800 
 47 H       -5.7680     9.1230    -0.8580 H     1 <1>   0.1500 
 48 H       -7.0500     5.1670     0.1220 H     1 <1>   0.1500 
 49 H        2.0830     8.7090    -0.7430 H     1 <1>   0.4500 
 50 H       -7.9660     9.9880    -0.2190 H     1 <1>   0.1500 
 51 H       -9.2490     6.0460     0.7570 H     1 <1>   0.1500 
 52 H        4.2050    10.3140     0.6130 H     1 <1>   0.0800 
 53 H        3.9590    10.2330    -1.1200 H     1 <1>   0.0800 
 54 H        4.4710     8.8090    -0.2430 H     1 <1>   0.0800 
 55 H       -9.7110     8.4570     0.5900 H     1 <1>   0.1500 
@<TRIPOS>BOND
  1   1   2  2   
  2   2   3  am  
  3   2   4  am  
  4   3   5  1   
  5   3   6  1   
  6   4   7  am  
  7   4  29  1   
  8   5   8  1   
  9   5   9  2   
 10   6  30  1   
 11   6  31  1   
 12   6  32  1   
 13   7   9  1   
 14   7  10  2   
 15   8  11  2   
 16   9  12  1   
 17  11  12  1   
 18  11  13  1   
 19  12  14  1   
 20  13  15  1   
 21  13  33  1   
 22  13  34  1   
 23  14  16  1   
 24  14  35  1   
 25  14  36  1   
 26  15  17  1   
 27  15  18  1   
 28  16  19  1   
 29  16  37  1   
 30  16  38  1   
 31  17  20  1   
 32  17  39  1   
 33  17  40  1   
 34  18  21  1   
 35  18  41  1   
 36  18  42  1   
 37  19  22  ar  
 38  19  23  ar  
 39  20  24  1   
 40  20  43  1   
 41  20  44  1   
 42  21  24  1   
 43  21  45  1   
 44  21  46  1   
 45  22  25  ar  
 46  22  47  1   
 47  23  26  ar  
 48  23  48  1   
 49  24  27  1   
 50  24  49  1   
 51  25  28  ar  
 52  25  50  1   
 53  26  28  ar  
 54  26  51  1   
 55  27  52  1   
 56  27  53  1   
 57  27  54  1   
 58  28  55  1   
@<TRIPOS>SUBSTRUCTURE
  1 ****  12 GROUP 4 **** **** 0

# MOE 2024.06 (io_trps.svl 2023.06)
