@<TRIPOS>MOLECULE
NONAME
39 41 1 0 0 
SMALL
USER_CHARGES


@<TRIPOS>ATOM
  1 O       -0.1820    -0.2000    -1.3710 O.2   1 <1>  -0.5700 
  2 C       -0.1640     0.4540    -0.3580 C.2   1 <1>   0.6300 
  3 N        0.9790     0.9430     0.1800 N.am  1 <1>  -0.7300 
  4 C       -1.4670     0.7450     0.3600 C.3   1 <1>  -0.1000 
  5 C        2.3260     0.7720    -0.3840 C.3   1 <1>   0.2200 
  6 C       -2.5230     1.5520    -0.3360 C.3   1 <1>  -0.0680 
  7 C       -1.8210     2.1150     0.8620 C.3   1 <1>  -0.2000 
  8 C        3.2050     0.0510     0.6430 C.3   1 <1>  -0.1600 
  9 C        2.8940     2.1510    -0.7340 C.3   1 <1>  -0.1600 
 10 C       -3.9680     1.0960    -0.2510 C.ar  1 <1>  -0.0320 
 11 C        4.6560    -0.0600     0.1500 C.3   1 <1>  -0.1600 
 12 C        4.3440     2.0440    -1.2300 C.3   1 <1>  -0.1600 
 13 C       -4.9400     1.9210     0.2910 C.ar  1 <1>  -0.1500 
 14 C       -4.3220    -0.1560    -0.7260 C.ar  1 <1>  -0.1500 
 15 C        5.2280     1.3190    -0.2060 C.3   1 <1>  -0.1600 
 16 C       -6.2560     1.4950     0.3640 C.ar  1 <1>  -0.1500 
 17 C       -5.6370    -0.5850    -0.6540 C.ar  1 <1>  -0.1500 
 18 C       -6.6040     0.2410    -0.1070 C.ar  1 <1>  -0.1500 
 19 H        0.9280     1.4820     1.0420 H     1 <1>   0.3700 
 20 H       -1.7990    -0.1010     0.9330 H     1 <1>   0.1000 
 21 H        2.2710     0.1760    -1.2810 H     1 <1>   0.0800 
 22 H       -2.2750     1.9560    -1.3020 H     1 <1>   0.1000 
 23 H       -1.1400     2.9330     0.7050 H     1 <1>   0.1000 
 24 H       -2.3600     2.1960     1.7900 H     1 <1>   0.1000 
 25 H        2.8130    -0.9360     0.8140 H     1 <1>   0.0800 
 26 H        3.1930     0.5920     1.5730 H     1 <1>   0.0800 
 27 H        2.8680     2.7840     0.1350 H     1 <1>   0.0800 
 28 H        2.2880     2.5980    -1.5030 H     1 <1>   0.0800 
 29 H        4.6880    -0.6930    -0.7210 H     1 <1>   0.0800 
 30 H        5.2630    -0.5180     0.9120 H     1 <1>   0.0800 
 31 H        4.7360     3.0290    -1.4140 H     1 <1>   0.0800 
 32 H        4.3620     1.5030    -2.1610 H     1 <1>   0.0800 
 33 H       -4.6730     2.8970     0.6550 H     1 <1>   0.1500 
 34 H       -3.5700    -0.7960    -1.1540 H     1 <1>   0.1500 
 35 H        6.2210     1.2050    -0.6050 H     1 <1>   0.0800 
 36 H        5.3010     1.9160     0.6880 H     1 <1>   0.0800 
 37 H       -7.0070     2.1390     0.7870 H     1 <1>   0.1500 
 38 H       -5.9050    -1.5590    -1.0240 H     1 <1>   0.1500 
 39 H       -7.6260    -0.0910    -0.0510 H     1 <1>   0.1500 
@<TRIPOS>BOND
  1   1   2  2   
  2   2   3  am  
  3   2   4  1   
  4   3   5  1   
  5   3  19  1   
  6   4   6  1   
  7   4   7  1   
  8   4  20  1   
  9   5   8  1   
 10   5   9  1   
 11   5  21  1   
 12   6   7  1   
 13   6  10  1   
 14   6  22  1   
 15   7  23  1   
 16   7  24  1   
 17   8  11  1   
 18   8  25  1   
 19   8  26  1   
 20   9  12  1   
 21   9  27  1   
 22   9  28  1   
 23  10  13  ar  
 24  10  14  ar  
 25  11  15  1   
 26  11  29  1   
 27  11  30  1   
 28  12  15  1   
 29  12  31  1   
 30  12  32  1   
 31  13  16  ar  
 32  13  33  1   
 33  14  17  ar  
 34  14  34  1   
 35  15  35  1   
 36  15  36  1   
 37  16  18  ar  
 38  16  37  1   
 39  17  18  ar  
 40  17  38  1   
 41  18  39  1   
@<TRIPOS>SUBSTRUCTURE
  1 ****   2 GROUP 4 **** **** 0

# MOE 2024.06 (io_trps.svl 2023.06)
