@<TRIPOS>MOLECULE
NONAME
51 53 1 0 0 
SMALL
USER_CHARGES


@<TRIPOS>ATOM
  1 S        0.0430    -0.1940     0.0490 S.o2  1 <1>   1.4470 
  2 O       -0.0850     0.1220     1.4560 O.2   1 <1>  -0.6500 
  3 O       -0.6420     0.6280    -0.9250 O.2   1 <1>  -0.6500 
  4 N        1.6970    -0.1140    -0.3160 N.am  1 <1>  -0.8490 
  5 C       -0.3630    -1.9370    -0.2510 C.ar  1 <1>  -0.0090 
  6 C        2.5130    -0.8600     0.6570 C.3   1 <1>   0.1960 
  7 C        2.1460     1.2790    -0.4030 C.3   1 <1>   0.1960 
  8 C       -0.3200    -2.4660    -1.5360 C.ar  1 <1>  -0.1500 
  9 C       -0.7050    -2.7920     0.7920 C.ar  1 <1>  -0.1500 
 10 C        3.9800    -0.9040     0.2070 C.3   1 <1>  -0.0190 
 11 C        3.6040     1.3400    -0.8740 C.3   1 <1>  -0.1600 
 12 C       -0.6090    -3.7980    -1.7760 C.ar  1 <1>  -0.1500 
 13 C       -0.9950    -4.1260     0.5620 C.ar  1 <1>  -0.1500 
 14 C        4.8220    -1.7100     1.1860 C.2   1 <1>   0.5690 
 15 C        4.5300     0.5230     0.0370 C.3   1 <1>  -0.1600 
 16 C       -0.9460    -4.6300    -0.7250 C.ar  1 <1>  -0.1500 
 17 O        4.5140    -1.7550     2.3520 O.2   1 <1>  -0.5700 
 18 N        5.9150    -2.3590     0.7200 N.am  1 <1>  -0.7300 
 19 C        6.8450    -3.1230     1.5650 C.3   1 <1>   0.2840 
 20 C        8.1230    -3.3400     0.7750 C.ar  1 <1>  -0.1430 
 21 C        9.1030    -2.3600     0.7540 C.ar  1 <1>  -0.1500 
 22 C        8.3210    -4.5150     0.0640 C.ar  1 <1>  -0.1500 
 23 C       10.2670    -2.5540     0.0320 C.ar  1 <1>  -0.1500 
 24 C        9.4850    -4.7110    -0.6580 C.ar  1 <1>  -0.1500 
 25 C       10.4680    -3.7260    -0.6780 C.ar  1 <1>   0.0820 
 26 O       11.6360    -3.8360    -1.3580 O.3   1 <1>  -0.3620 
 27 C       11.9530    -4.9990    -2.0910 C.3   1 <1>   0.0400 
 28 H        2.1490    -1.8700     0.7440 H     1 <1>   0.0800 
 29 H        2.4410    -0.3960     1.6290 H     1 <1>   0.0800 
 30 H        2.0460     1.7570     0.5580 H     1 <1>   0.0800 
 31 H        1.5330     1.8160    -1.1090 H     1 <1>   0.0800 
 32 H       -0.0570    -1.8210    -2.3580 H     1 <1>   0.1500 
 33 H       -0.7460    -2.4080     1.7990 H     1 <1>   0.1500 
 34 H        4.0090    -1.4070    -0.7430 H     1 <1>   0.0800 
 35 H        3.9270     2.3650    -0.8930 H     1 <1>   0.0800 
 36 H        3.6550     0.9620    -1.8810 H     1 <1>   0.0800 
 37 H       -0.5720    -4.1860    -2.7800 H     1 <1>   0.1500 
 38 H       -1.2590    -4.7700     1.3830 H     1 <1>   0.1500 
 39 H        5.5220     0.4920    -0.3790 H     1 <1>   0.0800 
 40 H        4.5880     0.9970     1.0030 H     1 <1>   0.0800 
 41 H       -1.1720    -5.6670    -0.9070 H     1 <1>   0.1500 
 42 H        6.2010    -2.2890    -0.2580 H     1 <1>   0.3700 
 43 H        6.3970    -4.0660     1.8300 H     1 <1>   0.0800 
 44 H        7.0490    -2.5760     2.4700 H     1 <1>   0.0800 
 45 H        8.9630    -1.4420     1.2990 H     1 <1>   0.1500 
 46 H        7.5670    -5.2830     0.0710 H     1 <1>   0.1500 
 47 H       11.0300    -1.7960     0.0140 H     1 <1>   0.1500 
 48 H        9.6090    -5.6310    -1.1970 H     1 <1>   0.1500 
 49 H       12.9230    -4.8610    -2.5330 H     1 <1>   0.0800 
 50 H       11.2160    -5.1370    -2.8620 H     1 <1>   0.0800 
 51 H       11.9730    -5.8400    -1.4200 H     1 <1>   0.0800 
@<TRIPOS>BOND
  1   1   2  2   
  2   1   3  2   
  3   1   4  am  
  4   1   5  1   
  5   4   6  1   
  6   4   7  1   
  7   5   8  ar  
  8   5   9  ar  
  9   6  10  1   
 10   6  28  1   
 11   6  29  1   
 12   7  11  1   
 13   7  30  1   
 14   7  31  1   
 15   8  12  ar  
 16   8  32  1   
 17   9  13  ar  
 18   9  33  1   
 19  10  14  1   
 20  10  15  1   
 21  10  34  1   
 22  11  15  1   
 23  11  35  1   
 24  11  36  1   
 25  12  16  ar  
 26  12  37  1   
 27  13  16  ar  
 28  13  38  1   
 29  14  17  2   
 30  14  18  am  
 31  15  39  1   
 32  15  40  1   
 33  16  41  1   
 34  18  19  1   
 35  18  42  1   
 36  19  20  1   
 37  19  43  1   
 38  19  44  1   
 39  20  21  ar  
 40  20  22  ar  
 41  21  23  ar  
 42  21  45  1   
 43  22  24  ar  
 44  22  46  1   
 45  23  25  ar  
 46  23  47  1   
 47  24  25  ar  
 48  24  48  1   
 49  25  26  1   
 50  26  27  1   
 51  27  49  1   
 52  27  50  1   
 53  27  51  1   
@<TRIPOS>SUBSTRUCTURE
  1 ****  10 GROUP 4 **** **** 0

# MOE 2024.06 (io_trps.svl 2023.06)
