@<TRIPOS>MOLECULE
NONAME
44 45 1 0 0 
SMALL
USER_CHARGES


@<TRIPOS>ATOM
  1 O       -1.0780     3.5170     0.4530 O.2   1 <1>  -0.5700 
  2 C       -0.2500     3.0800    -0.3110 C.2   1 <1>   0.5690 
  3 N       -0.5400     2.8650    -1.6250 N.am  1 <1>  -0.7300 
  4 C        1.1220     2.6910     0.2090 C.3   1 <1>   0.0440 
  5 C       -1.7940     3.1970    -2.3790 C.3   1 <1>   0.1400 
  6 C        1.3060     1.1780     0.1130 C.ar  1 <1>  -0.1430 
  7 C       -3.1130     3.0710    -1.5770 C.3   1 <1>   0.3430 
  8 C        0.8450     0.3120     1.1030 C.ar  1 <1>  -0.1440 
  9 C        1.9410     0.6570    -1.0070 C.ar  1 <1>  -0.1500 
 10 N       -3.1130     1.9260    -0.6150 N.4   1 <1>  -0.9590 
 11 C        1.0150    -1.0550     0.9450 C.ar  1 <1>  -0.1500 
 12 C        0.1670     0.8150     2.3720 C.3   1 <1>  -0.0970 
 13 C        2.1030    -0.7080    -1.1560 C.ar  1 <1>  -0.1500 
 14 C       -2.8920     0.5930    -1.2450 C.3   1 <1>   0.3430 
 15 C       -4.2960     1.9620     0.2850 C.3   1 <1>   0.3430 
 16 C        1.6360    -1.5660    -0.1790 C.ar  1 <1>  -0.1500 
 17 C       -2.7150    -0.4690    -0.1590 C.3   1 <1>  -0.1600 
 18 C       -4.1250     0.9240     1.3960 C.3   1 <1>  -0.1600 
 19 C       -3.8870    -0.4820     0.8310 C.3   1 <1>  -0.1600 
 20 H        0.2130     2.4750    -2.2010 H     1 <1>   0.3700 
 21 H        1.2310     3.0240     1.2240 H     1 <1>   0.0800 
 22 H        1.8710     3.1960    -0.3710 H     1 <1>   0.0800 
 23 H       -1.8570     2.5430    -3.2320 H     1 <1>   0.0800 
 24 H       -1.7150     4.2010    -2.7600 H     1 <1>   0.0800 
 25 H       -3.9420     2.9860    -2.2590 H     1 <1>   0.0800 
 26 H       -3.2420     3.9860    -1.0200 H     1 <1>   0.0800 
 27 H        2.3230     1.3080    -1.7740 H     1 <1>   0.1500 
 28 H       -2.2880     2.1230    -0.0150 H     1 <1>   0.4500 
 29 H        0.6690    -1.7380     1.7020 H     1 <1>   0.1500 
 30 H       -0.2070    -0.0030     2.9600 H     1 <1>   0.0800 
 31 H        0.8730     1.3610     2.9710 H     1 <1>   0.0800 
 32 H       -0.6600     1.4580     2.1350 H     1 <1>   0.0800 
 33 H        2.5980    -1.1040    -2.0260 H     1 <1>   0.1500 
 34 H       -2.0080     0.6160    -1.8600 H     1 <1>   0.0800 
 35 H       -3.7370     0.3380    -1.8640 H     1 <1>   0.0800 
 36 H       -5.1900     1.7460    -0.2770 H     1 <1>   0.0800 
 37 H       -4.3930     2.9420     0.7250 H     1 <1>   0.0800 
 38 H        1.7640    -2.6290    -0.2890 H     1 <1>   0.1500 
 39 H       -1.7960    -0.2820     0.3650 H     1 <1>   0.0800 
 40 H       -2.6260    -1.4360    -0.6230 H     1 <1>   0.0800 
 41 H       -5.0080     0.9180     2.0100 H     1 <1>   0.0800 
 42 H       -3.2990     1.2130     2.0230 H     1 <1>   0.0800 
 43 H       -3.6770    -1.1690     1.6350 H     1 <1>   0.0800 
 44 H       -4.7770    -0.8250     0.3300 H     1 <1>   0.0800 
@<TRIPOS>BOND
  1   1   2  2   
  2   2   3  am  
  3   2   4  1   
  4   3   5  1   
  5   3  20  1   
  6   4   6  1   
  7   4  21  1   
  8   4  22  1   
  9   5   7  1   
 10   5  23  1   
 11   5  24  1   
 12   6   8  ar  
 13   6   9  ar  
 14   7  10  1   
 15   7  25  1   
 16   7  26  1   
 17   8  11  ar  
 18   8  12  1   
 19   9  13  ar  
 20   9  27  1   
 21  10  14  1   
 22  10  15  1   
 23  10  28  1   
 24  11  16  ar  
 25  11  29  1   
 26  12  30  1   
 27  12  31  1   
 28  12  32  1   
 29  13  16  ar  
 30  13  33  1   
 31  14  17  1   
 32  14  34  1   
 33  14  35  1   
 34  15  18  1   
 35  15  36  1   
 36  15  37  1   
 37  16  38  1   
 38  17  19  1   
 39  17  39  1   
 40  17  40  1   
 41  18  19  1   
 42  18  41  1   
 43  18  42  1   
 44  19  43  1   
 45  19  44  1   
@<TRIPOS>SUBSTRUCTURE
  1 ****   2 GROUP 4 **** **** 0

# MOE 2024.06 (io_trps.svl 2023.06)
