@<TRIPOS>MOLECULE
NONAME
48 49 1 0 0 
SMALL
USER_CHARGES


@<TRIPOS>ATOM
  1 O        2.6760     1.0720     0.3900 O.2   1 <1>  -0.5700 
  2 C        1.7930     1.8680     0.6860 C.2   1 <1>   0.5440 
  3 N        2.0440     2.8670     1.6150 N.am  1 <1>  -0.2980 
  4 C        0.4990     1.8400     0.0640 C.ar  1 <1>   0.0860 
  5 N        1.1870     3.9060     1.8640 N.2   1 <1>  -0.5120 
  6 C        3.3050     2.8390     2.4170 C.3   1 <1>   0.2010 
  7 C       -0.3950     2.8830     0.3590 C.ar  1 <1>   0.0860 
  8 C        0.1080     0.8270    -0.8170 C.ar  1 <1>  -0.1500 
  9 C        0.0440     3.9070     1.2730 C.2   1 <1>   0.3030 
 10 C        4.5260     3.2200     1.5880 C.2   1 <1>   0.5690 
 11 C       -1.6580     2.8640    -0.2530 C.ar  1 <1>  -0.1500 
 12 C       -1.1370     0.8330    -1.4050 C.ar  1 <1>  -0.1500 
 13 C       -0.8770     5.0750     1.5810 C.3   1 <1>  -0.1790 
 14 O        5.6120     2.7720     1.8770 O.2   1 <1>  -0.5700 
 15 N        4.3830     4.0330     0.5060 N.am  1 <1>  -0.7300 
 16 C       -2.0240     1.8590    -1.1200 C.ar  1 <1>  -0.1500 
 17 C        5.4750     4.5180    -0.3830 C.3   1 <1>   0.1400 
 18 C        5.9090     3.4560    -1.4160 C.3   1 <1>   0.3430 
 19 N        6.3410     2.1810    -0.7590 N.4   1 <1>  -0.9590 
 20 C        7.7850     1.8750    -0.9310 C.3   1 <1>   0.3430 
 21 C        5.4460     1.0580    -1.1430 C.3   1 <1>   0.3430 
 22 C        8.6260     2.9050    -0.1850 C.3   1 <1>  -0.2400 
 23 C        5.6340    -0.1190    -0.1920 C.3   1 <1>  -0.2400 
 24 H        3.4450     1.8500     2.8140 H     1 <1>   0.0800 
 25 H        3.2180     3.5220     3.2420 H     1 <1>   0.0800 
 26 H        0.7960     0.0270    -1.0350 H     1 <1>   0.1500 
 27 H       -2.3700     3.6440    -0.0500 H     1 <1>   0.1500 
 28 H       -1.4260     0.0460    -2.0820 H     1 <1>   0.1500 
 29 H       -1.7800     4.7210     2.0430 H     1 <1>   0.0800 
 30 H       -1.1170     5.6060     0.6780 H     1 <1>   0.0800 
 31 H       -0.3990     5.7610     2.2580 H     1 <1>   0.0800 
 32 H        3.4410     4.4150     0.3460 H     1 <1>   0.3700 
 33 H       -2.9990     1.8610    -1.5800 H     1 <1>   0.1500 
 34 H        6.3230     4.7960     0.2200 H     1 <1>   0.0800 
 35 H        5.1400     5.4010    -0.8990 H     1 <1>   0.0800 
 36 H        6.7160     3.8520    -2.0090 H     1 <1>   0.0800 
 37 H        5.0810     3.2650    -2.0790 H     1 <1>   0.0800 
 38 H        6.1770     2.3220     0.2620 H     1 <1>   0.4500 
 39 H        8.0430     1.8670    -1.9780 H     1 <1>   0.0800 
 40 H        8.0010     0.9020    -0.5230 H     1 <1>   0.0800 
 41 H        5.6420     0.7510    -2.1570 H     1 <1>   0.0800 
 42 H        4.4200     1.3850    -1.0820 H     1 <1>   0.0800 
 43 H        8.5410     3.8800    -0.6270 H     1 <1>   0.0800 
 44 H        9.6600     2.6130    -0.2300 H     1 <1>   0.0800 
 45 H        8.3380     2.9480     0.8510 H     1 <1>   0.0800 
 46 H        6.5960    -0.5800    -0.3100 H     1 <1>   0.0800 
 47 H        4.8860    -0.8610    -0.4070 H     1 <1>   0.0800 
 48 H        5.4980     0.1930     0.8280 H     1 <1>   0.0800 
@<TRIPOS>BOND
  1   1   2  2   
  2   2   3  am  
  3   2   4  1   
  4   3   5  1   
  5   3   6  1   
  6   4   7  ar  
  7   4   8  ar  
  8   5   9  2   
  9   6  10  1   
 10   6  24  1   
 11   6  25  1   
 12   7   9  1   
 13   7  11  ar  
 14   8  12  ar  
 15   8  26  1   
 16   9  13  1   
 17  10  14  2   
 18  10  15  am  
 19  11  16  ar  
 20  11  27  1   
 21  12  16  ar  
 22  12  28  1   
 23  13  29  1   
 24  13  30  1   
 25  13  31  1   
 26  15  17  1   
 27  15  32  1   
 28  16  33  1   
 29  17  18  1   
 30  17  34  1   
 31  17  35  1   
 32  18  19  1   
 33  18  36  1   
 34  18  37  1   
 35  19  20  1   
 36  19  21  1   
 37  19  38  1   
 38  20  22  1   
 39  20  39  1   
 40  20  40  1   
 41  21  23  1   
 42  21  41  1   
 43  21  42  1   
 44  22  43  1   
 45  22  44  1   
 46  22  45  1   
 47  23  46  1   
 48  23  47  1   
 49  23  48  1   
@<TRIPOS>SUBSTRUCTURE
  1 ****   2 GROUP 4 **** **** 0

# MOE 2024.06 (io_trps.svl 2023.06)
