@<TRIPOS>MOLECULE
NONAME
36 36 1 0 0 
SMALL
USER_CHARGES


@<TRIPOS>ATOM
  1 O       -0.5760    -0.3520     0.8560 O.3   1 <1>  -0.3630 
  2 C       -1.6660    -1.0350     0.4480 C.ar  1 <1>   0.0830 
  3 C        0.4670    -0.2200    -0.0820 C.3   1 <1>   0.1200 
  4 C       -1.7120    -2.4300     0.5030 C.ar  1 <1>   0.0730 
  5 C       -2.7510    -0.3110    -0.0110 C.ar  1 <1>  -0.1500 
  6 C        1.6090     0.5520     0.5760 C.3   1 <1>  -0.1600 
  7 C       -0.6160    -3.2150     0.9930 C.1   1 <1>  -0.0730 
  8 C       -2.8660    -3.0660     0.0660 C.ar  1 <1>  -0.1500 
  9 C       -3.8940    -0.9660    -0.4320 C.ar  1 <1>   0.0830 
 10 C        2.7870     0.7360    -0.3870 C.3   1 <1>  -0.2400 
 11 C        0.2950    -3.8650     1.4000 C.1   1 <1>  -0.1770 
 12 C       -3.9640    -2.3620    -0.4090 C.ar  1 <1>   0.0730 
 13 O       -4.9240    -0.2180    -0.8790 O.3   1 <1>  -0.3630 
 14 C       -5.1220    -3.0790    -0.8570 C.1   1 <1>  -0.0730 
 15 C       -5.9490     0.0520     0.0480 C.3   1 <1>   0.1200 
 16 C       -6.0860    -3.6720    -1.2290 C.1   1 <1>  -0.1770 
 17 C       -7.0250     0.8790    -0.6560 C.3   1 <1>  -0.1600 
 18 C       -8.1810     1.2140     0.2930 C.3   1 <1>  -0.2400 
 19 H        0.0860     0.3090    -0.9390 H     1 <1>   0.0800 
 20 H        0.7900    -1.2040    -0.3770 H     1 <1>   0.0800 
 21 H       -2.7060     0.7620    -0.0410 H     1 <1>   0.1500 
 22 H        1.9430     0.0130     1.4460 H     1 <1>   0.0800 
 23 H        1.2500     1.5180     0.8870 H     1 <1>   0.0800 
 24 H       -2.9110    -4.1400     0.0960 H     1 <1>   0.1500 
 25 H        3.1720    -0.2190    -0.6980 H     1 <1>   0.0800 
 26 H        3.5770     1.2810     0.0990 H     1 <1>   0.0800 
 27 H        2.4790     1.2870    -1.2580 H     1 <1>   0.0800 
 28 H        1.1180    -4.4480     1.7730 H     1 <1>   0.1770 
 29 H       -5.5240     0.5940     0.8740 H     1 <1>   0.0800 
 30 H       -6.3530    -0.8830     0.3960 H     1 <1>   0.0800 
 31 H       -6.9550    -4.2040    -1.5700 H     1 <1>   0.1770 
 32 H       -7.4050     0.3210    -1.4950 H     1 <1>   0.0800 
 33 H       -6.5880     1.7920    -1.0200 H     1 <1>   0.0800 
 34 H       -8.6440     0.3120     0.6560 H     1 <1>   0.0800 
 35 H       -8.9240     1.7940    -0.2250 H     1 <1>   0.0800 
 36 H       -7.8260     1.7850     1.1330 H     1 <1>   0.0800 
@<TRIPOS>BOND
  1   1   2  1   
  2   1   3  1   
  3   2   4  ar  
  4   2   5  ar  
  5   3   6  1   
  6   3  19  1   
  7   3  20  1   
  8   4   7  1   
  9   4   8  ar  
 10   5   9  ar  
 11   5  21  1   
 12   6  10  1   
 13   6  22  1   
 14   6  23  1   
 15   7  11  3   
 16   8  12  ar  
 17   8  24  1   
 18   9  12  ar  
 19   9  13  1   
 20  10  25  1   
 21  10  26  1   
 22  10  27  1   
 23  11  28  1   
 24  12  14  1   
 25  13  15  1   
 26  14  16  3   
 27  15  17  1   
 28  15  29  1   
 29  15  30  1   
 30  16  31  1   
 31  17  18  1   
 32  17  32  1   
 33  17  33  1   
 34  18  34  1   
 35  18  35  1   
 36  18  36  1   
@<TRIPOS>SUBSTRUCTURE
  1 ****   5 GROUP 4 **** **** 0

# MOE 2024.06 (io_trps.svl 2023.06)
