@<TRIPOS>MOLECULE
NONAME
54 57 1 0 0 
SMALL
USER_CHARGES


@<TRIPOS>ATOM
  1 O        0.3340     0.6130     1.2150 O.2   1 <1>  -0.5700 
  2 C        0.7050     1.4890     0.4710 C.2   1 <1>   0.5690 
  3 N       -0.1440     2.3720    -0.1380 N.am  1 <1>  -0.5470 
  4 C        2.2010     1.6450     0.1940 C.3   1 <1>  -0.0190 
  5 C       -1.5460     2.4970    -0.1000 C.ar  1 <1>   0.1170 
  6 C        2.8080     0.3520    -0.3850 C.3   1 <1>  -0.1600 
  7 C        2.9600     2.0770     1.4640 C.3   1 <1>  -0.1600 
  8 C       -2.1090     3.7130    -0.4390 C.ar  1 <1>  -0.1500 
  9 C       -2.3920     1.4280     0.2500 C.ar  1 <1>  -0.1500 
 10 C        4.3120     0.5060    -0.6530 C.3   1 <1>  -0.1600 
 11 C        4.4640     2.2300     1.1980 C.3   1 <1>  -0.1600 
 12 C       -3.4910     3.8680    -0.4250 C.ar  1 <1>   0.2270 
 13 C       -3.7610     1.5700     0.2700 C.ar  1 <1>  -0.1500 
 14 C        5.0580     0.9410     0.6150 C.3   1 <1>  -0.1600 
 15 N       -4.2360     4.9700    -0.7210 N.2   1 <1>  -0.5650 
 16 C       -4.3050     2.8080    -0.0740 C.ar  1 <1>  -0.1520 
 17 C       -5.4540     4.5820    -0.5450 C.2   1 <1>   0.0060 
 18 N       -5.5730     3.2870    -0.1590 N.pl3 1 <1>   0.0480 
 19 C       -6.6970     5.4380    -0.7500 C.3   1 <1>   0.2900 
 20 C       -6.8450     2.6120     0.1500 C.3   1 <1>   0.0960 
 21 N       -7.8990     4.8420    -0.1070 N.3   1 <1>  -0.8100 
 22 C       -8.0200     3.4070    -0.4390 C.3   1 <1>   0.1100 
 23 C       -9.1060     5.6080    -0.4750 C.3   1 <1>   0.1100 
 24 C      -10.2210     5.4180     0.5550 C.3   1 <1>   0.1200 
 25 O      -11.3300     6.1500     0.1360 O.3   1 <1>  -0.5600 
 26 C      -12.4000     6.1070     1.0230 C.3   1 <1>   0.0400 
 27 H        0.3160     3.1030    -0.6750 H     1 <1>   0.3700 
 28 H        2.3270     2.4190    -0.5410 H     1 <1>   0.0800 
 29 H        2.3030     0.0930    -1.3000 H     1 <1>   0.0800 
 30 H        2.6540    -0.4550     0.3120 H     1 <1>   0.0800 
 31 H        2.8100     1.3370     2.2330 H     1 <1>   0.0800 
 32 H        2.5610     3.0090     1.8250 H     1 <1>   0.0800 
 33 H       -1.5120     4.5590    -0.7130 H     1 <1>   0.1500 
 34 H       -1.9610     0.4780     0.5060 H     1 <1>   0.1500 
 35 H        4.4670     1.2370    -1.4280 H     1 <1>   0.0800 
 36 H        4.7130    -0.4310    -1.0010 H     1 <1>   0.0800 
 37 H        4.9690     2.4740     2.1170 H     1 <1>   0.0800 
 38 H        4.6270     3.0410     0.5090 H     1 <1>   0.0800 
 39 H       -4.4000     0.7500     0.5430 H     1 <1>   0.1500 
 40 H        6.0990     1.0940     0.3870 H     1 <1>   0.0800 
 41 H        4.9940     0.1570     1.3500 H     1 <1>   0.0800 
 42 H       -6.8640     5.5430    -1.8080 H     1 <1>   0.0800 
 43 H       -6.5160     6.4150    -0.3380 H     1 <1>   0.0800 
 44 H       -6.9480     2.5530     1.2170 H     1 <1>   0.0800 
 45 H       -6.8280     1.6180    -0.2560 H     1 <1>   0.0800 
 46 H       -8.9350     3.0090    -0.0390 H     1 <1>   0.0800 
 47 H       -8.0420     3.2810    -1.5090 H     1 <1>   0.0800 
 48 H       -9.4520     5.3100    -1.4500 H     1 <1>   0.0800 
 49 H       -8.8690     6.6580    -0.5010 H     1 <1>   0.0800 
 50 H       -9.9020     5.7890     1.5130 H     1 <1>   0.0800 
 51 H      -10.5070     4.3850     0.6290 H     1 <1>   0.0800 
 52 H      -13.2010     6.6950     0.6110 H     1 <1>   0.0800 
 53 H      -12.0950     6.5220     1.9680 H     1 <1>   0.0800 
 54 H      -12.7240     5.0870     1.1420 H     1 <1>   0.0800 
@<TRIPOS>BOND
  1   1   2  2   
  2   2   3  am  
  3   2   4  1   
  4   3   5  1   
  5   3  27  1   
  6   4   6  1   
  7   4   7  1   
  8   4  28  1   
  9   5   8  ar  
 10   5   9  ar  
 11   6  10  1   
 12   6  29  1   
 13   6  30  1   
 14   7  11  1   
 15   7  31  1   
 16   7  32  1   
 17   8  12  ar  
 18   8  33  1   
 19   9  13  ar  
 20   9  34  1   
 21  10  14  1   
 22  10  35  1   
 23  10  36  1   
 24  11  14  1   
 25  11  37  1   
 26  11  38  1   
 27  12  15  1   
 28  12  16  ar  
 29  13  16  ar  
 30  13  39  1   
 31  14  40  1   
 32  14  41  1   
 33  15  17  2   
 34  16  18  1   
 35  17  18  1   
 36  17  19  1   
 37  18  20  1   
 38  19  21  1   
 39  19  42  1   
 40  19  43  1   
 41  20  22  1   
 42  20  44  1   
 43  20  45  1   
 44  21  22  1   
 45  21  23  1   
 46  22  46  1   
 47  22  47  1   
 48  23  24  1   
 49  23  48  1   
 50  23  49  1   
 51  24  25  1   
 52  24  50  1   
 53  24  51  1   
 54  25  26  1   
 55  26  52  1   
 56  26  53  1   
 57  26  54  1   
@<TRIPOS>SUBSTRUCTURE
  1 ****  12 GROUP 4 **** **** 0

# MOE 2024.06 (io_trps.svl 2023.06)
