@<TRIPOS>MOLECULE
NONAME
19 18 1 0 0 
SMALL
USER_CHARGES


@<TRIPOS>ATOM
  1 S        0.7930     3.8800     2.0560 S.2   1 <1>  -1.1770 
  2 P        0.5940     2.3210     0.8610 P.3   1 <1>   1.4200 
  3 O        1.9660     2.2140    -0.0030 O.3   1 <1>  -0.5510 
  4 O       -0.4820     2.7410    -0.2820 O.3   1 <1>  -0.5510 
  5 O        0.2420     0.9750     1.4000 O.3   1 <1>  -0.7000 
  6 C        3.1720     2.1770     0.6600 C.3   1 <1>   0.1200 
  7 C       -1.7110     3.2280     0.1040 C.3   1 <1>   0.1200 
  8 C        4.2720     1.9770    -0.3770 C.3   1 <1>  -0.2400 
  9 C       -2.5450     3.4450    -1.1540 C.3   1 <1>  -0.2400 
 10 H        3.1470     1.3630     1.3660 H     1 <1>   0.0800 
 11 H        3.2990     3.1090     1.1870 H     1 <1>   0.0800 
 12 H       -1.5580     4.1550     0.6330 H     1 <1>   0.0800 
 13 H       -2.1710     2.5090     0.7600 H     1 <1>   0.0800 
 14 H        4.1170     1.0510    -0.9010 H     1 <1>   0.0800 
 15 H        5.2280     1.9450     0.1120 H     1 <1>   0.0800 
 16 H        4.2650     2.7940    -1.0750 H     1 <1>   0.0800 
 17 H       -2.0570     4.1550    -1.7960 H     1 <1>   0.0800 
 18 H       -3.5120     3.8280    -0.8850 H     1 <1>   0.0800 
 19 H       -2.6710     2.5130    -1.6750 H     1 <1>   0.0800 
@<TRIPOS>BOND
  1   1   2  2   
  2   2   3  1   
  3   2   4  1   
  4   2   5  1   
  5   3   6  1   
  6   4   7  1   
  7   6   8  1   
  8   6  10  1   
  9   6  11  1   
 10   7   9  1   
 11   7  12  1   
 12   7  13  1   
 13   8  14  1   
 14   8  15  1   
 15   8  16  1   
 16   9  17  1   
 17   9  18  1   
 18   9  19  1   
@<TRIPOS>SUBSTRUCTURE
  1 ****   2 GROUP 4 **** **** 0

# MOE 2024.06 (io_trps.svl 2023.06)
