@<TRIPOS>MOLECULE
NONAME
40 41 1 0 0 
SMALL
USER_CHARGES


@<TRIPOS>ATOM
  1 N        0.0780    -0.2590     0.0640 N.3   1 <1>  -0.8100 
  2 C        0.2770     0.7630    -0.9970 C.3   1 <1>   0.1100 
  3 C       -1.1950    -0.9850    -0.1500 C.3   1 <1>   0.1100 
  4 C        1.2170    -1.1830     0.1610 C.3   1 <1>   0.2480 
  5 C       -0.9420     1.7060    -1.1510 C.3   1 <1>   0.3430 
  6 C       -2.4130    -0.0270    -0.2010 C.3   1 <1>   0.3430 
  7 C        2.4430    -0.4040     0.5830 C.2   1 <1>  -0.2880 
  8 N       -1.9840     1.4110    -0.1140 N.4   1 <1>  -0.9590 
  9 C        3.5720    -0.2890    -0.1370 C.2   1 <1>  -0.1780 
 10 C       -3.0920     2.3970    -0.1100 C.3   1 <1>   0.3430 
 11 C        4.7740     0.4480     0.1900 C.ar  1 <1>   0.0280 
 12 C       -3.8910     2.2690     1.1820 C.3   1 <1>  -0.2400 
 13 C        5.8270     0.5020    -0.7210 C.ar  1 <1>  -0.1500 
 14 C        4.9340     1.1250     1.3980 C.ar  1 <1>  -0.1500 
 15 C        6.9870     1.2030    -0.4430 C.ar  1 <1>  -0.1500 
 16 C        6.0900     1.8290     1.6820 C.ar  1 <1>  -0.1500 
 17 C        7.1200     1.8710     0.7600 C.ar  1 <1>  -0.1500 
 18 H        1.1390     1.3650    -0.7610 H     1 <1>   0.0800 
 19 H        0.4730     0.2820    -1.9410 H     1 <1>   0.0800 
 20 H       -1.1470    -1.5440    -1.0690 H     1 <1>   0.0800 
 21 H       -1.3450    -1.6900     0.6510 H     1 <1>   0.0800 
 22 H        1.0140    -1.9380     0.9030 H     1 <1>   0.0800 
 23 H        1.3860    -1.6710    -0.7850 H     1 <1>   0.0800 
 24 H       -1.3590     1.5860    -2.1370 H     1 <1>   0.0800 
 25 H       -0.6050     2.7250    -1.0580 H     1 <1>   0.0800 
 26 H       -3.0690    -0.2630     0.6200 H     1 <1>   0.0800 
 27 H       -2.9590    -0.1960    -1.1140 H     1 <1>   0.0800 
 28 H        2.3020     0.0620     1.5410 H     1 <1>   0.1500 
 29 H       -1.4610     1.4610     0.7740 H     1 <1>   0.4500 
 30 H        3.6340    -0.7910    -1.0870 H     1 <1>   0.1500 
 31 H       -2.6870     3.3950    -0.1710 H     1 <1>   0.0800 
 32 H       -3.7350     2.2400    -0.9620 H     1 <1>   0.0800 
 33 H       -3.2530     2.3910     2.0390 H     1 <1>   0.0800 
 34 H       -4.4000     1.3240     1.2380 H     1 <1>   0.0800 
 35 H       -4.6370     3.0430     1.2110 H     1 <1>   0.0800 
 36 H        5.7420    -0.0110    -1.6610 H     1 <1>   0.1500 
 37 H        4.1510     1.1050     2.1310 H     1 <1>   0.1500 
 38 H        7.7860     1.2310    -1.1640 H     1 <1>   0.1500 
 39 H        6.1890     2.3450     2.6210 H     1 <1>   0.1500 
 40 H        8.0210     2.4180     0.9790 H     1 <1>   0.1500 
@<TRIPOS>BOND
  1   1   2  1   
  2   1   3  1   
  3   1   4  1   
  4   2   5  1   
  5   2  18  1   
  6   2  19  1   
  7   3   6  1   
  8   3  20  1   
  9   3  21  1   
 10   4   7  1   
 11   4  22  1   
 12   4  23  1   
 13   5   8  1   
 14   5  24  1   
 15   5  25  1   
 16   6   8  1   
 17   6  26  1   
 18   6  27  1   
 19   7   9  2   
 20   7  28  1   
 21   8  10  1   
 22   8  29  1   
 23   9  11  1   
 24   9  30  1   
 25  10  12  1   
 26  10  31  1   
 27  10  32  1   
 28  11  13  ar  
 29  11  14  ar  
 30  12  33  1   
 31  12  34  1   
 32  12  35  1   
 33  13  15  ar  
 34  13  36  1   
 35  14  16  ar  
 36  14  37  1   
 37  15  17  ar  
 38  15  38  1   
 39  16  17  ar  
 40  16  39  1   
 41  17  40  1   
@<TRIPOS>SUBSTRUCTURE
  1 ****   7 GROUP 4 **** **** 0

# MOE 2024.06 (io_trps.svl 2023.06)
