@<TRIPOS>MOLECULE
NONAME
50 51 1 0 0 
SMALL
USER_CHARGES


@<TRIPOS>ATOM
  1 S        0.9410     0.4310     0.5570 S.o2  1 <1>   1.3330 
  2 O        1.3270     1.0910     1.7800 O.2   1 <1>  -0.6500 
  3 O        1.9040    -0.3150    -0.2170 O.2   1 <1>  -0.6500 
  4 N        0.2560     1.6090    -0.5020 N.am  1 <1>  -0.6930 
  5 C       -0.4430    -0.6410     0.8760 C.3   1 <1>  -0.1350 
  6 C       -0.8820     2.3050    -0.0950 C.ar  1 <1>   0.1990 
  7 C        1.2450     2.2780    -1.4100 C.3   1 <1>   0.3370 
  8 C       -0.8460     3.2180     0.9520 C.ar  1 <1>  -0.1500 
  9 C       -2.0950     2.0680    -0.7300 C.ar  1 <1>  -0.1500 
 10 C        2.1510     3.3310    -0.7060 C.2   1 <1>   0.5690 
 11 C        0.5090     2.8760    -2.6210 C.3   1 <1>  -0.2400 
 12 C       -1.9900     3.8800     1.3590 C.ar  1 <1>  -0.1500 
 13 C       -3.2430     2.7250    -0.3270 C.ar  1 <1>  -0.1500 
 14 O        1.6440     4.4060    -0.4610 O.2   1 <1>  -0.5700 
 15 N        3.4820     3.1090    -0.3910 N.am  1 <1>  -0.6600 
 16 C       -3.2010     3.6340     0.7170 C.ar  1 <1>   0.0830 
 17 C        4.2640     1.8650    -0.6610 C.3   1 <1>   0.1400 
 18 C        4.2580     4.1830     0.2980 C.3   1 <1>   0.1400 
 19 O       -4.3740     4.2380     1.0510 O.3   1 <1>  -0.3630 
 20 C        4.7360     1.1740     0.6260 C.3   1 <1>  -0.1600 
 21 C        4.2570     3.9280     1.8070 C.3   1 <1>  -0.1600 
 22 C       -4.4060     5.2500     2.0320 C.3   1 <1>   0.0400 
 23 C        5.8680     1.9190     1.3480 C.3   1 <1>  -0.1600 
 24 C        5.3880     3.0150     2.3130 C.3   1 <1>  -0.1600 
 25 H       -0.1390    -1.4560     1.5030 H     1 <1>   0.0800 
 26 H       -0.8240    -1.0370    -0.0440 H     1 <1>   0.0800 
 27 H       -1.2250    -0.1000     1.3730 H     1 <1>   0.0800 
 28 H        1.8670     1.5140    -1.8260 H     1 <1>   0.0800 
 29 H        0.0890     3.4130     1.4480 H     1 <1>   0.1500 
 30 H       -2.1330     1.3670    -1.5420 H     1 <1>   0.1500 
 31 H       -0.1300     3.6860    -2.3160 H     1 <1>   0.0800 
 32 H       -0.0740     2.1210    -3.1140 H     1 <1>   0.0800 
 33 H        1.2270     3.2670    -3.3190 H     1 <1>   0.0800 
 34 H       -1.9150     4.5790     2.1700 H     1 <1>   0.1500 
 35 H       -4.1810     2.5410    -0.8210 H     1 <1>   0.1500 
 36 H        5.1190     2.1190    -1.2640 H     1 <1>   0.0800 
 37 H        3.6900     1.1580    -1.2240 H     1 <1>   0.0800 
 38 H        3.8050     5.1410     0.1070 H     1 <1>   0.0800 
 39 H        5.2620     4.2270    -0.0860 H     1 <1>   0.0800 
 40 H        5.1080     0.2050     0.3440 H     1 <1>   0.0800 
 41 H        3.9080     1.0090     1.2900 H     1 <1>   0.0800 
 42 H        3.3030     3.5130     2.0860 H     1 <1>   0.0800 
 43 H        4.3420     4.8730     2.3120 H     1 <1>   0.0800 
 44 H       -5.4160     5.6110     2.1070 H     1 <1>   0.0800 
 45 H       -3.7530     6.0500     1.7300 H     1 <1>   0.0800 
 46 H       -4.0960     4.8340     2.9740 H     1 <1>   0.0800 
 47 H        6.5420     2.3410     0.6230 H     1 <1>   0.0800 
 48 H        6.4350     1.2060     1.9220 H     1 <1>   0.0800 
 49 H        5.0530     2.5510     3.2250 H     1 <1>   0.0800 
 50 H        6.2380     3.6250     2.5670 H     1 <1>   0.0800 
@<TRIPOS>BOND
  1   1   2  2   
  2   1   3  2   
  3   1   4  am  
  4   1   5  1   
  5   4   6  1   
  6   4   7  1   
  7   5  25  1   
  8   5  26  1   
  9   5  27  1   
 10   6   8  ar  
 11   6   9  ar  
 12   7  10  1   
 13   7  11  1   
 14   7  28  1   
 15   8  12  ar  
 16   8  29  1   
 17   9  13  ar  
 18   9  30  1   
 19  10  14  2   
 20  10  15  am  
 21  11  31  1   
 22  11  32  1   
 23  11  33  1   
 24  12  16  ar  
 25  12  34  1   
 26  13  16  ar  
 27  13  35  1   
 28  15  17  1   
 29  15  18  1   
 30  16  19  1   
 31  17  20  1   
 32  17  36  1   
 33  17  37  1   
 34  18  21  1   
 35  18  38  1   
 36  18  39  1   
 37  19  22  1   
 38  20  23  1   
 39  20  40  1   
 40  20  41  1   
 41  21  24  1   
 42  21  42  1   
 43  21  43  1   
 44  22  44  1   
 45  22  45  1   
 46  22  46  1   
 47  23  24  1   
 48  23  47  1   
 49  23  48  1   
 50  24  49  1   
 51  24  50  1   
@<TRIPOS>SUBSTRUCTURE
  1 ****   4 GROUP 4 **** **** 0

# MOE 2024.06 (io_trps.svl 2023.06)
