@<TRIPOS>MOLECULE
NONAME
28 30 1 0 0 
SMALL
USER_CHARGES


@<TRIPOS>ATOM
  1 S       -4.0320     2.0350     0.6920 S.3   1 <1>  -0.4600 
  2 C       -5.3910     1.6070    -0.4210 C.3   1 <1>   0.5300 
  3 C       -3.2760     3.3390    -0.3220 C.3   1 <1>   0.1310 
  4 N       -5.1470     2.4650    -1.5860 N.am  1 <1>  -0.7300 
  5 C       -6.7550     1.9050     0.2520 C.3   1 <1>  -0.0800 
  6 C       -5.3140     0.0850    -0.7460 C.3   1 <1>   0.3430 
  7 C       -4.1320     3.3520    -1.5670 C.2   1 <1>   0.5690 
  8 C       -6.9170     1.0140     1.5080 C.3   1 <1>  -0.1600 
  9 C       -7.8800     1.4590    -0.7140 C.3   1 <1>  -0.1600 
 10 N       -6.5850    -0.6430    -0.3280 N.4   1 <1>  -0.9590 
 11 O       -3.9340     4.1050    -2.4820 O.2   1 <1>  -0.5700 
 12 C       -6.7630    -0.4810     1.1570 C.3   1 <1>   0.3430 
 13 C       -7.7670    -0.0470    -1.0420 C.3   1 <1>   0.3430 
 14 H       -2.2590     3.0670    -0.5360 H     1 <1>   0.0800 
 15 H       -3.3340     4.2690     0.2120 H     1 <1>   0.0800 
 16 H       -5.8110     2.5120    -2.3580 H     1 <1>   0.3700 
 17 H       -6.8380     2.9490     0.5050 H     1 <1>   0.0800 
 18 H       -4.4710    -0.3350    -0.2240 H     1 <1>   0.0800 
 19 H       -5.1530    -0.0370    -1.8030 H     1 <1>   0.0800 
 20 H       -7.8860     1.1730     1.9480 H     1 <1>   0.0800 
 21 H       -6.1980     1.2780     2.2650 H     1 <1>   0.0800 
 22 H       -7.8510     2.0290    -1.6260 H     1 <1>   0.0800 
 23 H       -8.8420     1.6490    -0.2690 H     1 <1>   0.0800 
 24 H       -6.5050    -1.6450    -0.5570 H     1 <1>   0.4500 
 25 H       -5.9060    -0.8840     1.6740 H     1 <1>   0.0800 
 26 H       -7.6370    -1.0210     1.4870 H     1 <1>   0.0800 
 27 H       -7.6580    -0.1780    -2.1070 H     1 <1>   0.0800 
 28 H       -8.6710    -0.5510    -0.7360 H     1 <1>   0.0800 
@<TRIPOS>BOND
  1   1   2  1   
  2   1   3  1   
  3   2   4  1   
  4   2   5  1   
  5   2   6  1   
  6   3   7  1   
  7   3  14  1   
  8   3  15  1   
  9   4   7  am  
 10   4  16  1   
 11   5   8  1   
 12   5   9  1   
 13   5  17  1   
 14   6  10  1   
 15   6  18  1   
 16   6  19  1   
 17   7  11  2   
 18   8  12  1   
 19   8  20  1   
 20   8  21  1   
 21   9  13  1   
 22   9  22  1   
 23   9  23  1   
 24  10  12  1   
 25  10  13  1   
 26  10  24  1   
 27  12  25  1   
 28  12  26  1   
 29  13  27  1   
 30  13  28  1   
@<TRIPOS>SUBSTRUCTURE
  1 ****   2 GROUP 4 **** **** 0

# MOE 2024.06 (io_trps.svl 2023.06)
