@<TRIPOS>MOLECULE
NONAME
40 41 1 0 0 
SMALL
USER_CHARGES


@<TRIPOS>ATOM
  1 O       -3.3150    -0.5360    -0.7780 O.2   1 <1>  -0.5700 
  2 C       -3.6470     0.5260    -0.3080 C.2   1 <1>   0.6340 
  3 O       -4.9230     0.6420     0.0700 O.3   1 <1>  -0.4300 
  4 C       -2.7420     1.6520    -0.1880 C.ar  1 <1>   0.0860 
  5 C       -5.6360     1.8510     0.0020 C.3   1 <1>   0.1200 
  6 C       -1.9620     2.0560    -1.2710 C.ar  1 <1>  -0.1500 
  7 C       -2.6140     2.3690     1.0030 C.ar  1 <1>  -0.1500 
  8 C       -7.1220     1.4910     0.0250 C.3   1 <1>  -0.1600 
  9 C       -1.1120     3.1430    -1.1810 C.ar  1 <1>  -0.1500 
 10 C       -1.7660     3.4580     1.1000 C.ar  1 <1>  -0.1500 
 11 C       -7.9940     2.7410    -0.0750 C.3   1 <1>   0.3430 
 12 C       -1.0170     3.8490     0.0050 C.ar  1 <1>  -0.1500 
 13 N       -9.4290     2.3640    -0.2110 N.4   1 <1>  -0.9590 
 14 C      -10.2350     3.5310    -0.6770 C.3   1 <1>   0.3430 
 15 C       -9.9930     1.7830     1.0470 C.3   1 <1>   0.3430 
 16 C      -11.6700     3.0870    -0.9650 C.3   1 <1>  -0.1600 
 17 C      -11.4240     1.3030     0.7980 C.3   1 <1>  -0.1600 
 18 C      -12.3160     2.4280     0.2600 C.3   1 <1>  -0.1600 
 19 H       -5.3720     2.3540    -0.9140 H     1 <1>   0.0800 
 20 H       -5.3660     2.4580     0.8500 H     1 <1>   0.0800 
 21 H       -2.0230     1.5030    -2.1940 H     1 <1>   0.1500 
 22 H       -3.1780     2.0620     1.8660 H     1 <1>   0.1500 
 23 H       -7.3250     0.9660     0.9410 H     1 <1>   0.0800 
 24 H       -7.3230     0.8430    -0.8110 H     1 <1>   0.0800 
 25 H       -0.5220     3.4390    -2.0310 H     1 <1>   0.1500 
 26 H       -1.6810     3.9990     2.0270 H     1 <1>   0.1500 
 27 H       -7.6900     3.3050    -0.9430 H     1 <1>   0.0800 
 28 H       -7.8540     3.3620     0.7950 H     1 <1>   0.0800 
 29 H       -0.3550     4.6960     0.0770 H     1 <1>   0.1500 
 30 H       -9.5040     1.6400    -0.9370 H     1 <1>   0.4500 
 31 H       -9.8040     3.9460    -1.5740 H     1 <1>   0.0800 
 32 H      -10.2420     4.2970     0.0820 H     1 <1>   0.0800 
 33 H       -9.9940     2.5280     1.8260 H     1 <1>   0.0800 
 34 H       -9.3940     0.9490     1.3760 H     1 <1>   0.0800 
 35 H      -11.6740     2.4020    -1.7950 H     1 <1>   0.0800 
 36 H      -12.2520     3.9440    -1.2550 H     1 <1>   0.0800 
 37 H      -11.8360     0.9340     1.7220 H     1 <1>   0.0800 
 38 H      -11.4090     0.4810     0.1040 H     1 <1>   0.0800 
 39 H      -13.2840     2.0340    -0.0040 H     1 <1>   0.0800 
 40 H      -12.4650     3.1680     1.0300 H     1 <1>   0.0800 
@<TRIPOS>BOND
  1   1   2  2   
  2   2   3  1   
  3   2   4  1   
  4   3   5  1   
  5   4   6  ar  
  6   4   7  ar  
  7   5   8  1   
  8   5  19  1   
  9   5  20  1   
 10   6   9  ar  
 11   6  21  1   
 12   7  10  ar  
 13   7  22  1   
 14   8  11  1   
 15   8  23  1   
 16   8  24  1   
 17   9  12  ar  
 18   9  25  1   
 19  10  12  ar  
 20  10  26  1   
 21  11  13  1   
 22  11  27  1   
 23  11  28  1   
 24  12  29  1   
 25  13  14  1   
 26  13  15  1   
 27  13  30  1   
 28  14  16  1   
 29  14  31  1   
 30  14  32  1   
 31  15  17  1   
 32  15  33  1   
 33  15  34  1   
 34  16  18  1   
 35  16  35  1   
 36  16  36  1   
 37  17  18  1   
 38  17  37  1   
 39  17  38  1   
 40  18  39  1   
 41  18  40  1   
@<TRIPOS>SUBSTRUCTURE
  1 ****   5 GROUP 4 **** **** 0

# MOE 2024.06 (io_trps.svl 2023.06)
