@<TRIPOS>MOLECULE
NONAME
33 35 1 0 0 
SMALL
USER_CHARGES


@<TRIPOS>ATOM
  1 S        0.0540    -0.1970     0.1050 S.3   1 <1>  -0.0800 
  2 C        1.2350     1.1000    -0.0280 C.2   1 <1>  -0.1400 
  3 C       -1.2640     0.8970    -0.2650 C.2   1 <1>  -0.1400 
  4 C        0.6230     2.2690    -0.3270 C.2   1 <1>   0.0630 
  5 C        2.6710     0.6670     0.2090 C.3   1 <1>   0.0200 
  6 C       -0.8100     2.1470    -0.4650 C.2   1 <1>  -0.1810 
  7 C       -2.6570     0.3040    -0.3050 C.3   1 <1>   0.0200 
  8 N        1.2500     3.5150    -0.5030 N.am  1 <1>  -0.4930 
  9 C        3.7200     1.7280    -0.1460 C.3   1 <1>  -0.1600 
 10 C       -1.7300     3.3130    -0.8090 C.3   1 <1>   0.0210 
 11 C       -3.6250     1.0590     0.6130 C.3   1 <1>  -0.1600 
 12 C        2.4820     3.9570    -0.1560 C.2   1 <1>   0.5690 
 13 C        3.4760     3.0680     0.5680 C.3   1 <1>  -0.0990 
 14 C       -2.8520     3.4990     0.2220 C.3   1 <1>  -0.1600 
 15 C       -3.9900     2.4690     0.1210 C.3   1 <1>  -0.1600 
 16 O        2.8010     5.0900    -0.4170 O.2   1 <1>  -0.5700 
 17 H        2.8650    -0.2130    -0.3780 H     1 <1>   0.0800 
 18 H        2.7750     0.3940     1.2450 H     1 <1>   0.0800 
 19 H       -2.6090    -0.7220     0.0160 H     1 <1>   0.0800 
 20 H       -3.0200     0.3120    -1.3180 H     1 <1>   0.0800 
 21 H        0.6910     4.2350    -0.9520 H     1 <1>   0.3700 
 22 H        3.7330     1.8840    -1.2110 H     1 <1>   0.0800 
 23 H        4.6860     1.3520     0.1400 H     1 <1>   0.0800 
 24 H       -2.1520     3.1530    -1.7860 H     1 <1>   0.0800 
 25 H       -1.1750     4.2310    -0.8520 H     1 <1>   0.0800 
 26 H       -3.2040     1.1170     1.6030 H     1 <1>   0.0800 
 27 H       -4.5310     0.4840     0.6830 H     1 <1>   0.0800 
 28 H        4.4090     3.6010     0.6220 H     1 <1>   0.0800 
 29 H        3.1370     2.9070     1.5740 H     1 <1>   0.0800 
 30 H       -3.2790     4.4740     0.0690 H     1 <1>   0.0800 
 31 H       -2.4330     3.4860     1.2140 H     1 <1>   0.0800 
 32 H       -4.8050     2.8240     0.7280 H     1 <1>   0.0800 
 33 H       -4.3510     2.4200    -0.8930 H     1 <1>   0.0800 
@<TRIPOS>BOND
  1   1   2  1   
  2   1   3  1   
  3   2   4  2   
  4   2   5  1   
  5   3   6  2   
  6   3   7  1   
  7   4   6  1   
  8   4   8  1   
  9   5   9  1   
 10   5  17  1   
 11   5  18  1   
 12   6  10  1   
 13   7  11  1   
 14   7  19  1   
 15   7  20  1   
 16   8  12  am  
 17   8  21  1   
 18   9  13  1   
 19   9  22  1   
 20   9  23  1   
 21  10  14  1   
 22  10  24  1   
 23  10  25  1   
 24  11  15  1   
 25  11  26  1   
 26  11  27  1   
 27  12  13  1   
 28  12  16  2   
 29  13  28  1   
 30  13  29  1   
 31  14  15  1   
 32  14  30  1   
 33  14  31  1   
 34  15  32  1   
 35  15  33  1   
@<TRIPOS>SUBSTRUCTURE
  1 ****   4 GROUP 4 **** **** 0

# MOE 2024.06 (io_trps.svl 2023.06)
