@<TRIPOS>MOLECULE
NONAME
40 42 1 0 0 
SMALL
USER_CHARGES


@<TRIPOS>ATOM
  1 CL      -2.0190     1.7360    -3.3850 Cl    1 <1>  -0.1770 
  2 C       -2.5430     1.6590    -1.7240 C.ar  1 <1>   0.1770 
  3 C       -3.6780     0.9350    -1.4110 C.ar  1 <1>  -0.1500 
  4 C       -1.8210     2.3210    -0.7510 C.ar  1 <1>  -0.1500 
  5 C       -4.1100     0.8750    -0.0930 C.ar  1 <1>  -0.1440 
  6 C       -2.2450     2.2540     0.5650 C.ar  1 <1>  -0.1500 
  7 C       -3.3830     1.5340     0.8920 C.ar  1 <1>  -0.1500 
  8 C       -5.3650     0.1020     0.2690 C.3   1 <1>   0.4870 
  9 N       -6.5500     0.8700    -0.1960 N.4   1 <1>  -0.9590 
 10 C       -6.6480     2.2180     0.4820 C.3   1 <1>   0.3430 
 11 C       -7.8280     0.0870    -0.0220 C.3   1 <1>   0.3430 
 12 C       -7.8830     3.0210     0.0250 C.3   1 <1>   0.2090 
 13 C       -9.0720     0.8760    -0.4830 C.3   1 <1>   0.2090 
 14 N       -9.1320     2.2150     0.1750 N.pl3 1 <1>  -0.8380 
 15 C      -10.3240     2.9250    -0.0320 C.ar  1 <1>   0.1000 
 16 C      -10.7380     3.4390    -1.2670 C.ar  1 <1>   0.1900 
 17 C      -11.1650     3.1440     1.0520 C.ar  1 <1>  -0.1500 
 18 F       -9.9830     3.2620    -2.3260 F     1 <1>  -0.1900 
 19 C      -11.9200     4.1340    -1.4320 C.ar  1 <1>  -0.1500 
 20 C      -12.3550     3.8390     0.9070 C.ar  1 <1>  -0.1500 
 21 C      -12.7350     4.3350    -0.3310 C.ar  1 <1>  -0.1500 
 22 H       -4.1980     0.4310    -2.2070 H     1 <1>   0.1500 
 23 H       -0.9390     2.8760    -1.0220 H     1 <1>   0.1500 
 24 H       -1.6840     2.7620     1.3330 H     1 <1>   0.1500 
 25 H       -3.6860     1.4930     1.9250 H     1 <1>   0.1500 
 26 H       -5.4110    -0.0450     1.3360 H     1 <1>   0.0800 
 27 H       -5.3370    -0.8650    -0.2080 H     1 <1>   0.0800 
 28 H       -6.4210     1.0560    -1.1980 H     1 <1>   0.4500 
 29 H       -5.7630     2.7980     0.2780 H     1 <1>   0.0800 
 30 H       -6.7160     2.0820     1.5480 H     1 <1>   0.0800 
 31 H       -7.9610    -0.1600     1.0180 H     1 <1>   0.0800 
 32 H       -7.7750    -0.8350    -0.5780 H     1 <1>   0.0800 
 33 H       -7.7620     3.3210    -1.0010 H     1 <1>   0.0800 
 34 H       -7.9670     3.9140     0.6210 H     1 <1>   0.0800 
 35 H       -9.9600     0.3200    -0.2320 H     1 <1>   0.0800 
 36 H       -9.0510     0.9940    -1.5530 H     1 <1>   0.0800 
 37 H      -10.8800     2.7650     2.0160 H     1 <1>   0.1500 
 38 H      -12.1970     4.5100    -2.4010 H     1 <1>   0.1500 
 39 H      -12.9900     3.9970     1.7620 H     1 <1>   0.1500 
 40 H      -13.6620     4.8740    -0.4350 H     1 <1>   0.1500 
@<TRIPOS>BOND
  1   1   2  1   
  2   2   3  ar  
  3   2   4  ar  
  4   3   5  ar  
  5   3  22  1   
  6   4   6  ar  
  7   4  23  1   
  8   5   7  ar  
  9   5   8  1   
 10   6   7  ar  
 11   6  24  1   
 12   7  25  1   
 13   8   9  1   
 14   8  26  1   
 15   8  27  1   
 16   9  10  1   
 17   9  11  1   
 18   9  28  1   
 19  10  12  1   
 20  10  29  1   
 21  10  30  1   
 22  11  13  1   
 23  11  31  1   
 24  11  32  1   
 25  12  14  1   
 26  12  33  1   
 27  12  34  1   
 28  13  14  1   
 29  13  35  1   
 30  13  36  1   
 31  14  15  1   
 32  15  16  ar  
 33  15  17  ar  
 34  16  18  1   
 35  16  19  ar  
 36  17  20  ar  
 37  17  37  1   
 38  19  21  ar  
 39  19  38  1   
 40  20  21  ar  
 41  20  39  1   
 42  21  40  1   
@<TRIPOS>SUBSTRUCTURE
  1 ****  10 GROUP 4 **** **** 0

# MOE 2024.06 (io_trps.svl 2023.06)
