@<TRIPOS>MOLECULE
NONAME
43 46 1 0 0 
SMALL
USER_CHARGES


@<TRIPOS>ATOM
  1 O        0.1510     0.1780    -1.0100 O.2   1 <1>  -0.5700 
  2 C       -0.2150    -0.6320    -0.1960 C.2   1 <1>   0.5690 
  3 N        0.7150    -1.2700     0.5440 N.am  1 <1>  -0.8000 
  4 C       -1.7140    -0.9440     0.0110 C.3   1 <1>   0.0610 
  5 C       -1.9920    -2.4470    -0.2400 C.3   1 <1>  -0.1600 
  6 C       -2.1390    -0.6020     1.4590 C.3   1 <1>  -0.1600 
  7 C       -2.6060    -0.1280    -0.9590 C.3   1 <1>  -0.1600 
  8 C       -3.4810    -2.8170    -0.0270 C.3   1 <1>   0.1430 
  9 C       -3.6230    -0.9340     1.6840 C.3   1 <1>  -0.0800 
 10 C       -4.0930    -0.4550    -0.7460 C.3   1 <1>  -0.0800 
 11 C       -3.7730    -4.3160    -0.2680 C.ar  1 <1>  -0.1430 
 12 C       -3.8520    -2.4350     1.4270 C.3   1 <1>  -0.1600 
 13 C       -4.3220    -1.9560    -0.9970 C.3   1 <1>  -0.1600 
 14 C       -4.4820    -0.1160     0.7040 C.3   1 <1>  -0.1600 
 15 C       -2.7980    -5.2270    -0.6660 C.ar  1 <1>  -0.1500 
 16 C       -5.0660    -4.7990    -0.0880 C.ar  1 <1>  -0.1500 
 17 C       -3.1040    -6.5620    -0.8680 C.ar  1 <1>  -0.1500 
 18 C       -5.3740    -6.1330    -0.2900 C.ar  1 <1>  -0.1500 
 19 C       -4.3930    -7.0250    -0.6800 C.ar  1 <1>  -0.1430 
 20 C       -4.7280    -8.4890    -0.9030 C.3   1 <1>  -0.0970 
 21 H        1.7000    -1.0510     0.3960 H     1 <1>   0.3700 
 22 H        0.4950    -1.9640     1.2560 H     1 <1>   0.3700 
 23 H       -1.3870    -3.0370     0.4250 H     1 <1>   0.0800 
 24 H       -1.7040    -2.6830    -1.2500 H     1 <1>   0.0800 
 25 H       -1.9700     0.4450     1.6450 H     1 <1>   0.0800 
 26 H       -1.5430    -1.1550     2.1630 H     1 <1>   0.0800 
 27 H       -2.3300    -0.3470    -1.9760 H     1 <1>   0.0800 
 28 H       -2.4420     0.9240    -0.8030 H     1 <1>   0.0800 
 29 H       -3.9000    -0.6930     2.6960 H     1 <1>   0.0800 
 30 H       -4.6920     0.1230    -1.4290 H     1 <1>   0.0800 
 31 H       -3.2630    -3.0190     2.1120 H     1 <1>   0.0800 
 32 H       -4.8840    -2.6620     1.6210 H     1 <1>   0.0800 
 33 H       -5.3680    -2.1720    -0.8770 H     1 <1>   0.0800 
 34 H       -4.0590    -2.2010    -2.0120 H     1 <1>   0.0800 
 35 H       -4.3380     0.9360     0.8820 H     1 <1>   0.0800 
 36 H       -5.5240    -0.3330     0.8620 H     1 <1>   0.0800 
 37 H       -1.7810    -4.9290    -0.8300 H     1 <1>   0.1500 
 38 H       -5.8570    -4.1380     0.2130 H     1 <1>   0.1500 
 39 H       -2.3290    -7.2410    -1.1770 H     1 <1>   0.1500 
 40 H       -6.3840    -6.4710    -0.1420 H     1 <1>   0.1500 
 41 H       -3.8730    -9.1060    -0.6940 H     1 <1>   0.0800 
 42 H       -5.0250    -8.6410    -1.9250 H     1 <1>   0.0800 
 43 H       -5.5320    -8.7920    -0.2580 H     1 <1>   0.0800 
@<TRIPOS>BOND
  1   1   2  2   
  2   2   3  am  
  3   2   4  1   
  4   3  21  1   
  5   3  22  1   
  6   4   5  1   
  7   4   6  1   
  8   4   7  1   
  9   5   8  1   
 10   5  23  1   
 11   5  24  1   
 12   6   9  1   
 13   6  25  1   
 14   6  26  1   
 15   7  10  1   
 16   7  27  1   
 17   7  28  1   
 18   8  11  1   
 19   8  12  1   
 20   8  13  1   
 21   9  12  1   
 22   9  14  1   
 23   9  29  1   
 24  10  13  1   
 25  10  14  1   
 26  10  30  1   
 27  11  15  ar  
 28  11  16  ar  
 29  12  31  1   
 30  12  32  1   
 31  13  33  1   
 32  13  34  1   
 33  14  35  1   
 34  14  36  1   
 35  15  17  ar  
 36  15  37  1   
 37  16  18  ar  
 38  16  38  1   
 39  17  19  ar  
 40  17  39  1   
 41  18  19  ar  
 42  18  40  1   
 43  19  20  1   
 44  20  41  1   
 45  20  42  1   
 46  20  43  1   
@<TRIPOS>SUBSTRUCTURE
  1 ****   8 GROUP 4 **** **** 0

# MOE 2024.06 (io_trps.svl 2023.06)
