@<TRIPOS>MOLECULE
NONAME
40 41 1 0 0 
SMALL
USER_CHARGES


@<TRIPOS>ATOM
  1 CL       0.3980     0.1680    -0.7120 Cl    1 <1>  -0.1770 
  2 C       -0.0070     1.8230    -0.3090 C.ar  1 <1>   0.1770 
  3 C       -1.3190     2.1920    -0.0390 C.ar  1 <1>  -0.1440 
  4 C        1.0330     2.7330    -0.2750 C.ar  1 <1>  -0.1500 
  5 C       -1.5840     3.5350     0.2530 C.ar  1 <1>   0.1170 
  6 C       -2.4300     1.1420    -0.0660 C.3   1 <1>  -0.0960 
  7 C        0.7680     4.0550     0.0300 C.ar  1 <1>  -0.1500 
  8 N       -2.8700     4.0210     0.5260 N.am  1 <1>  -0.5470 
  9 C       -0.5320     4.4450     0.2900 C.ar  1 <1>  -0.1500 
 10 C       -3.9610     4.0240    -0.2980 C.2   1 <1>   0.5690 
 11 O       -3.9400     3.5590    -1.4110 O.2   1 <1>  -0.5700 
 12 C       -5.2420     4.6560     0.2260 C.3   1 <1>  -0.0190 
 13 C       -6.4770     4.0550    -0.4640 C.3   1 <1>   0.1960 
 14 C       -5.2300     6.1850     0.0490 C.3   1 <1>  -0.1600 
 15 N       -7.7100     4.6300     0.1020 N.am  1 <1>  -0.8490 
 16 C       -6.5680     6.7770     0.5090 C.3   1 <1>  -0.1600 
 17 S       -9.1040     3.8620    -0.4830 S.o2  1 <1>   1.3330 
 18 C       -7.7610     6.0750    -0.1510 C.3   1 <1>   0.1960 
 19 O       -8.8690     3.5060    -1.8620 O.2   1 <1>  -0.6500 
 20 O      -10.2470     4.6710    -0.1290 O.2   1 <1>  -0.6500 
 21 C       -9.1780     2.3780     0.4990 C.3   1 <1>  -0.1350 
 22 H        2.0350     2.4070    -0.4880 H     1 <1>   0.1500 
 23 H       -2.0700     0.1840     0.2610 H     1 <1>   0.0800 
 24 H       -2.8090     1.0460    -1.0680 H     1 <1>   0.0800 
 25 H       -3.2410     1.4140     0.5830 H     1 <1>   0.0800 
 26 H        1.5690     4.7740     0.0600 H     1 <1>   0.1500 
 27 H       -2.9620     4.5370     1.3990 H     1 <1>   0.3700 
 28 H       -0.7340     5.4770     0.5160 H     1 <1>   0.1500 
 29 H       -5.3180     4.4240     1.2730 H     1 <1>   0.0800 
 30 H       -6.4710     2.9880    -0.3230 H     1 <1>   0.0800 
 31 H       -6.4340     4.2480    -1.5250 H     1 <1>   0.0800 
 32 H       -5.0760     6.4190    -0.9910 H     1 <1>   0.0800 
 33 H       -4.4230     6.6220     0.6120 H     1 <1>   0.0800 
 34 H       -6.6010     7.8260     0.2720 H     1 <1>   0.0800 
 35 H       -6.6640     6.6810     1.5770 H     1 <1>   0.0800 
 36 H       -8.6680     6.4880     0.2590 H     1 <1>   0.0800 
 37 H       -7.7610     6.2590    -1.2140 H     1 <1>   0.0800 
 38 H       -8.3180     1.7660     0.3210 H     1 <1>   0.0800 
 39 H      -10.0560     1.8180     0.2440 H     1 <1>   0.0800 
 40 H       -9.2210     2.6300     1.5400 H     1 <1>   0.0800 
@<TRIPOS>BOND
  1   1   2  1   
  2   2   3  ar  
  3   2   4  ar  
  4   3   5  ar  
  5   3   6  1   
  6   4   7  ar  
  7   4  22  1   
  8   5   8  1   
  9   5   9  ar  
 10   6  23  1   
 11   6  24  1   
 12   6  25  1   
 13   7   9  ar  
 14   7  26  1   
 15   8  10  am  
 16   8  27  1   
 17   9  28  1   
 18  10  11  2   
 19  10  12  1   
 20  12  13  1   
 21  12  14  1   
 22  12  29  1   
 23  13  15  1   
 24  13  30  1   
 25  13  31  1   
 26  14  16  1   
 27  14  32  1   
 28  14  33  1   
 29  15  17  am  
 30  15  18  1   
 31  16  18  1   
 32  16  34  1   
 33  16  35  1   
 34  17  19  2   
 35  17  20  2   
 36  17  21  1   
 37  18  36  1   
 38  18  37  1   
 39  21  38  1   
 40  21  39  1   
 41  21  40  1   
@<TRIPOS>SUBSTRUCTURE
  1 ****  10 GROUP 4 **** **** 0

# MOE 2024.06 (io_trps.svl 2023.06)
