@<TRIPOS>MOLECULE
NONAME
37 38 1 0 0 
SMALL
USER_CHARGES


@<TRIPOS>ATOM
  1 O        0.4870     0.0380    -1.3810 O.2   1 <1>  -0.5700 
  2 C        0.8390    -0.2660    -0.2590 C.2   1 <1>   0.6900 
  3 N        1.7400     0.4740     0.4470 N.am  1 <1>  -0.5470 
  4 N        0.3500    -1.3800     0.3390 N.am  1 <1>  -0.7300 
  5 C        2.3400     1.7110     0.1690 C.ar  1 <1>   0.1170 
  6 C       -0.6160    -2.3130    -0.2660 C.3   1 <1>   0.2200 
  7 C        1.7740     2.6530    -0.6850 C.ar  1 <1>  -0.1500 
  8 C        3.5450     2.0250     0.7890 C.ar  1 <1>  -0.1500 
  9 C       -1.9320    -2.2040     0.5170 C.3   1 <1>  -0.1600 
 10 C        0.0230    -3.7060    -0.2650 C.3   1 <1>  -0.1600 
 11 C        2.3950     3.8670    -0.9170 C.ar  1 <1>  -0.1500 
 12 C        4.1690     3.2380     0.5620 C.ar  1 <1>  -0.1500 
 13 C       -3.1040    -2.8800    -0.2110 C.3   1 <1>  -0.1600 
 14 C       -0.8780    -4.8380    -0.7860 C.3   1 <1>  -0.1600 
 15 C        3.5950     4.1620    -0.2930 C.ar  1 <1>  -0.1500 
 16 C       -3.2740    -4.3790     0.0840 C.3   1 <1>  -0.1600 
 17 C       -1.9870    -5.2100     0.2090 C.3   1 <1>  -0.1600 
 18 H        2.1030    -0.0020     1.2630 H     1 <1>   0.3700 
 19 H        0.5420    -1.5460     1.3210 H     1 <1>   0.3700 
 20 H       -0.7970    -2.0200    -1.2880 H     1 <1>   0.0800 
 21 H        0.8400     2.4410    -1.1740 H     1 <1>   0.1500 
 22 H        4.0020     1.3150     1.4530 H     1 <1>   0.1500 
 23 H       -2.1720    -1.1580     0.6020 H     1 <1>   0.0800 
 24 H       -1.8240    -2.6030     1.5090 H     1 <1>   0.0800 
 25 H        0.3540    -3.9510     0.7290 H     1 <1>   0.0800 
 26 H        0.8940    -3.6620    -0.8960 H     1 <1>   0.0800 
 27 H        1.9440     4.5810    -1.5830 H     1 <1>   0.1500 
 28 H        5.1020     3.4650     1.0470 H     1 <1>   0.1500 
 29 H       -2.9950    -2.7340    -1.2730 H     1 <1>   0.0800 
 30 H       -4.0170    -2.3850     0.0730 H     1 <1>   0.0800 
 31 H       -0.2580    -5.7060    -0.9270 H     1 <1>   0.0800 
 32 H       -1.2940    -4.5850    -1.7460 H     1 <1>   0.0800 
 33 H        4.0790     5.1070    -0.4730 H     1 <1>   0.1500 
 34 H       -3.8820    -4.8000    -0.6990 H     1 <1>   0.0800 
 35 H       -3.8280    -4.4900     1.0000 H     1 <1>   0.0800 
 36 H       -1.6090    -5.1340     1.2140 H     1 <1>   0.0800 
 37 H       -2.2510    -6.2430     0.0580 H     1 <1>   0.0800 
@<TRIPOS>BOND
  1   1   2  2   
  2   2   3  am  
  3   2   4  am  
  4   3   5  1   
  5   3  18  1   
  6   4   6  1   
  7   4  19  1   
  8   5   7  ar  
  9   5   8  ar  
 10   6   9  1   
 11   6  10  1   
 12   6  20  1   
 13   7  11  ar  
 14   7  21  1   
 15   8  12  ar  
 16   8  22  1   
 17   9  13  1   
 18   9  23  1   
 19   9  24  1   
 20  10  14  1   
 21  10  25  1   
 22  10  26  1   
 23  11  15  ar  
 24  11  27  1   
 25  12  15  ar  
 26  12  28  1   
 27  13  16  1   
 28  13  29  1   
 29  13  30  1   
 30  14  17  1   
 31  14  31  1   
 32  14  32  1   
 33  15  33  1   
 34  16  17  1   
 35  16  34  1   
 36  16  35  1   
 37  17  36  1   
 38  17  37  1   
@<TRIPOS>SUBSTRUCTURE
  1 ****   2 GROUP 4 **** **** 0

# MOE 2024.06 (io_trps.svl 2023.06)
