@<TRIPOS>MOLECULE
NONAME
42 43 1 0 0 
SMALL
USER_CHARGES


@<TRIPOS>ATOM
  1 O        0.5910     1.8720     1.0470 O.3   1 <1>  -0.3630 
  2 C       -0.6670     1.5550     0.6440 C.ar  1 <1>   0.0830 
  3 C        1.6160     1.8950     0.0840 C.3   1 <1>   0.1200 
  4 C       -0.9860     0.3600    -0.0160 C.ar  1 <1>   0.0830 
  5 C       -1.6590     2.4770     0.9350 C.ar  1 <1>  -0.1500 
  6 C        2.7430     1.0040     0.6030 C.3   1 <1>  -0.1600 
  7 O       -0.0010    -0.5590    -0.2550 O.3   1 <1>  -0.3630 
  8 C       -2.3080     0.1390    -0.3980 C.ar  1 <1>  -0.1500 
  9 C       -2.9680     2.2400     0.5560 C.ar  1 <1>  -0.1500 
 10 C        3.7830     0.7770    -0.4880 C.3   1 <1>   0.3430 
 11 C       -0.3280    -1.8880    -0.6030 C.3   1 <1>   0.0400 
 12 C       -3.2900     1.0740    -0.1130 C.ar  1 <1>  -0.1500 
 13 N        4.9000    -0.0620     0.0290 N.4   1 <1>  -0.9590 
 14 C        6.0890     0.0360    -0.8670 C.3   1 <1>   0.3430 
 15 C        4.4860    -1.4840     0.2340 C.3   1 <1>   0.3430 
 16 C        7.2690    -0.7150    -0.2450 C.3   1 <1>  -0.1600 
 17 C        5.6320    -2.2690     0.8760 C.3   1 <1>  -0.1600 
 18 C        6.9190    -2.1800     0.0470 C.3   1 <1>  -0.1600 
 19 H        1.9380     2.9160    -0.0260 H     1 <1>   0.0800 
 20 H        1.2300     1.5450    -0.8580 H     1 <1>   0.0800 
 21 H       -1.4020     3.3800     1.4570 H     1 <1>   0.1500 
 22 H        2.3110     0.0670     0.9030 H     1 <1>   0.0800 
 23 H        3.1930     1.4820     1.4540 H     1 <1>   0.0800 
 24 H       -2.6010    -0.7520    -0.9180 H     1 <1>   0.1500 
 25 H       -3.7330     2.9630     0.7820 H     1 <1>   0.1500 
 26 H        4.1660     1.7340    -0.8060 H     1 <1>   0.0800 
 27 H        3.3240     0.2980    -1.3390 H     1 <1>   0.0800 
 28 H        0.5750    -2.4690    -0.6050 H     1 <1>   0.0800 
 29 H       -0.7680    -1.8950    -1.5850 H     1 <1>   0.0800 
 30 H       -1.0130    -2.2820     0.1270 H     1 <1>   0.0800 
 31 H       -4.3090     0.8920    -0.4110 H     1 <1>   0.1500 
 32 H        5.1780     0.3080     0.9470 H     1 <1>   0.4500 
 33 H        6.3610     1.0690    -1.0120 H     1 <1>   0.0800 
 34 H        5.8580    -0.3930    -1.8290 H     1 <1>   0.0800 
 35 H        4.2320    -1.9300    -0.7140 H     1 <1>   0.0800 
 36 H        3.6210    -1.5350     0.8750 H     1 <1>   0.0800 
 37 H        7.5690    -0.2200     0.6630 H     1 <1>   0.0800 
 38 H        8.1050    -0.6780    -0.9220 H     1 <1>   0.0800 
 39 H        5.3410    -3.3010     0.9710 H     1 <1>   0.0800 
 40 H        5.8080    -1.8930     1.8700 H     1 <1>   0.0800 
 41 H        7.7300    -2.6510     0.5770 H     1 <1>   0.0800 
 42 H        6.7850    -2.7090    -0.8820 H     1 <1>   0.0800 
@<TRIPOS>BOND
  1   1   2  1   
  2   1   3  1   
  3   2   4  ar  
  4   2   5  ar  
  5   3   6  1   
  6   3  19  1   
  7   3  20  1   
  8   4   7  1   
  9   4   8  ar  
 10   5   9  ar  
 11   5  21  1   
 12   6  10  1   
 13   6  22  1   
 14   6  23  1   
 15   7  11  1   
 16   8  12  ar  
 17   8  24  1   
 18   9  12  ar  
 19   9  25  1   
 20  10  13  1   
 21  10  26  1   
 22  10  27  1   
 23  11  28  1   
 24  11  29  1   
 25  11  30  1   
 26  12  31  1   
 27  13  14  1   
 28  13  15  1   
 29  13  32  1   
 30  14  16  1   
 31  14  33  1   
 32  14  34  1   
 33  15  17  1   
 34  15  35  1   
 35  15  36  1   
 36  16  18  1   
 37  16  37  1   
 38  16  38  1   
 39  17  18  1   
 40  17  39  1   
 41  17  40  1   
 42  18  41  1   
 43  18  42  1   
@<TRIPOS>SUBSTRUCTURE
  1 ****   6 GROUP 4 **** **** 0

# MOE 2024.06 (io_trps.svl 2023.06)
