@<TRIPOS>MOLECULE
NONAME
35 36 1 0 0 
SMALL
USER_CHARGES


@<TRIPOS>ATOM
  1 F       -1.0930     0.0790     1.2070 F     1 <1>  -0.1900 
  2 C       -0.5790     1.1750     0.7150 C.ar  1 <1>   0.1900 
  3 C       -0.8880     1.5320    -0.5840 C.ar  1 <1>  -0.1500 
  4 C        0.2550     1.9360     1.5120 C.ar  1 <1>  -0.1500 
  5 C       -0.3380     2.6950    -1.0970 C.ar  1 <1>  -0.1500 
  6 C        0.8000     3.0980     0.9900 C.ar  1 <1>  -0.1500 
  7 C        0.5050     3.4800    -0.3200 C.ar  1 <1>   0.0830 
  8 O        0.9920     4.6010    -0.9130 O.3   1 <1>  -0.3630 
  9 C        1.9330     5.4550    -0.2970 C.3   1 <1>   0.1200 
 10 C        3.3340     4.8430    -0.4160 C.3   1 <1>  -0.1600 
 11 C        4.3960     5.7590     0.2080 C.3   1 <1>  -0.1600 
 12 C        5.7930     5.1380     0.0840 C.3   1 <1>  -0.1600 
 13 C        6.8650     6.0460     0.7000 C.3   1 <1>   0.0960 
 14 N        8.1960     5.4210     0.5820 N.pl3 1 <1>   0.0480 
 15 C        8.8140     4.6140     1.4720 C.2   1 <1>   0.0360 
 16 C        9.0620     5.5240    -0.4420 C.2   1 <1>  -0.3020 
 17 N        9.9820     4.2080     1.0940 N.2   1 <1>  -0.5650 
 18 C       10.1410     4.7810    -0.1130 C.2   1 <1>   0.0770 
 19 H       -1.5410     0.9150    -1.1740 H     1 <1>   0.1500 
 20 H        0.4680     1.6220     2.5180 H     1 <1>   0.1500 
 21 H       -0.5580     3.0020    -2.1030 H     1 <1>   0.1500 
 22 H        1.4460     3.6850     1.6130 H     1 <1>   0.1500 
 23 H        1.6420     5.6300     0.7230 H     1 <1>   0.0800 
 24 H        1.8980     6.3910    -0.8250 H     1 <1>   0.0800 
 25 H        3.5570     4.6940    -1.4580 H     1 <1>   0.0800 
 26 H        3.3550     3.8870     0.0760 H     1 <1>   0.0800 
 27 H        4.1640     5.9190     1.2480 H     1 <1>   0.0800 
 28 H        4.3810     6.7130    -0.2910 H     1 <1>   0.0800 
 29 H        6.0220     4.9780    -0.9570 H     1 <1>   0.0800 
 30 H        5.8060     4.1850     0.5850 H     1 <1>   0.0800 
 31 H        6.6560     6.2170     1.7400 H     1 <1>   0.0800 
 32 H        6.8850     6.9950     0.1940 H     1 <1>   0.0800 
 33 H        8.3580     4.3420     2.4080 H     1 <1>   0.1500 
 34 H        8.8720     6.1020    -1.3270 H     1 <1>   0.1500 
 35 H       11.0370     4.6250    -0.6910 H     1 <1>   0.1500 
@<TRIPOS>BOND
  1   1   2  1   
  2   2   3  ar  
  3   2   4  ar  
  4   3   5  ar  
  5   3  19  1   
  6   4   6  ar  
  7   4  20  1   
  8   5   7  ar  
  9   5  21  1   
 10   6   7  ar  
 11   6  22  1   
 12   7   8  1   
 13   8   9  1   
 14   9  10  1   
 15   9  23  1   
 16   9  24  1   
 17  10  11  1   
 18  10  25  1   
 19  10  26  1   
 20  11  12  1   
 21  11  27  1   
 22  11  28  1   
 23  12  13  1   
 24  12  29  1   
 25  12  30  1   
 26  13  14  1   
 27  13  31  1   
 28  13  32  1   
 29  14  15  1   
 30  14  16  1   
 31  15  17  2   
 32  15  33  1   
 33  16  18  2   
 34  16  34  1   
 35  17  18  1   
 36  18  35  1   
@<TRIPOS>SUBSTRUCTURE
  1 ****  10 GROUP 4 **** **** 0

# MOE 2024.06 (io_trps.svl 2023.06)
