@<TRIPOS>MOLECULE
NONAME
34 35 1 0 0 
SMALL
USER_CHARGES


@<TRIPOS>ATOM
  1 CL      -2.7410    -1.7560    -1.5390 Cl    1 <1>  -0.1770 
  2 C       -2.3080    -1.7330     0.1640 C.ar  1 <1>   0.1770 
  3 C       -3.1680    -1.1680     1.0880 C.ar  1 <1>   0.1770 
  4 C       -1.0920    -2.2870     0.5680 C.ar  1 <1>   0.1990 
  5 CL      -4.6920    -0.4780     0.5820 Cl    1 <1>  -0.1770 
  6 C       -2.8420    -1.1380     2.4320 C.ar  1 <1>  -0.1500 
  7 N       -0.2020    -2.8590    -0.3410 N.am  1 <1>  -0.6930 
  8 C       -0.7760    -2.2500     1.9230 C.ar  1 <1>  -0.1500 
  9 C       -1.6370    -1.6830     2.8480 C.ar  1 <1>  -0.1500 
 10 S       -0.0780    -4.5750    -0.5160 S.o2  1 <1>   1.3330 
 11 C        0.9410    -2.0220    -0.8260 C.3   1 <1>   0.2570 
 12 O        1.1770    -4.8270    -1.1860 O.2   1 <1>  -0.6500 
 13 O       -0.3430    -5.1580     0.7740 O.2   1 <1>  -0.6500 
 14 C       -1.4130    -4.9470    -1.6320 C.3   1 <1>  -0.1350 
 15 C        2.1410    -2.0070     0.1260 C.2   1 <1>   0.5690 
 16 O        2.3820    -0.9910     0.7350 O.2   1 <1>  -0.5700 
 17 N        2.8920    -3.1330     0.2620 N.am  1 <1>  -0.5790 
 18 C        4.0220    -3.3180     1.1780 C.3   1 <1>   0.0490 
 19 C        5.0600    -4.3250     0.8120 C.3   1 <1>  -0.2000 
 20 C        4.0990    -4.6050     1.9280 C.3   1 <1>  -0.2000 
 21 H       -3.5200    -0.6940     3.1400 H     1 <1>   0.1500 
 22 H        0.1570    -2.6750     2.2540 H     1 <1>   0.1500 
 23 H       -1.3690    -1.6670     3.8910 H     1 <1>   0.1500 
 24 H        0.6020    -1.0080    -0.9480 H     1 <1>   0.0800 
 25 H        1.2650    -2.3710    -1.7900 H     1 <1>   0.0800 
 26 H       -1.2950    -4.4020    -2.5480 H     1 <1>   0.0800 
 27 H       -2.3520    -4.6800    -1.1890 H     1 <1>   0.0800 
 28 H       -1.4250    -5.9960    -1.8540 H     1 <1>   0.0800 
 29 H        2.6040    -3.9800    -0.2510 H     1 <1>   0.3700 
 30 H        4.3260    -2.4090     1.6740 H     1 <1>   0.1000 
 31 H        6.0870    -4.1230     1.0640 H     1 <1>   0.1000 
 32 H        4.9580    -4.8660    -0.1120 H     1 <1>   0.1000 
 33 H        3.3210    -5.3340     1.7820 H     1 <1>   0.1000 
 34 H        4.4710    -4.5920     2.9370 H     1 <1>   0.1000 
@<TRIPOS>BOND
  1   1   2  1   
  2   2   3  ar  
  3   2   4  ar  
  4   3   5  1   
  5   3   6  ar  
  6   4   7  1   
  7   4   8  ar  
  8   6   9  ar  
  9   6  21  1   
 10   7  10  am  
 11   7  11  1   
 12   8   9  ar  
 13   8  22  1   
 14   9  23  1   
 15  10  12  2   
 16  10  13  2   
 17  10  14  1   
 18  11  15  1   
 19  11  24  1   
 20  11  25  1   
 21  14  26  1   
 22  14  27  1   
 23  14  28  1   
 24  15  16  2   
 25  15  17  am  
 26  17  18  1   
 27  17  29  1   
 28  18  19  1   
 29  18  20  1   
 30  18  30  1   
 31  19  20  1   
 32  19  31  1   
 33  19  32  1   
 34  20  33  1   
 35  20  34  1   
@<TRIPOS>SUBSTRUCTURE
  1 ****   7 GROUP 4 **** **** 0

# MOE 2024.06 (io_trps.svl 2023.06)
